# generated using pymatgen
data_Nd3Y2Er(CI5)2
_symmetry_space_group_name_H-M   'P 1'
_cell_length_a   7.73221460
_cell_length_b   9.48616312
_cell_length_c   9.57537400
_cell_angle_alpha   107.06750596
_cell_angle_beta   96.27512881
_cell_angle_gamma   104.78292713
_symmetry_Int_Tables_number   1
_chemical_formula_structural   Nd3Y2Er(CI5)2
_chemical_formula_sum   'Nd3 Y2 Er1 C2 I10'
_cell_volume   636.16883103
_cell_formula_units_Z   1
loop_
 _symmetry_equiv_pos_site_id
 _symmetry_equiv_pos_as_xyz
  1  'x, y, z'
loop_
 _atom_site_type_symbol
 _atom_site_label
 _atom_site_symmetry_multiplicity
 _atom_site_fract_x
 _atom_site_fract_y
 _atom_site_fract_z
 _atom_site_occupancy
  Nd  Nd0  1  0.029902  0.730789  0.921955  1
  Nd  Nd1  1  0.106915  0.038399  0.774014  1
  Nd  Nd2  1  0.970278  0.269035  0.078377  1
  Y  Y3  1  0.895228  0.961815  0.220980  1
  Y  Y4  1  0.372671  0.133192  0.177277  1
  Er  Er5  1  0.629886  0.868246  0.824359  1
  C  C6  1  0.088635  0.029911  0.043938  1
  C  C7  1  0.908147  0.968933  0.961665  1
  I  I8  1  0.208250  0.732071  0.641877  1
  I  I9  1  0.905430  0.634722  0.189058  1
  I  I10  1  0.089695  0.373167  0.813517  1
  I  I11  1  0.733878  0.911100  0.539869  1
  I  I12  1  0.253758  0.083766  0.456611  1
  I  I13  1  0.642104  0.545006  0.722724  1
  I  I14  1  0.462021  0.812482  0.093552  1
  I  I15  1  0.800015  0.260310  0.360261  1
  I  I16  1  0.357227  0.458909  0.274731  1
  I  I17  1  0.545958  0.188144  0.905237  1
