# generated using pymatgen
data_CsSm2(CoH6)2
_symmetry_space_group_name_H-M   'P 1'
_cell_length_a   4.93928000
_cell_length_b   4.93928140
_cell_length_c   9.57770800
_cell_angle_alpha   90.00000000
_cell_angle_beta   90.00000000
_cell_angle_gamma   120.00000399
_symmetry_Int_Tables_number   1
_chemical_formula_structural   CsSm2(CoH6)2
_chemical_formula_sum   'Cs1 Sm2 Co2 H12'
_cell_volume   202.35764787
_cell_formula_units_Z   1
loop_
 _symmetry_equiv_pos_site_id
 _symmetry_equiv_pos_as_xyz
  1  'x, y, z'
loop_
 _atom_site_type_symbol
 _atom_site_label
 _atom_site_symmetry_multiplicity
 _atom_site_fract_x
 _atom_site_fract_y
 _atom_site_fract_z
 _atom_site_occupancy
  Cs  Cs0  1  0.000000  0.000000  0.000000  1
  Sm  Sm1  1  0.666667  0.333333  0.376248  1
  Sm  Sm2  1  0.333333  0.666667  0.623752  1
  Co  Co3  1  0.666667  0.333333  0.693826  1
  Co  Co4  1  0.333333  0.666667  0.306174  1
  H  H5  1  0.180053  0.819947  0.397947  1
  H  H6  1  0.639894  0.819947  0.397947  1
  H  H7  1  0.180053  0.360106  0.397947  1
  H  H8  1  0.819947  0.180053  0.602053  1
  H  H9  1  0.360106  0.180053  0.602053  1
  H  H10  1  0.819947  0.639894  0.602053  1
  H  H11  1  0.524293  0.048587  0.794555  1
  H  H12  1  0.524293  0.475707  0.794555  1
  H  H13  1  0.951413  0.475707  0.794555  1
  H  H14  1  0.475707  0.951413  0.205445  1
  H  H15  1  0.475707  0.524293  0.205445  1
  H  H16  1  0.048587  0.524293  0.205445  1
