# generated using pymatgen
data_Y11In9CoRu3
_symmetry_space_group_name_H-M   'P 1'
_cell_length_a   13.11040507
_cell_length_b   13.09647541
_cell_length_c   3.70267400
_cell_angle_alpha   90.00000000
_cell_angle_beta   90.00000000
_cell_angle_gamma   112.39221193
_symmetry_Int_Tables_number   1
_chemical_formula_structural   Y11In9CoRu3
_chemical_formula_sum   'Y11 In9 Co1 Ru3'
_cell_volume   587.81259175
_cell_formula_units_Z   1
loop_
 _symmetry_equiv_pos_site_id
 _symmetry_equiv_pos_as_xyz
  1  'x, y, z'
loop_
 _atom_site_type_symbol
 _atom_site_label
 _atom_site_symmetry_multiplicity
 _atom_site_fract_x
 _atom_site_fract_y
 _atom_site_fract_z
 _atom_site_occupancy
  Y  Y0  1  0.079673  0.417872  0.000000  1
  Y  Y1  1  0.920048  0.582844  0.000000  1
  Y  Y2  1  0.417521  0.078999  0.000000  1
  Y  Y3  1  0.582128  0.917069  0.000000  1
  Y  Y4  1  0.624841  0.374922  0.000000  1
  Y  Y5  1  0.378497  0.627773  0.000000  1
  Y  Y6  1  0.837346  0.160992  0.000000  1
  Y  Y7  1  0.162846  0.837915  0.000000  1
  Y  Y8  1  0.999730  0.000424  0.000000  1
  Y  Y9  1  0.312308  0.312109  0.000000  1
  Y  Y10  1  0.686012  0.688866  0.000000  1
  In  In11  1  0.841041  0.368769  0.500000  1
  In  In12  1  0.159381  0.630000  0.500000  1
  In  In13  1  0.370261  0.840127  0.500000  1
  In  In14  1  0.630341  0.156642  0.500000  1
  In  In15  1  0.075905  0.220384  0.500000  1
  In  In16  1  0.922745  0.779784  0.500000  1
  In  In17  1  0.219234  0.074704  0.500000  1
  In  In18  1  0.779514  0.922670  0.500000  1
  In  In19  1  0.500123  0.502367  0.500000  1
  Co  Co20  1  0.550280  0.754516  0.500000  1
  Ru  Ru21  1  0.250807  0.449173  0.500000  1
  Ru  Ru22  1  0.749556  0.550299  0.500000  1
  Ru  Ru23  1  0.449861  0.250779  0.500000  1
