# generated using pymatgen
data_Sc2CoSb2Au
_symmetry_space_group_name_H-M   'P 1'
_cell_length_a   7.73371214
_cell_length_b   7.73371236
_cell_length_c   7.73371106
_cell_angle_alpha   33.49668976
_cell_angle_beta   33.49668556
_cell_angle_gamma   33.49668620
_symmetry_Int_Tables_number   1
_chemical_formula_structural   Sc2CoSb2Au
_chemical_formula_sum   'Sc2 Co1 Sb2 Au1'
_cell_volume   125.47775647
_cell_formula_units_Z   1
loop_
 _symmetry_equiv_pos_site_id
 _symmetry_equiv_pos_as_xyz
  1  'x, y, z'
loop_
 _atom_site_type_symbol
 _atom_site_label
 _atom_site_symmetry_multiplicity
 _atom_site_fract_x
 _atom_site_fract_y
 _atom_site_fract_z
 _atom_site_occupancy
  Sc  Sc0  1  0.243938  0.243938  0.243938  1
  Sc  Sc1  1  0.758414  0.758414  0.758414  1
  Co  Co2  1  0.872497  0.872497  0.872497  1
  Sb  Sb3  1  0.991533  0.991533  0.991533  1
  Sb  Sb4  1  0.507260  0.507260  0.507260  1
  Au  Au5  1  0.376358  0.376358  0.376358  1
