# generated using pymatgen
data_Na10VInAs6
_symmetry_space_group_name_H-M   'P 1'
_cell_length_a   7.65718900
_cell_length_b   8.44450108
_cell_length_c   16.09651100
_cell_angle_alpha   59.21234169
_cell_angle_beta   90.00000000
_cell_angle_gamma   90.00000000
_symmetry_Int_Tables_number   1
_chemical_formula_structural   Na10VInAs6
_chemical_formula_sum   'Na20 V2 In2 As12'
_cell_volume   894.13635506
_cell_formula_units_Z   2
loop_
 _symmetry_equiv_pos_site_id
 _symmetry_equiv_pos_as_xyz
  1  'x, y, z'
loop_
 _atom_site_type_symbol
 _atom_site_label
 _atom_site_symmetry_multiplicity
 _atom_site_fract_x
 _atom_site_fract_y
 _atom_site_fract_z
 _atom_site_occupancy
  Na  Na0  1  0.737653  0.938288  0.243561  1
  Na  Na1  1  0.262347  0.938288  0.743561  1
  Na  Na2  1  0.770914  0.054559  0.756831  1
  Na  Na3  1  0.229086  0.054559  0.256831  1
  Na  Na4  1  0.262624  0.244723  0.420895  1
  Na  Na5  1  0.737376  0.244723  0.920895  1
  Na  Na6  1  0.216289  0.755488  0.580417  1
  Na  Na7  1  0.783711  0.755488  0.080417  1
  Na  Na8  1  0.091806  0.342003  0.583909  1
  Na  Na9  1  0.908194  0.342003  0.083909  1
  Na  Na10  1  0.407690  0.653354  0.419285  1
  Na  Na11  1  0.592310  0.653354  0.919285  1
  Na  Na12  1  0.593672  0.335926  0.243067  1
  Na  Na13  1  0.406328  0.335926  0.743067  1
  Na  Na14  1  0.903049  0.666962  0.758435  1
  Na  Na15  1  0.096951  0.666962  0.258435  1
  Na  Na16  1  0.772402  0.414929  0.411506  1
  Na  Na17  1  0.227598  0.414929  0.911506  1
  Na  Na18  1  0.741161  0.584773  0.588362  1
  Na  Na19  1  0.258839  0.584773  0.088362  1
  V  V20  1  0.612930  0.990299  0.578862  1
  V  V21  1  0.387070  0.990299  0.078862  1
  In  In22  1  0.888575  0.012913  0.415400  1
  In  In23  1  0.111425  0.012913  0.915400  1
  As  As24  1  0.985420  0.335967  0.262471  1
  As  As25  1  0.014580  0.335967  0.762471  1
  As  As26  1  0.522864  0.707550  0.718333  1
  As  As27  1  0.477136  0.707550  0.218333  1
  As  As28  1  0.930403  0.022001  0.580851  1
  As  As29  1  0.069597  0.022001  0.080851  1
  As  As30  1  0.530208  0.977823  0.436129  1
  As  As31  1  0.469792  0.977823  0.936129  1
  As  As32  1  0.008519  0.708436  0.422227  1
  As  As33  1  0.991481  0.708436  0.922227  1
  As  As34  1  0.491550  0.254004  0.579458  1
  As  As35  1  0.508450  0.254004  0.079458  1
