# generated using pymatgen
data_Tb15Dy(C2Br3)4
_symmetry_space_group_name_H-M   'P 1'
_cell_length_a   3.71190500
_cell_length_b   10.82618351
_cell_length_c   20.59748396
_cell_angle_alpha   89.96495102
_cell_angle_beta   90.00000000
_cell_angle_gamma   90.00000000
_symmetry_Int_Tables_number   1
_chemical_formula_structural   Tb15Dy(C2Br3)4
_chemical_formula_sum   'Tb15 Dy1 C8 Br12'
_cell_volume   827.72548886
_cell_formula_units_Z   1
loop_
 _symmetry_equiv_pos_site_id
 _symmetry_equiv_pos_as_xyz
  1  'x, y, z'
loop_
 _atom_site_type_symbol
 _atom_site_label
 _atom_site_symmetry_multiplicity
 _atom_site_fract_x
 _atom_site_fract_y
 _atom_site_fract_z
 _atom_site_occupancy
  Tb  Tb0  1  0.750000  0.134498  0.419366  1
  Tb  Tb1  1  0.750000  0.634720  0.080617  1
  Tb  Tb2  1  0.250000  0.365229  0.919446  1
  Tb  Tb3  1  0.250000  0.865458  0.744768  1
  Tb  Tb4  1  0.750000  0.134642  0.255039  1
  Tb  Tb5  1  0.750000  0.634314  0.245007  1
  Tb  Tb6  1  0.250000  0.365445  0.755097  1
  Tb  Tb7  1  0.250000  0.869154  0.169088  1
  Tb  Tb8  1  0.750000  0.130818  0.830902  1
  Tb  Tb9  1  0.750000  0.630790  0.668954  1
  Tb  Tb10  1  0.250000  0.369373  0.331002  1
  Tb  Tb11  1  0.250000  0.900643  0.329098  1
  Tb  Tb12  1  0.750000  0.099345  0.670848  1
  Tb  Tb13  1  0.750000  0.599100  0.829047  1
  Tb  Tb14  1  0.250000  0.400752  0.170977  1
  Dy  Dy15  1  0.250000  0.865471  0.580970  1
  C  C16  1  0.250000  0.614124  0.750510  1
  C  C17  1  0.750000  0.386901  0.249371  1
  C  C18  1  0.750000  0.886616  0.250742  1
  C  C19  1  0.250000  0.112562  0.749164  1
  C  C20  1  0.250000  0.633666  0.156661  1
  C  C21  1  0.750000  0.366358  0.843362  1
  C  C22  1  0.750000  0.866595  0.656076  1
  C  C23  1  0.250000  0.133368  0.343403  1
  Br  Br24  1  0.250000  0.614360  0.555321  1
  Br  Br25  1  0.750000  0.387224  0.444618  1
  Br  Br26  1  0.750000  0.887551  0.055538  1
  Br  Br27  1  0.250000  0.112093  0.944193  1
  Br  Br28  1  0.250000  0.626742  0.953153  1
  Br  Br29  1  0.750000  0.373427  0.046673  1
  Br  Br30  1  0.750000  0.873509  0.454313  1
  Br  Br31  1  0.250000  0.124963  0.546963  1
  Br  Br32  1  0.250000  0.636685  0.357809  1
  Br  Br33  1  0.750000  0.363538  0.642258  1
  Br  Br34  1  0.750000  0.863309  0.857302  1
  Br  Br35  1  0.250000  0.136656  0.142342  1
