# generated using pymatgen
data_ErTmSi2NiOs
_symmetry_space_group_name_H-M   'P 1'
_cell_length_a   4.20215500
_cell_length_b   6.81596575
_cell_length_c   7.17684205
_cell_angle_alpha   91.75892731
_cell_angle_beta   90.00000000
_cell_angle_gamma   90.00000000
_symmetry_Int_Tables_number   1
_chemical_formula_structural   ErTmSi2NiOs
_chemical_formula_sum   'Er2 Tm2 Si4 Ni2 Os2'
_cell_volume   205.46042214
_cell_formula_units_Z   2
loop_
 _symmetry_equiv_pos_site_id
 _symmetry_equiv_pos_as_xyz
  1  'x, y, z'
loop_
 _atom_site_type_symbol
 _atom_site_label
 _atom_site_symmetry_multiplicity
 _atom_site_fract_x
 _atom_site_fract_y
 _atom_site_fract_z
 _atom_site_occupancy
  Er  Er0  1  0.750000  0.007143  0.700913  1
  Er  Er1  1  0.250000  0.992857  0.299087  1
  Tm  Tm2  1  0.250000  0.490439  0.182624  1
  Tm  Tm3  1  0.750000  0.509561  0.817376  1
  Si  Si4  1  0.250000  0.802092  0.897127  1
  Si  Si5  1  0.750000  0.197908  0.102873  1
  Si  Si6  1  0.750000  0.701449  0.399151  1
  Si  Si7  1  0.250000  0.298551  0.600849  1
  Ni  Ni8  1  0.750000  0.834341  0.074572  1
  Ni  Ni9  1  0.250000  0.165659  0.925428  1
  Os  Os10  1  0.250000  0.658698  0.569928  1
  Os  Os11  1  0.750000  0.341302  0.430072  1
