# generated using pymatgen
data_Tb3Al12FeIr3
_symmetry_space_group_name_H-M   'P 1'
_cell_length_a   8.81048200
_cell_length_b   8.81048130
_cell_length_c   9.44602800
_cell_angle_alpha   90.00000000
_cell_angle_beta   90.00000000
_cell_angle_gamma   119.99999512
_symmetry_Int_Tables_number   1
_chemical_formula_structural   Tb3Al12FeIr3
_chemical_formula_sum   'Tb6 Al24 Fe2 Ir6'
_cell_volume   635.00798088
_cell_formula_units_Z   2
loop_
 _symmetry_equiv_pos_site_id
 _symmetry_equiv_pos_as_xyz
  1  'x, y, z'
loop_
 _atom_site_type_symbol
 _atom_site_label
 _atom_site_symmetry_multiplicity
 _atom_site_fract_x
 _atom_site_fract_y
 _atom_site_fract_z
 _atom_site_occupancy
  Tb  Tb0  1  0.386282  0.193141  0.250000  1
  Tb  Tb1  1  0.806859  0.193141  0.250000  1
  Tb  Tb2  1  0.806859  0.613718  0.250000  1
  Tb  Tb3  1  0.613718  0.806859  0.750000  1
  Tb  Tb4  1  0.193141  0.806859  0.750000  1
  Tb  Tb5  1  0.193141  0.386282  0.750000  1
  Al  Al6  1  0.437191  0.874382  0.250000  1
  Al  Al7  1  0.125618  0.562809  0.250000  1
  Al  Al8  1  0.437191  0.562809  0.250000  1
  Al  Al9  1  0.562809  0.125618  0.750000  1
  Al  Al10  1  0.874382  0.437191  0.750000  1
  Al  Al11  1  0.562809  0.437191  0.750000  1
  Al  Al12  1  0.159963  0.840037  0.424515  1
  Al  Al13  1  0.159963  0.319929  0.424515  1
  Al  Al14  1  0.680071  0.840037  0.424515  1
  Al  Al15  1  0.840037  0.159963  0.575485  1
  Al  Al16  1  0.840037  0.680071  0.575485  1
  Al  Al17  1  0.319929  0.159963  0.575485  1
  Al  Al18  1  0.840037  0.159963  0.924515  1
  Al  Al19  1  0.840037  0.680071  0.924515  1
  Al  Al20  1  0.319929  0.159963  0.924515  1
  Al  Al21  1  0.159963  0.840037  0.075485  1
  Al  Al22  1  0.159963  0.319929  0.075485  1
  Al  Al23  1  0.680071  0.840037  0.075485  1
  Al  Al24  1  0.333333  0.666667  0.523663  1
  Al  Al25  1  0.666667  0.333333  0.476337  1
  Al  Al26  1  0.666667  0.333333  0.023663  1
  Al  Al27  1  0.333333  0.666667  0.976337  1
  Al  Al28  1  0.000000  0.000000  0.250000  1
  Al  Al29  1  0.000000  0.000000  0.750000  1
  Fe  Fe30  1  0.000000  0.000000  0.500000  1
  Fe  Fe31  1  0.000000  0.000000  0.000000  1
  Ir  Ir32  1  0.500000  0.000000  0.500000  1
  Ir  Ir33  1  0.000000  0.500000  0.500000  1
  Ir  Ir34  1  0.500000  0.500000  0.500000  1
  Ir  Ir35  1  0.500000  0.000000  0.000000  1
  Ir  Ir36  1  0.000000  0.500000  0.000000  1
  Ir  Ir37  1  0.500000  0.500000  0.000000  1
