# generated using pymatgen
data_TbTmB6Rh
_symmetry_space_group_name_H-M   'P 1'
_cell_length_a   3.64778900
_cell_length_b   9.14368100
_cell_length_c   11.49296400
_cell_angle_alpha   90.00000000
_cell_angle_beta   90.00000000
_cell_angle_gamma   90.00000000
_symmetry_Int_Tables_number   1
_chemical_formula_structural   TbTmB6Rh
_chemical_formula_sum   'Tb4 Tm4 B24 Rh4'
_cell_volume   383.33883789
_cell_formula_units_Z   4
loop_
 _symmetry_equiv_pos_site_id
 _symmetry_equiv_pos_as_xyz
  1  'x, y, z'
loop_
 _atom_site_type_symbol
 _atom_site_label
 _atom_site_symmetry_multiplicity
 _atom_site_fract_x
 _atom_site_fract_y
 _atom_site_fract_z
 _atom_site_occupancy
  Tb  Tb0  1  0.500000  0.322034  0.413887  1
  Tb  Tb1  1  0.500000  0.677966  0.586113  1
  Tb  Tb2  1  0.500000  0.177966  0.913887  1
  Tb  Tb3  1  0.500000  0.822034  0.086113  1
  Tm  Tm4  1  0.500000  0.444270  0.126710  1
  Tm  Tm5  1  0.500000  0.555730  0.873290  1
  Tm  Tm6  1  0.500000  0.055730  0.626710  1
  Tm  Tm7  1  0.500000  0.944270  0.373290  1
  B  B8  1  0.000000  0.106817  0.471221  1
  B  B9  1  0.000000  0.893183  0.528779  1
  B  B10  1  0.000000  0.393183  0.971221  1
  B  B11  1  0.000000  0.606817  0.028779  1
  B  B12  1  0.000000  0.132496  0.316760  1
  B  B13  1  0.000000  0.867504  0.683240  1
  B  B14  1  0.000000  0.367504  0.816760  1
  B  B15  1  0.000000  0.632496  0.183240  1
  B  B16  1  0.000000  0.054711  0.065909  1
  B  B17  1  0.000000  0.945289  0.934091  1
  B  B18  1  0.000000  0.445289  0.565909  1
  B  B19  1  0.000000  0.554711  0.434091  1
  B  B20  1  0.000000  0.483405  0.285898  1
  B  B21  1  0.000000  0.516595  0.714102  1
  B  B22  1  0.000000  0.016595  0.785898  1
  B  B23  1  0.000000  0.983405  0.214102  1
  B  B24  1  0.000000  0.250579  0.079989  1
  B  B25  1  0.000000  0.749421  0.920011  1
  B  B26  1  0.000000  0.249421  0.579989  1
  B  B27  1  0.000000  0.750579  0.420011  1
  B  B28  1  0.000000  0.294212  0.235534  1
  B  B29  1  0.000000  0.705788  0.764466  1
  B  B30  1  0.000000  0.205788  0.735534  1
  B  B31  1  0.000000  0.794212  0.264466  1
  Rh  Rh32  1  0.500000  0.140233  0.180188  1
  Rh  Rh33  1  0.500000  0.859767  0.819812  1
  Rh  Rh34  1  0.500000  0.359767  0.680188  1
  Rh  Rh35  1  0.500000  0.640233  0.319812  1
