# generated using pymatgen
data_TiInIr3Se8
_symmetry_space_group_name_H-M   'P 1'
_cell_length_a   7.32741058
_cell_length_b   7.32741108
_cell_length_c   7.32741033
_cell_angle_alpha   63.25634914
_cell_angle_beta   63.25635118
_cell_angle_gamma   63.25634666
_symmetry_Int_Tables_number   1
_chemical_formula_structural   TiInIr3Se8
_chemical_formula_sum   'Ti1 In1 Ir3 Se8'
_cell_volume   298.25750076
_cell_formula_units_Z   1
loop_
 _symmetry_equiv_pos_site_id
 _symmetry_equiv_pos_as_xyz
  1  'x, y, z'
loop_
 _atom_site_type_symbol
 _atom_site_label
 _atom_site_symmetry_multiplicity
 _atom_site_fract_x
 _atom_site_fract_y
 _atom_site_fract_z
 _atom_site_occupancy
  Ti  Ti0  1  0.590306  0.590306  0.590306  1
  In  In1  1  0.016915  0.016915  0.016915  1
  Ir  Ir2  1  0.626336  0.626336  0.139405  1
  Ir  Ir3  1  0.626336  0.139405  0.626336  1
  Ir  Ir4  1  0.139405  0.626336  0.626336  1
  Se  Se5  1  0.366582  0.366582  0.868724  1
  Se  Se6  1  0.366582  0.868724  0.366582  1
  Se  Se7  1  0.868724  0.366582  0.366582  1
  Se  Se8  1  0.390526  0.390526  0.390526  1
  Se  Se9  1  0.853971  0.853971  0.435230  1
  Se  Se10  1  0.853971  0.435230  0.853971  1
  Se  Se11  1  0.435230  0.853971  0.853971  1
  Se  Se12  1  0.865112  0.865112  0.865112  1
