# generated using pymatgen
data_Mn4P7N12
_symmetry_space_group_name_H-M   'P 1'
_cell_length_a   7.22525641
_cell_length_b   7.22525657
_cell_length_c   7.22525700
_cell_angle_alpha   109.47122185
_cell_angle_beta   109.47122229
_cell_angle_gamma   109.47122249
_symmetry_Int_Tables_number   1
_chemical_formula_structural   Mn4P7N12
_chemical_formula_sum   'Mn4 P7 N12'
_cell_volume   290.36075742
_cell_formula_units_Z   1
loop_
 _symmetry_equiv_pos_site_id
 _symmetry_equiv_pos_as_xyz
  1  'x, y, z'
loop_
 _atom_site_type_symbol
 _atom_site_label
 _atom_site_symmetry_multiplicity
 _atom_site_fract_x
 _atom_site_fract_y
 _atom_site_fract_z
 _atom_site_occupancy
  Mn  Mn0  1  0.668841  0.000000  0.000000  1
  Mn  Mn1  1  0.000000  0.668841  0.000000  1
  Mn  Mn2  1  0.331160  0.331160  0.331160  1
  Mn  Mn3  1  0.000000  0.000000  0.668841  1
  P  P4  1  0.750000  0.500000  0.250000  1
  P  P5  1  0.500000  0.750000  0.250000  1
  P  P6  1  0.750000  0.250000  0.500000  1
  P  P7  1  0.250000  0.750000  0.500000  1
  P  P8  1  0.500000  0.250000  0.750000  1
  P  P9  1  0.250000  0.500000  0.750000  1
  P  P10  1  0.000000  0.000000  0.000000  1
  N  N11  1  0.725692  0.441858  0.000000  1
  N  N12  1  0.441858  0.725692  0.000000  1
  N  N13  1  0.716167  0.274309  0.274309  1
  N  N14  1  0.274309  0.716167  0.274309  1
  N  N15  1  0.558141  0.558141  0.283834  1
  N  N16  1  0.725692  0.000000  0.441858  1
  N  N17  1  0.000000  0.725692  0.441858  1
  N  N18  1  0.558141  0.283834  0.558141  1
  N  N19  1  0.283834  0.558141  0.558141  1
  N  N20  1  0.274309  0.274309  0.716167  1
  N  N21  1  0.441858  0.000000  0.725692  1
  N  N22  1  0.000000  0.441858  0.725692  1
