# generated using pymatgen
data_LiDy2HoZnIn3Ir
_symmetry_space_group_name_H-M   'P 1'
_cell_length_a   7.76335400
_cell_length_b   7.76691469
_cell_length_c   3.82534000
_cell_angle_alpha   90.00000000
_cell_angle_beta   90.00000000
_cell_angle_gamma   119.96453396
_symmetry_Int_Tables_number   1
_chemical_formula_structural   LiDy2HoZnIn3Ir
_chemical_formula_sum   'Li1 Dy2 Ho1 Zn1 In3 Ir1'
_cell_volume   199.82678238
_cell_formula_units_Z   1
loop_
 _symmetry_equiv_pos_site_id
 _symmetry_equiv_pos_as_xyz
  1  'x, y, z'
loop_
 _atom_site_type_symbol
 _atom_site_label
 _atom_site_symmetry_multiplicity
 _atom_site_fract_x
 _atom_site_fract_y
 _atom_site_fract_z
 _atom_site_occupancy
  Li  Li0  1  0.000012  0.999824  0.000000  1
  Dy  Dy1  1  0.397100  0.972363  0.000000  1
  Dy  Dy2  1  0.027545  0.424458  0.000000  1
  Ho  Ho3  1  0.574903  0.603416  0.000000  1
  Zn  Zn4  1  0.666445  0.333809  0.500000  1
  In  In5  1  0.991921  0.736896  0.500000  1
  In  In6  1  0.263280  0.255767  0.500000  1
  In  In7  1  0.744704  0.007107  0.500000  1
  Ir  Ir8  1  0.334090  0.666358  0.500000  1
