# generated using pymatgen
data_Dy2Er4ZrCo17P12
_symmetry_space_group_name_H-M   'P 1'
_cell_length_a   3.70303500
_cell_length_b   10.58254600
_cell_length_c   12.28862000
_cell_angle_alpha   90.00000000
_cell_angle_beta   90.00000000
_cell_angle_gamma   90.00000000
_symmetry_Int_Tables_number   1
_chemical_formula_structural   Dy2Er4ZrCo17P12
_chemical_formula_sum   'Dy2 Er4 Zr1 Co17 P12'
_cell_volume   481.56076601
_cell_formula_units_Z   1
loop_
 _symmetry_equiv_pos_site_id
 _symmetry_equiv_pos_as_xyz
  1  'x, y, z'
loop_
 _atom_site_type_symbol
 _atom_site_label
 _atom_site_symmetry_multiplicity
 _atom_site_fract_x
 _atom_site_fract_y
 _atom_site_fract_z
 _atom_site_occupancy
  Dy  Dy0  1  0.000000  0.500000  0.529362  1
  Dy  Dy1  1  0.500000  0.000000  0.477681  1
  Er  Er2  1  0.500000  0.821615  0.207348  1
  Er  Er3  1  0.500000  0.178385  0.207348  1
  Er  Er4  1  0.000000  0.682984  0.795923  1
  Er  Er5  1  0.000000  0.317016  0.795923  1
  Zr  Zr6  1  0.500000  0.500000  0.154113  1
  Co  Co7  1  0.000000  0.000000  0.837088  1
  Co  Co8  1  0.500000  0.500000  0.703132  1
  Co  Co9  1  0.000000  0.000000  0.295882  1
  Co  Co10  1  0.000000  0.500000  0.982680  1
  Co  Co11  1  0.500000  0.000000  0.013803  1
  Co  Co12  1  0.500000  0.326811  0.987687  1
  Co  Co13  1  0.500000  0.673189  0.987687  1
  Co  Co14  1  0.000000  0.161345  0.001506  1
  Co  Co15  1  0.000000  0.838655  0.001506  1
  Co  Co16  1  0.500000  0.294153  0.434515  1
  Co  Co17  1  0.500000  0.705847  0.434515  1
  Co  Co18  1  0.000000  0.201978  0.570626  1
  Co  Co19  1  0.000000  0.798022  0.570626  1
  Co  Co20  1  0.500000  0.880006  0.707984  1
  Co  Co21  1  0.500000  0.119994  0.707984  1
  Co  Co22  1  0.000000  0.623194  0.297476  1
  Co  Co23  1  0.000000  0.376806  0.297476  1
  P  P24  1  0.500000  0.500000  0.880857  1
  P  P25  1  0.000000  0.000000  0.116963  1
  P  P26  1  0.500000  0.500000  0.361839  1
  P  P27  1  0.000000  0.000000  0.655156  1
  P  P28  1  0.500000  0.309006  0.618423  1
  P  P29  1  0.500000  0.690994  0.618423  1
  P  P30  1  0.000000  0.188171  0.386044  1
  P  P31  1  0.000000  0.811829  0.386044  1
  P  P32  1  0.500000  0.852144  0.888308  1
  P  P33  1  0.500000  0.147856  0.888308  1
  P  P34  1  0.000000  0.665640  0.099883  1
  P  P35  1  0.000000  0.334360  0.099883  1
