# generated using pymatgen
data_Lu2FeCo3(SiC)2
_symmetry_space_group_name_H-M   'P 1'
_cell_length_a   5.53125896
_cell_length_b   5.53125921
_cell_length_c   6.69108902
_cell_angle_alpha   89.99108912
_cell_angle_beta   90.00891053
_cell_angle_gamma   141.55834170
_symmetry_Int_Tables_number   1
_chemical_formula_structural   Lu2FeCo3(SiC)2
_chemical_formula_sum   'Lu2 Fe1 Co3 Si2 C2'
_cell_volume   127.27345691
_cell_formula_units_Z   1
loop_
 _symmetry_equiv_pos_site_id
 _symmetry_equiv_pos_as_xyz
  1  'x, y, z'
loop_
 _atom_site_type_symbol
 _atom_site_label
 _atom_site_symmetry_multiplicity
 _atom_site_fract_x
 _atom_site_fract_y
 _atom_site_fract_z
 _atom_site_occupancy
  Lu  Lu0  1  0.548838  0.451162  0.250602  1
  Lu  Lu1  1  0.451065  0.548935  0.749124  1
  Fe  Fe2  1  0.836453  0.163547  0.442271  1
  Co  Co3  1  0.835718  0.164282  0.055534  1
  Co  Co4  1  0.163914  0.836086  0.945740  1
  Co  Co5  1  0.164711  0.835289  0.557366  1
  Si  Si6  1  0.270912  0.729088  0.251670  1
  Si  Si7  1  0.729921  0.270079  0.748463  1
  C  C8  1  0.999683  0.000317  0.999798  1
  C  C9  1  0.998786  0.001214  0.499433  1
