# generated using pymatgen
data_Hf2TaReSi3Ru2
_symmetry_space_group_name_H-M   'P 1'
_cell_length_a   7.55887895
_cell_length_b   7.55887870
_cell_length_c   7.55887884
_cell_angle_alpha   126.93620213
_cell_angle_beta   122.80984534
_cell_angle_gamma   81.79136321
_symmetry_Int_Tables_number   1
_chemical_formula_structural   Hf2TaReSi3Ru2
_chemical_formula_sum   'Hf4 Ta2 Re2 Si6 Ru4'
_cell_volume   279.18864859
_cell_formula_units_Z   2
loop_
 _symmetry_equiv_pos_site_id
 _symmetry_equiv_pos_as_xyz
  1  'x, y, z'
loop_
 _atom_site_type_symbol
 _atom_site_label
 _atom_site_symmetry_multiplicity
 _atom_site_fract_x
 _atom_site_fract_y
 _atom_site_fract_z
 _atom_site_occupancy
  Hf  Hf0  1  0.944850  0.903673  0.458824  1
  Hf  Hf1  1  0.055150  0.513973  0.958824  1
  Hf  Hf2  1  0.531926  0.512979  0.481053  1
  Hf  Hf3  1  0.468074  0.949128  0.981053  1
  Ta  Ta4  1  0.747770  0.079472  0.831702  1
  Ta  Ta5  1  0.252230  0.083932  0.331702  1
  Re  Re6  1  0.500000  0.751225  0.251225  1
  Re  Re7  1  0.000000  0.751225  0.751225  1
  Si  Si8  1  0.721782  0.451127  0.229345  1
  Si  Si9  1  0.278218  0.507563  0.729345  1
  Si  Si10  1  0.672396  0.176025  0.516456  1
  Si  Si11  1  0.327604  0.844061  0.503629  1
  Si  Si12  1  0.159568  0.176025  0.003629  1
  Si  Si13  1  0.840432  0.844061  0.016456  1
  Ru  Ru14  1  0.904630  0.253844  0.407453  1
  Ru  Ru15  1  0.095370  0.502823  0.349213  1
  Ru  Ru16  1  0.346389  0.253844  0.849213  1
  Ru  Ru17  1  0.653611  0.502823  0.907453  1
