# generated using pymatgen
data_Na3LiMoO5
_symmetry_space_group_name_H-M   'P 1'
_cell_length_a   5.70071705
_cell_length_b   6.06866968
_cell_length_c   7.64060673
_cell_angle_alpha   76.57093001
_cell_angle_beta   71.43941114
_cell_angle_gamma   73.51915414
_symmetry_Int_Tables_number   1
_chemical_formula_structural   Na3LiMoO5
_chemical_formula_sum   'Na6 Li2 Mo2 O10'
_cell_volume   237.34150454
_cell_formula_units_Z   2
loop_
 _symmetry_equiv_pos_site_id
 _symmetry_equiv_pos_as_xyz
  1  'x, y, z'
loop_
 _atom_site_type_symbol
 _atom_site_label
 _atom_site_symmetry_multiplicity
 _atom_site_fract_x
 _atom_site_fract_y
 _atom_site_fract_z
 _atom_site_occupancy
  Na  Na0  1  0.701377  0.049128  0.597109  1
  Na  Na1  1  0.322153  0.446137  0.386610  1
  Na  Na2  1  0.517770  0.748005  0.990186  1
  Na  Na3  1  0.677847  0.553863  0.613390  1
  Na  Na4  1  0.298623  0.950872  0.402891  1
  Na  Na5  1  0.482230  0.251995  0.009814  1
  Li  Li6  1  0.888806  0.357167  0.152968  1
  Li  Li7  1  0.111194  0.642833  0.847032  1
  Mo  Mo8  1  0.100268  0.160537  0.794291  1
  Mo  Mo9  1  0.899732  0.839463  0.205709  1
  O  O10  1  0.012364  0.229100  0.571568  1
  O  O11  1  0.850070  0.947610  0.924323  1
  O  O12  1  0.845846  0.421453  0.893693  1
  O  O13  1  0.646972  0.666042  0.272086  1
  O  O14  1  0.987636  0.770900  0.428432  1
  O  O15  1  0.350441  0.878844  0.725740  1
  O  O16  1  0.649559  0.121156  0.274260  1
  O  O17  1  0.149930  0.052390  0.075677  1
  O  O18  1  0.154154  0.578547  0.106307  1
  O  O19  1  0.353028  0.333958  0.727914  1
