# generated using pymatgen
data_HoGaTeO6
_symmetry_space_group_name_H-M   'P 1'
_cell_length_a   5.13296500
_cell_length_b   5.13299390
_cell_length_c   9.60280400
_cell_angle_alpha   90.00071438
_cell_angle_beta   89.99963164
_cell_angle_gamma   120.00018111
_symmetry_Int_Tables_number   1
_chemical_formula_structural   HoGaTeO6
_chemical_formula_sum   'Ho2 Ga2 Te2 O12'
_cell_volume   219.11239943
_cell_formula_units_Z   2
loop_
 _symmetry_equiv_pos_site_id
 _symmetry_equiv_pos_as_xyz
  1  'x, y, z'
loop_
 _atom_site_type_symbol
 _atom_site_label
 _atom_site_symmetry_multiplicity
 _atom_site_fract_x
 _atom_site_fract_y
 _atom_site_fract_z
 _atom_site_occupancy
  Ho  Ho0  1  0.999989  0.999994  0.999998  1
  Ho  Ho1  1  0.999990  0.999982  0.499999  1
  Ga  Ga2  1  0.333336  0.666669  0.250000  1
  Ga  Ga3  1  0.666668  0.333335  0.750000  1
  Te  Te4  1  0.666667  0.333330  0.249999  1
  Te  Te5  1  0.333333  0.666667  0.750001  1
  O  O6  1  0.643638  0.635639  0.137585  1
  O  O7  1  0.364358  0.007994  0.137585  1
  O  O8  1  0.992007  0.356363  0.137586  1
  O  O9  1  0.992008  0.635643  0.362415  1
  O  O10  1  0.364359  0.356368  0.362416  1
  O  O11  1  0.643638  0.008001  0.362415  1
  O  O12  1  0.356364  0.992004  0.637585  1
  O  O13  1  0.635642  0.643634  0.637585  1
  O  O14  1  0.007997  0.364360  0.637584  1
  O  O15  1  0.007998  0.643640  0.862416  1
  O  O16  1  0.635642  0.992011  0.862415  1
  O  O17  1  0.356365  0.364366  0.862417  1
