# generated using pymatgen
data_CaHo3Er3Co6Sn23
_symmetry_space_group_name_H-M   'P 1'
_cell_length_a   9.70680000
_cell_length_b   9.70679916
_cell_length_c   9.94863000
_cell_angle_alpha   90.00000000
_cell_angle_beta   90.00000000
_cell_angle_gamma   119.99999604
_symmetry_Int_Tables_number   1
_chemical_formula_structural   CaHo3Er3Co6Sn23
_chemical_formula_sum   'Ca1 Ho3 Er3 Co6 Sn23'
_cell_volume   811.79440505
_cell_formula_units_Z   1
loop_
 _symmetry_equiv_pos_site_id
 _symmetry_equiv_pos_as_xyz
  1  'x, y, z'
loop_
 _atom_site_type_symbol
 _atom_site_label
 _atom_site_symmetry_multiplicity
 _atom_site_fract_x
 _atom_site_fract_y
 _atom_site_fract_z
 _atom_site_occupancy
  Ca  Ca0  1  0.000000  0.000000  0.999982  1
  Ho  Ho1  1  0.041691  0.520846  0.306372  1
  Ho  Ho2  1  0.479154  0.958309  0.306372  1
  Ho  Ho3  1  0.479154  0.520846  0.306372  1
  Er  Er4  1  0.520720  0.479280  0.693727  1
  Er  Er5  1  0.520720  0.041440  0.693727  1
  Er  Er6  1  0.958560  0.479280  0.693727  1
  Co  Co7  1  0.168783  0.831217  0.801283  1
  Co  Co8  1  0.168783  0.337565  0.801283  1
  Co  Co9  1  0.662435  0.831217  0.801283  1
  Co  Co10  1  0.337476  0.168739  0.198615  1
  Co  Co11  1  0.831261  0.662524  0.198615  1
  Co  Co12  1  0.831261  0.168739  0.198615  1
  Sn  Sn13  1  0.666667  0.333333  0.183429  1
  Sn  Sn14  1  0.666667  0.333333  0.880108  1
  Sn  Sn15  1  0.333333  0.666667  0.119247  1
  Sn  Sn16  1  0.346229  0.346242  0.999928  1
  Sn  Sn17  1  0.000012  0.653771  0.999928  1
  Sn  Sn18  1  0.653758  0.999988  0.999928  1
  Sn  Sn19  1  0.653758  0.653771  0.999928  1
  Sn  Sn20  1  0.333333  0.666667  0.816473  1
  Sn  Sn21  1  0.437419  0.218710  0.452245  1
  Sn  Sn22  1  0.218706  0.781294  0.548178  1
  Sn  Sn23  1  0.218706  0.437410  0.548178  1
  Sn  Sn24  1  0.562590  0.781294  0.548178  1
  Sn  Sn25  1  0.117540  0.882460  0.274099  1
  Sn  Sn26  1  0.781290  0.562581  0.452245  1
  Sn  Sn27  1  0.781290  0.218710  0.452245  1
  Sn  Sn28  1  0.346229  0.999988  0.999928  1
  Sn  Sn29  1  0.117540  0.235080  0.274099  1
  Sn  Sn30  1  0.764920  0.882460  0.274099  1
  Sn  Sn31  1  0.235345  0.117672  0.725878  1
  Sn  Sn32  1  0.882328  0.764655  0.725878  1
  Sn  Sn33  1  0.882328  0.117672  0.725878  1
  Sn  Sn34  1  0.000000  0.000000  0.500005  1
  Sn  Sn35  1  0.000012  0.346242  0.999928  1
