# generated using pymatgen
data_Pr(Re2P)2
_symmetry_space_group_name_H-M   'P 1'
_cell_length_a   7.19457000
_cell_length_b   7.19457055
_cell_length_c   4.04241100
_cell_angle_alpha   90.00000000
_cell_angle_beta   90.00000000
_cell_angle_gamma   146.95480761
_symmetry_Int_Tables_number   1
_chemical_formula_structural   Pr(Re2P)2
_chemical_formula_sum   'Pr1 Re4 P2'
_cell_volume   114.10008800
_cell_formula_units_Z   1
loop_
 _symmetry_equiv_pos_site_id
 _symmetry_equiv_pos_as_xyz
  1  'x, y, z'
loop_
 _atom_site_type_symbol
 _atom_site_label
 _atom_site_symmetry_multiplicity
 _atom_site_fract_x
 _atom_site_fract_y
 _atom_site_fract_z
 _atom_site_occupancy
  Pr  Pr0  1  0.000000  0.000000  0.000000  1
  Re  Re1  1  0.692583  0.307417  0.000000  1
  Re  Re2  1  0.307417  0.692583  0.000000  1
  Re  Re3  1  0.817388  0.182611  0.500000  1
  Re  Re4  1  0.182611  0.817388  0.500000  1
  P  P5  1  0.587941  0.412058  0.500000  1
  P  P6  1  0.412058  0.587941  0.500000  1
