# generated using pymatgen
data_ErU5O16
_symmetry_space_group_name_H-M   'P 1'
_cell_length_a   6.72092807
_cell_length_b   6.74609895
_cell_length_c   8.32435200
_cell_angle_alpha   90.00000000
_cell_angle_beta   90.00000000
_cell_angle_gamma   116.35492137
_symmetry_Int_Tables_number   1
_chemical_formula_structural   ErU5O16
_chemical_formula_sum   'Er1 U5 O16'
_cell_volume   338.19728414
_cell_formula_units_Z   1
loop_
 _symmetry_equiv_pos_site_id
 _symmetry_equiv_pos_as_xyz
  1  'x, y, z'
loop_
 _atom_site_type_symbol
 _atom_site_label
 _atom_site_symmetry_multiplicity
 _atom_site_fract_x
 _atom_site_fract_y
 _atom_site_fract_z
 _atom_site_occupancy
  Er  Er0  1  0.307758  0.684354  0.250000  1
  U  U1  1  0.998041  0.999859  0.250000  1
  U  U2  1  0.317377  0.685462  0.750000  1
  U  U3  1  0.683294  0.319779  0.750000  1
  U  U4  1  0.679849  0.318816  0.250000  1
  U  U5  1  0.998540  0.000627  0.750000  1
  O  O6  1  0.315149  0.687292  0.977205  1
  O  O7  1  0.518490  0.507399  0.750000  1
  O  O8  1  0.999522  0.998405  0.505260  1
  O  O9  1  0.028926  0.322489  0.250000  1
  O  O10  1  0.965486  0.671689  0.750000  1
  O  O11  1  0.322521  0.035773  0.250000  1
  O  O12  1  0.687980  0.312829  0.495448  1
  O  O13  1  0.039035  0.327781  0.750000  1
  O  O14  1  0.676181  0.956418  0.250000  1
  O  O15  1  0.331102  0.047189  0.750000  1
  O  O16  1  0.687980  0.312829  0.004552  1
  O  O17  1  0.315149  0.687292  0.522795  1
  O  O18  1  0.501413  0.479498  0.250000  1
  O  O19  1  0.952947  0.672311  0.250000  1
  O  O20  1  0.999522  0.998405  0.994740  1
  O  O21  1  0.673739  0.973505  0.750000  1
