# generated using pymatgen
data_Pr19YSi15Cl
_symmetry_space_group_name_H-M   'P 1'
_cell_length_a   7.96869026
_cell_length_b   7.89973761
_cell_length_c   15.32207472
_cell_angle_alpha   89.50853415
_cell_angle_beta   89.16823309
_cell_angle_gamma   90.74242487
_symmetry_Int_Tables_number   1
_chemical_formula_structural   Pr19YSi15Cl
_chemical_formula_sum   'Pr19 Y1 Si15 Cl1'
_cell_volume   964.31355463
_cell_formula_units_Z   1
loop_
 _symmetry_equiv_pos_site_id
 _symmetry_equiv_pos_as_xyz
  1  'x, y, z'
loop_
 _atom_site_type_symbol
 _atom_site_label
 _atom_site_symmetry_multiplicity
 _atom_site_fract_x
 _atom_site_fract_y
 _atom_site_fract_z
 _atom_site_occupancy
  Pr  Pr0  1  0.187117  0.806292  0.249431  1
  Pr  Pr1  1  0.795426  0.189455  0.752983  1
  Pr  Pr2  1  0.688235  0.687648  0.497657  1
  Pr  Pr3  1  0.381554  0.003264  0.442274  1
  Pr  Pr4  1  0.499221  0.861193  0.701011  1
  Pr  Pr5  1  0.510378  0.122468  0.196759  1
  Pr  Pr6  1  0.874158  0.483436  0.299633  1
  Pr  Pr7  1  0.123747  0.518144  0.802046  1
  Pr  Pr8  1  0.634772  0.986904  0.952899  1
  Pr  Pr9  1  0.996018  0.382310  0.546392  1
  Pr  Pr10  1  0.994273  0.623999  0.051969  1
  Pr  Pr11  1  0.141452  0.989909  0.873465  1
  Pr  Pr12  1  0.518160  0.631055  0.124781  1
  Pr  Pr13  1  0.474352  0.362163  0.631649  1
  Pr  Pr14  1  0.637244  0.520560  0.876526  1
  Pr  Pr15  1  0.366653  0.476947  0.375613  1
  Pr  Pr16  1  0.871148  0.019375  0.377316  1
  Pr  Pr17  1  0.984130  0.126163  0.123246  1
  Pr  Pr18  1  0.018718  0.874131  0.621919  1
  Y  Y19  1  0.313654  0.310817  0.998778  1
  Si  Si20  1  0.333316  0.696589  0.949261  1
  Si  Si21  1  0.660278  0.303195  0.453909  1
  Si  Si22  1  0.700555  0.334998  0.050513  1
  Si  Si23  1  0.302844  0.665020  0.552058  1
  Si  Si24  1  0.804053  0.830975  0.202748  1
  Si  Si25  1  0.167966  0.193621  0.296053  1
  Si  Si26  1  0.844918  0.804725  0.797797  1
  Si  Si27  1  0.289986  0.926133  0.057183  1
  Si  Si28  1  0.575682  0.783969  0.308329  1
  Si  Si29  1  0.448418  0.209558  0.826713  1
  Si  Si30  1  0.790772  0.578508  0.687971  1
  Si  Si31  1  0.213249  0.420720  0.187254  1
  Si  Si32  1  0.704313  0.074157  0.561447  1
  Si  Si33  1  0.932434  0.292246  0.940829  1
  Si  Si34  1  0.076732  0.711372  0.441668  1
  Cl  Cl35  1  0.144075  0.197980  0.689923  1
