# generated using pymatgen
data_Tb3Tm17Cd3Ag3Ru2
_symmetry_space_group_name_H-M   'P 1'
_cell_length_a   9.47928100
_cell_length_b   9.47928112
_cell_length_c   9.58243400
_cell_angle_alpha   90.00000000
_cell_angle_beta   90.00000000
_cell_angle_gamma   120.00000309
_symmetry_Int_Tables_number   1
_chemical_formula_structural   Tb3Tm17Cd3Ag3Ru2
_chemical_formula_sum   'Tb3 Tm17 Cd3 Ag3 Ru2'
_cell_volume   745.68817328
_cell_formula_units_Z   1
loop_
 _symmetry_equiv_pos_site_id
 _symmetry_equiv_pos_as_xyz
  1  'x, y, z'
loop_
 _atom_site_type_symbol
 _atom_site_label
 _atom_site_symmetry_multiplicity
 _atom_site_fract_x
 _atom_site_fract_y
 _atom_site_fract_z
 _atom_site_occupancy
  Tb  Tb0  1  0.459600  0.540400  0.750000  1
  Tb  Tb1  1  0.459600  0.919199  0.750000  1
  Tb  Tb2  1  0.080801  0.540400  0.750000  1
  Tm  Tm3  1  0.000000  0.000000  0.476724  1
  Tm  Tm4  1  0.000000  0.000000  0.023276  1
  Tm  Tm5  1  0.210235  0.789765  0.440821  1
  Tm  Tm6  1  0.210235  0.420471  0.440821  1
  Tm  Tm7  1  0.579529  0.789765  0.440821  1
  Tm  Tm8  1  0.790698  0.209302  0.557914  1
  Tm  Tm9  1  0.790698  0.581395  0.557914  1
  Tm  Tm10  1  0.418605  0.209302  0.557914  1
  Tm  Tm11  1  0.790698  0.209302  0.942086  1
  Tm  Tm12  1  0.790698  0.581395  0.942086  1
  Tm  Tm13  1  0.418605  0.209302  0.942086  1
  Tm  Tm14  1  0.210235  0.789765  0.059179  1
  Tm  Tm15  1  0.210235  0.420471  0.059179  1
  Tm  Tm16  1  0.579529  0.789765  0.059179  1
  Tm  Tm17  1  0.540415  0.459585  0.250000  1
  Tm  Tm18  1  0.540415  0.080831  0.250000  1
  Tm  Tm19  1  0.919169  0.459585  0.250000  1
  Cd  Cd20  1  0.110884  0.889116  0.750000  1
  Cd  Cd21  1  0.110884  0.221766  0.750000  1
  Cd  Cd22  1  0.778234  0.889116  0.750000  1
  Ag  Ag23  1  0.876442  0.123558  0.250000  1
  Ag  Ag24  1  0.876442  0.752885  0.250000  1
  Ag  Ag25  1  0.247115  0.123558  0.250000  1
  Ru  Ru26  1  0.333333  0.666667  0.250000  1
  Ru  Ru27  1  0.666667  0.333333  0.750000  1
