# generated using pymatgen
data_Ag6PS5Br
_symmetry_space_group_name_H-M   'P 1'
_cell_length_a   7.46674791
_cell_length_b   7.46674771
_cell_length_c   12.95532306
_cell_angle_alpha   73.15691619
_cell_angle_beta   73.15691815
_cell_angle_gamma   60.44010423
_symmetry_Int_Tables_number   1
_chemical_formula_structural   Ag6PS5Br
_chemical_formula_sum   'Ag12 P2 S10 Br2'
_cell_volume   591.90147234
_cell_formula_units_Z   2
loop_
 _symmetry_equiv_pos_site_id
 _symmetry_equiv_pos_as_xyz
  1  'x, y, z'
loop_
 _atom_site_type_symbol
 _atom_site_label
 _atom_site_symmetry_multiplicity
 _atom_site_fract_x
 _atom_site_fract_y
 _atom_site_fract_z
 _atom_site_occupancy
  Ag  Ag0  1  0.034382  0.979320  0.614596  1
  Ag  Ag1  1  0.979320  0.034382  0.114596  1
  Ag  Ag2  1  0.574672  0.425117  0.175731  1
  Ag  Ag3  1  0.425117  0.574672  0.675731  1
  Ag  Ag4  1  0.651613  0.719294  0.880773  1
  Ag  Ag5  1  0.719294  0.651613  0.380773  1
  Ag  Ag6  1  0.559530  0.078060  0.539158  1
  Ag  Ag7  1  0.078060  0.559530  0.039158  1
  Ag  Ag8  1  0.781857  0.254139  0.886860  1
  Ag  Ag9  1  0.254139  0.781857  0.386860  1
  Ag  Ag10  1  0.228932  0.212182  0.386695  1
  Ag  Ag11  1  0.212182  0.228932  0.886695  1
  P  P12  1  0.501663  0.995801  0.123319  1
  P  P13  1  0.995801  0.501663  0.623319  1
  S  S14  1  0.815403  0.785528  0.677944  1
  S  S15  1  0.785528  0.815403  0.177944  1
  S  S16  1  0.327975  0.280239  0.178846  1
  S  S17  1  0.280239  0.327975  0.678846  1
  S  S18  1  0.560184  0.053642  0.952970  1
  S  S19  1  0.053642  0.560184  0.452970  1
  S  S20  1  0.867167  0.398221  0.008324  1
  S  S21  1  0.398221  0.867167  0.508324  1
  S  S22  1  0.824592  0.329683  0.679411  1
  S  S23  1  0.329683  0.824592  0.179411  1
  Br  Br24  1  0.261973  0.758831  0.867775  1
  Br  Br25  1  0.758831  0.261973  0.367775  1
