# generated using pymatgen
data_Tb7Ho9Cd4NiRu3
_symmetry_space_group_name_H-M   'P 1'
_cell_length_a   9.57579514
_cell_length_b   9.62791196
_cell_length_c   9.65912900
_cell_angle_alpha   59.89268246
_cell_angle_beta   59.71169844
_cell_angle_gamma   59.64853612
_symmetry_Int_Tables_number   1
_chemical_formula_structural   Tb7Ho9Cd4NiRu3
_chemical_formula_sum   'Tb7 Ho9 Cd4 Ni1 Ru3'
_cell_volume   626.12752399
_cell_formula_units_Z   1
loop_
 _symmetry_equiv_pos_site_id
 _symmetry_equiv_pos_as_xyz
  1  'x, y, z'
loop_
 _atom_site_type_symbol
 _atom_site_label
 _atom_site_symmetry_multiplicity
 _atom_site_fract_x
 _atom_site_fract_y
 _atom_site_fract_z
 _atom_site_occupancy
  Tb  Tb0  1  0.810783  0.811614  0.188802  1
  Tb  Tb1  1  0.939730  0.559713  0.560323  1
  Tb  Tb2  1  0.557677  0.938312  0.937920  1
  Tb  Tb3  1  0.557677  0.938312  0.566090  1
  Tb  Tb4  1  0.939730  0.559713  0.940235  1
  Tb  Tb5  1  0.557549  0.566109  0.938170  1
  Tb  Tb6  1  0.940065  0.940578  0.559678  1
  Ho  Ho7  1  0.350088  0.345792  0.344855  1
  Ho  Ho8  1  0.350088  0.345792  0.959264  1
  Ho  Ho9  1  0.349887  0.960219  0.344947  1
  Ho  Ho10  1  0.959960  0.346214  0.346913  1
  Ho  Ho11  1  0.810831  0.188527  0.188487  1
  Ho  Ho12  1  0.187449  0.811345  0.811804  1
  Ho  Ho13  1  0.187449  0.811345  0.189402  1
  Ho  Ho14  1  0.810831  0.188527  0.812155  1
  Ho  Ho15  1  0.187656  0.188267  0.812038  1
  Cd  Cd16  1  0.579344  0.580452  0.581266  1
  Cd  Cd17  1  0.579344  0.580452  0.258938  1
  Cd  Cd18  1  0.579741  0.258263  0.580998  1
  Cd  Cd19  1  0.257369  0.580518  0.581056  1
  Ni  Ni20  1  0.576578  0.142609  0.140407  1
  Ru  Ru21  1  0.143049  0.139518  0.138601  1
  Ru  Ru22  1  0.143049  0.139518  0.578832  1
  Ru  Ru23  1  0.144076  0.578287  0.138819  1
