# generated using pymatgen
data_Nd4Zn3Si5
_symmetry_space_group_name_H-M   'P 1'
_cell_length_a   4.15101600
_cell_length_b   8.46005409
_cell_length_c   7.17282283
_cell_angle_alpha   90.02831962
_cell_angle_beta   90.00000000
_cell_angle_gamma   90.00000000
_symmetry_Int_Tables_number   1
_chemical_formula_structural   Nd4Zn3Si5
_chemical_formula_sum   'Nd4 Zn3 Si5'
_cell_volume   251.89386926
_cell_formula_units_Z   1
loop_
 _symmetry_equiv_pos_site_id
 _symmetry_equiv_pos_as_xyz
  1  'x, y, z'
loop_
 _atom_site_type_symbol
 _atom_site_label
 _atom_site_symmetry_multiplicity
 _atom_site_fract_x
 _atom_site_fract_y
 _atom_site_fract_z
 _atom_site_occupancy
  Nd  Nd0  1  0.500000  0.500302  0.755625  1
  Nd  Nd1  1  0.500000  0.999769  0.755921  1
  Nd  Nd2  1  0.000000  0.496977  0.245326  1
  Nd  Nd3  1  0.000000  0.002591  0.244850  1
  Zn  Zn4  1  0.500000  0.749663  0.416399  1
  Zn  Zn5  1  0.000000  0.749865  0.916152  1
  Zn  Zn6  1  0.000000  0.251612  0.580622  1
  Si  Si7  1  0.500000  0.750094  0.084252  1
  Si  Si8  1  0.500000  0.248812  0.417608  1
  Si  Si9  1  0.000000  0.249484  0.914250  1
  Si  Si10  1  0.000000  0.750488  0.582659  1
  Si  Si11  1  0.500000  0.250341  0.086336  1
