# generated using pymatgen
data_Tb10CeSi2Sb3
_symmetry_space_group_name_H-M   'P 1'
_cell_length_a   8.80059400
_cell_length_b   8.99381800
_cell_length_c   6.35813000
_cell_angle_alpha   90.00000000
_cell_angle_beta   90.00000000
_cell_angle_gamma   119.29182807
_symmetry_Int_Tables_number   1
_chemical_formula_structural   Tb10CeSi2Sb3
_chemical_formula_sum   'Tb10 Ce1 Si2 Sb3'
_cell_volume   438.90570206
_cell_formula_units_Z   1
loop_
 _symmetry_equiv_pos_site_id
 _symmetry_equiv_pos_as_xyz
  1  'x, y, z'
loop_
 _atom_site_type_symbol
 _atom_site_label
 _atom_site_symmetry_multiplicity
 _atom_site_fract_x
 _atom_site_fract_y
 _atom_site_fract_z
 _atom_site_occupancy
  Tb  Tb0  1  0.766614  0.000000  0.000000  1
  Tb  Tb1  1  0.004387  0.749789  0.000000  1
  Tb  Tb2  1  0.254598  0.250211  0.000000  1
  Tb  Tb3  1  0.230547  0.000000  0.500000  1
  Tb  Tb4  1  0.005025  0.259799  0.500000  1
  Tb  Tb5  1  0.745226  0.740201  0.500000  1
  Tb  Tb6  1  0.324685  0.654057  0.257173  1
  Tb  Tb7  1  0.670629  0.345943  0.257173  1
  Tb  Tb8  1  0.670629  0.345943  0.742827  1
  Tb  Tb9  1  0.324685  0.654057  0.742827  1
  Ce  Ce10  1  0.603519  0.000000  0.500000  1
  Si  Si11  1  0.997721  0.614727  0.500000  1
  Si  Si12  1  0.382994  0.385273  0.500000  1
  Sb  Sb13  1  0.407964  0.000000  0.000000  1
  Sb  Sb14  1  0.000507  0.390236  0.000000  1
  Sb  Sb15  1  0.610271  0.609764  0.000000  1
