# generated using pymatgen
data_Ca2ErGa3(Ni3Sn)3
_symmetry_space_group_name_H-M   'P 1'
_cell_length_a   9.19359700
_cell_length_b   9.19359714
_cell_length_c   4.08508300
_cell_angle_alpha   90.00000000
_cell_angle_beta   90.00000000
_cell_angle_gamma   119.99999591
_symmetry_Int_Tables_number   1
_chemical_formula_structural   Ca2ErGa3(Ni3Sn)3
_chemical_formula_sum   'Ca2 Er1 Ga3 Ni9 Sn3'
_cell_volume   299.02153467
_cell_formula_units_Z   1
loop_
 _symmetry_equiv_pos_site_id
 _symmetry_equiv_pos_as_xyz
  1  'x, y, z'
loop_
 _atom_site_type_symbol
 _atom_site_label
 _atom_site_symmetry_multiplicity
 _atom_site_fract_x
 _atom_site_fract_y
 _atom_site_fract_z
 _atom_site_occupancy
  Ca  Ca0  1  0.666667  0.333333  0.500000  1
  Ca  Ca1  1  0.333333  0.666667  0.500000  1
  Er  Er2  1  0.000000  0.000000  0.000000  1
  Ga  Ga3  1  0.744571  0.744571  0.500000  1
  Ga  Ga4  1  0.255429  0.000000  0.500000  1
  Ga  Ga5  1  0.000000  0.255429  0.500000  1
  Ni  Ni6  1  0.839754  0.200459  0.000000  1
  Ni  Ni7  1  0.799541  0.639296  0.000000  1
  Ni  Ni8  1  0.360704  0.160246  0.000000  1
  Ni  Ni9  1  0.200459  0.839754  0.000000  1
  Ni  Ni10  1  0.639296  0.799541  0.000000  1
  Ni  Ni11  1  0.160246  0.360704  0.000000  1
  Ni  Ni12  1  0.279261  0.279261  0.500000  1
  Ni  Ni13  1  0.720739  0.000000  0.500000  1
  Ni  Ni14  1  0.000000  0.720739  0.500000  1
  Sn  Sn15  1  0.472741  0.472741  0.000000  1
  Sn  Sn16  1  0.527259  0.000000  0.000000  1
  Sn  Sn17  1  0.000000  0.527259  0.000000  1
