# generated using pymatgen
data_Re24Mo4W
_symmetry_space_group_name_H-M   'P 1'
_cell_length_a   8.36080038
_cell_length_b   8.36080058
_cell_length_c   8.36080000
_cell_angle_alpha   109.47122408
_cell_angle_beta   109.47122456
_cell_angle_gamma   109.47121622
_symmetry_Int_Tables_number   1
_chemical_formula_structural   Re24Mo4W
_chemical_formula_sum   'Re24 Mo4 W1'
_cell_volume   449.90585714
_cell_formula_units_Z   1
loop_
 _symmetry_equiv_pos_site_id
 _symmetry_equiv_pos_as_xyz
  1  'x, y, z'
loop_
 _atom_site_type_symbol
 _atom_site_label
 _atom_site_symmetry_multiplicity
 _atom_site_fract_x
 _atom_site_fract_y
 _atom_site_fract_z
 _atom_site_occupancy
  Re  Re0  1  0.315468  0.315468  0.716890  1
  Re  Re1  1  0.401422  0.684532  0.000000  1
  Re  Re2  1  0.684532  0.401422  0.000000  1
  Re  Re3  1  0.598578  0.283110  0.598578  1
  Re  Re4  1  0.401422  0.000000  0.684532  1
  Re  Re5  1  0.000000  0.401422  0.684532  1
  Re  Re6  1  0.283110  0.598578  0.598578  1
  Re  Re7  1  0.716890  0.315468  0.315468  1
  Re  Re8  1  0.315468  0.716890  0.315468  1
  Re  Re9  1  0.684532  0.000000  0.401422  1
  Re  Re10  1  0.000000  0.684532  0.401422  1
  Re  Re11  1  0.598578  0.598578  0.283110  1
  Re  Re12  1  0.806556  0.806556  0.182285  1
  Re  Re13  1  0.375730  0.193444  0.000000  1
  Re  Re14  1  0.193444  0.375730  0.000000  1
  Re  Re15  1  0.624270  0.817715  0.624270  1
  Re  Re16  1  0.375730  0.000000  0.193444  1
  Re  Re17  1  0.000000  0.375730  0.193444  1
  Re  Re18  1  0.817715  0.624270  0.624270  1
  Re  Re19  1  0.182285  0.806556  0.806556  1
  Re  Re20  1  0.806556  0.182285  0.806556  1
  Re  Re21  1  0.193444  0.000000  0.375730  1
  Re  Re22  1  0.000000  0.193444  0.375730  1
  Re  Re23  1  0.624270  0.624270  0.817715  1
  Mo  Mo24  1  0.000000  0.000000  0.641364  1
  Mo  Mo25  1  0.641364  0.000000  0.000000  1
  Mo  Mo26  1  0.000000  0.641364  0.000000  1
  Mo  Mo27  1  0.358636  0.358636  0.358636  1
  W  W28  1  0.000000  0.000000  0.000000  1
