# generated using pymatgen
data_Y2V3Co9As7
_symmetry_space_group_name_H-M   'P 1'
_cell_length_a   3.77149600
_cell_length_b   9.39888546
_cell_length_c   9.39888600
_cell_angle_alpha   119.99999485
_cell_angle_beta   90.00000000
_cell_angle_gamma   90.00000000
_symmetry_Int_Tables_number   1
_chemical_formula_structural   Y2V3Co9As7
_chemical_formula_sum   'Y2 V3 Co9 As7'
_cell_volume   288.53403216
_cell_formula_units_Z   1
loop_
 _symmetry_equiv_pos_site_id
 _symmetry_equiv_pos_as_xyz
  1  'x, y, z'
loop_
 _atom_site_type_symbol
 _atom_site_label
 _atom_site_symmetry_multiplicity
 _atom_site_fract_x
 _atom_site_fract_y
 _atom_site_fract_z
 _atom_site_occupancy
  Y  Y0  1  0.000000  0.666667  0.333333  1
  Y  Y1  1  0.500000  0.333333  0.666667  1
  V  V2  1  0.500000  0.782483  0.898977  1
  V  V3  1  0.500000  0.116494  0.217517  1
  V  V4  1  0.500000  0.101023  0.883506  1
  Co  Co5  1  0.000000  0.569410  0.941560  1
  Co  Co6  1  0.000000  0.372149  0.430590  1
  Co  Co7  1  0.000000  0.058440  0.627851  1
  Co  Co8  1  0.000000  0.878059  0.157412  1
  Co  Co9  1  0.000000  0.279353  0.121941  1
  Co  Co10  1  0.000000  0.842588  0.720647  1
  Co  Co11  1  0.500000  0.950548  0.382792  1
  Co  Co12  1  0.500000  0.432243  0.049452  1
  Co  Co13  1  0.500000  0.617208  0.567757  1
  As  As14  1  0.000000  0.000000  0.000000  1
  As  As15  1  0.500000  0.707943  0.117890  1
  As  As16  1  0.500000  0.409947  0.292057  1
  As  As17  1  0.500000  0.882110  0.590053  1
  As  As18  1  0.000000  0.587556  0.702681  1
  As  As19  1  0.000000  0.115126  0.412444  1
  As  As20  1  0.000000  0.297319  0.884874  1
