# generated using pymatgen
data_Hf16Ta3Pt5
_symmetry_space_group_name_H-M   'P 1'
_cell_length_a   8.91051392
_cell_length_b   8.91910623
_cell_length_c   8.91910500
_cell_angle_alpha   60.00000086
_cell_angle_beta   59.96809730
_cell_angle_gamma   59.96810968
_symmetry_Int_Tables_number   1
_chemical_formula_structural   Hf16Ta3Pt5
_chemical_formula_sum   'Hf16 Ta3 Pt5'
_cell_volume   500.98050109
_cell_formula_units_Z   1
loop_
 _symmetry_equiv_pos_site_id
 _symmetry_equiv_pos_as_xyz
  1  'x, y, z'
loop_
 _atom_site_type_symbol
 _atom_site_label
 _atom_site_symmetry_multiplicity
 _atom_site_fract_x
 _atom_site_fract_y
 _atom_site_fract_z
 _atom_site_occupancy
  Hf  Hf0  1  0.161835  0.612722  0.612722  1
  Hf  Hf1  1  0.609492  0.159614  0.615446  1
  Hf  Hf2  1  0.609492  0.615446  0.159614  1
  Hf  Hf3  1  0.609492  0.615446  0.615446  1
  Hf  Hf4  1  0.819316  0.817718  0.181483  1
  Hf  Hf5  1  0.179198  0.184128  0.818337  1
  Hf  Hf6  1  0.819316  0.181483  0.817718  1
  Hf  Hf7  1  0.179198  0.818337  0.184128  1
  Hf  Hf8  1  0.179198  0.818337  0.818337  1
  Hf  Hf9  1  0.819316  0.181483  0.181483  1
  Hf  Hf10  1  0.448690  0.444028  0.053642  1
  Hf  Hf11  1  0.045511  0.045781  0.454353  1
  Hf  Hf12  1  0.448690  0.053642  0.444028  1
  Hf  Hf13  1  0.045511  0.454353  0.045781  1
  Hf  Hf14  1  0.045511  0.454353  0.454353  1
  Hf  Hf15  1  0.448690  0.053642  0.053642  1
  Ta  Ta16  1  0.839485  0.492348  0.834083  1
  Ta  Ta17  1  0.839485  0.834083  0.492348  1
  Ta  Ta18  1  0.839485  0.834083  0.834083  1
  Pt  Pt19  1  0.809115  0.396962  0.396962  1
  Pt  Pt20  1  0.399864  0.811033  0.394551  1
  Pt  Pt21  1  0.399864  0.394551  0.811033  1
  Pt  Pt22  1  0.399864  0.394551  0.394551  1
  Pt  Pt23  1  0.504393  0.831869  0.831869  1
