# generated using pymatgen
data_Ce3Tm2Tc3
_symmetry_space_group_name_H-M   'P 1'
_cell_length_a   7.95221300
_cell_length_b   7.95221321
_cell_length_c   6.79717700
_cell_angle_alpha   90.00000000
_cell_angle_beta   90.00000000
_cell_angle_gamma   119.99999499
_symmetry_Int_Tables_number   1
_chemical_formula_structural   Ce3Tm2Tc3
_chemical_formula_sum   'Ce6 Tm4 Tc6'
_cell_volume   372.25046788
_cell_formula_units_Z   2
loop_
 _symmetry_equiv_pos_site_id
 _symmetry_equiv_pos_as_xyz
  1  'x, y, z'
loop_
 _atom_site_type_symbol
 _atom_site_label
 _atom_site_symmetry_multiplicity
 _atom_site_fract_x
 _atom_site_fract_y
 _atom_site_fract_z
 _atom_site_occupancy
  Ce  Ce0  1  0.751033  0.751033  0.750000  1
  Ce  Ce1  1  0.248967  0.000000  0.750000  1
  Ce  Ce2  1  0.000000  0.248967  0.750000  1
  Ce  Ce3  1  0.248967  0.248967  0.250000  1
  Ce  Ce4  1  0.751033  0.000000  0.250000  1
  Ce  Ce5  1  0.000000  0.751033  0.250000  1
  Tm  Tm6  1  0.666667  0.333333  0.000000  1
  Tm  Tm7  1  0.333333  0.666667  0.000000  1
  Tm  Tm8  1  0.333333  0.666667  0.500000  1
  Tm  Tm9  1  0.666667  0.333333  0.500000  1
  Tc  Tc10  1  0.355658  0.355658  0.750000  1
  Tc  Tc11  1  0.644342  0.000000  0.750000  1
  Tc  Tc12  1  0.000000  0.644342  0.750000  1
  Tc  Tc13  1  0.644342  0.644342  0.250000  1
  Tc  Tc14  1  0.355658  0.000000  0.250000  1
  Tc  Tc15  1  0.000000  0.355658  0.250000  1
