# generated using pymatgen
data_Zr4Al3Tc2Mo3
_symmetry_space_group_name_H-M   'P 1'
_cell_length_a   5.26718000
_cell_length_b   5.26717952
_cell_length_c   8.70992800
_cell_angle_alpha   90.00000000
_cell_angle_beta   90.00000000
_cell_angle_gamma   120.24176517
_symmetry_Int_Tables_number   1
_chemical_formula_structural   Zr4Al3Tc2Mo3
_chemical_formula_sum   'Zr4 Al3 Tc2 Mo3'
_cell_volume   208.75567534
_cell_formula_units_Z   1
loop_
 _symmetry_equiv_pos_site_id
 _symmetry_equiv_pos_as_xyz
  1  'x, y, z'
loop_
 _atom_site_type_symbol
 _atom_site_label
 _atom_site_symmetry_multiplicity
 _atom_site_fract_x
 _atom_site_fract_y
 _atom_site_fract_z
 _atom_site_occupancy
  Zr  Zr0  1  0.334779  0.665221  0.439644  1
  Zr  Zr1  1  0.668158  0.331842  0.933655  1
  Zr  Zr2  1  0.668158  0.331842  0.566345  1
  Zr  Zr3  1  0.334779  0.665221  0.060356  1
  Al  Al4  1  0.996244  0.003756  0.995387  1
  Al  Al5  1  0.996244  0.003756  0.504613  1
  Al  Al6  1  0.170765  0.829235  0.750000  1
  Tc  Tc7  1  0.173863  0.339208  0.750000  1
  Tc  Tc8  1  0.660792  0.826137  0.750000  1
  Mo  Mo9  1  0.828229  0.171771  0.250000  1
  Mo  Mo10  1  0.338965  0.170978  0.250000  1
  Mo  Mo11  1  0.829022  0.661035  0.250000  1
