# generated using pymatgen
data_Dy5Er5(Bi2Os)2
_symmetry_space_group_name_H-M   'P 1'
_cell_length_a   7.92138645
_cell_length_b   9.01276500
_cell_length_c   12.49547770
_cell_angle_alpha   90.00000000
_cell_angle_beta   89.96152273
_cell_angle_gamma   90.00000000
_symmetry_Int_Tables_number   1
_chemical_formula_structural   Dy5Er5(Bi2Os)2
_chemical_formula_sum   'Dy10 Er10 Bi8 Os4'
_cell_volume   892.09686736
_cell_formula_units_Z   2
loop_
 _symmetry_equiv_pos_site_id
 _symmetry_equiv_pos_as_xyz
  1  'x, y, z'
loop_
 _atom_site_type_symbol
 _atom_site_label
 _atom_site_symmetry_multiplicity
 _atom_site_fract_x
 _atom_site_fract_y
 _atom_site_fract_z
 _atom_site_occupancy
  Dy  Dy0  1  0.662613  0.750000  0.708909  1
  Dy  Dy1  1  0.337387  0.250000  0.291091  1
  Dy  Dy2  1  0.162499  0.250000  0.790772  1
  Dy  Dy3  1  0.837501  0.750000  0.209228  1
  Dy  Dy4  1  0.129361  0.750000  0.811986  1
  Dy  Dy5  1  0.870639  0.250000  0.188014  1
  Dy  Dy6  1  0.629310  0.250000  0.687956  1
  Dy  Dy7  1  0.370690  0.750000  0.312044  1
  Dy  Dy8  1  0.557192  0.750000  0.994953  1
  Dy  Dy9  1  0.442808  0.250000  0.005047  1
  Er  Er10  1  0.058032  0.250000  0.505101  1
  Er  Er11  1  0.941968  0.750000  0.494899  1
  Er  Er12  1  0.828739  0.458587  0.933549  1
  Er  Er13  1  0.171261  0.541413  0.066451  1
  Er  Er14  1  0.328598  0.541236  0.566376  1
  Er  Er15  1  0.171261  0.958587  0.066451  1
  Er  Er16  1  0.671402  0.458764  0.433624  1
  Er  Er17  1  0.828739  0.041413  0.933549  1
  Er  Er18  1  0.671402  0.041236  0.433624  1
  Er  Er19  1  0.328598  0.958764  0.566376  1
  Bi  Bi20  1  0.937987  0.004696  0.672226  1
  Bi  Bi21  1  0.062013  0.995304  0.327774  1
  Bi  Bi22  1  0.437804  0.995317  0.827300  1
  Bi  Bi23  1  0.062013  0.504696  0.327774  1
  Bi  Bi24  1  0.562196  0.004683  0.172700  1
  Bi  Bi25  1  0.937987  0.495304  0.672226  1
  Bi  Bi26  1  0.562196  0.495317  0.172700  1
  Bi  Bi27  1  0.437804  0.504683  0.827300  1
  Os  Os28  1  0.926178  0.750000  0.991822  1
  Os  Os29  1  0.073822  0.250000  0.008178  1
  Os  Os30  1  0.425731  0.250000  0.508181  1
  Os  Os31  1  0.574269  0.750000  0.491819  1
