# generated using pymatgen
data_LaEu(CoB)8
_symmetry_space_group_name_H-M   'P 1'
_cell_length_a   7.08265200
_cell_length_b   7.08265200
_cell_length_c   3.80113800
_cell_angle_alpha   90.00000000
_cell_angle_beta   90.00000000
_cell_angle_gamma   90.00000000
_symmetry_Int_Tables_number   1
_chemical_formula_structural   LaEu(CoB)8
_chemical_formula_sum   'La1 Eu1 Co8 B8'
_cell_volume   190.68013213
_cell_formula_units_Z   1
loop_
 _symmetry_equiv_pos_site_id
 _symmetry_equiv_pos_as_xyz
  1  'x, y, z'
loop_
 _atom_site_type_symbol
 _atom_site_label
 _atom_site_symmetry_multiplicity
 _atom_site_fract_x
 _atom_site_fract_y
 _atom_site_fract_z
 _atom_site_occupancy
  La  La0  1  0.500000  0.500000  0.500000  1
  Eu  Eu1  1  0.000000  0.000000  0.000000  1
  Co  Co2  1  0.382976  0.139122  0.891118  1
  Co  Co3  1  0.617024  0.860878  0.891118  1
  Co  Co4  1  0.358872  0.884051  0.393112  1
  Co  Co5  1  0.641128  0.115949  0.393112  1
  Co  Co6  1  0.115949  0.358872  0.606888  1
  Co  Co7  1  0.884051  0.641128  0.606888  1
  Co  Co8  1  0.139122  0.617024  0.108882  1
  Co  Co9  1  0.860878  0.382976  0.108882  1
  B  B10  1  0.802459  0.664323  0.103652  1
  B  B11  1  0.197541  0.335677  0.103652  1
  B  B12  1  0.839571  0.294742  0.606797  1
  B  B13  1  0.160429  0.705258  0.606797  1
  B  B14  1  0.705258  0.839571  0.393203  1
  B  B15  1  0.294742  0.160429  0.393203  1
  B  B16  1  0.664323  0.197541  0.896348  1
  B  B17  1  0.335677  0.802459  0.896348  1
