# generated using pymatgen
data_Ta2Mn3Ir
_symmetry_space_group_name_H-M   'P 1'
_cell_length_a   4.81298300
_cell_length_b   4.81298314
_cell_length_c   8.26608000
_cell_angle_alpha   90.00000000
_cell_angle_beta   90.00000000
_cell_angle_gamma   119.99999214
_symmetry_Int_Tables_number   1
_chemical_formula_structural   Ta2Mn3Ir
_chemical_formula_sum   'Ta4 Mn6 Ir2'
_cell_volume   165.82841072
_cell_formula_units_Z   2
loop_
 _symmetry_equiv_pos_site_id
 _symmetry_equiv_pos_as_xyz
  1  'x, y, z'
loop_
 _atom_site_type_symbol
 _atom_site_label
 _atom_site_symmetry_multiplicity
 _atom_site_fract_x
 _atom_site_fract_y
 _atom_site_fract_z
 _atom_site_occupancy
  Ta  Ta0  1  0.666666  0.333333  0.071901  1
  Ta  Ta1  1  0.666666  0.333333  0.428099  1
  Ta  Ta2  1  0.333333  0.666666  0.571901  1
  Ta  Ta3  1  0.333333  0.666666  0.928099  1
  Mn  Mn4  1  0.178119  0.356237  0.250001  1
  Mn  Mn5  1  0.178119  0.821882  0.250001  1
  Mn  Mn6  1  0.643764  0.821882  0.250001  1
  Mn  Mn7  1  0.356236  0.178119  0.750000  1
  Mn  Mn8  1  0.821881  0.178119  0.750000  1
  Mn  Mn9  1  0.821881  0.643763  0.750000  1
  Ir  Ir10  1  0.000000  0.000000  0.000000  1
  Ir  Ir11  1  0.000000  0.000000  0.500000  1
