# generated using pymatgen
data_TbPr8HoPb6
_symmetry_space_group_name_H-M   'P 1'
_cell_length_a   9.38998400
_cell_length_b   9.38998427
_cell_length_c   6.91103900
_cell_angle_alpha   90.00000000
_cell_angle_beta   90.00000000
_cell_angle_gamma   119.99999904
_symmetry_Int_Tables_number   1
_chemical_formula_structural   TbPr8HoPb6
_chemical_formula_sum   'Tb1 Pr8 Ho1 Pb6'
_cell_volume   527.72017378
_cell_formula_units_Z   1
loop_
 _symmetry_equiv_pos_site_id
 _symmetry_equiv_pos_as_xyz
  1  'x, y, z'
loop_
 _atom_site_type_symbol
 _atom_site_label
 _atom_site_symmetry_multiplicity
 _atom_site_fract_x
 _atom_site_fract_y
 _atom_site_fract_z
 _atom_site_occupancy
  Tb  Tb0  1  0.666667  0.333333  0.000000  1
  Pr  Pr1  1  0.333333  0.666667  0.500000  1
  Pr  Pr2  1  0.666667  0.333333  0.500000  1
  Pr  Pr3  1  0.759276  0.759371  0.752077  1
  Pr  Pr4  1  0.240629  0.999905  0.752077  1
  Pr  Pr5  1  0.000095  0.240724  0.752077  1
  Pr  Pr6  1  0.240629  0.240724  0.247923  1
  Pr  Pr7  1  0.759276  0.999905  0.247923  1
  Pr  Pr8  1  0.000095  0.759371  0.247923  1
  Ho  Ho9  1  0.333333  0.666667  0.000000  1
  Pb  Pb10  1  0.396308  0.396774  0.757796  1
  Pb  Pb11  1  0.603226  0.999534  0.757796  1
  Pb  Pb12  1  0.000466  0.603692  0.757796  1
  Pb  Pb13  1  0.603226  0.603692  0.242204  1
  Pb  Pb14  1  0.396308  0.999534  0.242204  1
  Pb  Pb15  1  0.000466  0.396774  0.242204  1
