# generated using pymatgen
data_Tb2SmCo(P3Rh4)2
_symmetry_space_group_name_H-M   'P 1'
_cell_length_a   3.88256700
_cell_length_b   11.17089600
_cell_length_c   12.85283200
_cell_angle_alpha   90.00000000
_cell_angle_beta   90.00000000
_cell_angle_gamma   90.00000000
_symmetry_Int_Tables_number   1
_chemical_formula_structural   Tb2SmCo(P3Rh4)2
_chemical_formula_sum   'Tb4 Sm2 Co2 P12 Rh16'
_cell_volume   557.44984419
_cell_formula_units_Z   2
loop_
 _symmetry_equiv_pos_site_id
 _symmetry_equiv_pos_as_xyz
  1  'x, y, z'
loop_
 _atom_site_type_symbol
 _atom_site_label
 _atom_site_symmetry_multiplicity
 _atom_site_fract_x
 _atom_site_fract_y
 _atom_site_fract_z
 _atom_site_occupancy
  Tb  Tb0  1  0.500000  0.815151  0.201665  1
  Tb  Tb1  1  0.500000  0.184849  0.201665  1
  Tb  Tb2  1  0.000000  0.684849  0.798335  1
  Tb  Tb3  1  0.000000  0.315151  0.798335  1
  Sm  Sm4  1  0.000000  0.500000  0.522016  1
  Sm  Sm5  1  0.500000  0.000000  0.477984  1
  Co  Co6  1  0.000000  0.500000  0.980195  1
  Co  Co7  1  0.500000  0.000000  0.019805  1
  P  P8  1  0.500000  0.500000  0.882393  1
  P  P9  1  0.000000  0.000000  0.117607  1
  P  P10  1  0.500000  0.500000  0.349342  1
  P  P11  1  0.000000  0.000000  0.650658  1
  P  P12  1  0.500000  0.314770  0.619860  1
  P  P13  1  0.500000  0.685230  0.619860  1
  P  P14  1  0.000000  0.185230  0.380140  1
  P  P15  1  0.000000  0.814770  0.380140  1
  P  P16  1  0.500000  0.853472  0.896425  1
  P  P17  1  0.500000  0.146528  0.896425  1
  P  P18  1  0.000000  0.646528  0.103575  1
  P  P19  1  0.000000  0.353472  0.103575  1
  Rh  Rh20  1  0.500000  0.500000  0.167683  1
  Rh  Rh21  1  0.000000  0.000000  0.832317  1
  Rh  Rh22  1  0.500000  0.500000  0.704818  1
  Rh  Rh23  1  0.000000  0.000000  0.295182  1
  Rh  Rh24  1  0.500000  0.336790  0.994301  1
  Rh  Rh25  1  0.500000  0.663210  0.994301  1
  Rh  Rh26  1  0.000000  0.163210  0.005699  1
  Rh  Rh27  1  0.000000  0.836790  0.005699  1
  Rh  Rh28  1  0.500000  0.293073  0.429472  1
  Rh  Rh29  1  0.500000  0.706927  0.429472  1
  Rh  Rh30  1  0.000000  0.206927  0.570528  1
  Rh  Rh31  1  0.000000  0.793073  0.570528  1
  Rh  Rh32  1  0.500000  0.873857  0.712908  1
  Rh  Rh33  1  0.500000  0.126143  0.712908  1
  Rh  Rh34  1  0.000000  0.626143  0.287092  1
  Rh  Rh35  1  0.000000  0.373857  0.287092  1
