# generated using pymatgen
data_Zr4ZnSi(B2Ru5)2
_symmetry_space_group_name_H-M   'P 1'
_cell_length_a   9.39045600
_cell_length_b   9.39045600
_cell_length_c   3.06656200
_cell_angle_alpha   90.00000000
_cell_angle_beta   90.00000000
_cell_angle_gamma   90.00000000
_symmetry_Int_Tables_number   1
_chemical_formula_structural   Zr4ZnSi(B2Ru5)2
_chemical_formula_sum   'Zr4 Zn1 Si1 B4 Ru10'
_cell_volume   270.41147301
_cell_formula_units_Z   1
loop_
 _symmetry_equiv_pos_site_id
 _symmetry_equiv_pos_as_xyz
  1  'x, y, z'
loop_
 _atom_site_type_symbol
 _atom_site_label
 _atom_site_symmetry_multiplicity
 _atom_site_fract_x
 _atom_site_fract_y
 _atom_site_fract_z
 _atom_site_occupancy
  Zr  Zr0  1  0.675164  0.175390  0.000000  1
  Zr  Zr1  1  0.324836  0.824610  0.000000  1
  Zr  Zr2  1  0.175390  0.324836  0.000000  1
  Zr  Zr3  1  0.824610  0.675164  0.000000  1
  Zn  Zn4  1  0.000000  0.000000  0.000000  1
  Si  Si5  1  0.500000  0.500000  0.000000  1
  B  B6  1  0.123582  0.625828  0.000000  1
  B  B7  1  0.876418  0.374172  0.000000  1
  B  B8  1  0.625828  0.876418  0.000000  1
  B  B9  1  0.374172  0.123582  0.000000  1
  Ru  Ru10  1  0.216672  0.072630  0.500000  1
  Ru  Ru11  1  0.783328  0.927370  0.500000  1
  Ru  Ru12  1  0.072630  0.783328  0.500000  1
  Ru  Ru13  1  0.710069  0.432943  0.500000  1
  Ru  Ru14  1  0.927370  0.216672  0.500000  1
  Ru  Ru15  1  0.289931  0.567057  0.500000  1
  Ru  Ru16  1  0.567057  0.710069  0.500000  1
  Ru  Ru17  1  0.432943  0.289931  0.500000  1
  Ru  Ru18  1  0.500000  0.000000  0.500000  1
  Ru  Ru19  1  0.000000  0.500000  0.500000  1
