# generated using pymatgen
data_Tb2(NdSn)3
_symmetry_space_group_name_H-M   'P 1'
_cell_length_a   9.19557300
_cell_length_b   9.19557427
_cell_length_c   6.72236400
_cell_angle_alpha   90.00000000
_cell_angle_beta   90.00000000
_cell_angle_gamma   119.99999902
_symmetry_Int_Tables_number   1
_chemical_formula_structural   Tb2(NdSn)3
_chemical_formula_sum   'Tb4 Nd6 Sn6'
_cell_volume   492.27787098
_cell_formula_units_Z   2
loop_
 _symmetry_equiv_pos_site_id
 _symmetry_equiv_pos_as_xyz
  1  'x, y, z'
loop_
 _atom_site_type_symbol
 _atom_site_label
 _atom_site_symmetry_multiplicity
 _atom_site_fract_x
 _atom_site_fract_y
 _atom_site_fract_z
 _atom_site_occupancy
  Tb  Tb0  1  0.333333  0.666667  0.000000  1
  Tb  Tb1  1  0.666667  0.333333  0.500000  1
  Tb  Tb2  1  0.666667  0.333333  0.000000  1
  Tb  Tb3  1  0.333333  0.666667  0.500000  1
  Nd  Nd4  1  0.241334  0.000000  0.250000  1
  Nd  Nd5  1  0.241334  0.241334  0.750000  1
  Nd  Nd6  1  0.000000  0.758666  0.750000  1
  Nd  Nd7  1  0.000000  0.241334  0.250000  1
  Nd  Nd8  1  0.758666  0.758666  0.250000  1
  Nd  Nd9  1  0.758666  0.000000  0.750000  1
  Sn  Sn10  1  0.603245  0.000000  0.250000  1
  Sn  Sn11  1  0.603245  0.603245  0.750000  1
  Sn  Sn12  1  0.000000  0.396755  0.750000  1
  Sn  Sn13  1  0.000000  0.603245  0.250000  1
  Sn  Sn14  1  0.396755  0.396755  0.250000  1
  Sn  Sn15  1  0.396755  0.000000  0.750000  1
