# generated using pymatgen
data_Ho6MnB14Os
_symmetry_space_group_name_H-M   'P 1'
_cell_length_a   8.01070517
_cell_length_b   8.01070512
_cell_length_c   9.27714500
_cell_angle_alpha   90.00000000
_cell_angle_beta   90.00000000
_cell_angle_gamma   154.97438096
_symmetry_Int_Tables_number   1
_chemical_formula_structural   Ho6MnB14Os
_chemical_formula_sum   'Ho6 Mn1 B14 Os1'
_cell_volume   251.83743894
_cell_formula_units_Z   1
loop_
 _symmetry_equiv_pos_site_id
 _symmetry_equiv_pos_as_xyz
  1  'x, y, z'
loop_
 _atom_site_type_symbol
 _atom_site_label
 _atom_site_symmetry_multiplicity
 _atom_site_fract_x
 _atom_site_fract_y
 _atom_site_fract_z
 _atom_site_occupancy
  Ho  Ho0  1  0.894636  0.105364  0.442641  1
  Ho  Ho1  1  0.104778  0.895222  0.563648  1
  Ho  Ho2  1  0.894636  0.105364  0.057359  1
  Ho  Ho3  1  0.104778  0.895222  0.936352  1
  Ho  Ho4  1  0.244106  0.755894  0.250000  1
  Ho  Ho5  1  0.759245  0.240755  0.750000  1
  Mn  Mn6  1  0.947011  0.052989  0.750000  1
  B  B7  1  0.727208  0.272792  0.466399  1
  B  B8  1  0.272290  0.727710  0.533833  1
  B  B9  1  0.727208  0.272792  0.033601  1
  B  B10  1  0.272290  0.727710  0.966167  1
  B  B11  1  0.631947  0.368053  0.150072  1
  B  B12  1  0.369862  0.630138  0.846499  1
  B  B13  1  0.631947  0.368053  0.349928  1
  B  B14  1  0.369862  0.630138  0.653501  1
  B  B15  1  0.520226  0.479774  0.095287  1
  B  B16  1  0.478512  0.521488  0.901820  1
  B  B17  1  0.520226  0.479774  0.404713  1
  B  B18  1  0.478512  0.521488  0.598180  1
  B  B19  1  0.455954  0.544046  0.250000  1
  B  B20  1  0.540983  0.459017  0.750000  1
  Os  Os21  1  0.053781  0.946219  0.250000  1
