# generated using pymatgen
data_Pr5Mo3P12Ru9Rh7
_symmetry_space_group_name_H-M   'P 1'
_cell_length_a   12.78145600
_cell_length_b   12.78145635
_cell_length_c   3.99939300
_cell_angle_alpha   90.00000000
_cell_angle_beta   90.00000000
_cell_angle_gamma   119.99999909
_symmetry_Int_Tables_number   1
_chemical_formula_structural   Pr5Mo3P12Ru9Rh7
_chemical_formula_sum   'Pr5 Mo3 P12 Ru9 Rh7'
_cell_volume   565.82924254
_cell_formula_units_Z   1
loop_
 _symmetry_equiv_pos_site_id
 _symmetry_equiv_pos_as_xyz
  1  'x, y, z'
loop_
 _atom_site_type_symbol
 _atom_site_label
 _atom_site_symmetry_multiplicity
 _atom_site_fract_x
 _atom_site_fract_y
 _atom_site_fract_z
 _atom_site_occupancy
  Pr  Pr0  1  0.812029  0.000000  0.500000  1
  Pr  Pr1  1  0.000000  0.812029  0.500000  1
  Pr  Pr2  1  0.187971  0.187971  0.500000  1
  Pr  Pr3  1  0.333333  0.666667  0.000000  1
  Pr  Pr4  1  0.666667  0.333333  0.000000  1
  Mo  Mo5  1  0.442334  0.000000  0.000000  1
  Mo  Mo6  1  0.000000  0.442334  0.000000  1
  Mo  Mo7  1  0.557666  0.557666  0.000000  1
  P  P8  1  0.184861  0.000000  0.000000  1
  P  P9  1  0.000000  0.184861  0.000000  1
  P  P10  1  0.815139  0.815139  0.000000  1
  P  P11  1  0.520241  0.684328  0.500000  1
  P  P12  1  0.315672  0.835913  0.500000  1
  P  P13  1  0.164087  0.479759  0.500000  1
  P  P14  1  0.479759  0.164087  0.500000  1
  P  P15  1  0.684328  0.520241  0.500000  1
  P  P16  1  0.835913  0.315672  0.500000  1
  P  P17  1  0.625648  0.000000  0.000000  1
  P  P18  1  0.000000  0.625648  0.000000  1
  P  P19  1  0.374352  0.374352  0.000000  1
  Ru  Ru20  1  0.283345  0.000000  0.500000  1
  Ru  Ru21  1  0.000000  0.283345  0.500000  1
  Ru  Ru22  1  0.716655  0.716655  0.500000  1
  Ru  Ru23  1  0.513924  0.873328  0.500000  1
  Ru  Ru24  1  0.126672  0.640596  0.500000  1
  Ru  Ru25  1  0.359404  0.486076  0.500000  1
  Ru  Ru26  1  0.486076  0.359404  0.500000  1
  Ru  Ru27  1  0.873328  0.513924  0.500000  1
  Ru  Ru28  1  0.640596  0.126672  0.500000  1
  Rh  Rh29  1  0.625181  0.806362  0.000000  1
  Rh  Rh30  1  0.193638  0.818820  0.000000  1
  Rh  Rh31  1  0.181180  0.374819  0.000000  1
  Rh  Rh32  1  0.374819  0.181180  0.000000  1
  Rh  Rh33  1  0.806362  0.625181  0.000000  1
  Rh  Rh34  1  0.818820  0.193638  0.000000  1
  Rh  Rh35  1  0.000000  0.000000  0.000000  1
