# generated using pymatgen
data_Hf16Nb3Ni4Ir
_symmetry_space_group_name_H-M   'P 1'
_cell_length_a   8.72351762
_cell_length_b   8.72351724
_cell_length_c   8.72351750
_cell_angle_alpha   60.36103686
_cell_angle_beta   60.36104310
_cell_angle_gamma   60.36104042
_symmetry_Int_Tables_number   1
_chemical_formula_structural   Hf16Nb3Ni4Ir
_chemical_formula_sum   'Hf16 Nb3 Ni4 Ir1'
_cell_volume   473.25184345
_cell_formula_units_Z   1
loop_
 _symmetry_equiv_pos_site_id
 _symmetry_equiv_pos_as_xyz
  1  'x, y, z'
loop_
 _atom_site_type_symbol
 _atom_site_label
 _atom_site_symmetry_multiplicity
 _atom_site_fract_x
 _atom_site_fract_y
 _atom_site_fract_z
 _atom_site_occupancy
  Hf  Hf0  1  0.696627  0.101396  0.101396  1
  Hf  Hf1  1  0.101396  0.696627  0.101396  1
  Hf  Hf2  1  0.101396  0.101396  0.696627  1
  Hf  Hf3  1  0.102007  0.102007  0.102007  1
  Hf  Hf4  1  0.314705  0.314705  0.682651  1
  Hf  Hf5  1  0.685094  0.685094  0.314746  1
  Hf  Hf6  1  0.314705  0.682651  0.314705  1
  Hf  Hf7  1  0.685094  0.314746  0.685094  1
  Hf  Hf8  1  0.682651  0.314705  0.314705  1
  Hf  Hf9  1  0.314746  0.685094  0.685094  1
  Hf  Hf10  1  0.950626  0.950626  0.548698  1
  Hf  Hf11  1  0.550152  0.550152  0.950485  1
  Hf  Hf12  1  0.950626  0.548698  0.950626  1
  Hf  Hf13  1  0.550152  0.950485  0.550152  1
  Hf  Hf14  1  0.548698  0.950626  0.950626  1
  Hf  Hf15  1  0.950485  0.550152  0.550152  1
  Nb  Nb16  1  0.999291  0.334365  0.334365  1
  Nb  Nb17  1  0.334365  0.999291  0.334365  1
  Nb  Nb18  1  0.334365  0.334365  0.999291  1
  Ni  Ni19  1  0.325182  0.890222  0.890222  1
  Ni  Ni20  1  0.890222  0.325182  0.890222  1
  Ni  Ni21  1  0.890222  0.890222  0.325182  1
  Ni  Ni22  1  0.891333  0.891333  0.891333  1
  Ir  Ir23  1  0.335858  0.335858  0.335858  1
