# generated using pymatgen
data_In(FeI4)2
_symmetry_space_group_name_H-M   'P 1'
_cell_length_a   11.41036727
_cell_length_b   11.41036618
_cell_length_c   14.34590476
_cell_angle_alpha   53.87395827
_cell_angle_beta   53.87396187
_cell_angle_gamma   48.84359215
_symmetry_Int_Tables_number   1
_chemical_formula_structural   In(FeI4)2
_chemical_formula_sum   'In2 Fe4 I16'
_cell_volume   1071.68489369
_cell_formula_units_Z   2
loop_
 _symmetry_equiv_pos_site_id
 _symmetry_equiv_pos_as_xyz
  1  'x, y, z'
loop_
 _atom_site_type_symbol
 _atom_site_label
 _atom_site_symmetry_multiplicity
 _atom_site_fract_x
 _atom_site_fract_y
 _atom_site_fract_z
 _atom_site_occupancy
  In  In0  1  0.994735  0.005265  0.750000  1
  In  In1  1  0.005265  0.994735  0.250000  1
  Fe  Fe2  1  0.673693  0.159229  0.033421  1
  Fe  Fe3  1  0.326307  0.840771  0.966579  1
  Fe  Fe4  1  0.840771  0.326307  0.466579  1
  Fe  Fe5  1  0.159229  0.673693  0.533421  1
  I  I6  1  0.870799  0.824459  0.517715  1
  I  I7  1  0.129201  0.175541  0.482285  1
  I  I8  1  0.690358  0.625762  0.437120  1
  I  I9  1  0.625762  0.690358  0.937120  1
  I  I10  1  0.824459  0.870799  0.017715  1
  I  I11  1  0.848034  0.315268  0.287848  1
  I  I12  1  0.164806  0.704218  0.180874  1
  I  I13  1  0.295782  0.835194  0.319126  1
  I  I14  1  0.151966  0.684732  0.712152  1
  I  I15  1  0.309642  0.374238  0.562880  1
  I  I16  1  0.684732  0.151966  0.212152  1
  I  I17  1  0.175541  0.129201  0.982285  1
  I  I18  1  0.374238  0.309642  0.062880  1
  I  I19  1  0.315268  0.848034  0.787848  1
  I  I20  1  0.704218  0.164806  0.680874  1
  I  I21  1  0.835194  0.295782  0.819126  1
