# generated using pymatgen
data_LiPr3Nd(FeO4)3
_symmetry_space_group_name_H-M   'P 1'
_cell_length_a   5.46116163
_cell_length_b   5.63882905
_cell_length_c   7.87887842
_cell_angle_alpha   89.97192386
_cell_angle_beta   89.91309382
_cell_angle_gamma   90.34071114
_symmetry_Int_Tables_number   1
_chemical_formula_structural   LiPr3Nd(FeO4)3
_chemical_formula_sum   'Li1 Pr3 Nd1 Fe3 O12'
_cell_volume   242.62197026
_cell_formula_units_Z   1
loop_
 _symmetry_equiv_pos_site_id
 _symmetry_equiv_pos_as_xyz
  1  'x, y, z'
loop_
 _atom_site_type_symbol
 _atom_site_label
 _atom_site_symmetry_multiplicity
 _atom_site_fract_x
 _atom_site_fract_y
 _atom_site_fract_z
 _atom_site_occupancy
  Li  Li0  1  0.000296  0.500051  0.499502  1
  Pr  Pr1  1  0.015870  0.941034  0.742194  1
  Pr  Pr2  1  0.507706  0.550692  0.257698  1
  Pr  Pr3  1  0.491770  0.449270  0.742368  1
  Nd  Nd4  1  0.983537  0.061425  0.257883  1
  Fe  Fe5  1  0.499952  0.000065  0.499109  1
  Fe  Fe6  1  0.499967  0.999919  0.000622  1
  Fe  Fe7  1  0.000224  0.500209  0.000529  1
  O  O8  1  0.694247  0.277763  0.457893  1
  O  O9  1  0.224778  0.192485  0.539124  1
  O  O10  1  0.789761  0.796171  0.052984  1
  O  O11  1  0.294781  0.707960  0.951453  1
  O  O12  1  0.307474  0.721029  0.541210  1
  O  O13  1  0.775998  0.809121  0.458094  1
  O  O14  1  0.211894  0.205474  0.948850  1
  O  O15  1  0.706836  0.290437  0.049938  1
  O  O16  1  0.079651  0.477066  0.239086  1
  O  O17  1  0.589557  0.021698  0.755389  1
  O  O18  1  0.405703  0.977531  0.244463  1
  O  O19  1  0.920000  0.520599  0.761613  1
