# generated using pymatgen
data_Zr3In3NiPt2
_symmetry_space_group_name_H-M   'P 1'
_cell_length_a   7.50170300
_cell_length_b   7.50170330
_cell_length_c   3.53935700
_cell_angle_alpha   90.00000000
_cell_angle_beta   90.00000000
_cell_angle_gamma   119.99999429
_symmetry_Int_Tables_number   1
_chemical_formula_structural   Zr3In3NiPt2
_chemical_formula_sum   'Zr3 In3 Ni1 Pt2'
_cell_volume   172.49431094
_cell_formula_units_Z   1
loop_
 _symmetry_equiv_pos_site_id
 _symmetry_equiv_pos_as_xyz
  1  'x, y, z'
loop_
 _atom_site_type_symbol
 _atom_site_label
 _atom_site_symmetry_multiplicity
 _atom_site_fract_x
 _atom_site_fract_y
 _atom_site_fract_z
 _atom_site_occupancy
  Zr  Zr0  1  0.602809  0.000000  0.000000  1
  Zr  Zr1  1  0.397191  0.397191  0.000000  1
  Zr  Zr2  1  0.000000  0.602809  0.000000  1
  In  In3  1  0.742867  0.742867  0.500000  1
  In  In4  1  0.000000  0.257133  0.500000  1
  In  In5  1  0.257133  0.000000  0.500000  1
  Ni  Ni6  1  0.000000  0.000000  0.000000  1
  Pt  Pt7  1  0.666667  0.333333  0.500000  1
  Pt  Pt8  1  0.333333  0.666667  0.500000  1
