# generated using pymatgen
data_Lu9Sc3(TcRu)2
_symmetry_space_group_name_H-M   'P 1'
_cell_length_a   6.10039602
_cell_length_b   7.11721843
_cell_length_c   8.84699600
_cell_angle_alpha   90.00000000
_cell_angle_beta   90.00000000
_cell_angle_gamma   90.52679267
_symmetry_Int_Tables_number   1
_chemical_formula_structural   Lu9Sc3(TcRu)2
_chemical_formula_sum   'Lu9 Sc3 Tc2 Ru2'
_cell_volume   384.10131828
_cell_formula_units_Z   1
loop_
 _symmetry_equiv_pos_site_id
 _symmetry_equiv_pos_as_xyz
  1  'x, y, z'
loop_
 _atom_site_type_symbol
 _atom_site_label
 _atom_site_symmetry_multiplicity
 _atom_site_fract_x
 _atom_site_fract_y
 _atom_site_fract_z
 _atom_site_occupancy
  Lu  Lu0  1  0.332656  0.675047  0.062990  1
  Lu  Lu1  1  0.165865  0.179397  0.436408  1
  Lu  Lu2  1  0.668609  0.324258  0.559819  1
  Lu  Lu3  1  0.835035  0.821564  0.940104  1
  Lu  Lu4  1  0.668609  0.324258  0.940181  1
  Lu  Lu5  1  0.835035  0.821564  0.559896  1
  Lu  Lu6  1  0.332656  0.675047  0.437010  1
  Lu  Lu7  1  0.165865  0.179397  0.063592  1
  Lu  Lu8  1  0.370684  0.959881  0.750000  1
  Sc  Sc9  1  0.872370  0.542768  0.250000  1
  Sc  Sc10  1  0.627862  0.042107  0.250000  1
  Sc  Sc11  1  0.130206  0.456298  0.750000  1
  Tc  Tc12  1  0.025372  0.882075  0.250000  1
  Tc  Tc13  1  0.476100  0.381797  0.250000  1
  Ru  Ru14  1  0.965490  0.121368  0.750000  1
  Ru  Ru15  1  0.527585  0.613174  0.750000  1
