# generated using pymatgen
data_Sm2Sn5Rh3
_symmetry_space_group_name_H-M   'P 1'
_cell_length_a   13.55984274
_cell_length_b   13.55984210
_cell_length_c   7.30761100
_cell_angle_alpha   90.00000000
_cell_angle_beta   90.00000000
_cell_angle_gamma   161.03186974
_symmetry_Int_Tables_number   1
_chemical_formula_structural   Sm2Sn5Rh3
_chemical_formula_sum   'Sm4 Sn10 Rh6'
_cell_volume   436.74146189
_cell_formula_units_Z   2
loop_
 _symmetry_equiv_pos_site_id
 _symmetry_equiv_pos_as_xyz
  1  'x, y, z'
loop_
 _atom_site_type_symbol
 _atom_site_label
 _atom_site_symmetry_multiplicity
 _atom_site_fract_x
 _atom_site_fract_y
 _atom_site_fract_z
 _atom_site_occupancy
  Sm  Sm0  1  0.172348  0.827652  0.754838  1
  Sm  Sm1  1  0.827652  0.172348  0.254838  1
  Sm  Sm2  1  0.476428  0.523572  0.736771  1
  Sm  Sm3  1  0.523572  0.476428  0.236771  1
  Sn  Sn4  1  0.880117  0.119883  0.731393  1
  Sn  Sn5  1  0.119883  0.880117  0.231393  1
  Sn  Sn6  1  0.704858  0.295142  0.050417  1
  Sn  Sn7  1  0.295142  0.704858  0.550417  1
  Sn  Sn8  1  0.596391  0.403609  0.612363  1
  Sn  Sn9  1  0.403609  0.596391  0.112363  1
  Sn  Sn10  1  0.951780  0.048220  0.400146  1
  Sn  Sn11  1  0.048220  0.951780  0.900146  1
  Sn  Sn12  1  0.290302  0.709698  0.976306  1
  Sn  Sn13  1  0.709698  0.290302  0.476306  1
  Rh  Rh14  1  0.050673  0.949327  0.519760  1
  Rh  Rh15  1  0.949327  0.050673  0.019760  1
  Rh  Rh16  1  0.777291  0.222709  0.764266  1
  Rh  Rh17  1  0.222709  0.777291  0.264266  1
  Rh  Rh18  1  0.393529  0.606471  0.481738  1
  Rh  Rh19  1  0.606471  0.393529  0.981738  1
