# generated using pymatgen
data_Ho3ErTa5TiSi8
_symmetry_space_group_name_H-M   'P 1'
_cell_length_a   7.03687701
_cell_length_b   7.02980106
_cell_length_c   12.94219700
_cell_angle_alpha   90.00000000
_cell_angle_beta   90.00000000
_cell_angle_gamma   89.99544918
_symmetry_Int_Tables_number   1
_chemical_formula_structural   Ho3ErTa5TiSi8
_chemical_formula_sum   'Ho6 Er2 Ta10 Ti2 Si16'
_cell_volume   640.22259893
_cell_formula_units_Z   2
loop_
 _symmetry_equiv_pos_site_id
 _symmetry_equiv_pos_as_xyz
  1  'x, y, z'
loop_
 _atom_site_type_symbol
 _atom_site_label
 _atom_site_symmetry_multiplicity
 _atom_site_fract_x
 _atom_site_fract_y
 _atom_site_fract_z
 _atom_site_occupancy
  Ho  Ho0  1  0.341850  0.002301  0.467721  1
  Ho  Ho1  1  0.498513  0.841962  0.717872  1
  Ho  Ho2  1  0.501487  0.158038  0.217872  1
  Ho  Ho3  1  0.842047  0.498427  0.282389  1
  Ho  Ho4  1  0.157953  0.501573  0.782389  1
  Ho  Ho5  1  0.658150  0.997700  0.967721  1
  Er  Er6  1  0.002251  0.341006  0.532008  1
  Er  Er7  1  0.997750  0.658994  0.032008  1
  Ta  Ta8  1  0.328860  0.329221  0.999655  1
  Ta  Ta9  1  0.172933  0.826563  0.250029  1
  Ta  Ta10  1  0.827067  0.173437  0.750029  1
  Ta  Ta11  1  0.671140  0.670779  0.499655  1
  Ta  Ta12  1  0.152354  0.007187  0.873904  1
  Ta  Ta13  1  0.493057  0.652107  0.124198  1
  Ta  Ta14  1  0.506943  0.347893  0.624198  1
  Ta  Ta15  1  0.651872  0.492085  0.876058  1
  Ta  Ta16  1  0.348128  0.507915  0.376058  1
  Ta  Ta17  1  0.847646  0.992813  0.373904  1
  Ti  Ti18  1  0.007765  0.152937  0.126063  1
  Ti  Ti19  1  0.992235  0.847063  0.626063  1
  Si  Si20  1  0.202018  0.132360  0.681325  1
  Si  Si21  1  0.365284  0.704893  0.931614  1
  Si  Si22  1  0.634716  0.295107  0.431614  1
  Si  Si23  1  0.705166  0.364253  0.068877  1
  Si  Si24  1  0.294834  0.635747  0.568877  1
  Si  Si25  1  0.797982  0.867640  0.181325  1
  Si  Si26  1  0.134446  0.203057  0.317965  1
  Si  Si27  1  0.865554  0.796943  0.817965  1
  Si  Si28  1  0.292341  0.954596  0.064460  1
  Si  Si29  1  0.546642  0.794737  0.313695  1
  Si  Si30  1  0.453358  0.205263  0.813695  1
  Si  Si31  1  0.796328  0.547539  0.685166  1
  Si  Si32  1  0.203672  0.452461  0.185166  1
  Si  Si33  1  0.707659  0.045404  0.564460  1
  Si  Si34  1  0.954090  0.294343  0.937002  1
  Si  Si35  1  0.045910  0.705657  0.437002  1
