# generated using pymatgen
data_TaNbCr4Si5
_symmetry_space_group_name_H-M   'P 1'
_cell_length_a   9.06353169
_cell_length_b   9.06353081
_cell_length_c   9.05825411
_cell_angle_alpha   131.07305017
_cell_angle_beta   59.14394208
_cell_angle_gamma   148.86443399
_symmetry_Int_Tables_number   1
_chemical_formula_structural   TaNbCr4Si5
_chemical_formula_sum   'Ta2 Nb2 Cr8 Si10'
_cell_volume   287.70884018
_cell_formula_units_Z   2
loop_
 _symmetry_equiv_pos_site_id
 _symmetry_equiv_pos_as_xyz
  1  'x, y, z'
loop_
 _atom_site_type_symbol
 _atom_site_label
 _atom_site_symmetry_multiplicity
 _atom_site_fract_x
 _atom_site_fract_y
 _atom_site_fract_z
 _atom_site_occupancy
  Ta  Ta0  1  0.141637  0.119774  0.261411  1
  Ta  Ta1  1  0.858364  0.880226  0.738588  1
  Nb  Nb2  1  0.358478  0.619996  0.978474  1
  Nb  Nb3  1  0.641523  0.380006  0.021527  1
  Cr  Cr4  1  0.557314  0.250446  0.308098  1
  Cr  Cr5  1  0.942348  0.249216  0.691902  1
  Cr  Cr6  1  0.442687  0.749556  0.691903  1
  Cr  Cr7  1  0.057653  0.750786  0.308098  1
  Cr  Cr8  1  0.439173  0.244459  0.683632  1
  Cr  Cr9  1  0.560828  0.755543  0.316369  1
  Cr  Cr10  1  0.060616  0.744761  0.805377  1
  Cr  Cr11  1  0.939385  0.255239  0.194622  1
  Si  Si12  1  0.064900  0.422971  0.487871  1
  Si  Si13  1  0.935101  0.577030  0.512130  1
  Si  Si14  1  0.435032  0.922299  0.357329  1
  Si  Si15  1  0.564969  0.077702  0.642672  1
  Si  Si16  1  0.288235  0.292564  0.580799  1
  Si  Si17  1  0.711766  0.707438  0.419202  1
  Si  Si18  1  0.211969  0.791940  0.003907  1
  Si  Si19  1  0.788032  0.208062  0.996093  1
  Si  Si20  1  0.250280  0.250280  0.000000  1
  Si  Si21  1  0.749720  0.749720  0.000000  1
