# generated using pymatgen
data_Y2TmGa5
_symmetry_space_group_name_H-M   'P 1'
_cell_length_a   6.09370700
_cell_length_b   9.61092500
_cell_length_c   11.54815900
_cell_angle_alpha   90.00000000
_cell_angle_beta   90.00000000
_cell_angle_gamma   90.00000000
_symmetry_Int_Tables_number   1
_chemical_formula_structural   Y2TmGa5
_chemical_formula_sum   'Y8 Tm4 Ga20'
_cell_volume   676.33133866
_cell_formula_units_Z   4
loop_
 _symmetry_equiv_pos_site_id
 _symmetry_equiv_pos_as_xyz
  1  'x, y, z'
loop_
 _atom_site_type_symbol
 _atom_site_label
 _atom_site_symmetry_multiplicity
 _atom_site_fract_x
 _atom_site_fract_y
 _atom_site_fract_z
 _atom_site_occupancy
  Y  Y0  1  0.891222  0.509794  0.351053  1
  Y  Y1  1  0.608778  0.990206  0.851053  1
  Y  Y2  1  0.108778  0.009794  0.648947  1
  Y  Y3  1  0.391222  0.490206  0.148947  1
  Y  Y4  1  0.108778  0.490206  0.648947  1
  Y  Y5  1  0.391222  0.009794  0.148947  1
  Y  Y6  1  0.891222  0.990206  0.351053  1
  Y  Y7  1  0.608778  0.509794  0.851053  1
  Tm  Tm8  1  0.849067  0.750000  0.075375  1
  Tm  Tm9  1  0.650933  0.750000  0.575375  1
  Tm  Tm10  1  0.150933  0.250000  0.924625  1
  Tm  Tm11  1  0.349067  0.250000  0.424625  1
  Ga  Ga12  1  0.876571  0.053696  0.089478  1
  Ga  Ga13  1  0.623429  0.446304  0.589478  1
  Ga  Ga14  1  0.123429  0.553696  0.910522  1
  Ga  Ga15  1  0.376571  0.946304  0.410522  1
  Ga  Ga16  1  0.123429  0.946304  0.910522  1
  Ga  Ga17  1  0.376571  0.553696  0.410522  1
  Ga  Ga18  1  0.876571  0.446304  0.089478  1
  Ga  Ga19  1  0.623429  0.053696  0.589478  1
  Ga  Ga20  1  0.170840  0.750000  0.251691  1
  Ga  Ga21  1  0.329160  0.750000  0.751691  1
  Ga  Ga22  1  0.829160  0.250000  0.748309  1
  Ga  Ga23  1  0.670840  0.250000  0.248309  1
  Ga  Ga24  1  0.374373  0.750000  0.003816  1
  Ga  Ga25  1  0.125627  0.750000  0.503816  1
  Ga  Ga26  1  0.625627  0.250000  0.996184  1
  Ga  Ga27  1  0.874373  0.250000  0.496184  1
  Ga  Ga28  1  0.600154  0.750000  0.298897  1
  Ga  Ga29  1  0.899846  0.750000  0.798897  1
  Ga  Ga30  1  0.399846  0.250000  0.701103  1
  Ga  Ga31  1  0.100154  0.250000  0.201103  1
