# generated using pymatgen
data_Tm2(CdSn)3
_symmetry_space_group_name_H-M   'P 1'
_cell_length_a   4.62756500
_cell_length_b   4.72825500
_cell_length_c   8.87940300
_cell_angle_alpha   90.00000000
_cell_angle_beta   90.00000000
_cell_angle_gamma   90.00000000
_symmetry_Int_Tables_number   1
_chemical_formula_structural   Tm2(CdSn)3
_chemical_formula_sum   'Tm2 Cd3 Sn3'
_cell_volume   194.28406672
_cell_formula_units_Z   1
loop_
 _symmetry_equiv_pos_site_id
 _symmetry_equiv_pos_as_xyz
  1  'x, y, z'
loop_
 _atom_site_type_symbol
 _atom_site_label
 _atom_site_symmetry_multiplicity
 _atom_site_fract_x
 _atom_site_fract_y
 _atom_site_fract_z
 _atom_site_occupancy
  Tm  Tm0  1  0.000000  0.000000  0.243483  1
  Tm  Tm1  1  0.000000  0.000000  0.756517  1
  Cd  Cd2  1  0.500000  0.500000  0.255638  1
  Cd  Cd3  1  0.500000  0.500000  0.744362  1
  Cd  Cd4  1  0.000000  0.500000  0.500000  1
  Sn  Sn5  1  0.000000  0.500000  0.000000  1
  Sn  Sn6  1  0.500000  0.000000  0.500000  1
  Sn  Sn7  1  0.500000  0.000000  0.000000  1
