# generated using pymatgen
data_Sc7Co16ReP12
_symmetry_space_group_name_H-M   'P 1'
_cell_length_a   11.99655377
_cell_length_b   11.99655475
_cell_length_c   3.63146400
_cell_angle_alpha   90.00000000
_cell_angle_beta   90.00000000
_cell_angle_gamma   119.88074900
_symmetry_Int_Tables_number   1
_chemical_formula_structural   Sc7Co16ReP12
_chemical_formula_sum   'Sc7 Co16 Re1 P12'
_cell_volume   453.15422920
_cell_formula_units_Z   1
loop_
 _symmetry_equiv_pos_site_id
 _symmetry_equiv_pos_as_xyz
  1  'x, y, z'
loop_
 _atom_site_type_symbol
 _atom_site_label
 _atom_site_symmetry_multiplicity
 _atom_site_fract_x
 _atom_site_fract_y
 _atom_site_fract_z
 _atom_site_occupancy
  Sc  Sc0  1  0.557959  0.001264  0.000000  1
  Sc  Sc1  1  0.001264  0.557959  0.000000  1
  Sc  Sc2  1  0.666548  0.335003  0.000000  1
  Sc  Sc3  1  0.335003  0.666548  0.000000  1
  Sc  Sc4  1  0.812551  0.812551  0.500000  1
  Sc  Sc5  1  0.181648  0.999922  0.500000  1
  Sc  Sc6  1  0.999922  0.181648  0.500000  1
  Co  Co7  1  0.199226  0.371739  0.000000  1
  Co  Co8  1  0.178326  0.807897  0.000000  1
  Co  Co9  1  0.817470  0.624334  0.000000  1
  Co  Co10  1  0.807897  0.178326  0.000000  1
  Co  Co11  1  0.371739  0.199226  0.000000  1
  Co  Co12  1  0.132041  0.482351  0.500000  1
  Co  Co13  1  0.354721  0.877732  0.500000  1
  Co  Co14  1  0.516249  0.641497  0.500000  1
  Co  Co15  1  0.641497  0.516249  0.500000  1
  Co  Co16  1  0.877732  0.354721  0.500000  1
  Co  Co17  1  0.482351  0.132041  0.500000  1
  Co  Co18  1  0.999192  0.999192  0.000000  1
  Co  Co19  1  0.721050  0.997390  0.500000  1
  Co  Co20  1  0.997390  0.721050  0.500000  1
  Co  Co21  1  0.624334  0.817470  0.000000  1
  Co  Co22  1  0.280427  0.280427  0.500000  1
  Re  Re23  1  0.447867  0.447867  0.000000  1
  P  P24  1  0.641509  0.641509  0.000000  1
  P  P25  1  0.351105  0.004113  0.000000  1
  P  P26  1  0.004113  0.351105  0.000000  1
  P  P27  1  0.481691  0.315813  0.500000  1
  P  P28  1  0.691828  0.174703  0.500000  1
  P  P29  1  0.826185  0.514512  0.500000  1
  P  P30  1  0.514512  0.826185  0.500000  1
  P  P31  1  0.174703  0.691828  0.500000  1
  P  P32  1  0.822158  0.997376  0.000000  1
  P  P33  1  0.997376  0.822158  0.000000  1
  P  P34  1  0.315813  0.481691  0.500000  1
  P  P35  1  0.174606  0.174606  0.000000  1
