# generated using pymatgen
data_Tb5Y5(Pb3S)2
_symmetry_space_group_name_H-M   'P 1'
_cell_length_a   9.18118182
_cell_length_b   9.18126083
_cell_length_c   6.74185100
_cell_angle_alpha   90.00000000
_cell_angle_beta   90.00000000
_cell_angle_gamma   120.01937805
_symmetry_Int_Tables_number   1
_chemical_formula_structural   Tb5Y5(Pb3S)2
_chemical_formula_sum   'Tb5 Y5 Pb6 S2'
_cell_volume   492.06883397
_cell_formula_units_Z   1
loop_
 _symmetry_equiv_pos_site_id
 _symmetry_equiv_pos_as_xyz
  1  'x, y, z'
loop_
 _atom_site_type_symbol
 _atom_site_label
 _atom_site_symmetry_multiplicity
 _atom_site_fract_x
 _atom_site_fract_y
 _atom_site_fract_z
 _atom_site_occupancy
  Tb  Tb0  1  0.243985  0.000624  0.750000  1
  Tb  Tb1  1  0.000641  0.243990  0.750000  1
  Tb  Tb2  1  0.242491  0.242501  0.250000  1
  Tb  Tb3  1  0.756251  0.999538  0.250000  1
  Tb  Tb4  1  0.999545  0.756254  0.250000  1
  Y  Y5  1  0.757312  0.757327  0.750000  1
  Y  Y6  1  0.666651  0.333203  0.999988  1
  Y  Y7  1  0.333207  0.666647  0.999982  1
  Y  Y8  1  0.333207  0.666647  0.500018  1
  Y  Y9  1  0.666651  0.333203  0.500012  1
  Pb  Pb10  1  0.398173  0.398154  0.750000  1
  Pb  Pb11  1  0.603547  0.999589  0.750000  1
  Pb  Pb12  1  0.999543  0.603530  0.750000  1
  Pb  Pb13  1  0.602553  0.602530  0.250000  1
  Pb  Pb14  1  0.396652  0.999959  0.250000  1
  Pb  Pb15  1  0.999933  0.396642  0.250000  1
  S  S16  1  0.999832  0.999831  0.999872  1
  S  S17  1  0.999832  0.999831  0.500128  1
