# generated using pymatgen
data_CsDy2Tm8(C2I9)2
_symmetry_space_group_name_H-M   'P 1'
_cell_length_a   11.46168400
_cell_length_b   11.44249756
_cell_length_c   11.40593028
_cell_angle_alpha   113.19042197
_cell_angle_beta   86.52983442
_cell_angle_gamma   120.30366822
_symmetry_Int_Tables_number   1
_chemical_formula_structural   CsDy2Tm8(C2I9)2
_chemical_formula_sum   'Cs1 Dy2 Tm8 C4 I18'
_cell_volume   1169.01487634
_cell_formula_units_Z   1
loop_
 _symmetry_equiv_pos_site_id
 _symmetry_equiv_pos_as_xyz
  1  'x, y, z'
loop_
 _atom_site_type_symbol
 _atom_site_label
 _atom_site_symmetry_multiplicity
 _atom_site_fract_x
 _atom_site_fract_y
 _atom_site_fract_z
 _atom_site_occupancy
  Cs  Cs0  1  0.499862  0.999760  0.499997  1
  Dy  Dy1  1  0.723099  0.647189  0.986438  1
  Dy  Dy2  1  0.895891  0.055216  0.999643  1
  Tm  Tm3  1  0.685475  0.728683  0.716571  1
  Tm  Tm4  1  0.275519  0.350061  0.014470  1
  Tm  Tm5  1  0.092977  0.382715  0.286384  1
  Tm  Tm6  1  0.964185  0.036769  0.322246  1
  Tm  Tm7  1  0.907379  0.616189  0.712524  1
  Tm  Tm8  1  0.101134  0.945965  0.000800  1
  Tm  Tm9  1  0.036425  0.963237  0.677906  1
  Tm  Tm10  1  0.314304  0.270691  0.283807  1
  C  C11  1  0.151531  0.217653  0.117960  1
  C  C12  1  0.849530  0.781165  0.881518  1
  C  C13  1  0.926813  0.858820  0.804408  1
  C  C14  1  0.074209  0.140225  0.195316  1
  I  I15  1  0.451588  0.531589  0.831694  1
  I  I16  1  0.379721  0.042070  0.156845  1
  I  I17  1  0.781605  0.856339  0.503499  1
  I  I18  1  0.841232  0.311546  0.154945  1
  I  I19  1  0.545868  0.467782  0.168249  1
  I  I20  1  0.219171  0.144187  0.497238  1
  I  I21  1  0.315498  0.098036  0.829216  1
  I  I22  1  0.684066  0.903659  0.173640  1
  I  I23  1  0.974743  0.758357  0.171131  1
  I  I24  1  0.936145  0.296776  0.498214  1
  I  I25  1  0.029887  0.244406  0.829021  1
  I  I26  1  0.065543  0.704544  0.501994  1
  I  I27  1  0.259016  0.616784  0.180772  1
  I  I28  1  0.742123  0.379835  0.815989  1
  I  I29  1  0.646746  0.441500  0.505997  1
  I  I30  1  0.159238  0.693814  0.848116  1
  I  I31  1  0.616900  0.955992  0.839987  1
  I  I32  1  0.352578  0.558447  0.493465  1
