# generated using pymatgen
data_Dy4Sc4Pt3Au
_symmetry_space_group_name_H-M   'P 1'
_cell_length_a   4.67487000
_cell_length_b   7.00707998
_cell_length_c   8.40312649
_cell_angle_alpha   89.39927731
_cell_angle_beta   90.00000000
_cell_angle_gamma   90.00000000
_symmetry_Int_Tables_number   1
_chemical_formula_structural   Dy4Sc4Pt3Au
_chemical_formula_sum   'Dy4 Sc4 Pt3 Au1'
_cell_volume   275.24766475
_cell_formula_units_Z   1
loop_
 _symmetry_equiv_pos_site_id
 _symmetry_equiv_pos_as_xyz
  1  'x, y, z'
loop_
 _atom_site_type_symbol
 _atom_site_label
 _atom_site_symmetry_multiplicity
 _atom_site_fract_x
 _atom_site_fract_y
 _atom_site_fract_z
 _atom_site_occupancy
  Dy  Dy0  1  0.250000  0.481117  0.174555  1
  Dy  Dy1  1  0.750000  0.517190  0.826688  1
  Dy  Dy2  1  0.750000  0.023146  0.676318  1
  Dy  Dy3  1  0.250000  0.986655  0.321143  1
  Sc  Sc4  1  0.250000  0.862992  0.931908  1
  Sc  Sc5  1  0.750000  0.139742  0.071773  1
  Sc  Sc6  1  0.750000  0.637626  0.420557  1
  Sc  Sc7  1  0.250000  0.350364  0.572439  1
  Pt  Pt8  1  0.750000  0.256471  0.398706  1
  Pt  Pt9  1  0.750000  0.756442  0.098710  1
  Pt  Pt10  1  0.250000  0.245633  0.901233  1
  Au  Au11  1  0.250000  0.742622  0.605971  1
