# generated using pymatgen
data_TbYb3Np2O12
_symmetry_space_group_name_H-M   'P 1'
_cell_length_a   5.46789000
_cell_length_b   7.80029713
_cell_length_c   11.83354750
_cell_angle_alpha   73.87706754
_cell_angle_beta   90.00000000
_cell_angle_gamma   90.00000000
_symmetry_Int_Tables_number   1
_chemical_formula_structural   TbYb3Np2O12
_chemical_formula_sum   'Tb2 Yb6 Np4 O24'
_cell_volume   484.86321360
_cell_formula_units_Z   2
loop_
 _symmetry_equiv_pos_site_id
 _symmetry_equiv_pos_as_xyz
  1  'x, y, z'
loop_
 _atom_site_type_symbol
 _atom_site_label
 _atom_site_symmetry_multiplicity
 _atom_site_fract_x
 _atom_site_fract_y
 _atom_site_fract_z
 _atom_site_occupancy
  Tb  Tb0  1  0.686523  0.500000  0.250000  1
  Tb  Tb1  1  0.313477  0.500000  0.750000  1
  Yb  Yb2  1  0.191608  0.197077  0.420394  1
  Yb  Yb3  1  0.191608  0.802923  0.079606  1
  Yb  Yb4  1  0.808392  0.802923  0.579606  1
  Yb  Yb5  1  0.808392  0.197077  0.920394  1
  Yb  Yb6  1  0.739769  0.000000  0.250000  1
  Yb  Yb7  1  0.260231  0.000000  0.750000  1
  Np  Np8  1  0.249754  0.277218  0.113554  1
  Np  Np9  1  0.249754  0.722782  0.386446  1
  Np  Np10  1  0.750246  0.722782  0.886446  1
  Np  Np11  1  0.750246  0.277218  0.613554  1
  O  O12  1  0.457361  0.214994  0.266165  1
  O  O13  1  0.457361  0.785006  0.233835  1
  O  O14  1  0.542639  0.785006  0.733835  1
  O  O15  1  0.542639  0.214994  0.766165  1
  O  O16  1  0.042919  0.066426  0.104509  1
  O  O17  1  0.042919  0.933574  0.395491  1
  O  O18  1  0.957081  0.933574  0.895491  1
  O  O19  1  0.957081  0.066426  0.604509  1
  O  O20  1  0.976948  0.294198  0.229127  1
  O  O21  1  0.976948  0.705802  0.270873  1
  O  O22  1  0.023052  0.705802  0.770873  1
  O  O23  1  0.023052  0.294198  0.729127  1
  O  O24  1  0.867239  0.374072  0.444533  1
  O  O25  1  0.867239  0.625928  0.055467  1
  O  O26  1  0.132761  0.625928  0.555467  1
  O  O27  1  0.132761  0.374072  0.944533  1
  O  O28  1  0.619065  0.518327  0.608646  1
  O  O29  1  0.619065  0.481673  0.891354  1
  O  O30  1  0.380935  0.481673  0.391354  1
  O  O31  1  0.380935  0.518327  0.108646  1
  O  O32  1  0.477801  0.146152  0.566561  1
  O  O33  1  0.477801  0.853848  0.933439  1
  O  O34  1  0.522199  0.853848  0.433439  1
  O  O35  1  0.522199  0.146152  0.066561  1
