# generated using pymatgen
data_Nd3Zr(Si3Ni5)4
_symmetry_space_group_name_H-M   'P 1'
_cell_length_a   3.82132900
_cell_length_b   18.83832940
_cell_length_c   6.63308115
_cell_angle_alpha   90.02712606
_cell_angle_beta   90.00000000
_cell_angle_gamma   90.00000000
_symmetry_Int_Tables_number   1
_chemical_formula_structural   Nd3Zr(Si3Ni5)4
_chemical_formula_sum   'Nd3 Zr1 Si12 Ni20'
_cell_volume   477.49857334
_cell_formula_units_Z   1
loop_
 _symmetry_equiv_pos_site_id
 _symmetry_equiv_pos_as_xyz
  1  'x, y, z'
loop_
 _atom_site_type_symbol
 _atom_site_label
 _atom_site_symmetry_multiplicity
 _atom_site_fract_x
 _atom_site_fract_y
 _atom_site_fract_z
 _atom_site_occupancy
  Nd  Nd0  1  0.750000  0.642965  0.123557  1
  Nd  Nd1  1  0.250000  0.355447  0.875310  1
  Nd  Nd2  1  0.250000  0.858828  0.624526  1
  Zr  Zr3  1  0.750000  0.143757  0.380067  1
  Si  Si4  1  0.750000  0.736826  0.618662  1
  Si  Si5  1  0.250000  0.258572  0.382850  1
  Si  Si6  1  0.250000  0.765182  0.117344  1
  Si  Si7  1  0.750000  0.233788  0.882686  1
  Si  Si8  1  0.750000  0.928515  0.339331  1
  Si  Si9  1  0.250000  0.075252  0.646703  1
  Si  Si10  1  0.250000  0.570498  0.839087  1
  Si  Si11  1  0.750000  0.426234  0.161539  1
  Si  Si12  1  0.750000  0.918457  0.925625  1
  Si  Si13  1  0.250000  0.089077  0.092251  1
  Si  Si14  1  0.250000  0.586866  0.430673  1
  Si  Si15  1  0.750000  0.410392  0.567377  1
  Ni  Ni16  1  0.750000  0.802027  0.309906  1
  Ni  Ni17  1  0.250000  0.196640  0.684660  1
  Ni  Ni18  1  0.250000  0.699062  0.809506  1
  Ni  Ni19  1  0.750000  0.297450  0.191175  1
  Ni  Ni20  1  0.750000  0.997048  0.631510  1
  Ni  Ni21  1  0.250000  0.007538  0.363449  1
  Ni  Ni22  1  0.250000  0.504061  0.138945  1
  Ni  Ni23  1  0.750000  0.492896  0.861165  1
  Ni  Ni24  1  0.750000  0.516029  0.391045  1
  Ni  Ni25  1  0.250000  0.481678  0.606556  1
  Ni  Ni26  1  0.250000  0.990100  0.889513  1
  Ni  Ni27  1  0.750000  0.020472  0.120492  1
  Ni  Ni28  1  0.750000  0.795002  0.928358  1
  Ni  Ni29  1  0.250000  0.206399  0.075041  1
  Ni  Ni30  1  0.250000  0.708410  0.427841  1
  Ni  Ni31  1  0.750000  0.288130  0.570851  1
  Ni  Ni32  1  0.750000  0.615263  0.647132  1
  Ni  Ni33  1  0.250000  0.380731  0.353416  1
  Ni  Ni34  1  0.250000  0.886895  0.142065  1
  Ni  Ni35  1  0.750000  0.113517  0.849790  1
