# generated using pymatgen
data_Zr12Al8Fe3AgC4
_symmetry_space_group_name_H-M   'P 1'
_cell_length_a   8.64449898
_cell_length_b   8.65853605
_cell_length_c   8.64450000
_cell_angle_alpha   60.05361758
_cell_angle_beta   60.00000374
_cell_angle_gamma   60.05361634
_symmetry_Int_Tables_number   1
_chemical_formula_structural   Zr12Al8Fe3AgC4
_chemical_formula_sum   'Zr12 Al8 Fe3 Ag1 C4'
_cell_volume   457.88949088
_cell_formula_units_Z   1
loop_
 _symmetry_equiv_pos_site_id
 _symmetry_equiv_pos_as_xyz
  1  'x, y, z'
loop_
 _atom_site_type_symbol
 _atom_site_label
 _atom_site_symmetry_multiplicity
 _atom_site_fract_x
 _atom_site_fract_y
 _atom_site_fract_z
 _atom_site_occupancy
  Zr  Zr0  1  0.552600  0.946442  0.552600  1
  Zr  Zr1  1  0.304032  0.701432  0.690506  1
  Zr  Zr2  1  0.697400  0.303558  0.301643  1
  Zr  Zr3  1  0.304032  0.701432  0.304032  1
  Zr  Zr4  1  0.690506  0.701432  0.304032  1
  Zr  Zr5  1  0.301643  0.303558  0.697400  1
  Zr  Zr6  1  0.559494  0.548568  0.945968  1
  Zr  Zr7  1  0.945968  0.548568  0.559494  1
  Zr  Zr8  1  0.552600  0.946442  0.948357  1
  Zr  Zr9  1  0.948357  0.946442  0.552600  1
  Zr  Zr10  1  0.697400  0.303558  0.697400  1
  Zr  Zr11  1  0.945968  0.548568  0.945968  1
  Al  Al12  1  0.912571  0.935736  0.912571  1
  Al  Al13  1  0.010877  0.314264  0.337429  1
  Al  Al14  1  0.329169  0.012494  0.329169  1
  Al  Al15  1  0.337429  0.314264  0.010877  1
  Al  Al16  1  0.920831  0.237506  0.920831  1
  Al  Al17  1  0.912571  0.935736  0.239123  1
  Al  Al18  1  0.239123  0.935736  0.912571  1
  Al  Al19  1  0.337429  0.314264  0.337429  1
  Fe  Fe20  1  0.125000  0.125000  0.125000  1
  Fe  Fe21  1  0.625000  0.125000  0.125000  1
  Fe  Fe22  1  0.125000  0.125000  0.625000  1
  Ag  Ag23  1  0.125000  0.625000  0.125000  1
  C  C24  1  0.625000  0.625000  0.625000  1
  C  C25  1  0.125000  0.625000  0.625000  1
  C  C26  1  0.625000  0.125000  0.625000  1
  C  C27  1  0.625000  0.625000  0.125000  1
