# generated using pymatgen
data_Ho19ThIrRu11
_symmetry_space_group_name_H-M   'P 1'
_cell_length_a   10.80901493
_cell_length_b   10.79009030
_cell_length_c   6.35016241
_cell_angle_alpha   90.05271575
_cell_angle_beta   89.74863286
_cell_angle_gamma   90.01034016
_symmetry_Int_Tables_number   1
_chemical_formula_structural   Ho19ThIrRu11
_chemical_formula_sum   'Ho19 Th1 Ir1 Ru11'
_cell_volume   740.61355955
_cell_formula_units_Z   1
loop_
 _symmetry_equiv_pos_site_id
 _symmetry_equiv_pos_as_xyz
  1  'x, y, z'
loop_
 _atom_site_type_symbol
 _atom_site_label
 _atom_site_symmetry_multiplicity
 _atom_site_fract_x
 _atom_site_fract_y
 _atom_site_fract_z
 _atom_site_occupancy
  Ho  Ho0  1  0.291593  0.912050  0.876985  1
  Ho  Ho1  1  0.709452  0.086391  0.876500  1
  Ho  Ho2  1  0.708267  0.913040  0.375900  1
  Ho  Ho3  1  0.587160  0.792485  0.877462  1
  Ho  Ho4  1  0.592066  0.209112  0.376207  1
  Ho  Ho5  1  0.416128  0.788759  0.376807  1
  Ho  Ho6  1  0.415909  0.210086  0.877118  1
  Ho  Ho7  1  0.207321  0.414296  0.623012  1
  Ho  Ho8  1  0.206049  0.586157  0.122598  1
  Ho  Ho9  1  0.792508  0.414560  0.123175  1
  Ho  Ho10  1  0.791387  0.586385  0.623425  1
  Ho  Ho11  1  0.913727  0.707593  0.123970  1
  Ho  Ho12  1  0.913439  0.292469  0.621029  1
  Ho  Ho13  1  0.085170  0.707894  0.622357  1
  Ho  Ho14  1  0.083094  0.293735  0.120573  1
  Ho  Ho15  1  0.996280  0.998280  0.500412  1
  Ho  Ho16  1  0.999973  0.999739  0.999523  1
  Ho  Ho17  1  0.501114  0.499951  0.002078  1
  Ho  Ho18  1  0.500928  0.497624  0.500598  1
  Th  Th19  1  0.292669  0.088421  0.379075  1
  Ir  Ir20  1  0.346574  0.652473  0.751354  1
  Ru  Ru21  1  0.846342  0.152925  0.248632  1
  Ru  Ru22  1  0.846019  0.846384  0.751013  1
  Ru  Ru23  1  0.156058  0.151286  0.741671  1
  Ru  Ru24  1  0.156593  0.849814  0.252973  1
  Ru  Ru25  1  0.653441  0.347485  0.751626  1
  Ru  Ru26  1  0.651588  0.653233  0.250801  1
  Ru  Ru27  1  0.344785  0.344513  0.252786  1
  Ru  Ru28  1  0.496171  0.000913  0.127556  1
  Ru  Ru29  1  0.498627  0.001511  0.622825  1
  Ru  Ru30  1  0.999664  0.500200  0.874132  1
  Ru  Ru31  1  0.999902  0.500237  0.375824  1
