# generated using pymatgen
data_LuZr5(SnRu2)6
_symmetry_space_group_name_H-M   'P 1'
_cell_length_a   4.60178500
_cell_length_b   6.49553200
_cell_length_c   13.78070300
_cell_angle_alpha   90.00000000
_cell_angle_beta   90.00058992
_cell_angle_gamma   90.00000000
_symmetry_Int_Tables_number   1
_chemical_formula_structural   LuZr5(SnRu2)6
_chemical_formula_sum   'Lu1 Zr5 Sn6 Ru12'
_cell_volume   411.91956836
_cell_formula_units_Z   1
loop_
 _symmetry_equiv_pos_site_id
 _symmetry_equiv_pos_as_xyz
  1  'x, y, z'
loop_
 _atom_site_type_symbol
 _atom_site_label
 _atom_site_symmetry_multiplicity
 _atom_site_fract_x
 _atom_site_fract_y
 _atom_site_fract_z
 _atom_site_occupancy
  Lu  Lu0  1  0.000000  0.500000  0.000000  1
  Zr  Zr1  1  0.499984  0.000000  0.165899  1
  Zr  Zr2  1  0.000006  0.500000  0.332846  1
  Zr  Zr3  1  0.500001  0.000000  0.500000  1
  Zr  Zr4  1  0.999994  0.500000  0.667154  1
  Zr  Zr5  1  0.500016  0.000000  0.834101  1
  Sn  Sn6  1  0.000000  0.000000  0.000000  1
  Sn  Sn7  1  0.499998  0.500000  0.165892  1
  Sn  Sn8  1  0.999987  0.000000  0.332984  1
  Sn  Sn9  1  0.500001  0.500000  0.500000  1
  Sn  Sn10  1  0.000013  0.000000  0.667016  1
  Sn  Sn11  1  0.500002  0.500000  0.834109  1
  Ru  Ru12  1  0.500000  0.245030  0.000000  1
  Ru  Ru13  1  0.500000  0.754969  0.000000  1
  Ru  Ru14  1  0.999989  0.247741  0.168778  1
  Ru  Ru15  1  0.999989  0.752260  0.168778  1
  Ru  Ru16  1  0.499994  0.250521  0.333786  1
  Ru  Ru17  1  0.499994  0.749480  0.333786  1
  Ru  Ru18  1  0.000000  0.249494  0.500000  1
  Ru  Ru19  1  0.000000  0.750507  0.500000  1
  Ru  Ru20  1  0.500006  0.250521  0.666214  1
  Ru  Ru21  1  0.500006  0.749480  0.666214  1
  Ru  Ru22  1  0.000011  0.247741  0.831222  1
  Ru  Ru23  1  0.000011  0.752260  0.831222  1
