# generated using pymatgen
data_Er4Sc4Re3B24Ir
_symmetry_space_group_name_H-M   'P 1'
_cell_length_a   3.57487700
_cell_length_b   8.97568457
_cell_length_c   11.35300878
_cell_angle_alpha   90.04804312
_cell_angle_beta   90.00000000
_cell_angle_gamma   90.00000000
_symmetry_Int_Tables_number   1
_chemical_formula_structural   Er4Sc4Re3B24Ir
_chemical_formula_sum   'Er4 Sc4 Re3 B24 Ir1'
_cell_volume   364.28350500
_cell_formula_units_Z   1
loop_
 _symmetry_equiv_pos_site_id
 _symmetry_equiv_pos_as_xyz
  1  'x, y, z'
loop_
 _atom_site_type_symbol
 _atom_site_label
 _atom_site_symmetry_multiplicity
 _atom_site_fract_x
 _atom_site_fract_y
 _atom_site_fract_z
 _atom_site_occupancy
  Er  Er0  1  0.500000  0.316314  0.415379  1
  Er  Er1  1  0.500000  0.680618  0.590346  1
  Er  Er2  1  0.500000  0.179118  0.912244  1
  Er  Er3  1  0.500000  0.823902  0.082152  1
  Sc  Sc4  1  0.500000  0.441467  0.126510  1
  Sc  Sc5  1  0.500000  0.555838  0.871689  1
  Sc  Sc6  1  0.500000  0.054764  0.628221  1
  Sc  Sc7  1  0.500000  0.946891  0.372135  1
  Re  Re8  1  0.500000  0.140196  0.181953  1
  Re  Re9  1  0.500000  0.860233  0.819131  1
  Re  Re10  1  0.500000  0.360504  0.679904  1
  B  B11  1  0.000000  0.096841  0.473076  1
  B  B12  1  0.000000  0.900644  0.526539  1
  B  B13  1  0.000000  0.402631  0.973674  1
  B  B14  1  0.000000  0.598401  0.027434  1
  B  B15  1  0.000000  0.128873  0.317406  1
  B  B16  1  0.000000  0.870762  0.683180  1
  B  B17  1  0.000000  0.371492  0.816552  1
  B  B18  1  0.000000  0.629261  0.181974  1
  B  B19  1  0.000000  0.053791  0.066728  1
  B  B20  1  0.000000  0.946473  0.932772  1
  B  B21  1  0.000000  0.446136  0.566619  1
  B  B22  1  0.000000  0.554813  0.433874  1
  B  B23  1  0.000000  0.481298  0.286338  1
  B  B24  1  0.000000  0.519644  0.713810  1
  B  B25  1  0.000000  0.019245  0.785618  1
  B  B26  1  0.000000  0.980625  0.213630  1
  B  B27  1  0.000000  0.253420  0.081039  1
  B  B28  1  0.000000  0.746911  0.918999  1
  B  B29  1  0.000000  0.246101  0.581056  1
  B  B30  1  0.000000  0.753669  0.420034  1
  B  B31  1  0.000000  0.294701  0.235763  1
  B  B32  1  0.000000  0.705580  0.765356  1
  B  B33  1  0.000000  0.205720  0.734720  1
  B  B34  1  0.000000  0.793754  0.264896  1
  Ir  Ir35  1  0.500000  0.639370  0.319246  1
