# generated using pymatgen
data_Tb3Ho7Si5Pb
_symmetry_space_group_name_H-M   'P 1'
_cell_length_a   8.51106000
_cell_length_b   8.54439403
_cell_length_c   6.39577100
_cell_angle_alpha   90.00000000
_cell_angle_beta   90.00000000
_cell_angle_gamma   119.87103056
_symmetry_Int_Tables_number   1
_chemical_formula_structural   Tb3Ho7Si5Pb
_chemical_formula_sum   'Tb3 Ho7 Si5 Pb1'
_cell_volume   403.32151754
_cell_formula_units_Z   1
loop_
 _symmetry_equiv_pos_site_id
 _symmetry_equiv_pos_as_xyz
  1  'x, y, z'
loop_
 _atom_site_type_symbol
 _atom_site_label
 _atom_site_symmetry_multiplicity
 _atom_site_fract_x
 _atom_site_fract_y
 _atom_site_fract_z
 _atom_site_occupancy
  Tb  Tb0  1  0.998259  0.242852  0.250000  1
  Tb  Tb1  1  0.755407  0.757148  0.250000  1
  Tb  Tb2  1  0.240743  0.000000  0.250000  1
  Ho  Ho3  1  0.987691  0.747233  0.750000  1
  Ho  Ho4  1  0.766705  0.000000  0.750000  1
  Ho  Ho5  1  0.240458  0.252767  0.750000  1
  Ho  Ho6  1  0.331077  0.655989  0.496379  1
  Ho  Ho7  1  0.675088  0.344011  0.003621  1
  Ho  Ho8  1  0.675088  0.344011  0.496379  1
  Ho  Ho9  1  0.331077  0.655989  0.003621  1
  Si  Si10  1  0.394390  0.392712  0.250000  1
  Si  Si11  1  0.001676  0.607288  0.250000  1
  Si  Si12  1  0.998243  0.394270  0.750000  1
  Si  Si13  1  0.603974  0.605730  0.750000  1
  Si  Si14  1  0.604726  0.000000  0.250000  1
  Pb  Pb15  1  0.395400  0.000000  0.750000  1
