# generated using pymatgen
data_La2Al3SiAu4
_symmetry_space_group_name_H-M   'P 1'
_cell_length_a   4.42242700
_cell_length_b   4.42242700
_cell_length_c   10.66456100
_cell_angle_alpha   90.00000000
_cell_angle_beta   90.00000000
_cell_angle_gamma   90.00000000
_symmetry_Int_Tables_number   1
_chemical_formula_structural   La2Al3SiAu4
_chemical_formula_sum   'La2 Al3 Si1 Au4'
_cell_volume   208.57599708
_cell_formula_units_Z   1
loop_
 _symmetry_equiv_pos_site_id
 _symmetry_equiv_pos_as_xyz
  1  'x, y, z'
loop_
 _atom_site_type_symbol
 _atom_site_label
 _atom_site_symmetry_multiplicity
 _atom_site_fract_x
 _atom_site_fract_y
 _atom_site_fract_z
 _atom_site_occupancy
  La  La0  1  0.000000  0.500000  0.245791  1
  La  La1  1  0.500000  0.000000  0.760132  1
  Al  Al2  1  0.000000  0.000000  0.500350  1
  Al  Al3  1  0.500000  0.500000  0.500350  1
  Al  Al4  1  0.500000  0.000000  0.131631  1
  Si  Si5  1  0.000000  0.500000  0.865096  1
  Au  Au6  1  0.000000  0.000000  0.997596  1
  Au  Au7  1  0.500000  0.500000  0.997596  1
  Au  Au8  1  0.000000  0.500000  0.631439  1
  Au  Au9  1  0.500000  0.000000  0.370020  1
