# generated using pymatgen
data_Y2Lu2MgP12Ru19
_symmetry_space_group_name_H-M   'P 1'
_cell_length_a   12.45707520
_cell_length_b   12.47101987
_cell_length_c   3.98339300
_cell_angle_alpha   90.00000000
_cell_angle_beta   90.00000000
_cell_angle_gamma   120.03703573
_symmetry_Int_Tables_number   1
_chemical_formula_structural   Y2Lu2MgP12Ru19
_chemical_formula_sum   'Y2 Lu2 Mg1 P12 Ru19'
_cell_volume   535.72220355
_cell_formula_units_Z   1
loop_
 _symmetry_equiv_pos_site_id
 _symmetry_equiv_pos_as_xyz
  1  'x, y, z'
loop_
 _atom_site_type_symbol
 _atom_site_label
 _atom_site_symmetry_multiplicity
 _atom_site_fract_x
 _atom_site_fract_y
 _atom_site_fract_z
 _atom_site_occupancy
  Y  Y0  1  0.672964  0.333008  0.000000  1
  Y  Y1  1  0.327036  0.660045  0.000000  1
  Lu  Lu2  1  0.817109  0.816217  0.500000  1
  Lu  Lu3  1  0.182891  0.999108  0.500000  1
  Mg  Mg4  1  0.000000  0.189649  0.500000  1
  P  P5  1  0.000000  0.828155  0.000000  1
  P  P6  1  0.193644  0.179640  0.000000  1
  P  P7  1  0.806356  0.985996  0.000000  1
  P  P8  1  0.698442  0.168993  0.500000  1
  P  P9  1  0.831309  0.525586  0.500000  1
  P  P10  1  0.481017  0.306960  0.500000  1
  P  P11  1  0.168691  0.694277  0.500000  1
  P  P12  1  0.518983  0.825942  0.500000  1
  P  P13  1  0.301558  0.470551  0.500000  1
  P  P14  1  0.000000  0.380907  0.000000  1
  P  P15  1  0.625782  0.626593  0.000000  1
  P  P16  1  0.374218  0.000812  0.000000  1
  Ru  Ru17  1  0.000000  0.560750  0.000000  1
  Ru  Ru18  1  0.439972  0.445862  0.000000  1
  Ru  Ru19  1  0.560028  0.005889  0.000000  1
  Ru  Ru20  1  0.000000  0.723410  0.500000  1
  Ru  Ru21  1  0.282767  0.278242  0.500000  1
  Ru  Ru22  1  0.717233  0.995476  0.500000  1
  Ru  Ru23  1  0.825238  0.182268  0.000000  1
  Ru  Ru24  1  0.815530  0.629432  0.000000  1
  Ru  Ru25  1  0.383461  0.193563  0.000000  1
  Ru  Ru26  1  0.184470  0.813902  0.000000  1
  Ru  Ru27  1  0.616539  0.810101  0.000000  1
  Ru  Ru28  1  0.174762  0.357029  0.000000  1
  Ru  Ru29  1  0.874194  0.364736  0.500000  1
  Ru  Ru30  1  0.634100  0.509208  0.500000  1
  Ru  Ru31  1  0.496553  0.127033  0.500000  1
  Ru  Ru32  1  0.365900  0.875108  0.500000  1
  Ru  Ru33  1  0.503447  0.630480  0.500000  1
  Ru  Ru34  1  0.125806  0.490543  0.500000  1
  Ru  Ru35  1  0.000000  0.014526  0.000000  1
