# generated using pymatgen
data_PrNd3V3FeO12
_symmetry_space_group_name_H-M   'P 1'
_cell_length_a   5.50887073
_cell_length_b   5.73038429
_cell_length_c   7.85876119
_cell_angle_alpha   90.08884018
_cell_angle_beta   89.79652005
_cell_angle_gamma   89.72214910
_symmetry_Int_Tables_number   1
_chemical_formula_structural   PrNd3V3FeO12
_chemical_formula_sum   'Pr1 Nd3 V3 Fe1 O12'
_cell_volume   248.08016483
_cell_formula_units_Z   1
loop_
 _symmetry_equiv_pos_site_id
 _symmetry_equiv_pos_as_xyz
  1  'x, y, z'
loop_
 _atom_site_type_symbol
 _atom_site_label
 _atom_site_symmetry_multiplicity
 _atom_site_fract_x
 _atom_site_fract_y
 _atom_site_fract_z
 _atom_site_occupancy
  Pr  Pr0  1  0.015758  0.942260  0.750319  1
  Nd  Nd1  1  0.513318  0.557159  0.250670  1
  Nd  Nd2  1  0.486412  0.442826  0.749315  1
  Nd  Nd3  1  0.983998  0.059201  0.249718  1
  V  V4  1  0.000090  0.499983  0.499781  1
  V  V5  1  0.500013  0.999983  0.499723  1
  V  V6  1  0.499915  0.000090  0.000328  1
  Fe  Fe7  1  0.000062  0.499969  0.000239  1
  O  O8  1  0.706201  0.301042  0.449219  1
  O  O9  1  0.205211  0.201999  0.547651  1
  O  O10  1  0.798832  0.794441  0.051214  1
  O  O11  1  0.298621  0.704812  0.950785  1
  O  O12  1  0.294858  0.698020  0.550008  1
  O  O13  1  0.795610  0.799336  0.450715  1
  O  O14  1  0.202333  0.206769  0.950503  1
  O  O15  1  0.702461  0.294293  0.049852  1
  O  O16  1  0.095608  0.471239  0.247725  1
  O  O17  1  0.591858  0.028582  0.748123  1
  O  O18  1  0.404731  0.971431  0.251777  1
  O  O19  1  0.904110  0.526564  0.752336  1
