# generated using pymatgen
data_Ho2TmZnIn3Pt2
_symmetry_space_group_name_H-M   'P 1'
_cell_length_a   7.64522971
_cell_length_b   7.68020730
_cell_length_c   3.85837600
_cell_angle_alpha   90.00000000
_cell_angle_beta   90.00000000
_cell_angle_gamma   120.15145475
_symmetry_Int_Tables_number   1
_chemical_formula_structural   Ho2TmZnIn3Pt2
_chemical_formula_sum   'Ho2 Tm1 Zn1 In3 Pt2'
_cell_volume   195.89972804
_cell_formula_units_Z   1
loop_
 _symmetry_equiv_pos_site_id
 _symmetry_equiv_pos_as_xyz
  1  'x, y, z'
loop_
 _atom_site_type_symbol
 _atom_site_label
 _atom_site_symmetry_multiplicity
 _atom_site_fract_x
 _atom_site_fract_y
 _atom_site_fract_z
 _atom_site_occupancy
  Ho  Ho0  1  0.408373  0.408460  0.500000  1
  Ho  Ho1  1  0.591627  0.000087  0.500000  1
  Tm  Tm2  1  0.000000  0.591238  0.500000  1
  Zn  Zn3  1  0.000000  0.999982  0.500000  1
  In  In4  1  0.000000  0.259344  0.000000  1
  In  In5  1  0.741897  0.740759  0.000000  1
  In  In6  1  0.258103  0.998861  0.000000  1
  Pt  Pt7  1  0.668374  0.334821  0.000000  1
  Pt  Pt8  1  0.331626  0.666447  0.000000  1
