# generated using pymatgen
data_Hf10AlGeSb4
_symmetry_space_group_name_H-M   'P 1'
_cell_length_a   5.48050391
_cell_length_b   8.26477427
_cell_length_c   8.26477241
_cell_angle_alpha   83.68868004
_cell_angle_beta   70.63663624
_cell_angle_gamma   70.63663349
_symmetry_Int_Tables_number   1
_chemical_formula_structural   Hf10AlGeSb4
_chemical_formula_sum   'Hf10 Al1 Ge1 Sb4'
_cell_volume   333.20093811
_cell_formula_units_Z   1
loop_
 _symmetry_equiv_pos_site_id
 _symmetry_equiv_pos_as_xyz
  1  'x, y, z'
loop_
 _atom_site_type_symbol
 _atom_site_label
 _atom_site_symmetry_multiplicity
 _atom_site_fract_x
 _atom_site_fract_y
 _atom_site_fract_z
 _atom_site_occupancy
  Hf  Hf0  1  0.074146  0.137623  0.711406  1
  Hf  Hf1  1  0.923177  0.862377  0.288594  1
  Hf  Hf2  1  0.785552  0.288594  0.137623  1
  Hf  Hf3  1  0.425854  0.288594  0.862377  1
  Hf  Hf4  1  0.211770  0.711406  0.862377  1
  Hf  Hf5  1  0.576823  0.711406  0.137623  1
  Hf  Hf6  1  0.714448  0.862377  0.711406  1
  Hf  Hf7  1  0.288230  0.137623  0.288594  1
  Hf  Hf8  1  0.250000  0.500000  0.500000  1
  Hf  Hf9  1  0.750000  0.500000  0.500000  1
  Al  Al10  1  0.750000  0.000000  0.000000  1
  Ge  Ge11  1  0.250000  0.000000  0.000000  1
  Sb  Sb12  1  0.164190  0.500000  0.171618  1
  Sb  Sb13  1  0.835810  0.500000  0.828382  1
  Sb  Sb14  1  0.335810  0.828382  0.500000  1
  Sb  Sb15  1  0.664190  0.171618  0.500000  1
