# generated using pymatgen
data_DyTm3(Lu4Bi3)4
_symmetry_space_group_name_H-M   'P 1'
_cell_length_a   8.15231441
_cell_length_b   9.39762000
_cell_length_c   11.82688060
_cell_angle_alpha   90.00000000
_cell_angle_beta   90.03654682
_cell_angle_gamma   90.00000000
_symmetry_Int_Tables_number   1
_chemical_formula_structural   DyTm3(Lu4Bi3)4
_chemical_formula_sum   'Dy1 Tm3 Lu16 Bi12'
_cell_volume   906.08496707
_cell_formula_units_Z   1
loop_
 _symmetry_equiv_pos_site_id
 _symmetry_equiv_pos_as_xyz
  1  'x, y, z'
loop_
 _atom_site_type_symbol
 _atom_site_label
 _atom_site_symmetry_multiplicity
 _atom_site_fract_x
 _atom_site_fract_y
 _atom_site_fract_z
 _atom_site_occupancy
  Dy  Dy0  1  0.187477  0.750000  0.717659  1
  Tm  Tm1  1  0.312238  0.250000  0.217255  1
  Tm  Tm2  1  0.812289  0.250000  0.282833  1
  Tm  Tm3  1  0.687514  0.750000  0.782641  1
  Lu  Lu4  1  0.352368  0.750000  0.218083  1
  Lu  Lu5  1  0.852232  0.750000  0.281847  1
  Lu  Lu6  1  0.647663  0.250000  0.781906  1
  Lu  Lu7  1  0.147765  0.250000  0.718078  1
  Lu  Lu8  1  0.692764  0.567210  0.059790  1
  Lu  Lu9  1  0.192593  0.932882  0.440157  1
  Lu  Lu10  1  0.307297  0.067203  0.940314  1
  Lu  Lu11  1  0.807454  0.432892  0.559726  1
  Lu  Lu12  1  0.307297  0.432797  0.940314  1
  Lu  Lu13  1  0.807454  0.067108  0.559726  1
  Lu  Lu14  1  0.692764  0.932790  0.059790  1
  Lu  Lu15  1  0.192593  0.567118  0.440157  1
  Lu  Lu16  1  0.476709  0.250000  0.488802  1
  Lu  Lu17  1  0.976567  0.250000  0.011131  1
  Lu  Lu18  1  0.523593  0.750000  0.510969  1
  Lu  Lu19  1  0.023228  0.750000  0.989092  1
  Bi  Bi20  1  0.404318  0.750000  0.958528  1
  Bi  Bi21  1  0.903192  0.750000  0.541096  1
  Bi  Bi22  1  0.596052  0.250000  0.041750  1
  Bi  Bi23  1  0.096150  0.250000  0.458259  1
  Bi  Bi24  1  0.565662  0.995305  0.325374  1
  Bi  Bi25  1  0.065824  0.504744  0.174459  1
  Bi  Bi26  1  0.434992  0.494700  0.674480  1
  Bi  Bi27  1  0.933736  0.005128  0.825735  1
  Bi  Bi28  1  0.434992  0.005300  0.674480  1
  Bi  Bi29  1  0.933736  0.494872  0.825735  1
  Bi  Bi30  1  0.565662  0.504695  0.325374  1
  Bi  Bi31  1  0.065824  0.995256  0.174459  1
