# generated using pymatgen
data_Dy4LuZn2Sb
_symmetry_space_group_name_H-M   'P 1'
_cell_length_a   8.52104130
_cell_length_b   8.52104126
_cell_length_c   8.52104260
_cell_angle_alpha   123.36198585
_cell_angle_beta   123.36198879
_cell_angle_gamma   84.26927481
_symmetry_Int_Tables_number   1
_chemical_formula_structural   Dy4LuZn2Sb
_chemical_formula_sum   'Dy8 Lu2 Zn4 Sb2'
_cell_volume   412.99393221
_cell_formula_units_Z   2
loop_
 _symmetry_equiv_pos_site_id
 _symmetry_equiv_pos_as_xyz
  1  'x, y, z'
loop_
 _atom_site_type_symbol
 _atom_site_label
 _atom_site_symmetry_multiplicity
 _atom_site_fract_x
 _atom_site_fract_y
 _atom_site_fract_z
 _atom_site_occupancy
  Dy  Dy0  1  0.512569  0.700694  0.500000  1
  Dy  Dy1  1  0.012569  0.512569  0.811875  1
  Dy  Dy2  1  0.700694  0.200694  0.188125  1
  Dy  Dy3  1  0.987431  0.487431  0.188125  1
  Dy  Dy4  1  0.200694  0.012569  0.500000  1
  Dy  Dy5  1  0.487431  0.299306  0.500000  1
  Dy  Dy6  1  0.799306  0.987431  0.500000  1
  Dy  Dy7  1  0.299306  0.799306  0.811875  1
  Lu  Lu8  1  0.000000  0.000000  0.000000  1
  Lu  Lu9  1  0.500000  0.500000  0.000000  1
  Zn  Zn10  1  0.362764  0.862764  0.225529  1
  Zn  Zn11  1  0.862764  0.637236  0.500000  1
  Zn  Zn12  1  0.637236  0.137236  0.774471  1
  Zn  Zn13  1  0.137236  0.362764  0.500000  1
  Sb  Sb14  1  0.750000  0.750000  0.000000  1
  Sb  Sb15  1  0.250000  0.250000  0.000000  1
