# generated using pymatgen
data_Nd4ReTc3F28
_symmetry_space_group_name_H-M   'P 1'
_cell_length_a   5.70736272
_cell_length_b   9.19509735
_cell_length_c   12.34005500
_cell_angle_alpha   61.99288416
_cell_angle_beta   89.97121840
_cell_angle_gamma   89.95208267
_symmetry_Int_Tables_number   1
_chemical_formula_structural   Nd4ReTc3F28
_chemical_formula_sum   'Nd4 Re1 Tc3 F28'
_cell_volume   571.76160659
_cell_formula_units_Z   1
loop_
 _symmetry_equiv_pos_site_id
 _symmetry_equiv_pos_as_xyz
  1  'x, y, z'
loop_
 _atom_site_type_symbol
 _atom_site_label
 _atom_site_symmetry_multiplicity
 _atom_site_fract_x
 _atom_site_fract_y
 _atom_site_fract_z
 _atom_site_occupancy
  Nd  Nd0  1  0.759122  0.811372  0.764241  1
  Nd  Nd1  1  0.258138  0.188681  0.735127  1
  Nd  Nd2  1  0.240644  0.188532  0.236017  1
  Nd  Nd3  1  0.741107  0.812137  0.264438  1
  Re  Re4  1  0.743568  0.273727  0.457373  1
  Tc  Tc5  1  0.755790  0.273497  0.957722  1
  Tc  Tc6  1  0.256290  0.726146  0.542671  1
  Tc  Tc7  1  0.244027  0.726142  0.042651  1
  F  F8  1  0.442766  0.709699  0.919207  1
  F  F9  1  0.934740  0.291879  0.584242  1
  F  F10  1  0.555820  0.290357  0.080576  1
  F  F11  1  0.058164  0.709531  0.419153  1
  F  F12  1  0.449263  0.281180  0.540984  1
  F  F13  1  0.957879  0.717923  0.956271  1
  F  F14  1  0.542687  0.717162  0.456629  1
  F  F15  1  0.040974  0.282127  0.044768  1
  F  F16  1  0.766234  0.514711  0.861837  1
  F  F17  1  0.266306  0.484817  0.638186  1
  F  F18  1  0.233362  0.485091  0.139157  1
  F  F19  1  0.733813  0.516800  0.360405  1
  F  F20  1  0.759419  0.032593  0.052000  1
  F  F21  1  0.259939  0.967083  0.448854  1
  F  F22  1  0.240970  0.966817  0.947748  1
  F  F23  1  0.741144  0.030578  0.550940  1
  F  F24  1  0.977685  0.729933  0.634680  1
  F  F25  1  0.478823  0.269027  0.865089  1
  F  F26  1  0.030998  0.271026  0.368219  1
  F  F27  1  0.522355  0.730273  0.134502  1
  F  F28  1  0.049840  0.742749  0.168370  1
  F  F29  1  0.556250  0.257789  0.327882  1
  F  F30  1  0.952037  0.256765  0.832750  1
  F  F31  1  0.450173  0.742128  0.668729  1
  F  F32  1  0.408336  0.967617  0.230743  1
  F  F33  1  0.908366  0.032410  0.270660  1
  F  F34  1  0.591689  0.033695  0.767872  1
  F  F35  1  0.091281  0.968007  0.729305  1
