# generated using pymatgen
data_Y3CrP6Rh7W
_symmetry_space_group_name_H-M   'P 1'
_cell_length_a   3.91696100
_cell_length_b   11.18304100
_cell_length_c   12.79976500
_cell_angle_alpha   90.00000000
_cell_angle_beta   90.00000000
_cell_angle_gamma   90.00000000
_symmetry_Int_Tables_number   1
_chemical_formula_structural   Y3CrP6Rh7W
_chemical_formula_sum   'Y6 Cr2 P12 Rh14 W2'
_cell_volume   560.67496004
_cell_formula_units_Z   2
loop_
 _symmetry_equiv_pos_site_id
 _symmetry_equiv_pos_as_xyz
  1  'x, y, z'
loop_
 _atom_site_type_symbol
 _atom_site_label
 _atom_site_symmetry_multiplicity
 _atom_site_fract_x
 _atom_site_fract_y
 _atom_site_fract_z
 _atom_site_occupancy
  Y  Y0  1  0.000000  0.500000  0.520157  1
  Y  Y1  1  0.500000  0.000000  0.479843  1
  Y  Y2  1  0.500000  0.817218  0.200874  1
  Y  Y3  1  0.500000  0.182782  0.200874  1
  Y  Y4  1  0.000000  0.682782  0.799126  1
  Y  Y5  1  0.000000  0.317218  0.799126  1
  Cr  Cr6  1  0.000000  0.500000  0.989148  1
  Cr  Cr7  1  0.500000  0.000000  0.010852  1
  P  P8  1  0.500000  0.500000  0.878947  1
  P  P9  1  0.000000  0.000000  0.121053  1
  P  P10  1  0.500000  0.500000  0.345852  1
  P  P11  1  0.000000  0.000000  0.654148  1
  P  P12  1  0.500000  0.312582  0.618161  1
  P  P13  1  0.500000  0.687418  0.618161  1
  P  P14  1  0.000000  0.187418  0.381839  1
  P  P15  1  0.000000  0.812582  0.381839  1
  P  P16  1  0.500000  0.850613  0.891355  1
  P  P17  1  0.500000  0.149387  0.891355  1
  P  P18  1  0.000000  0.649387  0.108645  1
  P  P19  1  0.000000  0.350613  0.108645  1
  Rh  Rh20  1  0.500000  0.500000  0.696546  1
  Rh  Rh21  1  0.000000  0.000000  0.303454  1
  Rh  Rh22  1  0.500000  0.333030  0.987359  1
  Rh  Rh23  1  0.500000  0.666970  0.987359  1
  Rh  Rh24  1  0.000000  0.166970  0.012641  1
  Rh  Rh25  1  0.000000  0.833030  0.012641  1
  Rh  Rh26  1  0.500000  0.293906  0.431341  1
  Rh  Rh27  1  0.500000  0.706094  0.431341  1
  Rh  Rh28  1  0.000000  0.206094  0.568659  1
  Rh  Rh29  1  0.000000  0.793906  0.568659  1
  Rh  Rh30  1  0.500000  0.875510  0.709260  1
  Rh  Rh31  1  0.500000  0.124490  0.709260  1
  Rh  Rh32  1  0.000000  0.624490  0.290740  1
  Rh  Rh33  1  0.000000  0.375510  0.290740  1
  W  W34  1  0.500000  0.500000  0.156725  1
  W  W35  1  0.000000  0.000000  0.843275  1
