# generated using pymatgen
data_Hf2B4Mo2Ru3
_symmetry_space_group_name_H-M   'P 1'
_cell_length_a   3.10484600
_cell_length_b   8.72703301
_cell_length_c   9.96869702
_cell_angle_alpha   90.00141902
_cell_angle_beta   90.00000000
_cell_angle_gamma   90.00000000
_symmetry_Int_Tables_number   1
_chemical_formula_structural   Hf2B4Mo2Ru3
_chemical_formula_sum   'Hf4 B8 Mo4 Ru6'
_cell_volume   270.11274656
_cell_formula_units_Z   2
loop_
 _symmetry_equiv_pos_site_id
 _symmetry_equiv_pos_as_xyz
  1  'x, y, z'
loop_
 _atom_site_type_symbol
 _atom_site_label
 _atom_site_symmetry_multiplicity
 _atom_site_fract_x
 _atom_site_fract_y
 _atom_site_fract_z
 _atom_site_occupancy
  Hf  Hf0  1  0.500000  0.837126  0.181124  1
  Hf  Hf1  1  0.500000  0.162874  0.818876  1
  Hf  Hf2  1  0.500000  0.662862  0.681129  1
  Hf  Hf3  1  0.500000  0.337138  0.318871  1
  B  B4  1  0.500000  0.967659  0.586170  1
  B  B5  1  0.500000  0.032341  0.413830  1
  B  B6  1  0.500000  0.850818  0.900434  1
  B  B7  1  0.500000  0.149182  0.099566  1
  B  B8  1  0.500000  0.649188  0.400450  1
  B  B9  1  0.500000  0.350812  0.599550  1
  B  B10  1  0.500000  0.467651  0.913852  1
  B  B11  1  0.500000  0.532349  0.086148  1
  Mo  Mo12  1  0.000000  0.663538  0.952281  1
  Mo  Mo13  1  0.000000  0.336462  0.047719  1
  Mo  Mo14  1  0.000000  0.836453  0.452269  1
  Mo  Mo15  1  0.000000  0.163547  0.547731  1
  Ru  Ru16  1  0.000000  0.000000  0.000000  1
  Ru  Ru17  1  0.000000  0.409272  0.760367  1
  Ru  Ru18  1  0.000000  0.590728  0.239633  1
  Ru  Ru19  1  0.000000  0.500000  0.500000  1
  Ru  Ru20  1  0.000000  0.909249  0.739643  1
  Ru  Ru21  1  0.000000  0.090751  0.260357  1
