# generated using pymatgen
data_Nd7Bi(SeO5)4
_symmetry_space_group_name_H-M   'P 1'
_cell_length_a   8.80194071
_cell_length_b   8.87263878
_cell_length_c   11.21756825
_cell_angle_alpha   91.31257121
_cell_angle_beta   88.79716506
_cell_angle_gamma   142.71852318
_symmetry_Int_Tables_number   1
_chemical_formula_structural   Nd7Bi(SeO5)4
_chemical_formula_sum   'Nd7 Bi1 Se4 O20'
_cell_volume   530.50734776
_cell_formula_units_Z   1
loop_
 _symmetry_equiv_pos_site_id
 _symmetry_equiv_pos_as_xyz
  1  'x, y, z'
loop_
 _atom_site_type_symbol
 _atom_site_label
 _atom_site_symmetry_multiplicity
 _atom_site_fract_x
 _atom_site_fract_y
 _atom_site_fract_z
 _atom_site_occupancy
  Nd  Nd0  1  0.750508  0.256542  0.610276  1
  Nd  Nd1  1  0.249949  0.756713  0.389738  1
  Nd  Nd2  1  0.251216  0.750446  0.884519  1
  Nd  Nd3  1  0.753963  0.245007  0.120200  1
  Nd  Nd4  1  0.885045  0.069466  0.380236  1
  Nd  Nd5  1  0.069315  0.923926  0.612728  1
  Nd  Nd6  1  0.378778  0.576897  0.614944  1
  Bi  Bi7  1  0.570773  0.417034  0.408190  1
  Se  Se8  1  0.397493  0.579373  0.122027  1
  Se  Se9  1  0.569995  0.385220  0.867139  1
  Se  Se10  1  0.887332  0.070685  0.869130  1
  Se  Se11  1  0.069799  0.878783  0.137554  1
  O  O12  1  0.151390  0.452650  0.212586  1
  O  O13  1  0.429650  0.123610  0.784544  1
  O  O14  1  0.645380  0.956603  0.784099  1
  O  O15  1  0.977098  0.639721  0.209245  1
  O  O16  1  0.570140  0.912142  0.511492  1
  O  O17  1  0.900662  0.585474  0.506609  1
  O  O18  1  0.069793  0.411195  0.484411  1
  O  O19  1  0.404870  0.089701  0.504033  1
  O  O20  1  0.132062  0.582313  0.712780  1
  O  O21  1  0.633993  0.074513  0.287802  1
  O  O22  1  0.490098  0.816121  0.045240  1
  O  O23  1  0.823244  0.495533  0.933209  1
  O  O24  1  0.174103  0.069008  0.254164  1
  O  O25  1  0.107258  0.202639  0.760283  1
  O  O26  1  0.707700  0.594052  0.755769  1
  O  O27  1  0.631750  0.737172  0.220929  1
  O  O28  1  0.240955  0.253831  0.503030  1
  O  O29  1  0.735296  0.750438  0.502813  1
  O  O30  1  0.342684  0.027484  0.064171  1
  O  O31  1  0.002749  0.320755  0.946114  1
