# generated using pymatgen
data_Ac8LaNi6
_symmetry_space_group_name_H-M   'P 1'
_cell_length_a   7.83725831
_cell_length_b   7.83725808
_cell_length_c   7.83725884
_cell_angle_alpha   74.02674675
_cell_angle_beta   74.02673513
_cell_angle_gamma   74.02674871
_symmetry_Int_Tables_number   1
_chemical_formula_structural   Ac8LaNi6
_chemical_formula_sum   'Ac8 La1 Ni6'
_cell_volume   434.44638443
_cell_formula_units_Z   1
loop_
 _symmetry_equiv_pos_site_id
 _symmetry_equiv_pos_as_xyz
  1  'x, y, z'
loop_
 _atom_site_type_symbol
 _atom_site_label
 _atom_site_symmetry_multiplicity
 _atom_site_fract_x
 _atom_site_fract_y
 _atom_site_fract_z
 _atom_site_occupancy
  Ac  Ac0  1  0.291889  0.291889  0.291889  1
  Ac  Ac1  1  0.708111  0.708111  0.708111  1
  Ac  Ac2  1  0.821487  0.330983  0.124524  1
  Ac  Ac3  1  0.330983  0.124524  0.821487  1
  Ac  Ac4  1  0.124524  0.821487  0.330983  1
  Ac  Ac5  1  0.178513  0.669017  0.875476  1
  Ac  Ac6  1  0.669017  0.875476  0.178513  1
  Ac  Ac7  1  0.875476  0.178513  0.669017  1
  La  La8  1  0.500000  0.500000  0.500000  1
  Ni  Ni9  1  0.467723  0.628473  0.097950  1
  Ni  Ni10  1  0.628473  0.097950  0.467723  1
  Ni  Ni11  1  0.097950  0.467723  0.628473  1
  Ni  Ni12  1  0.532277  0.371527  0.902050  1
  Ni  Ni13  1  0.371527  0.902050  0.532277  1
  Ni  Ni14  1  0.902050  0.532277  0.371527  1
