# generated using pymatgen
data_Tb8Lu12GeBi11
_symmetry_space_group_name_H-M   'P 1'
_cell_length_a   8.11210035
_cell_length_b   9.34476800
_cell_length_c   11.95075700
_cell_angle_alpha   90.00000000
_cell_angle_beta   90.21731496
_cell_angle_gamma   90.00000000
_symmetry_Int_Tables_number   1
_chemical_formula_structural   Tb8Lu12GeBi11
_chemical_formula_sum   'Tb8 Lu12 Ge1 Bi11'
_cell_volume   905.92893293
_cell_formula_units_Z   1
loop_
 _symmetry_equiv_pos_site_id
 _symmetry_equiv_pos_as_xyz
  1  'x, y, z'
loop_
 _atom_site_type_symbol
 _atom_site_label
 _atom_site_symmetry_multiplicity
 _atom_site_fract_x
 _atom_site_fract_y
 _atom_site_fract_z
 _atom_site_occupancy
  Tb  Tb0  1  0.190905  0.750000  0.723462  1
  Tb  Tb1  1  0.669976  0.750000  0.789859  1
  Tb  Tb2  1  0.813629  0.250000  0.281123  1
  Tb  Tb3  1  0.315298  0.250000  0.218642  1
  Tb  Tb4  1  0.352408  0.750000  0.206557  1
  Tb  Tb5  1  0.849930  0.750000  0.283986  1
  Tb  Tb6  1  0.652134  0.250000  0.784179  1
  Tb  Tb7  1  0.148135  0.250000  0.717985  1
  Lu  Lu8  1  0.034082  0.750000  0.989766  1
  Lu  Lu9  1  0.523548  0.750000  0.511557  1
  Lu  Lu10  1  0.982414  0.250000  0.008995  1
  Lu  Lu11  1  0.478325  0.250000  0.488941  1
  Lu  Lu12  1  0.312451  0.448785  0.941141  1
  Lu  Lu13  1  0.809228  0.066516  0.559020  1
  Lu  Lu14  1  0.682149  0.927001  0.053872  1
  Lu  Lu15  1  0.191033  0.567177  0.439721  1
  Lu  Lu16  1  0.682149  0.572999  0.053872  1
  Lu  Lu17  1  0.191033  0.932823  0.439721  1
  Lu  Lu18  1  0.312451  0.051215  0.941141  1
  Lu  Lu19  1  0.809228  0.433484  0.559020  1
  Ge  Ge20  1  0.405017  0.750000  0.962097  1
  Bi  Bi21  1  0.435371  0.005255  0.671741  1
  Bi  Bi22  1  0.934655  0.498830  0.828497  1
  Bi  Bi23  1  0.563950  0.504999  0.327532  1
  Bi  Bi24  1  0.063154  0.996673  0.171905  1
  Bi  Bi25  1  0.563950  0.995001  0.327532  1
  Bi  Bi26  1  0.063154  0.503327  0.171905  1
  Bi  Bi27  1  0.435371  0.494745  0.671741  1
  Bi  Bi28  1  0.934655  0.001170  0.828497  1
  Bi  Bi29  1  0.905027  0.750000  0.545764  1
  Bi  Bi30  1  0.597667  0.250000  0.042560  1
  Bi  Bi31  1  0.097516  0.250000  0.457677  1
