# generated using pymatgen
data_Dy3Mn5(Co2P3)2
_symmetry_space_group_name_H-M   'P 1'
_cell_length_a   3.65596700
_cell_length_b   10.79763400
_cell_length_c   12.35902600
_cell_angle_alpha   90.00000000
_cell_angle_beta   90.00000000
_cell_angle_gamma   90.00000000
_symmetry_Int_Tables_number   1
_chemical_formula_structural   Dy3Mn5(Co2P3)2
_chemical_formula_sum   'Dy6 Mn10 Co8 P12'
_cell_volume   487.88235925
_cell_formula_units_Z   2
loop_
 _symmetry_equiv_pos_site_id
 _symmetry_equiv_pos_as_xyz
  1  'x, y, z'
loop_
 _atom_site_type_symbol
 _atom_site_label
 _atom_site_symmetry_multiplicity
 _atom_site_fract_x
 _atom_site_fract_y
 _atom_site_fract_z
 _atom_site_occupancy
  Dy  Dy0  1  0.000000  0.500000  0.531929  1
  Dy  Dy1  1  0.500000  0.000000  0.468071  1
  Dy  Dy2  1  0.500000  0.822171  0.200667  1
  Dy  Dy3  1  0.500000  0.177829  0.200667  1
  Dy  Dy4  1  0.000000  0.677829  0.799333  1
  Dy  Dy5  1  0.000000  0.322171  0.799333  1
  Mn  Mn6  1  0.500000  0.297654  0.430999  1
  Mn  Mn7  1  0.500000  0.702346  0.430999  1
  Mn  Mn8  1  0.000000  0.202346  0.569001  1
  Mn  Mn9  1  0.000000  0.797654  0.569001  1
  Mn  Mn10  1  0.500000  0.882556  0.706969  1
  Mn  Mn11  1  0.500000  0.117444  0.706969  1
  Mn  Mn12  1  0.000000  0.617444  0.293031  1
  Mn  Mn13  1  0.000000  0.382556  0.293031  1
  Mn  Mn14  1  0.500000  0.500000  0.159795  1
  Mn  Mn15  1  0.000000  0.000000  0.840205  1
  Co  Co16  1  0.000000  0.500000  0.990391  1
  Co  Co17  1  0.500000  0.000000  0.009609  1
  Co  Co18  1  0.500000  0.333359  0.996189  1
  Co  Co19  1  0.500000  0.666641  0.996189  1
  Co  Co20  1  0.000000  0.166641  0.003811  1
  Co  Co21  1  0.000000  0.833359  0.003811  1
  Co  Co22  1  0.500000  0.500000  0.710541  1
  Co  Co23  1  0.000000  0.000000  0.289459  1
  P  P24  1  0.500000  0.317143  0.620943  1
  P  P25  1  0.500000  0.682857  0.620943  1
  P  P26  1  0.000000  0.182857  0.379057  1
  P  P27  1  0.000000  0.817143  0.379057  1
  P  P28  1  0.500000  0.500000  0.888025  1
  P  P29  1  0.000000  0.000000  0.111975  1
  P  P30  1  0.500000  0.844947  0.893103  1
  P  P31  1  0.500000  0.155053  0.893103  1
  P  P32  1  0.000000  0.655053  0.106897  1
  P  P33  1  0.000000  0.344947  0.106897  1
  P  P34  1  0.500000  0.500000  0.356268  1
  P  P35  1  0.000000  0.000000  0.643732  1
