# generated using pymatgen
data_AcTb2Nd(Zn5Sn)2
_symmetry_space_group_name_H-M   'P 1'
_cell_length_a   8.53803977
_cell_length_b   8.53804012
_cell_length_c   9.10953595
_cell_angle_alpha   89.01062356
_cell_angle_beta   90.98937544
_cell_angle_gamma   149.52425147
_symmetry_Int_Tables_number   1
_chemical_formula_structural   AcTb2Nd(Zn5Sn)2
_chemical_formula_sum   'Ac1 Tb2 Nd1 Zn10 Sn2'
_cell_volume   336.74388257
_cell_formula_units_Z   1
loop_
 _symmetry_equiv_pos_site_id
 _symmetry_equiv_pos_as_xyz
  1  'x, y, z'
loop_
 _atom_site_type_symbol
 _atom_site_label
 _atom_site_symmetry_multiplicity
 _atom_site_fract_x
 _atom_site_fract_y
 _atom_site_fract_z
 _atom_site_occupancy
  Ac  Ac0  1  0.000000  0.000000  0.500000  1
  Tb  Tb1  1  0.206441  0.793559  0.246617  1
  Tb  Tb2  1  0.793559  0.206441  0.753383  1
  Nd  Nd3  1  0.000000  0.000000  0.000000  1
  Zn  Zn4  1  0.809278  0.190722  0.391524  1
  Zn  Zn5  1  0.190722  0.809278  0.608476  1
  Zn  Zn6  1  0.814763  0.185237  0.113353  1
  Zn  Zn7  1  0.185237  0.814763  0.886647  1
  Zn  Zn8  1  0.659295  0.340705  0.481855  1
  Zn  Zn9  1  0.340705  0.659295  0.518145  1
  Zn  Zn10  1  0.660838  0.339162  0.013921  1
  Zn  Zn11  1  0.339162  0.660838  0.986079  1
  Zn  Zn12  1  0.395046  0.604954  0.250457  1
  Zn  Zn13  1  0.604954  0.395046  0.749543  1
  Sn  Sn14  1  0.560004  0.439996  0.240746  1
  Sn  Sn15  1  0.439996  0.560004  0.759254  1
