# generated using pymatgen
data_Ac(Eu2Ir)2
_symmetry_space_group_name_H-M   'P 1'
_cell_length_a   6.85941631
_cell_length_b   7.71686188
_cell_length_c   9.02488401
_cell_angle_alpha   96.74331967
_cell_angle_beta   112.33541775
_cell_angle_gamma   89.99999747
_symmetry_Int_Tables_number   1
_chemical_formula_structural   Ac(Eu2Ir)2
_chemical_formula_sum   'Ac2 Eu8 Ir4'
_cell_volume   438.30015664
_cell_formula_units_Z   2
loop_
 _symmetry_equiv_pos_site_id
 _symmetry_equiv_pos_as_xyz
  1  'x, y, z'
loop_
 _atom_site_type_symbol
 _atom_site_label
 _atom_site_symmetry_multiplicity
 _atom_site_fract_x
 _atom_site_fract_y
 _atom_site_fract_z
 _atom_site_occupancy
  Ac  Ac0  1  0.427787  0.750000  0.000000  1
  Ac  Ac1  1  0.572213  0.250000  0.000000  1
  Eu  Eu2  1  0.990420  0.914463  0.182980  1
  Eu  Eu3  1  0.807441  0.585537  0.817020  1
  Eu  Eu4  1  0.009580  0.085537  0.817020  1
  Eu  Eu5  1  0.192559  0.414463  0.182980  1
  Eu  Eu6  1  0.641096  0.820258  0.437570  1
  Eu  Eu7  1  0.203526  0.679742  0.562430  1
  Eu  Eu8  1  0.358904  0.179742  0.562430  1
  Eu  Eu9  1  0.796474  0.320258  0.437570  1
  Ir  Ir10  1  0.819047  0.578813  0.219289  1
  Ir  Ir11  1  0.599759  0.921187  0.780711  1
  Ir  Ir12  1  0.180953  0.421187  0.780711  1
  Ir  Ir13  1  0.400241  0.078813  0.219289  1
