# generated using pymatgen
data_ThScB6W
_symmetry_space_group_name_H-M   'P 1'
_cell_length_a   3.68280900
_cell_length_b   9.18497000
_cell_length_c   11.64250100
_cell_angle_alpha   90.00000000
_cell_angle_beta   90.00000000
_cell_angle_gamma   90.00000000
_symmetry_Int_Tables_number   1
_chemical_formula_structural   ThScB6W
_chemical_formula_sum   'Th4 Sc4 B24 W4'
_cell_volume   393.82494576
_cell_formula_units_Z   4
loop_
 _symmetry_equiv_pos_site_id
 _symmetry_equiv_pos_as_xyz
  1  'x, y, z'
loop_
 _atom_site_type_symbol
 _atom_site_label
 _atom_site_symmetry_multiplicity
 _atom_site_fract_x
 _atom_site_fract_y
 _atom_site_fract_z
 _atom_site_occupancy
  Th  Th0  1  0.000000  0.820561  0.085070  1
  Th  Th1  1  0.000000  0.179439  0.914930  1
  Th  Th2  1  0.000000  0.320561  0.414930  1
  Th  Th3  1  0.000000  0.679439  0.585070  1
  Sc  Sc4  1  0.000000  0.444947  0.128466  1
  Sc  Sc5  1  0.000000  0.555053  0.871534  1
  Sc  Sc6  1  0.000000  0.944947  0.371534  1
  Sc  Sc7  1  0.000000  0.055053  0.628466  1
  B  B8  1  0.500000  0.055365  0.069661  1
  B  B9  1  0.500000  0.944635  0.930339  1
  B  B10  1  0.500000  0.555365  0.430339  1
  B  B11  1  0.500000  0.444635  0.569661  1
  B  B12  1  0.500000  0.256316  0.083587  1
  B  B13  1  0.500000  0.743684  0.916413  1
  B  B14  1  0.500000  0.756316  0.416413  1
  B  B15  1  0.500000  0.243684  0.583587  1
  B  B16  1  0.500000  0.295888  0.234750  1
  B  B17  1  0.500000  0.704112  0.765250  1
  B  B18  1  0.500000  0.795888  0.265250  1
  B  B19  1  0.500000  0.204112  0.734750  1
  B  B20  1  0.500000  0.127689  0.317563  1
  B  B21  1  0.500000  0.872311  0.682437  1
  B  B22  1  0.500000  0.627689  0.182437  1
  B  B23  1  0.500000  0.372311  0.817563  1
  B  B24  1  0.500000  0.481596  0.283843  1
  B  B25  1  0.500000  0.518404  0.716157  1
  B  B26  1  0.500000  0.981596  0.216157  1
  B  B27  1  0.500000  0.018404  0.783843  1
  B  B28  1  0.500000  0.094272  0.474544  1
  B  B29  1  0.500000  0.905728  0.525456  1
  B  B30  1  0.500000  0.594272  0.025456  1
  B  B31  1  0.500000  0.405728  0.974544  1
  W  W32  1  0.000000  0.141233  0.182406  1
  W  W33  1  0.000000  0.858767  0.817594  1
  W  W34  1  0.000000  0.641233  0.317594  1
  W  W35  1  0.000000  0.358767  0.682406  1
