# generated using pymatgen
data_HCl9
_symmetry_space_group_name_H-M   'P 1'
_cell_length_a   7.39210228
_cell_length_b   11.82979076
_cell_length_c   11.72090311
_cell_angle_alpha   118.57195867
_cell_angle_beta   104.56246818
_cell_angle_gamma   100.78956399
_symmetry_Int_Tables_number   1
_chemical_formula_structural   HCl9
_chemical_formula_sum   'H2 Cl18'
_cell_volume   812.22863452
_cell_formula_units_Z   2
loop_
 _symmetry_equiv_pos_site_id
 _symmetry_equiv_pos_as_xyz
  1  'x, y, z'
loop_
 _atom_site_type_symbol
 _atom_site_label
 _atom_site_symmetry_multiplicity
 _atom_site_fract_x
 _atom_site_fract_y
 _atom_site_fract_z
 _atom_site_occupancy
  H  H0  1  0.891873  0.775035  0.428573  1
  H  H1  1  0.108127  0.224965  0.571427  1
  Cl  Cl2  1  0.912479  0.294664  0.830154  1
  Cl  Cl3  1  0.087521  0.705336  0.169846  1
  Cl  Cl4  1  0.503091  0.366887  0.296854  1
  Cl  Cl5  1  0.496909  0.633113  0.703146  1
  Cl  Cl6  1  0.680530  0.887935  0.491911  1
  Cl  Cl7  1  0.319470  0.112065  0.508089  1
  Cl  Cl8  1  0.015958  0.709220  0.409935  1
  Cl  Cl9  1  0.984042  0.290780  0.590065  1
  Cl  Cl10  1  0.401256  0.213719  0.420078  1
  Cl  Cl11  1  0.598744  0.786281  0.579922  1
  Cl  Cl12  1  0.840619  0.025408  0.151607  1
  Cl  Cl13  1  0.159381  0.974592  0.848393  1
  Cl  Cl14  1  0.843606  0.305697  0.990219  1
  Cl  Cl15  1  0.156394  0.694303  0.009781  1
  Cl  Cl16  1  0.230888  0.343189  0.178547  1
  Cl  Cl17  1  0.769112  0.656811  0.821453  1
  Cl  Cl18  1  0.426981  0.095427  0.887116  1
  Cl  Cl19  1  0.573019  0.904573  0.112884  1
