# generated using pymatgen
data_K7(FeSe2)4
_symmetry_space_group_name_H-M   'P 1'
_cell_length_a   11.57340300
_cell_length_b   11.57340300
_cell_length_c   8.26972500
_cell_angle_alpha   90.00000000
_cell_angle_beta   90.00000000
_cell_angle_gamma   90.00000000
_symmetry_Int_Tables_number   1
_chemical_formula_structural   K7(FeSe2)4
_chemical_formula_sum   'K14 Fe8 Se16'
_cell_volume   1107.67720889
_cell_formula_units_Z   2
loop_
 _symmetry_equiv_pos_site_id
 _symmetry_equiv_pos_as_xyz
  1  'x, y, z'
loop_
 _atom_site_type_symbol
 _atom_site_label
 _atom_site_symmetry_multiplicity
 _atom_site_fract_x
 _atom_site_fract_y
 _atom_site_fract_z
 _atom_site_occupancy
  K  K0  1  0.000000  0.000000  0.000000  1
  K  K1  1  0.500000  0.500000  0.500000  1
  K  K2  1  0.500000  0.000000  0.960185  1
  K  K3  1  0.500000  0.000000  0.460185  1
  K  K4  1  0.000000  0.500000  0.539815  1
  K  K5  1  0.000000  0.500000  0.039815  1
  K  K6  1  0.759189  0.240811  0.000000  1
  K  K7  1  0.759189  0.759189  0.000000  1
  K  K8  1  0.240811  0.240811  0.000000  1
  K  K9  1  0.240811  0.759189  0.000000  1
  K  K10  1  0.740811  0.259189  0.500000  1
  K  K11  1  0.740811  0.740811  0.500000  1
  K  K12  1  0.259189  0.259189  0.500000  1
  K  K13  1  0.259189  0.740811  0.500000  1
  Fe  Fe14  1  0.500000  0.388270  0.887893  1
  Fe  Fe15  1  0.500000  0.611730  0.887893  1
  Fe  Fe16  1  0.888270  0.000000  0.387893  1
  Fe  Fe17  1  0.111730  0.000000  0.387893  1
  Fe  Fe18  1  0.000000  0.111730  0.612107  1
  Fe  Fe19  1  0.000000  0.888270  0.612107  1
  Fe  Fe20  1  0.611730  0.500000  0.112107  1
  Fe  Fe21  1  0.388270  0.500000  0.112107  1
  Se  Se22  1  0.500000  0.326575  0.168452  1
  Se  Se23  1  0.500000  0.673425  0.168452  1
  Se  Se24  1  0.826575  0.000000  0.668452  1
  Se  Se25  1  0.173425  0.000000  0.668452  1
  Se  Se26  1  0.000000  0.173425  0.331548  1
  Se  Se27  1  0.000000  0.826575  0.331548  1
  Se  Se28  1  0.673425  0.500000  0.831548  1
  Se  Se29  1  0.326575  0.500000  0.831548  1
  Se  Se30  1  0.500000  0.773577  0.715305  1
  Se  Se31  1  0.500000  0.226423  0.715305  1
  Se  Se32  1  0.273577  0.000000  0.215305  1
  Se  Se33  1  0.726423  0.000000  0.215305  1
  Se  Se34  1  0.000000  0.726423  0.784695  1
  Se  Se35  1  0.000000  0.273577  0.784695  1
  Se  Se36  1  0.226423  0.500000  0.284695  1
  Se  Se37  1  0.773577  0.500000  0.284695  1
