# generated using pymatgen
data_Ho9LuBi6
_symmetry_space_group_name_H-M   'P 1'
_cell_length_a   8.23054400
_cell_length_b   9.49375501
_cell_length_c   12.01035401
_cell_angle_alpha   90.00555990
_cell_angle_beta   90.00000000
_cell_angle_gamma   90.00000000
_symmetry_Int_Tables_number   1
_chemical_formula_structural   Ho9LuBi6
_chemical_formula_sum   'Ho18 Lu2 Bi12'
_cell_volume   938.47426563
_cell_formula_units_Z   2
loop_
 _symmetry_equiv_pos_site_id
 _symmetry_equiv_pos_as_xyz
  1  'x, y, z'
loop_
 _atom_site_type_symbol
 _atom_site_label
 _atom_site_symmetry_multiplicity
 _atom_site_fract_x
 _atom_site_fract_y
 _atom_site_fract_z
 _atom_site_occupancy
  Ho  Ho0  1  0.353203  0.750167  0.216544  1
  Ho  Ho1  1  0.853203  0.749833  0.283456  1
  Ho  Ho2  1  0.646437  0.249923  0.783506  1
  Ho  Ho3  1  0.146437  0.250077  0.716494  1
  Ho  Ho4  1  0.308371  0.064286  0.941120  1
  Ho  Ho5  1  0.808371  0.435714  0.558880  1
  Ho  Ho6  1  0.308093  0.435793  0.940936  1
  Ho  Ho7  1  0.808093  0.064207  0.559064  1
  Ho  Ho8  1  0.691986  0.935336  0.059013  1
  Ho  Ho9  1  0.191986  0.564664  0.440987  1
  Ho  Ho10  1  0.475959  0.249762  0.488666  1
  Ho  Ho11  1  0.975959  0.250238  0.011334  1
  Ho  Ho12  1  0.523044  0.750361  0.511038  1
  Ho  Ho13  1  0.023044  0.749639  0.988962  1
  Ho  Ho14  1  0.314139  0.249997  0.218191  1
  Ho  Ho15  1  0.814139  0.250003  0.281809  1
  Ho  Ho16  1  0.685719  0.749761  0.781953  1
  Ho  Ho17  1  0.185719  0.750239  0.718047  1
  Lu  Lu18  1  0.692061  0.565610  0.059056  1
  Lu  Lu19  1  0.192061  0.934390  0.440944  1
  Bi  Bi20  1  0.405863  0.749476  0.957667  1
  Bi  Bi21  1  0.905863  0.750524  0.542333  1
  Bi  Bi22  1  0.594875  0.251795  0.042810  1
  Bi  Bi23  1  0.094875  0.248205  0.457190  1
  Bi  Bi24  1  0.566217  0.996087  0.325714  1
  Bi  Bi25  1  0.066217  0.503913  0.174286  1
  Bi  Bi26  1  0.433724  0.496146  0.674343  1
  Bi  Bi27  1  0.933724  0.003854  0.825657  1
  Bi  Bi28  1  0.433787  0.003989  0.674199  1
  Bi  Bi29  1  0.933787  0.496011  0.825801  1
  Bi  Bi30  1  0.566523  0.503931  0.325601  1
  Bi  Bi31  1  0.066523  0.996069  0.174399  1
