# generated using pymatgen
data_Li4Er3TmSn4
_symmetry_space_group_name_H-M   'P 1'
_cell_length_a   9.34236700
_cell_length_b   9.34179764
_cell_length_c   7.21188900
_cell_angle_alpha   89.99923837
_cell_angle_beta   90.00152316
_cell_angle_gamma   120.00201260
_symmetry_Int_Tables_number   1
_chemical_formula_structural   Li4Er3TmSn4
_chemical_formula_sum   'Li8 Er6 Tm2 Sn8'
_cell_volume   545.07747688
_cell_formula_units_Z   2
loop_
 _symmetry_equiv_pos_site_id
 _symmetry_equiv_pos_as_xyz
  1  'x, y, z'
loop_
 _atom_site_type_symbol
 _atom_site_label
 _atom_site_symmetry_multiplicity
 _atom_site_fract_x
 _atom_site_fract_y
 _atom_site_fract_z
 _atom_site_occupancy
  Li  Li0  1  0.833037  0.666296  0.711904  1
  Li  Li1  1  0.833217  0.166873  0.711980  1
  Li  Li2  1  0.333185  0.666519  0.821085  1
  Li  Li3  1  0.666667  0.333481  0.321085  1
  Li  Li4  1  0.666345  0.833127  0.211980  1
  Li  Li5  1  0.166740  0.333704  0.211904  1
  Li  Li6  1  0.166663  0.833110  0.211931  1
  Li  Li7  1  0.333553  0.166890  0.711931  1
  Er  Er8  1  0.000002  0.000034  0.000214  1
  Er  Er9  1  0.999968  0.999966  0.500214  1
  Er  Er10  1  0.511418  0.488591  0.006005  1
  Er  Er11  1  0.022827  0.511409  0.506005  1
  Er  Er12  1  0.488545  0.977155  0.506008  1
  Er  Er13  1  0.511390  0.022845  0.006008  1
  Tm  Tm14  1  0.977114  0.488586  0.005747  1
  Tm  Tm15  1  0.488527  0.511414  0.505747  1
  Sn  Sn16  1  0.166606  0.833012  0.771439  1
  Sn  Sn17  1  0.666546  0.333237  0.740693  1
  Sn  Sn18  1  0.333308  0.666763  0.240693  1
  Sn  Sn19  1  0.833677  0.166869  0.271215  1
  Sn  Sn20  1  0.166727  0.333192  0.770779  1
  Sn  Sn21  1  0.333595  0.166988  0.271439  1
  Sn  Sn22  1  0.833536  0.666808  0.270779  1
  Sn  Sn23  1  0.666806  0.833131  0.771215  1
