# generated using pymatgen
data_Tm3Lu7(AlSb)3
_symmetry_space_group_name_H-M   'P 1'
_cell_length_a   8.67255668
_cell_length_b   8.69484073
_cell_length_c   6.31718200
_cell_angle_alpha   90.00000000
_cell_angle_beta   90.00000000
_cell_angle_gamma   119.70268861
_symmetry_Int_Tables_number   1
_chemical_formula_structural   Tm3Lu7(AlSb)3
_chemical_formula_sum   'Tm3 Lu7 Al3 Sb3'
_cell_volume   413.76726081
_cell_formula_units_Z   1
loop_
 _symmetry_equiv_pos_site_id
 _symmetry_equiv_pos_as_xyz
  1  'x, y, z'
loop_
 _atom_site_type_symbol
 _atom_site_label
 _atom_site_symmetry_multiplicity
 _atom_site_fract_x
 _atom_site_fract_y
 _atom_site_fract_z
 _atom_site_occupancy
  Tm  Tm0  1  0.764053  0.765142  0.250000  1
  Tm  Tm1  1  0.243036  0.231900  0.750000  1
  Tm  Tm2  1  0.013015  0.770625  0.750000  1
  Lu  Lu3  1  0.332911  0.679373  0.003019  1
  Lu  Lu4  1  0.666646  0.325441  0.497105  1
  Lu  Lu5  1  0.666646  0.325441  0.002895  1
  Lu  Lu6  1  0.332911  0.679373  0.496981  1
  Lu  Lu7  1  0.233614  0.988852  0.250000  1
  Lu  Lu8  1  0.759494  0.002292  0.750000  1
  Lu  Lu9  1  0.987217  0.233033  0.250000  1
  Al  Al10  1  0.599807  0.999385  0.250000  1
  Al  Al11  1  0.404644  0.003877  0.750000  1
  Al  Al12  1  0.995039  0.599907  0.250000  1
  Sb  Sb13  1  0.387328  0.391395  0.250000  1
  Sb  Sb14  1  0.608842  0.607348  0.750000  1
  Sb  Sb15  1  0.004796  0.396614  0.750000  1
