# generated using pymatgen
data_Tm4Si6PtRh
_symmetry_space_group_name_H-M   'P 1'
_cell_length_a   8.13539900
_cell_length_b   8.13539857
_cell_length_c   7.78707700
_cell_angle_alpha   90.00000000
_cell_angle_beta   90.00000000
_cell_angle_gamma   119.99999767
_symmetry_Int_Tables_number   1
_chemical_formula_structural   Tm4Si6PtRh
_chemical_formula_sum   'Tm8 Si12 Pt2 Rh2'
_cell_volume   446.33691125
_cell_formula_units_Z   2
loop_
 _symmetry_equiv_pos_site_id
 _symmetry_equiv_pos_as_xyz
  1  'x, y, z'
loop_
 _atom_site_type_symbol
 _atom_site_label
 _atom_site_symmetry_multiplicity
 _atom_site_fract_x
 _atom_site_fract_y
 _atom_site_fract_z
 _atom_site_occupancy
  Tm  Tm0  1  0.000000  0.000000  0.250000  1
  Tm  Tm1  1  0.000000  0.000000  0.750000  1
  Tm  Tm2  1  0.490227  0.509773  0.250000  1
  Tm  Tm3  1  0.490227  0.980453  0.250000  1
  Tm  Tm4  1  0.019547  0.509773  0.250000  1
  Tm  Tm5  1  0.507362  0.492638  0.750000  1
  Tm  Tm6  1  0.985276  0.492638  0.750000  1
  Tm  Tm7  1  0.507362  0.014724  0.750000  1
  Si  Si8  1  0.836082  0.163918  0.500024  1
  Si  Si9  1  0.836082  0.672166  0.500024  1
  Si  Si10  1  0.327834  0.163918  0.500024  1
  Si  Si11  1  0.836082  0.163918  0.999976  1
  Si  Si12  1  0.836082  0.672166  0.999976  1
  Si  Si13  1  0.327834  0.163918  0.999976  1
  Si  Si14  1  0.167740  0.832260  0.001123  1
  Si  Si15  1  0.664521  0.832260  0.001123  1
  Si  Si16  1  0.167740  0.335479  0.001123  1
  Si  Si17  1  0.167740  0.832260  0.498877  1
  Si  Si18  1  0.664521  0.832260  0.498877  1
  Si  Si19  1  0.167740  0.335479  0.498877  1
  Pt  Pt20  1  0.666667  0.333333  0.473362  1
  Pt  Pt21  1  0.666667  0.333333  0.026638  1
  Rh  Rh22  1  0.333333  0.666667  0.962265  1
  Rh  Rh23  1  0.333333  0.666667  0.537735  1
