# generated using pymatgen
data_Ce2Re2C3
_symmetry_space_group_name_H-M   'P 1'
_cell_length_a   6.28818718
_cell_length_b   6.28818831
_cell_length_c   5.70863114
_cell_angle_alpha   65.42406981
_cell_angle_beta   65.42406548
_cell_angle_gamma   30.43112626
_symmetry_Int_Tables_number   1
_chemical_formula_structural   Ce2Re2C3
_chemical_formula_sum   'Ce2 Re2 C3'
_cell_volume   103.16646430
_cell_formula_units_Z   1
loop_
 _symmetry_equiv_pos_site_id
 _symmetry_equiv_pos_as_xyz
  1  'x, y, z'
loop_
 _atom_site_type_symbol
 _atom_site_label
 _atom_site_symmetry_multiplicity
 _atom_site_fract_x
 _atom_site_fract_y
 _atom_site_fract_z
 _atom_site_occupancy
  Ce  Ce0  1  0.396547  0.396547  0.797889  1
  Ce  Ce1  1  0.603453  0.603453  0.202111  1
  Re  Re2  1  0.156816  0.156816  0.677575  1
  Re  Re3  1  0.843184  0.843184  0.322425  1
  C  C4  1  0.000000  0.000000  0.000000  1
  C  C5  1  0.253009  0.253009  0.261497  1
  C  C6  1  0.746991  0.746991  0.738503  1
