# generated using pymatgen
data_Pa2BIrRh5
_symmetry_space_group_name_H-M   'P 1'
_cell_length_a   5.84950139
_cell_length_b   5.84950169
_cell_length_c   5.87513700
_cell_angle_alpha   59.85491694
_cell_angle_beta   59.85491526
_cell_angle_gamma   60.29016367
_symmetry_Int_Tables_number   1
_chemical_formula_structural   Pa2BIrRh5
_chemical_formula_sum   'Pa2 B1 Ir1 Rh5'
_cell_volume   142.14249980
_cell_formula_units_Z   1
loop_
 _symmetry_equiv_pos_site_id
 _symmetry_equiv_pos_as_xyz
  1  'x, y, z'
loop_
 _atom_site_type_symbol
 _atom_site_label
 _atom_site_symmetry_multiplicity
 _atom_site_fract_x
 _atom_site_fract_y
 _atom_site_fract_z
 _atom_site_occupancy
  Pa  Pa0  1  0.750179  0.750179  0.749821  1
  Pa  Pa1  1  0.250179  0.250179  0.249821  1
  B  B2  1  0.499060  0.499060  0.500940  1
  Ir  Ir3  1  0.755636  0.755636  0.244364  1
  Rh  Rh4  1  0.755508  0.244279  0.244492  1
  Rh  Rh5  1  0.244279  0.755508  0.244492  1
  Rh  Rh6  1  0.245373  0.245373  0.754627  1
  Rh  Rh7  1  0.755508  0.244279  0.755721  1
  Rh  Rh8  1  0.244279  0.755508  0.755721  1
