# generated using pymatgen
data_La10Al3AgRu6
_symmetry_space_group_name_H-M   'P 1'
_cell_length_a   8.71118771
_cell_length_b   8.71118785
_cell_length_c   8.55775500
_cell_angle_alpha   109.11481538
_cell_angle_beta   109.11481568
_cell_angle_gamma   109.82526170
_symmetry_Int_Tables_number   1
_chemical_formula_structural   La10Al3AgRu6
_chemical_formula_sum   'La10 Al3 Ag1 Ru6'
_cell_volume   502.09290676
_cell_formula_units_Z   1
loop_
 _symmetry_equiv_pos_site_id
 _symmetry_equiv_pos_as_xyz
  1  'x, y, z'
loop_
 _atom_site_type_symbol
 _atom_site_label
 _atom_site_symmetry_multiplicity
 _atom_site_fract_x
 _atom_site_fract_y
 _atom_site_fract_z
 _atom_site_occupancy
  La  La0  1  0.249627  0.686533  0.440707  1
  La  La1  1  0.748177  0.806595  0.059187  1
  La  La2  1  0.436906  0.250373  0.691078  1
  La  La3  1  0.693405  0.441583  0.252592  1
  La  La4  1  0.058418  0.751823  0.811011  1
  La  La5  1  0.813467  0.063095  0.754172  1
  La  La6  1  0.211570  0.213879  0.211131  1
  La  La7  1  0.500001  0.000000  0.290099  1
  La  La8  1  0.286121  0.497691  0.997253  1
  La  La9  1  0.002310  0.288430  0.499564  1
  Al  Al10  1  0.587685  0.584884  0.585823  1
  Al  Al11  1  0.915116  0.502802  0.000940  1
  Al  Al12  1  0.997199  0.912315  0.498140  1
  Ag  Ag13  1  0.500001  0.000000  0.916047  1
  Ru  Ru14  1  0.231494  0.127244  0.862074  1
  Ru  Ru15  1  0.746497  0.382114  0.631129  1
  Ru  Ru16  1  0.895750  0.268508  0.130580  1
  Ru  Ru17  1  0.117885  0.864383  0.249016  1
  Ru  Ru18  1  0.635616  0.753503  0.384632  1
  Ru  Ru19  1  0.372755  0.604249  0.734829  1
