# generated using pymatgen
data_Dy10Sn6C
_symmetry_space_group_name_H-M   'P 1'
_cell_length_a   8.95958700
_cell_length_b   8.95958766
_cell_length_c   6.58000900
_cell_angle_alpha   90.00000000
_cell_angle_beta   90.00000000
_cell_angle_gamma   119.99999387
_symmetry_Int_Tables_number   1
_chemical_formula_structural   Dy10Sn6C
_chemical_formula_sum   'Dy10 Sn6 C1'
_cell_volume   457.43896988
_cell_formula_units_Z   1
loop_
 _symmetry_equiv_pos_site_id
 _symmetry_equiv_pos_as_xyz
  1  'x, y, z'
loop_
 _atom_site_type_symbol
 _atom_site_label
 _atom_site_symmetry_multiplicity
 _atom_site_fract_x
 _atom_site_fract_y
 _atom_site_fract_z
 _atom_site_occupancy
  Dy  Dy0  1  0.333333  0.666667  0.500000  1
  Dy  Dy1  1  0.666667  0.333333  0.500000  1
  Dy  Dy2  1  0.666667  0.333333  0.000000  1
  Dy  Dy3  1  0.333333  0.666667  0.000000  1
  Dy  Dy4  1  0.000000  0.772935  0.275517  1
  Dy  Dy5  1  0.227065  0.227065  0.275517  1
  Dy  Dy6  1  0.772935  0.000000  0.275517  1
  Dy  Dy7  1  0.000000  0.227065  0.724483  1
  Dy  Dy8  1  0.772935  0.772935  0.724483  1
  Dy  Dy9  1  0.227065  0.000000  0.724483  1
  Sn  Sn10  1  0.000000  0.399539  0.250269  1
  Sn  Sn11  1  0.600461  0.600461  0.250269  1
  Sn  Sn12  1  0.399539  0.000000  0.250269  1
  Sn  Sn13  1  0.000000  0.600461  0.749731  1
  Sn  Sn14  1  0.399539  0.399539  0.749731  1
  Sn  Sn15  1  0.600461  0.000000  0.749731  1
  C  C16  1  0.000000  0.000000  0.500000  1
