# generated using pymatgen
data_Y5Co4Ni3(PRu)12
_symmetry_space_group_name_H-M   'P 1'
_cell_length_a   12.39913088
_cell_length_b   12.43381032
_cell_length_c   3.83074700
_cell_angle_alpha   90.00000000
_cell_angle_beta   90.00000000
_cell_angle_gamma   119.95099757
_symmetry_Int_Tables_number   1
_chemical_formula_structural   Y5Co4Ni3(PRu)12
_chemical_formula_sum   'Y5 Co4 Ni3 P12 Ru12'
_cell_volume   511.70989947
_cell_formula_units_Z   1
loop_
 _symmetry_equiv_pos_site_id
 _symmetry_equiv_pos_as_xyz
  1  'x, y, z'
loop_
 _atom_site_type_symbol
 _atom_site_label
 _atom_site_symmetry_multiplicity
 _atom_site_fract_x
 _atom_site_fract_y
 _atom_site_fract_z
 _atom_site_occupancy
  Y  Y0  1  0.332688  0.666073  0.500000  1
  Y  Y1  1  0.668865  0.334117  0.500000  1
  Y  Y2  1  0.002206  0.185624  0.000000  1
  Y  Y3  1  0.815359  0.817667  0.000000  1
  Y  Y4  1  0.181543  0.997189  0.000000  1
  Co  Co5  1  0.869923  0.360730  0.000000  1
  Co  Co6  1  0.993578  0.713468  0.000000  1
  Co  Co7  1  0.286370  0.280334  0.000000  1
  Co  Co8  1  0.718793  0.005561  0.000000  1
  Ni  Ni9  1  0.492668  0.130898  0.000000  1
  Ni  Ni10  1  0.639101  0.508077  0.000000  1
  Ni  Ni11  1  0.000264  0.000081  0.500000  1
  P  P12  1  0.002752  0.367500  0.500000  1
  P  P13  1  0.632471  0.639157  0.500000  1
  P  P14  1  0.360960  0.993616  0.500000  1
  P  P15  1  0.524017  0.837483  0.000000  1
  P  P16  1  0.162780  0.686841  0.000000  1
  P  P17  1  0.312170  0.475477  0.000000  1
  P  P18  1  0.478612  0.312787  0.000000  1
  P  P19  1  0.836672  0.519753  0.000000  1
  P  P20  1  0.691377  0.169239  0.000000  1
  P  P21  1  0.994586  0.818336  0.500000  1
  P  P22  1  0.181201  0.176542  0.500000  1
  P  P23  1  0.823619  0.004265  0.500000  1
  Ru  Ru24  1  0.626419  0.828672  0.500000  1
  Ru  Ru25  1  0.171094  0.798313  0.500000  1
  Ru  Ru26  1  0.200913  0.372688  0.500000  1
  Ru  Ru27  1  0.378302  0.191107  0.500000  1
  Ru  Ru28  1  0.812676  0.621716  0.500000  1
  Ru  Ru29  1  0.808797  0.185138  0.500000  1
  Ru  Ru30  1  0.987186  0.545199  0.500000  1
  Ru  Ru31  1  0.456503  0.443253  0.500000  1
  Ru  Ru32  1  0.556645  0.013366  0.500000  1
  Ru  Ru33  1  0.514965  0.637741  0.000000  1
  Ru  Ru34  1  0.361978  0.877628  0.000000  1
  Ru  Ru35  1  0.121947  0.484365  0.000000  1
