# generated using pymatgen
data_TbCeLuCo2
_symmetry_space_group_name_H-M   'P 1'
_cell_length_a   5.86573928
_cell_length_b   5.86573892
_cell_length_c   5.86573876
_cell_angle_alpha   143.28625827
_cell_angle_beta   118.21394053
_cell_angle_gamma   74.07388245
_symmetry_Int_Tables_number   1
_chemical_formula_structural   TbCeLuCo2
_chemical_formula_sum   'Tb1 Ce1 Lu1 Co2'
_cell_volume   104.20131624
_cell_formula_units_Z   1
loop_
 _symmetry_equiv_pos_site_id
 _symmetry_equiv_pos_as_xyz
  1  'x, y, z'
loop_
 _atom_site_type_symbol
 _atom_site_label
 _atom_site_symmetry_multiplicity
 _atom_site_fract_x
 _atom_site_fract_y
 _atom_site_fract_z
 _atom_site_occupancy
  Tb  Tb0  1  0.692394  0.192394  0.500000  1
  Ce  Ce1  1  0.000701  0.000701  0.000000  1
  Lu  Lu2  1  0.310663  0.810663  0.500000  1
  Co  Co3  1  0.291663  0.498121  0.793541  1
  Co  Co4  1  0.704580  0.498121  0.206459  1
