# generated using pymatgen
data_Pr4Tm6Si7Rh
_symmetry_space_group_name_H-M   'P 1'
_cell_length_a   7.40291463
_cell_length_b   7.83543319
_cell_length_c   14.71753300
_cell_angle_alpha   90.00000000
_cell_angle_beta   90.00000000
_cell_angle_gamma   90.24144591
_symmetry_Int_Tables_number   1
_chemical_formula_structural   Pr4Tm6Si7Rh
_chemical_formula_sum   'Pr8 Tm12 Si14 Rh2'
_cell_volume   853.68355398
_cell_formula_units_Z   2
loop_
 _symmetry_equiv_pos_site_id
 _symmetry_equiv_pos_as_xyz
  1  'x, y, z'
loop_
 _atom_site_type_symbol
 _atom_site_label
 _atom_site_symmetry_multiplicity
 _atom_site_fract_x
 _atom_site_fract_y
 _atom_site_fract_z
 _atom_site_occupancy
  Pr  Pr0  1  0.018101  0.177151  0.403476  1
  Pr  Pr1  1  0.516258  0.324931  0.404050  1
  Pr  Pr2  1  0.481158  0.678252  0.906416  1
  Pr  Pr3  1  0.481158  0.678252  0.593584  1
  Pr  Pr4  1  0.983935  0.824227  0.596766  1
  Pr  Pr5  1  0.983935  0.824227  0.903234  1
  Pr  Pr6  1  0.516258  0.324931  0.095950  1
  Pr  Pr7  1  0.018101  0.177151  0.096524  1
  Tm  Tm8  1  0.318223  0.177101  0.624841  1
  Tm  Tm9  1  0.671516  0.818335  0.374252  1
  Tm  Tm10  1  0.641643  0.979441  0.750000  1
  Tm  Tm11  1  0.187040  0.673690  0.373450  1
  Tm  Tm12  1  0.823010  0.322482  0.875936  1
  Tm  Tm13  1  0.823010  0.322482  0.624064  1
  Tm  Tm14  1  0.836201  0.495221  0.250000  1
  Tm  Tm15  1  0.349534  0.010736  0.250000  1
  Tm  Tm16  1  0.318223  0.177101  0.875159  1
  Tm  Tm17  1  0.187040  0.673690  0.126550  1
  Tm  Tm18  1  0.671516  0.818335  0.125748  1
  Tm  Tm19  1  0.163202  0.518203  0.750000  1
  Si  Si20  1  0.024370  0.110815  0.750000  1
  Si  Si21  1  0.531235  0.385365  0.750000  1
  Si  Si22  1  0.147771  0.467788  0.538395  1
  Si  Si23  1  0.973374  0.889430  0.250000  1
  Si  Si24  1  0.730559  0.119390  0.250000  1
  Si  Si25  1  0.853931  0.531305  0.039656  1
  Si  Si26  1  0.350303  0.973270  0.039179  1
  Si  Si27  1  0.147771  0.467788  0.961605  1
  Si  Si28  1  0.649856  0.036983  0.537431  1
  Si  Si29  1  0.350303  0.973270  0.460821  1
  Si  Si30  1  0.853931  0.531305  0.460344  1
  Si  Si31  1  0.774541  0.615323  0.750000  1
  Si  Si32  1  0.222726  0.373590  0.250000  1
  Si  Si33  1  0.649856  0.036983  0.962569  1
  Rh  Rh34  1  0.275633  0.882046  0.750000  1
  Rh  Rh35  1  0.474777  0.609409  0.250000  1
