# generated using pymatgen
data_Dy5In2BiP
_symmetry_space_group_name_H-M   'P 1'
_cell_length_a   9.22340900
_cell_length_b   9.22340896
_cell_length_c   6.61080700
_cell_angle_alpha   90.00000000
_cell_angle_beta   90.00000000
_cell_angle_gamma   120.43559719
_symmetry_Int_Tables_number   1
_chemical_formula_structural   Dy5In2BiP
_chemical_formula_sum   'Dy10 In4 Bi2 P2'
_cell_volume   484.89195805
_cell_formula_units_Z   2
loop_
 _symmetry_equiv_pos_site_id
 _symmetry_equiv_pos_as_xyz
  1  'x, y, z'
loop_
 _atom_site_type_symbol
 _atom_site_label
 _atom_site_symmetry_multiplicity
 _atom_site_fract_x
 _atom_site_fract_y
 _atom_site_fract_z
 _atom_site_occupancy
  Dy  Dy0  1  0.238133  0.998741  0.750000  1
  Dy  Dy1  1  0.761867  0.001259  0.250000  1
  Dy  Dy2  1  0.998741  0.238133  0.750000  1
  Dy  Dy3  1  0.001259  0.761867  0.250000  1
  Dy  Dy4  1  0.758539  0.758539  0.750000  1
  Dy  Dy5  1  0.241461  0.241461  0.250000  1
  Dy  Dy6  1  0.329446  0.670554  0.500000  1
  Dy  Dy7  1  0.670554  0.329446  0.500000  1
  Dy  Dy8  1  0.670554  0.329446  0.000000  1
  Dy  Dy9  1  0.329446  0.670554  0.000000  1
  In  In10  1  0.600731  0.998553  0.750000  1
  In  In11  1  0.399269  0.001447  0.250000  1
  In  In12  1  0.998553  0.600731  0.750000  1
  In  In13  1  0.001447  0.399269  0.250000  1
  Bi  Bi14  1  0.396769  0.396769  0.750000  1
  Bi  Bi15  1  0.603231  0.603231  0.250000  1
  P  P16  1  0.000000  0.000000  0.500000  1
  P  P17  1  0.000000  0.000000  0.000000  1
