# generated using pymatgen
data_Gd12CdNi4Rh
_symmetry_space_group_name_H-M   'P 1'
_cell_length_a   8.45118278
_cell_length_b   8.45088474
_cell_length_c   8.45118300
_cell_angle_alpha   110.76503950
_cell_angle_beta   109.77375157
_cell_angle_gamma   107.88936350
_symmetry_Int_Tables_number   1
_chemical_formula_structural   Gd12CdNi4Rh
_chemical_formula_sum   'Gd12 Cd1 Ni4 Rh1'
_cell_volume   464.32981105
_cell_formula_units_Z   1
loop_
 _symmetry_equiv_pos_site_id
 _symmetry_equiv_pos_as_xyz
  1  'x, y, z'
loop_
 _atom_site_type_symbol
 _atom_site_label
 _atom_site_symmetry_multiplicity
 _atom_site_fract_x
 _atom_site_fract_y
 _atom_site_fract_z
 _atom_site_occupancy
  Gd  Gd0  1  0.402234  0.212298  0.189962  1
  Gd  Gd1  1  0.597766  0.787702  0.810038  1
  Gd  Gd2  1  0.022336  0.212298  0.810063  1
  Gd  Gd3  1  0.977664  0.787702  0.189937  1
  Gd  Gd4  1  0.181150  0.295834  0.476966  1
  Gd  Gd5  1  0.818850  0.704166  0.523034  1
  Gd  Gd6  1  0.181133  0.704166  0.885316  1
  Gd  Gd7  1  0.818867  0.295834  0.114684  1
  Gd  Gd8  1  0.322978  0.629526  0.306549  1
  Gd  Gd9  1  0.677022  0.370474  0.693451  1
  Gd  Gd10  1  0.323002  0.016500  0.693499  1
  Gd  Gd11  1  0.676998  0.983500  0.306501  1
  Cd  Cd12  1  0.500000  0.500000  0.000000  1
  Ni  Ni13  1  0.365324  0.000000  0.365324  1
  Ni  Ni14  1  0.634676  0.000000  0.634676  1
  Ni  Ni15  1  0.123181  0.623184  0.500003  1
  Ni  Ni16  1  0.876819  0.376816  0.499997  1
  Rh  Rh17  1  0.000000  0.000000  0.000000  1
