# generated using pymatgen
data_Ac(HfIr)2
_symmetry_space_group_name_H-M   'P 1'
_cell_length_a   4.53058825
_cell_length_b   4.53058810
_cell_length_c   6.53398747
_cell_angle_alpha   110.28524793
_cell_angle_beta   110.28524689
_cell_angle_gamma   89.99999568
_symmetry_Int_Tables_number   1
_chemical_formula_structural   Ac(HfIr)2
_chemical_formula_sum   'Ac1 Hf2 Ir2'
_cell_volume   116.89118592
_cell_formula_units_Z   1
loop_
 _symmetry_equiv_pos_site_id
 _symmetry_equiv_pos_as_xyz
  1  'x, y, z'
loop_
 _atom_site_type_symbol
 _atom_site_label
 _atom_site_symmetry_multiplicity
 _atom_site_fract_x
 _atom_site_fract_y
 _atom_site_fract_z
 _atom_site_occupancy
  Ac  Ac0  1  0.000000  0.000000  0.000000  1
  Hf  Hf1  1  0.749999  0.250001  0.499999  1
  Hf  Hf2  1  0.250001  0.749999  0.499999  1
  Ir  Ir3  1  0.622070  0.622070  0.244140  1
  Ir  Ir4  1  0.377930  0.377930  0.755861  1
