# generated using pymatgen
data_AcSmRh2F14
_symmetry_space_group_name_H-M   'P 1'
_cell_length_a   5.67259600
_cell_length_b   9.30981473
_cell_length_c   12.43922916
_cell_angle_alpha   62.16407281
_cell_angle_beta   90.00000000
_cell_angle_gamma   90.00000000
_symmetry_Int_Tables_number   1
_chemical_formula_structural   AcSmRh2F14
_chemical_formula_sum   'Ac2 Sm2 Rh4 F28'
_cell_volume   580.91189177
_cell_formula_units_Z   2
loop_
 _symmetry_equiv_pos_site_id
 _symmetry_equiv_pos_as_xyz
  1  'x, y, z'
loop_
 _atom_site_type_symbol
 _atom_site_label
 _atom_site_symmetry_multiplicity
 _atom_site_fract_x
 _atom_site_fract_y
 _atom_site_fract_z
 _atom_site_occupancy
  Ac  Ac0  1  0.760302  0.804954  0.765710  1
  Ac  Ac1  1  0.260302  0.195046  0.734290  1
  Sm  Sm2  1  0.239324  0.185693  0.235826  1
  Sm  Sm3  1  0.739324  0.814307  0.264174  1
  Rh  Rh4  1  0.753157  0.266723  0.968895  1
  Rh  Rh5  1  0.253157  0.733277  0.531105  1
  Rh  Rh6  1  0.241633  0.719146  0.053926  1
  Rh  Rh7  1  0.741633  0.280854  0.446074  1
  F  F8  1  0.431609  0.703333  0.929107  1
  F  F9  1  0.931609  0.296667  0.570893  1
  F  F10  1  0.562659  0.287569  0.091128  1
  F  F11  1  0.062659  0.712431  0.408872  1
  F  F12  1  0.456474  0.289019  0.530178  1
  F  F13  1  0.956474  0.710981  0.969822  1
  F  F14  1  0.547375  0.723467  0.450129  1
  F  F15  1  0.047375  0.276533  0.049871  1
  F  F16  1  0.764464  0.501039  0.873679  1
  F  F17  1  0.264464  0.498961  0.626321  1
  F  F18  1  0.235516  0.484282  0.145349  1
  F  F19  1  0.735516  0.515718  0.354651  1
  F  F20  1  0.754796  0.030752  0.056609  1
  F  F21  1  0.254796  0.969248  0.443391  1
  F  F22  1  0.239412  0.952521  0.960426  1
  F  F23  1  0.739412  0.047479  0.539574  1
  F  F24  1  0.966611  0.732870  0.617823  1
  F  F25  1  0.466611  0.267130  0.882177  1
  F  F26  1  0.024220  0.270753  0.359632  1
  F  F27  1  0.524220  0.729247  0.140368  1
  F  F28  1  0.049399  0.739937  0.176795  1
  F  F29  1  0.549399  0.260063  0.323205  1
  F  F30  1  0.935535  0.254196  0.840799  1
  F  F31  1  0.435535  0.745804  0.659201  1
  F  F32  1  0.418798  0.974117  0.231815  1
  F  F33  1  0.918798  0.025883  0.268185  1
  F  F34  1  0.618716  0.042083  0.771710  1
  F  F35  1  0.118716  0.957917  0.728290  1
