# generated using pymatgen
data_Tb4Pr2In2C
_symmetry_space_group_name_H-M   'P 1'
_cell_length_a   4.95644000
_cell_length_b   4.95641200
_cell_length_c   10.00321000
_cell_angle_alpha   90.00000000
_cell_angle_beta   90.00000000
_cell_angle_gamma   90.00000000
_symmetry_Int_Tables_number   1
_chemical_formula_structural   Tb4Pr2In2C
_chemical_formula_sum   'Tb4 Pr2 In2 C1'
_cell_volume   245.74044430
_cell_formula_units_Z   1
loop_
 _symmetry_equiv_pos_site_id
 _symmetry_equiv_pos_as_xyz
  1  'x, y, z'
loop_
 _atom_site_type_symbol
 _atom_site_label
 _atom_site_symmetry_multiplicity
 _atom_site_fract_x
 _atom_site_fract_y
 _atom_site_fract_z
 _atom_site_occupancy
  Tb  Tb0  1  0.500000  0.500000  0.760909  1
  Tb  Tb1  1  0.500000  0.500000  0.239091  1
  Tb  Tb2  1  0.500000  0.000000  0.000000  1
  Tb  Tb3  1  0.000000  0.500000  0.000000  1
  Pr  Pr4  1  0.500000  0.000000  0.500000  1
  Pr  Pr5  1  0.000000  0.500000  0.500000  1
  In  In6  1  0.000000  0.000000  0.755404  1
  In  In7  1  0.000000  0.000000  0.244596  1
  C  C8  1  0.500000  0.500000  0.000000  1
