# generated using pymatgen
data_Y20CdHg5PdRu
_symmetry_space_group_name_H-M   'P 1'
_cell_length_a   9.72114469
_cell_length_b   9.70646588
_cell_length_c   9.68070500
_cell_angle_alpha   90.00000000
_cell_angle_beta   90.00000000
_cell_angle_gamma   119.95006699
_symmetry_Int_Tables_number   1
_chemical_formula_structural   Y20CdHg5PdRu
_chemical_formula_sum   'Y20 Cd1 Hg5 Pd1 Ru1'
_cell_volume   791.46999710
_cell_formula_units_Z   1
loop_
 _symmetry_equiv_pos_site_id
 _symmetry_equiv_pos_as_xyz
  1  'x, y, z'
loop_
 _atom_site_type_symbol
 _atom_site_label
 _atom_site_symmetry_multiplicity
 _atom_site_fract_x
 _atom_site_fract_y
 _atom_site_fract_z
 _atom_site_occupancy
  Y  Y0  1  0.997445  0.998723  0.502175  1
  Y  Y1  1  0.997445  0.998723  0.997825  1
  Y  Y2  1  0.207463  0.793134  0.442350  1
  Y  Y3  1  0.207463  0.414330  0.442350  1
  Y  Y4  1  0.585674  0.792838  0.442158  1
  Y  Y5  1  0.790728  0.209405  0.561360  1
  Y  Y6  1  0.790728  0.581321  0.561360  1
  Y  Y7  1  0.418801  0.209399  0.560870  1
  Y  Y8  1  0.790728  0.209405  0.938640  1
  Y  Y9  1  0.790728  0.581321  0.938640  1
  Y  Y10  1  0.418801  0.209399  0.939130  1
  Y  Y11  1  0.207463  0.793134  0.057650  1
  Y  Y12  1  0.207463  0.414330  0.057650  1
  Y  Y13  1  0.585674  0.792838  0.057842  1
  Y  Y14  1  0.545638  0.459852  0.250000  1
  Y  Y15  1  0.545638  0.085786  0.250000  1
  Y  Y16  1  0.914441  0.457221  0.250000  1
  Y  Y17  1  0.459342  0.540816  0.750000  1
  Y  Y18  1  0.459342  0.918527  0.750000  1
  Y  Y19  1  0.081260  0.540631  0.750000  1
  Cd  Cd20  1  0.233420  0.116711  0.250000  1
  Hg  Hg21  1  0.882532  0.119368  0.250000  1
  Hg  Hg22  1  0.882532  0.763166  0.250000  1
  Hg  Hg23  1  0.119546  0.879709  0.750000  1
  Hg  Hg24  1  0.119546  0.239835  0.750000  1
  Hg  Hg25  1  0.759863  0.879931  0.750000  1
  Pd  Pd26  1  0.333546  0.666773  0.250000  1
  Ru  Ru27  1  0.666748  0.333373  0.750000  1
