# generated using pymatgen
data_Hf6Sc2Fe8Si13Ge
_symmetry_space_group_name_H-M   'P 1'
_cell_length_a   5.02379712
_cell_length_b   9.55816580
_cell_length_c   9.54049635
_cell_angle_alpha   86.03239615
_cell_angle_beta   74.73475259
_cell_angle_gamma   74.76365248
_symmetry_Int_Tables_number   1
_chemical_formula_structural   Hf6Sc2Fe8Si13Ge
_chemical_formula_sum   'Hf6 Sc2 Fe8 Si13 Ge1'
_cell_volume   426.41990930
_cell_formula_units_Z   1
loop_
 _symmetry_equiv_pos_site_id
 _symmetry_equiv_pos_as_xyz
  1  'x, y, z'
loop_
 _atom_site_type_symbol
 _atom_site_label
 _atom_site_symmetry_multiplicity
 _atom_site_fract_x
 _atom_site_fract_y
 _atom_site_fract_z
 _atom_site_occupancy
  Hf  Hf0  1  0.859512  0.277078  0.000000  1
  Hf  Hf1  1  0.136590  0.722922  0.000000  1
  Hf  Hf2  1  0.502432  0.197416  0.801962  1
  Hf  Hf3  1  0.501809  0.802584  0.198038  1
  Hf  Hf4  1  0.304393  0.197416  0.198038  1
  Hf  Hf5  1  0.699847  0.802584  0.801962  1
  Sc  Sc6  1  0.138369  0.000000  0.720630  1
  Sc  Sc7  1  0.858999  0.000000  0.279370  1
  Fe  Fe8  1  0.398445  0.499918  0.203066  1
  Fe  Fe9  1  0.101430  0.500082  0.796934  1
  Fe  Fe10  1  0.101981  0.795894  0.500094  1
  Fe  Fe11  1  0.397968  0.204106  0.499906  1
  Fe  Fe12  1  0.602075  0.795894  0.499906  1
  Fe  Fe13  1  0.897874  0.204106  0.500094  1
  Fe  Fe14  1  0.898363  0.500082  0.203066  1
  Fe  Fe15  1  0.601512  0.499918  0.796934  1
  Si  Si16  1  0.289875  0.000000  0.419125  1
  Si  Si17  1  0.708999  0.000000  0.580875  1
  Si  Si18  1  0.708719  0.581036  0.000000  1
  Si  Si19  1  0.289756  0.418964  0.000000  1
  Si  Si20  1  0.000971  0.298092  0.701389  1
  Si  Si21  1  0.000452  0.701908  0.298611  1
  Si  Si22  1  0.702360  0.298092  0.298611  1
  Si  Si23  1  0.299064  0.701908  0.701389  1
  Si  Si24  1  0.499246  0.409881  0.591425  1
  Si  Si25  1  0.500552  0.590119  0.408575  1
  Si  Si26  1  0.090670  0.409881  0.408575  1
  Si  Si27  1  0.909126  0.590119  0.591425  1
  Si  Si28  1  0.748633  0.000000  0.000000  1
  Ge  Ge29  1  0.249978  0.000000  0.000000  1
