# generated using pymatgen
data_Ce2HoEr(ReC2)2
_symmetry_space_group_name_H-M   'P 1'
_cell_length_a   5.19657100
_cell_length_b   6.53129300
_cell_length_c   9.86486000
_cell_angle_alpha   90.00000000
_cell_angle_beta   90.00000000
_cell_angle_gamma   90.00000000
_symmetry_Int_Tables_number   1
_chemical_formula_structural   Ce2HoEr(ReC2)2
_chemical_formula_sum   'Ce4 Ho2 Er2 Re4 C8'
_cell_volume   334.81658206
_cell_formula_units_Z   2
loop_
 _symmetry_equiv_pos_site_id
 _symmetry_equiv_pos_as_xyz
  1  'x, y, z'
loop_
 _atom_site_type_symbol
 _atom_site_label
 _atom_site_symmetry_multiplicity
 _atom_site_fract_x
 _atom_site_fract_y
 _atom_site_fract_z
 _atom_site_occupancy
  Ce  Ce0  1  0.250000  0.469390  0.782468  1
  Ce  Ce1  1  0.750000  0.030610  0.282468  1
  Ce  Ce2  1  0.250000  0.969112  0.717497  1
  Ce  Ce3  1  0.750000  0.530888  0.217497  1
  Ho  Ho4  1  0.250000  0.321133  0.447511  1
  Ho  Ho5  1  0.750000  0.178867  0.947511  1
  Er  Er6  1  0.250000  0.821679  0.052916  1
  Er  Er7  1  0.750000  0.678321  0.552916  1
  Re  Re8  1  0.250000  0.278946  0.134016  1
  Re  Re9  1  0.750000  0.221054  0.634016  1
  Re  Re10  1  0.250000  0.779105  0.365910  1
  Re  Re11  1  0.750000  0.720895  0.865910  1
  C  C12  1  0.250000  0.173406  0.947195  1
  C  C13  1  0.750000  0.826043  0.052946  1
  C  C14  1  0.250000  0.673957  0.552946  1
  C  C15  1  0.750000  0.326594  0.447195  1
  C  C16  1  0.250000  0.046082  0.259309  1
  C  C17  1  0.750000  0.453918  0.759309  1
  C  C18  1  0.250000  0.546564  0.240231  1
  C  C19  1  0.750000  0.953436  0.740231  1
