# generated using pymatgen
data_Tb2Lu2Re5Os3
_symmetry_space_group_name_H-M   'P 1'
_cell_length_a   5.35310164
_cell_length_b   5.24602778
_cell_length_c   9.00154608
_cell_angle_alpha   90.00000197
_cell_angle_beta   89.91633682
_cell_angle_gamma   119.34049012
_symmetry_Int_Tables_number   1
_chemical_formula_structural   Tb2Lu2Re5Os3
_chemical_formula_sum   'Tb2 Lu2 Re5 Os3'
_cell_volume   220.35919975
_cell_formula_units_Z   1
loop_
 _symmetry_equiv_pos_site_id
 _symmetry_equiv_pos_as_xyz
  1  'x, y, z'
loop_
 _atom_site_type_symbol
 _atom_site_label
 _atom_site_symmetry_multiplicity
 _atom_site_fract_x
 _atom_site_fract_y
 _atom_site_fract_z
 _atom_site_occupancy
  Tb  Tb0  1  0.670855  0.335427  0.436021  1
  Tb  Tb1  1  0.331736  0.665868  0.562374  1
  Lu  Lu2  1  0.331198  0.665600  0.938219  1
  Lu  Lu3  1  0.671688  0.335844  0.063443  1
  Re  Re4  1  0.165803  0.830365  0.247026  1
  Re  Re5  1  0.165803  0.335438  0.247026  1
  Re  Re6  1  0.345290  0.172645  0.753421  1
  Re  Re7  1  0.829441  0.169426  0.753165  1
  Re  Re8  1  0.829441  0.660015  0.753165  1
  Os  Os9  1  0.007034  0.003517  0.499281  1
  Os  Os10  1  0.006941  0.003470  0.000787  1
  Os  Os11  1  0.644769  0.822384  0.246072  1
