# generated using pymatgen
data_Cs4Na2YInSb4
_symmetry_space_group_name_H-M   'P 1'
_cell_length_a   10.40875026
_cell_length_b   10.40875018
_cell_length_c   10.40874942
_cell_angle_alpha   137.39530606
_cell_angle_beta   60.89200400
_cell_angle_gamma   138.62640211
_symmetry_Int_Tables_number   1
_chemical_formula_structural   Cs4Na2YInSb4
_chemical_formula_sum   'Cs4 Na2 Y1 In1 Sb4'
_cell_volume   499.07207877
_cell_formula_units_Z   1
loop_
 _symmetry_equiv_pos_site_id
 _symmetry_equiv_pos_as_xyz
  1  'x, y, z'
loop_
 _atom_site_type_symbol
 _atom_site_label
 _atom_site_symmetry_multiplicity
 _atom_site_fract_x
 _atom_site_fract_y
 _atom_site_fract_z
 _atom_site_occupancy
  Cs  Cs0  1  0.330966  0.773475  0.094677  1
  Cs  Cs1  1  0.169034  0.263712  0.442510  1
  Cs  Cs2  1  0.821203  0.726525  0.557491  1
  Cs  Cs3  1  0.678798  0.236288  0.905323  1
  Na  Na4  1  0.750000  0.250000  0.500000  1
  Na  Na5  1  0.250000  0.750000  0.500000  1
  Y  Y6  1  0.250000  0.250000  0.000000  1
  In  In7  1  0.750000  0.750000  0.000000  1
  Sb  Sb8  1  0.899176  0.216311  0.128729  1
  Sb  Sb9  1  0.600824  0.729554  0.317136  1
  Sb  Sb10  1  0.412419  0.283689  0.682865  1
  Sb  Sb11  1  0.087581  0.770446  0.871271  1
