# generated using pymatgen
data_CeNd5(ScAu5)2
_symmetry_space_group_name_H-M   'P 1'
_cell_length_a   8.12327146
_cell_length_b   8.13071676
_cell_length_c   8.11735900
_cell_angle_alpha   65.97729993
_cell_angle_beta   65.86527240
_cell_angle_gamma   65.91386498
_symmetry_Int_Tables_number   1
_chemical_formula_structural   CeNd5(ScAu5)2
_chemical_formula_sum   'Ce1 Nd5 Sc2 Au10'
_cell_volume   427.69905020
_cell_formula_units_Z   1
loop_
 _symmetry_equiv_pos_site_id
 _symmetry_equiv_pos_as_xyz
  1  'x, y, z'
loop_
 _atom_site_type_symbol
 _atom_site_label
 _atom_site_symmetry_multiplicity
 _atom_site_fract_x
 _atom_site_fract_y
 _atom_site_fract_z
 _atom_site_occupancy
  Ce  Ce0  1  0.893431  0.184355  0.622731  1
  Nd  Nd1  1  0.621233  0.891731  0.186244  1
  Nd  Nd2  1  0.185822  0.621317  0.890236  1
  Nd  Nd3  1  0.108713  0.813978  0.377857  1
  Nd  Nd4  1  0.376654  0.109687  0.813794  1
  Nd  Nd5  1  0.813873  0.377843  0.108685  1
  Sc  Sc6  1  0.655516  0.659278  0.657294  1
  Sc  Sc7  1  0.344312  0.343007  0.342361  1
  Au  Au8  1  0.998243  0.999467  0.999937  1
  Au  Au9  1  0.504151  0.497919  0.499947  1
  Au  Au10  1  0.802261  0.804066  0.800006  1
  Au  Au11  1  0.197822  0.198675  0.201062  1
  Au  Au12  1  0.937397  0.544417  0.329449  1
  Au  Au13  1  0.323430  0.940702  0.548599  1
  Au  Au14  1  0.550054  0.326183  0.935660  1
  Au  Au15  1  0.059324  0.450867  0.672923  1
  Au  Au16  1  0.674368  0.062924  0.453167  1
  Au  Au17  1  0.453393  0.673581  0.060050  1
