# generated using pymatgen
data_La6RhAu7
_symmetry_space_group_name_H-M   'P 1'
_cell_length_a   8.51864844
_cell_length_b   8.51864818
_cell_length_c   8.51864810
_cell_angle_alpha   114.59143971
_cell_angle_beta   114.59144169
_cell_angle_gamma   114.59144784
_symmetry_Int_Tables_number   1
_chemical_formula_structural   La6RhAu7
_chemical_formula_sum   'La6 Rh1 Au7'
_cell_volume   358.50834334
_cell_formula_units_Z   1
loop_
 _symmetry_equiv_pos_site_id
 _symmetry_equiv_pos_as_xyz
  1  'x, y, z'
loop_
 _atom_site_type_symbol
 _atom_site_label
 _atom_site_symmetry_multiplicity
 _atom_site_fract_x
 _atom_site_fract_y
 _atom_site_fract_z
 _atom_site_occupancy
  La  La0  1  0.979907  0.613345  0.732423  1
  La  La1  1  0.732423  0.979907  0.613345  1
  La  La2  1  0.613345  0.732423  0.979907  1
  La  La3  1  0.020093  0.386655  0.267577  1
  La  La4  1  0.267577  0.020093  0.386655  1
  La  La5  1  0.386655  0.267577  0.020093  1
  Rh  Rh6  1  0.000000  0.000000  0.000000  1
  Au  Au7  1  0.500000  0.500000  0.500000  1
  Au  Au8  1  0.937209  0.772142  0.436409  1
  Au  Au9  1  0.436409  0.937209  0.772142  1
  Au  Au10  1  0.772142  0.436409  0.937209  1
  Au  Au11  1  0.062791  0.227858  0.563591  1
  Au  Au12  1  0.563591  0.062791  0.227858  1
  Au  Au13  1  0.227858  0.563591  0.062791  1
