# generated using pymatgen
data_TmSc11Ni4
_symmetry_space_group_name_H-M   'P 1'
_cell_length_a   5.95003409
_cell_length_b   6.32806971
_cell_length_c   8.89287800
_cell_angle_alpha   90.00000000
_cell_angle_beta   90.00000000
_cell_angle_gamma   89.62227363
_symmetry_Int_Tables_number   1
_chemical_formula_structural   TmSc11Ni4
_chemical_formula_sum   'Tm1 Sc11 Ni4'
_cell_volume   334.82941635
_cell_formula_units_Z   1
loop_
 _symmetry_equiv_pos_site_id
 _symmetry_equiv_pos_as_xyz
  1  'x, y, z'
loop_
 _atom_site_type_symbol
 _atom_site_label
 _atom_site_symmetry_multiplicity
 _atom_site_fract_x
 _atom_site_fract_y
 _atom_site_fract_z
 _atom_site_occupancy
  Tm  Tm0  1  0.876231  0.520644  0.250000  1
  Sc  Sc1  1  0.622578  0.027089  0.250000  1
  Sc  Sc2  1  0.377006  0.973927  0.750000  1
  Sc  Sc3  1  0.123779  0.474652  0.750000  1
  Sc  Sc4  1  0.188671  0.179976  0.056992  1
  Sc  Sc5  1  0.815293  0.822140  0.937104  1
  Sc  Sc6  1  0.685582  0.315944  0.935384  1
  Sc  Sc7  1  0.815293  0.822140  0.562896  1
  Sc  Sc8  1  0.318336  0.681635  0.059061  1
  Sc  Sc9  1  0.188671  0.179976  0.443008  1
  Sc  Sc10  1  0.318336  0.681635  0.440939  1
  Sc  Sc11  1  0.685582  0.315944  0.564616  1
  Ni  Ni12  1  0.440710  0.395909  0.250000  1
  Ni  Ni13  1  0.540386  0.597857  0.750000  1
  Ni  Ni14  1  0.959451  0.100363  0.750000  1
  Ni  Ni15  1  0.044095  0.910169  0.250000  1
