# generated using pymatgen
data_Ba10Ga4Si13Sn
_symmetry_space_group_name_H-M   'P 1'
_cell_length_a   6.74063323
_cell_length_b   6.74063203
_cell_length_c   18.45209151
_cell_angle_alpha   81.68182297
_cell_angle_beta   81.68182405
_cell_angle_gamma   100.44501358
_symmetry_Int_Tables_number   1
_chemical_formula_structural   Ba10Ga4Si13Sn
_chemical_formula_sum   'Ba10 Ga4 Si13 Sn1'
_cell_volume   803.14489623
_cell_formula_units_Z   1
loop_
 _symmetry_equiv_pos_site_id
 _symmetry_equiv_pos_as_xyz
  1  'x, y, z'
loop_
 _atom_site_type_symbol
 _atom_site_label
 _atom_site_symmetry_multiplicity
 _atom_site_fract_x
 _atom_site_fract_y
 _atom_site_fract_z
 _atom_site_occupancy
  Ba  Ba0  1  0.747882  0.251493  0.001890  1
  Ba  Ba1  1  0.117081  0.570610  0.785924  1
  Ba  Ba2  1  0.290834  0.709824  0.499331  1
  Ba  Ba3  1  0.764877  0.764877  0.640620  1
  Ba  Ba4  1  0.238098  0.238098  0.355322  1
  Ba  Ba5  1  0.570610  0.117081  0.785924  1
  Ba  Ba6  1  0.251493  0.747882  0.001890  1
  Ba  Ba7  1  0.709824  0.290834  0.499331  1
  Ba  Ba8  1  0.426485  0.881313  0.212355  1
  Ba  Ba9  1  0.881313  0.426485  0.212355  1
  Ga  Ga10  1  0.220646  0.220646  0.070832  1
  Ga  Ga11  1  0.936571  0.936571  0.262430  1
  Ga  Ga12  1  0.061338  0.061338  0.737862  1
  Ga  Ga13  1  0.787086  0.787086  0.936385  1
  Si  Si14  1  0.349065  0.349065  0.642050  1
  Si  Si15  1  0.281330  0.281330  0.933384  1
  Si  Si16  1  0.934151  0.934151  0.130597  1
  Si  Si17  1  0.651133  0.651133  0.357589  1
  Si  Si18  1  0.424946  0.424946  0.147204  1
  Si  Si19  1  0.063932  0.063932  0.871550  1
  Si  Si20  1  0.817009  0.817009  0.448924  1
  Si  Si21  1  0.329669  0.976309  0.640666  1
  Si  Si22  1  0.669947  0.024124  0.358668  1
  Si  Si23  1  0.183734  0.183734  0.550229  1
  Si  Si24  1  0.976309  0.329669  0.640666  1
  Si  Si25  1  0.024124  0.669947  0.358668  1
  Si  Si26  1  0.704231  0.704231  0.072188  1
  Sn  Sn27  1  0.586285  0.586285  0.845167  1
