# generated using pymatgen
data_Tb3Dy2AlRuO12
_symmetry_space_group_name_H-M   'P 1'
_cell_length_a   6.82557738
_cell_length_b   6.82529484
_cell_length_c   7.28991002
_cell_angle_alpha   74.50618522
_cell_angle_beta   74.50675521
_cell_angle_gamma   50.55495338
_symmetry_Int_Tables_number   1
_chemical_formula_structural   Tb3Dy2AlRuO12
_chemical_formula_sum   'Tb3 Dy2 Al1 Ru1 O12'
_cell_volume   250.55505134
_cell_formula_units_Z   1
loop_
 _symmetry_equiv_pos_site_id
 _symmetry_equiv_pos_as_xyz
  1  'x, y, z'
loop_
 _atom_site_type_symbol
 _atom_site_label
 _atom_site_symmetry_multiplicity
 _atom_site_fract_x
 _atom_site_fract_y
 _atom_site_fract_z
 _atom_site_occupancy
  Tb  Tb0  1  0.997998  0.001924  0.999998  1
  Tb  Tb1  1  0.294295  0.313983  0.858316  1
  Tb  Tb2  1  0.308484  0.306725  0.332685  1
  Dy  Dy3  1  0.693297  0.691348  0.667475  1
  Dy  Dy4  1  0.686010  0.705812  0.141582  1
  Al  Al5  1  0.252794  0.747245  0.500003  1
  Ru  Ru6  1  0.763404  0.236648  0.500006  1
  O  O7  1  0.401625  0.906806  0.922781  1
  O  O8  1  0.577184  0.098290  0.581884  1
  O  O9  1  0.900266  0.423986  0.418239  1
  O  O10  1  0.091413  0.599817  0.077322  1
  O  O11  1  0.005696  0.994536  0.322492  1
  O  O12  1  0.504011  0.497672  0.679295  1
  O  O13  1  0.898551  0.405163  0.926027  1
  O  O14  1  0.100010  0.580948  0.580238  1
  O  O15  1  0.420309  0.898456  0.419769  1
  O  O16  1  0.596226  0.099664  0.073996  1
  O  O17  1  0.502931  0.496631  0.320402  1
  O  O18  1  0.005497  0.994345  0.677487  1
