# generated using pymatgen
data_K4LiGaSe4
_symmetry_space_group_name_H-M   'P 1'
_cell_length_a   8.25746115
_cell_length_b   8.25746139
_cell_length_c   8.25746200
_cell_angle_alpha   133.23134004
_cell_angle_beta   131.29008932
_cell_angle_gamma   69.82935062
_symmetry_Int_Tables_number   1
_chemical_formula_structural   K4LiGaSe4
_chemical_formula_sum   'K4 Li1 Ga1 Se4'
_cell_volume   302.27371831
_cell_formula_units_Z   1
loop_
 _symmetry_equiv_pos_site_id
 _symmetry_equiv_pos_as_xyz
  1  'x, y, z'
loop_
 _atom_site_type_symbol
 _atom_site_label
 _atom_site_symmetry_multiplicity
 _atom_site_fract_x
 _atom_site_fract_y
 _atom_site_fract_z
 _atom_site_occupancy
  K  K0  1  0.468619  0.151894  0.332062  1
  K  K1  1  0.531381  0.863444  0.683277  1
  K  K2  1  0.180167  0.348106  0.816723  1
  K  K3  1  0.819833  0.636556  0.167938  1
  Li  Li4  1  0.000000  0.250000  0.250000  1
  Ga  Ga5  1  0.000000  0.750000  0.750000  1
  Se  Se6  1  0.087012  0.876304  0.173479  1
  Se  Se7  1  0.912988  0.086467  0.789292  1
  Se  Se8  1  0.297174  0.623696  0.710708  1
  Se  Se9  1  0.702826  0.413533  0.326521  1
