# generated using pymatgen
data_TbDyTaIr3
_symmetry_space_group_name_H-M   'P 1'
_cell_length_a   5.66041955
_cell_length_b   5.26305375
_cell_length_c   5.66042100
_cell_angle_alpha   57.46936070
_cell_angle_beta   59.99999739
_cell_angle_gamma   57.46936539
_symmetry_Int_Tables_number   1
_chemical_formula_structural   TbDyTaIr3
_chemical_formula_sum   'Tb1 Dy1 Ta1 Ir3'
_cell_volume   114.47295225
_cell_formula_units_Z   1
loop_
 _symmetry_equiv_pos_site_id
 _symmetry_equiv_pos_as_xyz
  1  'x, y, z'
loop_
 _atom_site_type_symbol
 _atom_site_label
 _atom_site_symmetry_multiplicity
 _atom_site_fract_x
 _atom_site_fract_y
 _atom_site_fract_z
 _atom_site_occupancy
  Tb  Tb0  1  0.750973  0.747079  0.750973  1
  Dy  Dy1  1  0.498953  0.503143  0.498953  1
  Ta  Ta2  1  0.125004  0.624989  0.125004  1
  Ir  Ir3  1  0.125060  0.124930  0.624950  1
  Ir  Ir4  1  0.624950  0.124930  0.125060  1
  Ir  Ir5  1  0.125060  0.124930  0.125060  1
