# generated using pymatgen
data_Pr16CdIn5Co2
_symmetry_space_group_name_H-M   'P 1'
_cell_length_a   10.81904900
_cell_length_b   10.83414312
_cell_length_c   7.17729409
_cell_angle_alpha   89.94486287
_cell_angle_beta   90.00058611
_cell_angle_gamma   119.95202792
_symmetry_Int_Tables_number   1
_chemical_formula_structural   Pr16CdIn5Co2
_chemical_formula_sum   'Pr16 Cd1 In5 Co2'
_cell_volume   728.92777518
_cell_formula_units_Z   1
loop_
 _symmetry_equiv_pos_site_id
 _symmetry_equiv_pos_as_xyz
  1  'x, y, z'
loop_
 _atom_site_type_symbol
 _atom_site_label
 _atom_site_symmetry_multiplicity
 _atom_site_fract_x
 _atom_site_fract_y
 _atom_site_fract_z
 _atom_site_occupancy
  Pr  Pr0  1  0.536389  0.072775  0.509312  1
  Pr  Pr1  1  0.925848  0.464177  0.508497  1
  Pr  Pr2  1  0.538362  0.464196  0.508465  1
  Pr  Pr3  1  0.463398  0.926793  0.006510  1
  Pr  Pr4  1  0.075103  0.537147  0.008775  1
  Pr  Pr5  1  0.462063  0.537136  0.008811  1
  Pr  Pr6  1  0.175604  0.351213  0.723369  1
  Pr  Pr7  1  0.650648  0.823507  0.725298  1
  Pr  Pr8  1  0.172851  0.823512  0.725281  1
  Pr  Pr9  1  0.823648  0.647246  0.216233  1
  Pr  Pr10  1  0.352063  0.175488  0.224900  1
  Pr  Pr11  1  0.823423  0.175497  0.224864  1
  Pr  Pr12  1  0.667719  0.335528  0.904961  1
  Pr  Pr13  1  0.333365  0.666747  0.406716  1
  Pr  Pr14  1  0.999049  0.998115  0.507662  1
  Pr  Pr15  1  0.001927  0.003852  0.009944  1
  Cd  Cd16  1  0.835352  0.670713  0.761943  1
  In  In17  1  0.327835  0.163352  0.759815  1
  In  In18  1  0.835512  0.163341  0.759832  1
  In  In19  1  0.163614  0.327268  0.261828  1
  In  In20  1  0.672886  0.835726  0.260704  1
  In  In21  1  0.162854  0.835734  0.260685  1
  Co  Co22  1  0.666476  0.332897  0.286625  1
  Co  Co23  1  0.334013  0.668042  0.786968  1
