# generated using pymatgen
data_MnSb12Ru2Pt
_symmetry_space_group_name_H-M   'P 1'
_cell_length_a   8.17461229
_cell_length_b   8.15890029
_cell_length_c   9.43271631
_cell_angle_alpha   54.83932003
_cell_angle_beta   54.54909619
_cell_angle_gamma   70.42199100
_symmetry_Int_Tables_number   1
_chemical_formula_structural   MnSb12Ru2Pt
_chemical_formula_sum   'Mn1 Sb12 Ru2 Pt1'
_cell_volume   418.98202842
_cell_formula_units_Z   1
loop_
 _symmetry_equiv_pos_site_id
 _symmetry_equiv_pos_as_xyz
  1  'x, y, z'
loop_
 _atom_site_type_symbol
 _atom_site_label
 _atom_site_symmetry_multiplicity
 _atom_site_fract_x
 _atom_site_fract_y
 _atom_site_fract_z
 _atom_site_occupancy
  Mn  Mn0  1  0.500000  0.000000  0.500000  1
  Sb  Sb1  1  0.155520  0.155949  0.176467  1
  Sb  Sb2  1  0.844480  0.844051  0.823533  1
  Sb  Sb3  1  0.845812  0.848439  0.499759  1
  Sb  Sb4  1  0.154188  0.151561  0.500241  1
  Sb  Sb5  1  0.813798  0.505341  0.335583  1
  Sb  Sb6  1  0.186202  0.494659  0.664417  1
  Sb  Sb7  1  0.504511  0.815579  0.336529  1
  Sb  Sb8  1  0.495489  0.184421  0.663471  1
  Sb  Sb9  1  0.654697  0.335235  0.851284  1
  Sb  Sb10  1  0.345303  0.664765  0.148716  1
  Sb  Sb11  1  0.663911  0.343666  0.151078  1
  Sb  Sb12  1  0.336089  0.656334  0.848922  1
  Ru  Ru13  1  0.000000  0.500000  0.000000  1
  Ru  Ru14  1  0.500000  0.000000  0.000000  1
  Pt  Pt15  1  0.000000  0.500000  0.500000  1
