# generated using pymatgen
data_DyErSc2(Ga3Ir)6
_symmetry_space_group_name_H-M   'P 1'
_cell_length_a   7.54367562
_cell_length_b   7.54505842
_cell_length_c   9.44134100
_cell_angle_alpha   90.00000000
_cell_angle_beta   90.00000000
_cell_angle_gamma   119.89515264
_symmetry_Int_Tables_number   1
_chemical_formula_structural   DyErSc2(Ga3Ir)6
_chemical_formula_sum   'Dy1 Er1 Sc2 Ga18 Ir6'
_cell_volume   465.87327303
_cell_formula_units_Z   1
loop_
 _symmetry_equiv_pos_site_id
 _symmetry_equiv_pos_as_xyz
  1  'x, y, z'
loop_
 _atom_site_type_symbol
 _atom_site_label
 _atom_site_symmetry_multiplicity
 _atom_site_fract_x
 _atom_site_fract_y
 _atom_site_fract_z
 _atom_site_occupancy
  Dy  Dy0  1  0.668698  0.997039  0.250000  1
  Er  Er1  1  0.996656  0.668739  0.250000  1
  Sc  Sc2  1  0.999780  0.330223  0.750000  1
  Sc  Sc3  1  0.329788  0.999271  0.750000  1
  Ga  Ga4  1  0.128274  0.128813  0.250000  1
  Ga  Ga5  1  0.877630  0.876940  0.750000  1
  Ga  Ga6  1  0.001440  0.336001  0.076621  1
  Ga  Ga7  1  0.004548  0.665291  0.913696  1
  Ga  Ga8  1  0.004548  0.665291  0.586304  1
  Ga  Ga9  1  0.333623  0.000123  0.423976  1
  Ga  Ga10  1  0.001440  0.336001  0.423379  1
  Ga  Ga11  1  0.665478  0.004923  0.587608  1
  Ga  Ga12  1  0.665478  0.004923  0.912392  1
  Ga  Ga13  1  0.333623  0.000123  0.076024  1
  Ga  Ga14  1  0.328291  0.328271  0.574167  1
  Ga  Ga15  1  0.667793  0.666797  0.440145  1
  Ga  Ga16  1  0.667793  0.666797  0.059855  1
  Ga  Ga17  1  0.328291  0.328271  0.925833  1
  Ga  Ga18  1  0.339430  0.545927  0.250000  1
  Ga  Ga19  1  0.660419  0.448154  0.750000  1
  Ga  Ga20  1  0.545075  0.337822  0.250000  1
  Ga  Ga21  1  0.448003  0.659793  0.750000  1
  Ir  Ir22  1  0.672336  0.329220  0.999446  1
  Ir  Ir23  1  0.329972  0.672866  0.999401  1
  Ir  Ir24  1  0.329972  0.672866  0.500599  1
  Ir  Ir25  1  0.672336  0.329220  0.500554  1
  Ir  Ir26  1  0.999642  0.000148  0.998951  1
  Ir  Ir27  1  0.999642  0.000148  0.501049  1
