# generated using pymatgen
data_La15Ho(CdCo)4
_symmetry_space_group_name_H-M   'P 1'
_cell_length_a   9.91621691
_cell_length_b   9.97290708
_cell_length_c   9.91621818
_cell_angle_alpha   59.81070402
_cell_angle_beta   60.79651802
_cell_angle_gamma   59.81070626
_symmetry_Int_Tables_number   1
_chemical_formula_structural   La15Ho(CdCo)4
_chemical_formula_sum   'La15 Ho1 Cd4 Co4'
_cell_volume   695.47462024
_cell_formula_units_Z   1
loop_
 _symmetry_equiv_pos_site_id
 _symmetry_equiv_pos_as_xyz
  1  'x, y, z'
loop_
 _atom_site_type_symbol
 _atom_site_label
 _atom_site_symmetry_multiplicity
 _atom_site_fract_x
 _atom_site_fract_y
 _atom_site_fract_z
 _atom_site_occupancy
  La  La0  1  0.433073  0.440412  0.059454  1
  La  La1  1  0.594823  0.597706  0.594823  1
  La  La2  1  0.190114  0.808849  0.810314  1
  La  La3  1  0.059454  0.067061  0.433073  1
  La  La4  1  0.433073  0.067061  0.059454  1
  La  La5  1  0.810316  0.189684  0.810316  1
  La  La6  1  0.438251  0.061749  0.438251  1
  La  La7  1  0.594823  0.212649  0.594823  1
  La  La8  1  0.810314  0.808849  0.190114  1
  La  La9  1  0.212643  0.592183  0.602992  1
  La  La10  1  0.810314  0.190722  0.190114  1
  La  La11  1  0.059454  0.440412  0.433073  1
  La  La12  1  0.193755  0.806245  0.193755  1
  La  La13  1  0.602992  0.592183  0.212643  1
  La  La14  1  0.190114  0.190722  0.810314  1
  Ho  Ho15  1  0.057264  0.442736  0.057264  1
  Cd  Cd16  1  0.830668  0.828478  0.512375  1
  Cd  Cd17  1  0.830210  0.825691  0.830210  1
  Cd  Cd18  1  0.512375  0.828478  0.830668  1
  Cd  Cd19  1  0.830210  0.513889  0.830210  1
  Co  Co20  1  0.390438  0.388622  0.390438  1
  Co  Co21  1  0.832418  0.387559  0.392465  1
  Co  Co22  1  0.390438  0.830504  0.390438  1
  Co  Co23  1  0.392465  0.387559  0.832418  1
