# generated using pymatgen
data_Cs2La9YOs2Br17
_symmetry_space_group_name_H-M   'P 1'
_cell_length_a   9.59795920
_cell_length_b   11.35370782
_cell_length_c   11.35382255
_cell_angle_alpha   107.16354450
_cell_angle_beta   93.41127782
_cell_angle_gamma   93.41034027
_symmetry_Int_Tables_number   1
_chemical_formula_structural   Cs2La9YOs2Br17
_chemical_formula_sum   'Cs2 La9 Y1 Os2 Br17'
_cell_volume   1176.20300633
_cell_formula_units_Z   1
loop_
 _symmetry_equiv_pos_site_id
 _symmetry_equiv_pos_as_xyz
  1  'x, y, z'
loop_
 _atom_site_type_symbol
 _atom_site_label
 _atom_site_symmetry_multiplicity
 _atom_site_fract_x
 _atom_site_fract_y
 _atom_site_fract_z
 _atom_site_occupancy
  Cs  Cs0  1  0.000159  0.823007  0.177111  1
  Cs  Cs1  1  0.000152  0.177098  0.823001  1
  La  La2  1  0.573612  0.507247  0.202454  1
  La  La3  1  0.831235  0.288417  0.288412  1
  La  La4  1  0.310067  0.432487  0.432491  1
  La  La5  1  0.425127  0.804990  0.483771  1
  La  La6  1  0.573605  0.202456  0.507250  1
  La  La7  1  0.689431  0.572218  0.572217  1
  La  La8  1  0.174670  0.709428  0.709435  1
  La  La9  1  0.425126  0.483773  0.804981  1
  La  La10  1  0.561416  0.839113  0.839118  1
  Y  Y11  1  0.437996  0.162864  0.162863  1
  Os  Os12  1  0.572848  0.354410  0.354409  1
  Os  Os13  1  0.427801  0.645656  0.645659  1
  Br  Br14  1  0.579683  0.685082  0.022954  1
  Br  Br15  1  0.705866  0.067048  0.067047  1
  Br  Br16  1  0.859266  0.449618  0.118056  1
  Br  Br17  1  0.140282  0.203068  0.203068  1
  Br  Br18  1  0.280839  0.604829  0.255128  1
  Br  Br19  1  0.419506  0.982146  0.303827  1
  Br  Br20  1  0.717318  0.744139  0.395541  1
  Br  Br21  1  0.859273  0.118055  0.449619  1
  Br  Br22  1  0.999694  0.500055  0.500056  1
  Br  Br23  1  0.141016  0.882429  0.549012  1
  Br  Br24  1  0.280842  0.255123  0.604824  1
  Br  Br25  1  0.579691  0.022950  0.685069  1
  Br  Br26  1  0.717327  0.395538  0.744136  1
  Br  Br27  1  0.868964  0.794732  0.794731  1
  Br  Br28  1  0.141025  0.549012  0.882441  1
  Br  Br29  1  0.286664  0.939172  0.939169  1
  Br  Br30  1  0.419501  0.303835  0.982151  1
