# generated using pymatgen
data_Pr2Hf3Ni9P7
_symmetry_space_group_name_H-M   'P 1'
_cell_length_a   3.76360900
_cell_length_b   9.50613663
_cell_length_c   9.50613700
_cell_angle_alpha   119.99999779
_cell_angle_beta   90.00000000
_cell_angle_gamma   90.00000000
_symmetry_Int_Tables_number   1
_chemical_formula_structural   Pr2Hf3Ni9P7
_chemical_formula_sum   'Pr2 Hf3 Ni9 P7'
_cell_volume   294.53930717
_cell_formula_units_Z   1
loop_
 _symmetry_equiv_pos_site_id
 _symmetry_equiv_pos_as_xyz
  1  'x, y, z'
loop_
 _atom_site_type_symbol
 _atom_site_label
 _atom_site_symmetry_multiplicity
 _atom_site_fract_x
 _atom_site_fract_y
 _atom_site_fract_z
 _atom_site_occupancy
  Pr  Pr0  1  0.000000  0.666667  0.333333  1
  Pr  Pr1  1  0.500000  0.333333  0.666667  1
  Hf  Hf2  1  0.500000  0.772588  0.889031  1
  Hf  Hf3  1  0.500000  0.116441  0.227412  1
  Hf  Hf4  1  0.500000  0.110969  0.883559  1
  Ni  Ni5  1  0.000000  0.574122  0.938005  1
  Ni  Ni6  1  0.000000  0.363881  0.425878  1
  Ni  Ni7  1  0.000000  0.061995  0.636119  1
  Ni  Ni8  1  0.000000  0.871452  0.154230  1
  Ni  Ni9  1  0.000000  0.282777  0.128548  1
  Ni  Ni10  1  0.000000  0.845770  0.717223  1
  Ni  Ni11  1  0.500000  0.946561  0.389504  1
  Ni  Ni12  1  0.500000  0.442942  0.053439  1
  Ni  Ni13  1  0.500000  0.610496  0.557058  1
  P  P14  1  0.000000  0.000000  0.000000  1
  P  P15  1  0.500000  0.711303  0.120053  1
  P  P16  1  0.500000  0.408749  0.288697  1
  P  P17  1  0.500000  0.879947  0.591251  1
  P  P18  1  0.000000  0.583443  0.683325  1
  P  P19  1  0.000000  0.099882  0.416557  1
  P  P20  1  0.000000  0.316675  0.900118  1
