# generated using pymatgen
data_Mn6Zn5SiIr12
_symmetry_space_group_name_H-M   'P 1'
_cell_length_a   4.28907500
_cell_length_b   6.01425300
_cell_length_c   12.83226501
_cell_angle_alpha   90.00000000
_cell_angle_beta   89.99601373
_cell_angle_gamma   90.00000000
_symmetry_Int_Tables_number   1
_chemical_formula_structural   Mn6Zn5SiIr12
_chemical_formula_sum   'Mn6 Zn5 Si1 Ir12'
_cell_volume   331.01574604
_cell_formula_units_Z   1
loop_
 _symmetry_equiv_pos_site_id
 _symmetry_equiv_pos_as_xyz
  1  'x, y, z'
loop_
 _atom_site_type_symbol
 _atom_site_label
 _atom_site_symmetry_multiplicity
 _atom_site_fract_x
 _atom_site_fract_y
 _atom_site_fract_z
 _atom_site_occupancy
  Mn  Mn0  1  0.000000  0.500000  0.000000  1
  Mn  Mn1  1  0.499825  0.000000  0.171546  1
  Mn  Mn2  1  0.999796  0.500000  0.332612  1
  Mn  Mn3  1  0.500001  0.000000  0.500000  1
  Mn  Mn4  1  0.000203  0.500000  0.667387  1
  Mn  Mn5  1  0.500174  0.000000  0.828454  1
  Zn  Zn6  1  0.499813  0.500000  0.164864  1
  Zn  Zn7  1  0.999788  0.000000  0.332542  1
  Zn  Zn8  1  0.500001  0.500000  0.500000  1
  Zn  Zn9  1  0.000211  0.000000  0.667458  1
  Zn  Zn10  1  0.500188  0.500000  0.835136  1
  Si  Si11  1  0.000000  0.000000  0.000000  1
  Ir  Ir12  1  0.500001  0.234723  0.000000  1
  Ir  Ir13  1  0.500001  0.765277  0.000000  1
  Ir  Ir14  1  0.999825  0.243127  0.160952  1
  Ir  Ir15  1  0.999825  0.756873  0.160952  1
  Ir  Ir16  1  0.499789  0.251707  0.333031  1
  Ir  Ir17  1  0.499789  0.748293  0.333031  1
  Ir  Ir18  1  0.000000  0.249489  0.500000  1
  Ir  Ir19  1  0.000000  0.750511  0.500000  1
  Ir  Ir20  1  0.500210  0.251707  0.666969  1
  Ir  Ir21  1  0.500210  0.748293  0.666969  1
  Ir  Ir22  1  0.000174  0.243127  0.839048  1
  Ir  Ir23  1  0.000174  0.756873  0.839048  1
