# generated using pymatgen
data_Tm7LuSc12Si15Sn
_symmetry_space_group_name_H-M   'P 1'
_cell_length_a   7.07443970
_cell_length_b   7.36562754
_cell_length_c   13.96145481
_cell_angle_alpha   90.03555393
_cell_angle_beta   89.51117118
_cell_angle_gamma   89.97753616
_symmetry_Int_Tables_number   1
_chemical_formula_structural   Tm7LuSc12Si15Sn
_chemical_formula_sum   'Tm7 Lu1 Sc12 Si15 Sn1'
_cell_volume   727.47245542
_cell_formula_units_Z   1
loop_
 _symmetry_equiv_pos_site_id
 _symmetry_equiv_pos_as_xyz
  1  'x, y, z'
loop_
 _atom_site_type_symbol
 _atom_site_label
 _atom_site_symmetry_multiplicity
 _atom_site_fract_x
 _atom_site_fract_y
 _atom_site_fract_z
 _atom_site_occupancy
  Tm  Tm0  1  0.987927  0.823916  0.904715  1
  Tm  Tm1  1  0.488606  0.677058  0.904600  1
  Tm  Tm2  1  0.988733  0.829911  0.598017  1
  Tm  Tm3  1  0.511271  0.322873  0.096615  1
  Tm  Tm4  1  0.005636  0.170120  0.399463  1
  Tm  Tm5  1  0.513424  0.319241  0.399832  1
  Tm  Tm6  1  0.501210  0.685663  0.599587  1
  Lu  Lu7  1  0.012165  0.176885  0.096562  1
  Sc  Sc8  1  0.162224  0.503094  0.755028  1
  Sc  Sc9  1  0.837294  0.496391  0.249252  1
  Sc  Sc10  1  0.337122  0.003839  0.249362  1
  Sc  Sc11  1  0.664077  0.996352  0.751569  1
  Sc  Sc12  1  0.342716  0.162071  0.630728  1
  Sc  Sc13  1  0.664431  0.825365  0.372664  1
  Sc  Sc14  1  0.163279  0.684113  0.369163  1
  Sc  Sc15  1  0.668158  0.823170  0.124136  1
  Sc  Sc16  1  0.823549  0.323234  0.626517  1
  Sc  Sc17  1  0.330481  0.175962  0.875723  1
  Sc  Sc18  1  0.831134  0.322790  0.875676  1
  Sc  Sc19  1  0.168888  0.677232  0.125020  1
  Si  Si20  1  0.034363  0.116231  0.751297  1
  Si  Si21  1  0.963977  0.887863  0.246657  1
  Si  Si22  1  0.466257  0.613272  0.248635  1
  Si  Si23  1  0.532147  0.387776  0.752108  1
  Si  Si24  1  0.286123  0.867976  0.752367  1
  Si  Si25  1  0.713199  0.129042  0.247303  1
  Si  Si26  1  0.212260  0.370124  0.249009  1
  Si  Si27  1  0.788815  0.630147  0.751429  1
  Si  Si28  1  0.828946  0.538341  0.458782  1
  Si  Si29  1  0.336780  0.964664  0.460197  1
  Si  Si30  1  0.841276  0.533746  0.039493  1
  Si  Si31  1  0.663615  0.036613  0.537960  1
  Si  Si32  1  0.157913  0.464848  0.961815  1
  Si  Si33  1  0.658545  0.034678  0.960738  1
  Si  Si34  1  0.339897  0.966171  0.039995  1
  Sn  Sn35  1  0.173559  0.459227  0.537983  1
