# generated using pymatgen
data_Tb2SiNiI
_symmetry_space_group_name_H-M   'P 1'
_cell_length_a   4.08427200
_cell_length_b   4.08427260
_cell_length_c   16.44868700
_cell_angle_alpha   90.00000000
_cell_angle_beta   90.00000000
_cell_angle_gamma   119.99999515
_symmetry_Int_Tables_number   1
_chemical_formula_structural   Tb2SiNiI
_chemical_formula_sum   'Tb4 Si2 Ni2 I2'
_cell_volume   237.62452806
_cell_formula_units_Z   2
loop_
 _symmetry_equiv_pos_site_id
 _symmetry_equiv_pos_as_xyz
  1  'x, y, z'
loop_
 _atom_site_type_symbol
 _atom_site_label
 _atom_site_symmetry_multiplicity
 _atom_site_fract_x
 _atom_site_fract_y
 _atom_site_fract_z
 _atom_site_occupancy
  Tb  Tb0  1  0.000000  0.000000  0.608519  1
  Tb  Tb1  1  0.000000  0.000000  0.395679  1
  Tb  Tb2  1  0.000000  0.000000  0.108519  1
  Tb  Tb3  1  0.000000  0.000000  0.895679  1
  Si  Si4  1  0.666667  0.333333  0.507061  1
  Si  Si5  1  0.333333  0.666667  0.007061  1
  Ni  Ni6  1  0.666667  0.333333  0.990126  1
  Ni  Ni7  1  0.333333  0.666667  0.490126  1
  I  I8  1  0.666667  0.333333  0.248615  1
  I  I9  1  0.333333  0.666667  0.748615  1
