# generated using pymatgen
data_SmPa3(InNi2)2
_symmetry_space_group_name_H-M   'P 1'
_cell_length_a   7.50228670
_cell_length_b   7.50228670
_cell_length_c   3.54584000
_cell_angle_alpha   90.00000000
_cell_angle_beta   90.00000000
_cell_angle_gamma   91.59387017
_symmetry_Int_Tables_number   1
_chemical_formula_structural   SmPa3(InNi2)2
_chemical_formula_sum   'Sm1 Pa3 In2 Ni4'
_cell_volume   199.49792633
_cell_formula_units_Z   1
loop_
 _symmetry_equiv_pos_site_id
 _symmetry_equiv_pos_as_xyz
  1  'x, y, z'
loop_
 _atom_site_type_symbol
 _atom_site_label
 _atom_site_symmetry_multiplicity
 _atom_site_fract_x
 _atom_site_fract_y
 _atom_site_fract_z
 _atom_site_occupancy
  Sm  Sm0  1  0.825627  0.674373  0.500000  1
  Pa  Pa1  1  0.674426  0.173222  0.500000  1
  Pa  Pa2  1  0.326778  0.825574  0.500000  1
  Pa  Pa3  1  0.171596  0.328404  0.500000  1
  In  In4  1  0.503142  0.500857  0.000000  1
  In  In5  1  0.999143  0.996858  0.000000  1
  Ni  Ni6  1  0.143887  0.616752  0.000000  1
  Ni  Ni7  1  0.883248  0.356113  0.000000  1
  Ni  Ni8  1  0.605134  0.894866  0.000000  1
  Ni  Ni9  1  0.367019  0.132981  0.000000  1
