# generated using pymatgen
data_Y6Ho10Cd2InHgPt4
_symmetry_space_group_name_H-M   'P 1'
_cell_length_a   9.65253417
_cell_length_b   9.65253463
_cell_length_c   9.64754300
_cell_angle_alpha   60.01711539
_cell_angle_beta   60.01711381
_cell_angle_gamma   60.07596083
_symmetry_Int_Tables_number   1
_chemical_formula_structural   Y6Ho10Cd2InHgPt4
_chemical_formula_sum   'Y6 Ho10 Cd2 In1 Hg1 Pt4'
_cell_volume   636.12954308
_cell_formula_units_Z   1
loop_
 _symmetry_equiv_pos_site_id
 _symmetry_equiv_pos_as_xyz
  1  'x, y, z'
loop_
 _atom_site_type_symbol
 _atom_site_label
 _atom_site_symmetry_multiplicity
 _atom_site_fract_x
 _atom_site_fract_y
 _atom_site_fract_z
 _atom_site_occupancy
  Y  Y0  1  0.938314  0.563679  0.564466  1
  Y  Y1  1  0.563897  0.936853  0.937019  1
  Y  Y2  1  0.563679  0.938314  0.564466  1
  Y  Y3  1  0.936853  0.563897  0.937019  1
  Y  Y4  1  0.564776  0.564776  0.938619  1
  Y  Y5  1  0.938025  0.938025  0.562866  1
  Ho  Ho6  1  0.352244  0.352244  0.350823  1
  Ho  Ho7  1  0.351482  0.351482  0.947321  1
  Ho  Ho8  1  0.355924  0.938296  0.352544  1
  Ho  Ho9  1  0.938296  0.355924  0.352544  1
  Ho  Ho10  1  0.810863  0.189333  0.189475  1
  Ho  Ho11  1  0.191007  0.810072  0.809268  1
  Ho  Ho12  1  0.189333  0.810863  0.189475  1
  Ho  Ho13  1  0.810072  0.191007  0.809268  1
  Ho  Ho14  1  0.189321  0.189321  0.810344  1
  Ho  Ho15  1  0.809588  0.809588  0.191070  1
  Cd  Cd16  1  0.579468  0.254654  0.582460  1
  Cd  Cd17  1  0.254654  0.579468  0.582460  1
  In  In18  1  0.580841  0.580841  0.583661  1
  Hg  Hg19  1  0.584381  0.584381  0.242706  1
  Pt  Pt20  1  0.142568  0.142568  0.146085  1
  Pt  Pt21  1  0.142611  0.142611  0.568000  1
  Pt  Pt22  1  0.140869  0.570934  0.144021  1
  Pt  Pt23  1  0.570934  0.140869  0.144021  1
