# generated using pymatgen
data_Ho2Nb3Si7Pt9
_symmetry_space_group_name_H-M   'P 1'
_cell_length_a   9.89204700
_cell_length_b   9.89204725
_cell_length_c   4.01948900
_cell_angle_alpha   90.00000000
_cell_angle_beta   90.00000000
_cell_angle_gamma   120.00000250
_symmetry_Int_Tables_number   1
_chemical_formula_structural   Ho2Nb3Si7Pt9
_chemical_formula_sum   'Ho2 Nb3 Si7 Pt9'
_cell_volume   340.62288156
_cell_formula_units_Z   1
loop_
 _symmetry_equiv_pos_site_id
 _symmetry_equiv_pos_as_xyz
  1  'x, y, z'
loop_
 _atom_site_type_symbol
 _atom_site_label
 _atom_site_symmetry_multiplicity
 _atom_site_fract_x
 _atom_site_fract_y
 _atom_site_fract_z
 _atom_site_occupancy
  Ho  Ho0  1  0.000000  0.000000  0.000000  1
  Ho  Ho1  1  0.333333  0.666667  0.500000  1
  Nb  Nb2  1  0.882952  0.455685  0.500000  1
  Nb  Nb3  1  0.572733  0.117048  0.500000  1
  Nb  Nb4  1  0.544315  0.427267  0.500000  1
  Si  Si5  1  0.257124  0.211213  0.500000  1
  Si  Si6  1  0.788787  0.045912  0.500000  1
  Si  Si7  1  0.954088  0.742876  0.500000  1
  Si  Si8  1  0.553755  0.635908  0.000000  1
  Si  Si9  1  0.364092  0.917846  0.000000  1
  Si  Si10  1  0.082154  0.446245  0.000000  1
  Si  Si11  1  0.666667  0.333333  0.000000  1
  Pt  Pt12  1  0.222853  0.942045  0.500000  1
  Pt  Pt13  1  0.057955  0.280809  0.500000  1
  Pt  Pt14  1  0.719191  0.777147  0.500000  1
  Pt  Pt15  1  0.305402  0.409273  0.000000  1
  Pt  Pt16  1  0.590727  0.896129  0.000000  1
  Pt  Pt17  1  0.103871  0.694598  0.000000  1
  Pt  Pt18  1  0.385902  0.173541  0.000000  1
  Pt  Pt19  1  0.826459  0.212362  0.000000  1
  Pt  Pt20  1  0.787638  0.614098  0.000000  1
