# generated using pymatgen
data_Y20Sn9Bi7
_symmetry_space_group_name_H-M   'P 1'
_cell_length_a   8.19434612
_cell_length_b   8.22182661
_cell_length_c   15.64229474
_cell_angle_alpha   90.06718000
_cell_angle_beta   89.60550441
_cell_angle_gamma   89.91623273
_symmetry_Int_Tables_number   1
_chemical_formula_structural   Y20Sn9Bi7
_chemical_formula_sum   'Y20 Sn9 Bi7'
_cell_volume   1053.83354967
_cell_formula_units_Z   1
loop_
 _symmetry_equiv_pos_site_id
 _symmetry_equiv_pos_as_xyz
  1  'x, y, z'
loop_
 _atom_site_type_symbol
 _atom_site_label
 _atom_site_symmetry_multiplicity
 _atom_site_fract_x
 _atom_site_fract_y
 _atom_site_fract_z
 _atom_site_occupancy
  Y  Y0  1  0.394473  0.837526  0.877619  1
  Y  Y1  1  0.897986  0.664409  0.621501  1
  Y  Y2  1  0.602207  0.162880  0.377894  1
  Y  Y3  1  0.102100  0.337653  0.121322  1
  Y  Y4  1  0.607402  0.167695  0.121386  1
  Y  Y5  1  0.102153  0.336026  0.377922  1
  Y  Y6  1  0.396745  0.837747  0.622649  1
  Y  Y7  1  0.891872  0.661033  0.880196  1
  Y  Y8  1  0.564896  0.333302  0.890163  1
  Y  Y9  1  0.065589  0.169784  0.613913  1
  Y  Y10  1  0.435039  0.668409  0.386473  1
  Y  Y11  1  0.937291  0.823410  0.111400  1
  Y  Y12  1  0.446385  0.665634  0.110122  1
  Y  Y13  1  0.934436  0.830294  0.385856  1
  Y  Y14  1  0.566061  0.331868  0.613588  1
  Y  Y15  1  0.056760  0.173989  0.889769  1
  Y  Y16  1  0.228246  0.500253  0.750787  1
  Y  Y17  1  0.728065  0.002060  0.750767  1
  Y  Y18  1  0.772024  0.499550  0.246321  1
  Y  Y19  1  0.271754  0.998075  0.248748  1
  Sn  Sn20  1  0.768914  0.480235  0.044282  1
  Sn  Sn21  1  0.594641  0.629384  0.749868  1
  Sn  Sn22  1  0.092885  0.872366  0.751052  1
  Sn  Sn23  1  0.404412  0.370697  0.250348  1
  Sn  Sn24  1  0.905762  0.126835  0.249994  1
  Sn  Sn25  1  0.366435  0.143370  0.751353  1
  Sn  Sn26  1  0.867010  0.359880  0.750272  1
  Sn  Sn27  1  0.633215  0.858642  0.249482  1
  Sn  Sn28  1  0.135237  0.640325  0.249658  1
  Bi  Bi29  1  0.265397  0.015839  0.044218  1
  Bi  Bi30  1  0.763832  0.486387  0.454354  1
  Bi  Bi31  1  0.736497  0.987409  0.544875  1
  Bi  Bi32  1  0.233089  0.519102  0.955833  1
  Bi  Bi33  1  0.731288  0.981688  0.955974  1
  Bi  Bi34  1  0.237055  0.513709  0.544958  1
  Bi  Bi35  1  0.262846  0.012533  0.455080  1
