# generated using pymatgen
data_TbSm3(TcB4)4
_symmetry_space_group_name_H-M   'P 1'
_cell_length_a   3.63647600
_cell_length_b   6.01502817
_cell_length_c   11.64581511
_cell_angle_alpha   90.07365962
_cell_angle_beta   90.00000673
_cell_angle_gamma   90.00002975
_symmetry_Int_Tables_number   1
_chemical_formula_structural   TbSm3(TcB4)4
_chemical_formula_sum   'Tb1 Sm3 Tc4 B16'
_cell_volume   254.73459116
_cell_formula_units_Z   1
loop_
 _symmetry_equiv_pos_site_id
 _symmetry_equiv_pos_as_xyz
  1  'x, y, z'
loop_
 _atom_site_type_symbol
 _atom_site_label
 _atom_site_symmetry_multiplicity
 _atom_site_fract_x
 _atom_site_fract_y
 _atom_site_fract_z
 _atom_site_occupancy
  Tb  Tb0  1  0.000001  0.626194  0.349585  1
  Sm  Sm1  1  0.000000  0.373850  0.650385  1
  Sm  Sm2  1  0.000000  0.126189  0.150827  1
  Sm  Sm3  1  0.999999  0.873877  0.849714  1
  Tc  Tc4  1  0.000000  0.631454  0.087709  1
  Tc  Tc5  1  0.000000  0.368752  0.913657  1
  Tc  Tc6  1  0.000000  0.131611  0.412859  1
  Tc  Tc7  1  0.999999  0.868033  0.585637  1
  B  B8  1  0.500000  0.784608  0.185158  1
  B  B9  1  0.499999  0.215265  0.815921  1
  B  B10  1  0.500000  0.286777  0.316094  1
  B  B11  1  0.500000  0.715259  0.683683  1
  B  B12  1  0.499999  0.861951  0.032278  1
  B  B13  1  0.499999  0.138040  0.968485  1
  B  B14  1  0.500000  0.362839  0.467534  1
  B  B15  1  0.500001  0.637068  0.530670  1
  B  B16  1  0.500001  0.886069  0.452539  1
  B  B17  1  0.500000  0.112030  0.545622  1
  B  B18  1  0.500000  0.388154  0.046940  1
  B  B19  1  0.499999  0.612406  0.953955  1
  B  B20  1  0.500001  0.974994  0.308831  1
  B  B21  1  0.500000  0.023606  0.690564  1
  B  B22  1  0.500001  0.477236  0.192231  1
  B  B23  1  0.500000  0.523739  0.809123  1
