# generated using pymatgen
data_Tm5Lu11(In3Pt)2
_symmetry_space_group_name_H-M   'P 1'
_cell_length_a   10.31188005
_cell_length_b   10.31188080
_cell_length_c   6.87561004
_cell_angle_alpha   89.98898450
_cell_angle_beta   90.01102004
_cell_angle_gamma   119.99856896
_symmetry_Int_Tables_number   1
_chemical_formula_structural   Tm5Lu11(In3Pt)2
_chemical_formula_sum   'Tm5 Lu11 In6 Pt2'
_cell_volume   633.17514352
_cell_formula_units_Z   1
loop_
 _symmetry_equiv_pos_site_id
 _symmetry_equiv_pos_as_xyz
  1  'x, y, z'
loop_
 _atom_site_type_symbol
 _atom_site_label
 _atom_site_symmetry_multiplicity
 _atom_site_fract_x
 _atom_site_fract_y
 _atom_site_fract_z
 _atom_site_occupancy
  Tm  Tm0  1  0.530934  0.061871  0.525593  1
  Tm  Tm1  1  0.938129  0.469066  0.525593  1
  Tm  Tm2  1  0.530894  0.469106  0.525611  1
  Tm  Tm3  1  0.469068  0.938125  0.025554  1
  Tm  Tm4  1  0.061875  0.530932  0.025554  1
  Lu  Lu5  1  0.468922  0.531078  0.025538  1
  Lu  Lu6  1  0.175727  0.351264  0.731439  1
  Lu  Lu7  1  0.648736  0.824273  0.731439  1
  Lu  Lu8  1  0.175585  0.824415  0.731318  1
  Lu  Lu9  1  0.824201  0.648721  0.231235  1
  Lu  Lu10  1  0.351279  0.175799  0.231235  1
  Lu  Lu11  1  0.824407  0.175593  0.231294  1
  Lu  Lu12  1  0.666583  0.333417  0.900546  1
  Lu  Lu13  1  0.333414  0.666586  0.400360  1
  Lu  Lu14  1  0.000009  0.999991  0.504748  1
  Lu  Lu15  1  0.999993  0.000007  0.004799  1
  In  In16  1  0.837650  0.675256  0.768209  1
  In  In17  1  0.324744  0.162350  0.768209  1
  In  In18  1  0.837627  0.162373  0.768169  1
  In  In19  1  0.162478  0.324836  0.268157  1
  In  In20  1  0.675164  0.837522  0.268157  1
  In  In21  1  0.162376  0.837624  0.268189  1
  Pt  Pt22  1  0.666703  0.333297  0.297265  1
  Pt  Pt23  1  0.333504  0.666496  0.797469  1
