# generated using pymatgen
data_CeMn2MoF12
_symmetry_space_group_name_H-M   'P 1'
_cell_length_a   8.64300568
_cell_length_b   5.93925015
_cell_length_c   5.93567300
_cell_angle_alpha   90.00970485
_cell_angle_beta   90.56597950
_cell_angle_gamma   90.20770952
_symmetry_Int_Tables_number   1
_chemical_formula_structural   CeMn2MoF12
_chemical_formula_sum   'Ce1 Mn2 Mo1 F12'
_cell_volume   304.67886650
_cell_formula_units_Z   1
loop_
 _symmetry_equiv_pos_site_id
 _symmetry_equiv_pos_as_xyz
  1  'x, y, z'
loop_
 _atom_site_type_symbol
 _atom_site_label
 _atom_site_symmetry_multiplicity
 _atom_site_fract_x
 _atom_site_fract_y
 _atom_site_fract_z
 _atom_site_occupancy
  Ce  Ce0  1  0.500000  0.000000  0.000000  1
  Mn  Mn1  1  0.000000  0.000000  0.000000  1
  Mn  Mn2  1  0.500000  0.500000  0.500000  1
  Mo  Mo3  1  0.000000  0.500000  0.500000  1
  F  F4  1  0.247604  0.001837  0.999300  1
  F  F5  1  0.501296  0.298582  0.216049  1
  F  F6  1  0.998202  0.269818  0.255658  1
  F  F7  1  0.999966  0.750779  0.260089  1
  F  F8  1  0.499215  0.784116  0.298432  1
  F  F9  1  0.768695  0.503718  0.496590  1
  F  F10  1  0.231305  0.496282  0.503410  1
  F  F11  1  0.500785  0.215884  0.701568  1
  F  F12  1  0.000034  0.249221  0.739911  1
  F  F13  1  0.001798  0.730182  0.744342  1
  F  F14  1  0.498704  0.701418  0.783951  1
  F  F15  1  0.752396  0.998163  0.000700  1
