# generated using pymatgen
data_YbY3(TcB4)4
_symmetry_space_group_name_H-M   'P 1'
_cell_length_a   3.59788800
_cell_length_b   5.97278925
_cell_length_c   11.56257757
_cell_angle_alpha   90.00135628
_cell_angle_beta   90.00000000
_cell_angle_gamma   90.00000000
_symmetry_Int_Tables_number   1
_chemical_formula_structural   YbY3(TcB4)4
_chemical_formula_sum   'Yb1 Y3 Tc4 B16'
_cell_volume   248.47316415
_cell_formula_units_Z   1
loop_
 _symmetry_equiv_pos_site_id
 _symmetry_equiv_pos_as_xyz
  1  'x, y, z'
loop_
 _atom_site_type_symbol
 _atom_site_label
 _atom_site_symmetry_multiplicity
 _atom_site_fract_x
 _atom_site_fract_y
 _atom_site_fract_z
 _atom_site_occupancy
  Yb  Yb0  1  0.500000  0.871783  0.650166  1
  Y  Y1  1  0.500000  0.628097  0.150251  1
  Y  Y2  1  0.500000  0.371413  0.848856  1
  Y  Y3  1  0.500000  0.127083  0.350174  1
  Tc  Tc4  1  0.500000  0.630754  0.414595  1
  Tc  Tc5  1  0.500000  0.368402  0.584731  1
  Tc  Tc6  1  0.500000  0.133112  0.087258  1
  Tc  Tc7  1  0.500000  0.866043  0.913174  1
  B  B8  1  0.000000  0.977280  0.192516  1
  B  B9  1  0.000000  0.022563  0.807145  1
  B  B10  1  0.000000  0.478102  0.307873  1
  B  B11  1  0.000000  0.522237  0.691974  1
  B  B12  1  0.000000  0.787434  0.315893  1
  B  B13  1  0.000000  0.212922  0.684455  1
  B  B14  1  0.000000  0.286968  0.185110  1
  B  B15  1  0.000000  0.714319  0.814498  1
  B  B16  1  0.000000  0.864311  0.468611  1
  B  B17  1  0.000000  0.135475  0.532179  1
  B  B18  1  0.000000  0.363944  0.031284  1
  B  B19  1  0.000000  0.635929  0.968517  1
  B  B20  1  0.000000  0.887066  0.047261  1
  B  B21  1  0.000000  0.112679  0.952431  1
  B  B22  1  0.000000  0.387430  0.453336  1
  B  B23  1  0.000000  0.614654  0.547714  1
