# generated using pymatgen
data_Ho10In8IrPt3
_symmetry_space_group_name_H-M   'P 1'
_cell_length_a   3.61623800
_cell_length_b   8.13201704
_cell_length_c   18.21362809
_cell_angle_alpha   89.98898101
_cell_angle_beta   90.00000000
_cell_angle_gamma   90.00000000
_symmetry_Int_Tables_number   1
_chemical_formula_structural   Ho10In8IrPt3
_chemical_formula_sum   'Ho10 In8 Ir1 Pt3'
_cell_volume   535.61377969
_cell_formula_units_Z   1
loop_
 _symmetry_equiv_pos_site_id
 _symmetry_equiv_pos_as_xyz
  1  'x, y, z'
loop_
 _atom_site_type_symbol
 _atom_site_label
 _atom_site_symmetry_multiplicity
 _atom_site_fract_x
 _atom_site_fract_y
 _atom_site_fract_z
 _atom_site_occupancy
  Ho  Ho0  1  0.000000  0.114090  0.412286  1
  Ho  Ho1  1  0.000000  0.883990  0.584941  1
  Ho  Ho2  1  0.000000  0.384003  0.915430  1
  Ho  Ho3  1  0.000000  0.616103  0.086287  1
  Ho  Ho4  1  0.000000  0.234752  0.222693  1
  Ho  Ho5  1  0.000000  0.758670  0.779645  1
  Ho  Ho6  1  0.000000  0.258238  0.721270  1
  Ho  Ho7  1  0.000000  0.750923  0.278416  1
  Ho  Ho8  1  0.000000  0.000051  0.000160  1
  Ho  Ho9  1  0.000000  0.500963  0.499279  1
  In  In10  1  0.500000  0.424235  0.351075  1
  In  In11  1  0.500000  0.576805  0.648501  1
  In  In12  1  0.500000  0.076602  0.851869  1
  In  In13  1  0.500000  0.926995  0.148331  1
  In  In14  1  0.500000  0.291324  0.067166  1
  In  In15  1  0.500000  0.708227  0.933792  1
  In  In16  1  0.500000  0.209231  0.566579  1
  In  In17  1  0.500000  0.792109  0.431347  1
  Ir  Ir18  1  0.500000  0.019642  0.303848  1
  Pt  Pt19  1  0.500000  0.976189  0.696428  1
  Pt  Pt20  1  0.500000  0.476523  0.803898  1
  Pt  Pt21  1  0.500000  0.520335  0.196759  1
