# generated using pymatgen
data_Nd20Ge8IrRu3
_symmetry_space_group_name_H-M   'P 1'
_cell_length_a   7.95508626
_cell_length_b   8.92836300
_cell_length_c   12.31073856
_cell_angle_alpha   90.00000000
_cell_angle_beta   90.42146077
_cell_angle_gamma   90.00000000
_symmetry_Int_Tables_number   1
_chemical_formula_structural   Nd20Ge8IrRu3
_chemical_formula_sum   'Nd20 Ge8 Ir1 Ru3'
_cell_volume   874.35760359
_cell_formula_units_Z   1
loop_
 _symmetry_equiv_pos_site_id
 _symmetry_equiv_pos_as_xyz
  1  'x, y, z'
loop_
 _atom_site_type_symbol
 _atom_site_label
 _atom_site_symmetry_multiplicity
 _atom_site_fract_x
 _atom_site_fract_y
 _atom_site_fract_z
 _atom_site_occupancy
  Nd  Nd0  1  0.669195  0.750000  0.715202  1
  Nd  Nd1  1  0.330136  0.250000  0.284622  1
  Nd  Nd2  1  0.167365  0.250000  0.783954  1
  Nd  Nd3  1  0.830292  0.750000  0.218159  1
  Nd  Nd4  1  0.147371  0.750000  0.794763  1
  Nd  Nd5  1  0.856147  0.250000  0.203421  1
  Nd  Nd6  1  0.642436  0.250000  0.702020  1
  Nd  Nd7  1  0.355953  0.750000  0.296767  1
  Nd  Nd8  1  0.540063  0.750000  0.999118  1
  Nd  Nd9  1  0.461006  0.250000  0.001476  1
  Nd  Nd10  1  0.038360  0.250000  0.501116  1
  Nd  Nd11  1  0.962755  0.750000  0.499415  1
  Nd  Nd12  1  0.819136  0.462978  0.925732  1
  Nd  Nd13  1  0.179464  0.534160  0.074159  1
  Nd  Nd14  1  0.321207  0.534482  0.573799  1
  Nd  Nd15  1  0.179464  0.965840  0.074159  1
  Nd  Nd16  1  0.679285  0.465680  0.426062  1
  Nd  Nd17  1  0.819136  0.037022  0.925732  1
  Nd  Nd18  1  0.679285  0.034320  0.426062  1
  Nd  Nd19  1  0.321207  0.965518  0.573799  1
  Ge  Ge20  1  0.937298  0.004919  0.670545  1
  Ge  Ge21  1  0.061988  0.995126  0.329723  1
  Ge  Ge22  1  0.438895  0.995050  0.827913  1
  Ge  Ge23  1  0.061988  0.504874  0.329723  1
  Ge  Ge24  1  0.561157  0.005348  0.171843  1
  Ge  Ge25  1  0.937298  0.495081  0.670545  1
  Ge  Ge26  1  0.561157  0.494652  0.171843  1
  Ge  Ge27  1  0.438895  0.504950  0.827913  1
  Ir  Ir28  1  0.924204  0.750000  0.984617  1
  Ru  Ru29  1  0.078458  0.250000  0.016231  1
  Ru  Ru30  1  0.420882  0.250000  0.515994  1
  Ru  Ru31  1  0.578517  0.750000  0.483572  1
