# generated using pymatgen
data_Zr3NbFeCo7P6
_symmetry_space_group_name_H-M   'P 1'
_cell_length_a   12.02981412
_cell_length_b   12.02037427
_cell_length_c   3.67408300
_cell_angle_alpha   90.00000000
_cell_angle_beta   90.00000000
_cell_angle_gamma   120.04963022
_symmetry_Int_Tables_number   1
_chemical_formula_structural   Zr3NbFeCo7P6
_chemical_formula_sum   'Zr6 Nb2 Fe2 Co14 P12'
_cell_volume   459.87424841
_cell_formula_units_Z   2
loop_
 _symmetry_equiv_pos_site_id
 _symmetry_equiv_pos_as_xyz
  1  'x, y, z'
loop_
 _atom_site_type_symbol
 _atom_site_label
 _atom_site_symmetry_multiplicity
 _atom_site_fract_x
 _atom_site_fract_y
 _atom_site_fract_z
 _atom_site_occupancy
  Zr  Zr0  1  0.999734  0.555766  0.000000  1
  Zr  Zr1  1  0.665086  0.332827  0.000000  1
  Zr  Zr2  1  0.333889  0.667606  0.000000  1
  Zr  Zr3  1  0.820650  0.819926  0.500000  1
  Zr  Zr4  1  0.180106  0.999382  0.500000  1
  Zr  Zr5  1  0.000784  0.178440  0.500000  1
  Nb  Nb6  1  0.445793  0.446449  0.000000  1
  Nb  Nb7  1  0.554186  0.000451  0.000000  1
  Fe  Fe8  1  0.197293  0.372146  0.000000  1
  Fe  Fe9  1  0.179070  0.806600  0.000000  1
  Co  Co10  1  0.819846  0.628090  0.000000  1
  Co  Co11  1  0.805027  0.177098  0.000000  1
  Co  Co12  1  0.373394  0.195101  0.000000  1
  Co  Co13  1  0.126975  0.479468  0.500000  1
  Co  Co14  1  0.356893  0.874915  0.500000  1
  Co  Co15  1  0.516473  0.645503  0.500000  1
  Co  Co16  1  0.644512  0.518124  0.500000  1
  Co  Co17  1  0.870212  0.351199  0.500000  1
  Co  Co18  1  0.483599  0.129920  0.500000  1
  Co  Co19  1  0.999498  0.999748  0.000000  1
  Co  Co20  1  0.721902  0.000142  0.500000  1
  Co  Co21  1  0.997520  0.721437  0.500000  1
  Co  Co22  1  0.627192  0.822897  0.000000  1
  Co  Co23  1  0.279699  0.277408  0.500000  1
  P  P24  1  0.646595  0.648969  0.000000  1
  P  P25  1  0.351944  0.000093  0.000000  1
  P  P26  1  0.002406  0.346741  0.000000  1
  P  P27  1  0.481429  0.312258  0.500000  1
  P  P28  1  0.688201  0.169333  0.500000  1
  P  P29  1  0.825684  0.517302  0.500000  1
  P  P30  1  0.518661  0.830550  0.500000  1
  P  P31  1  0.174130  0.693560  0.500000  1
  P  P32  1  0.823669  0.999443  0.000000  1
  P  P33  1  0.002431  0.825376  0.000000  1
  P  P34  1  0.309553  0.479483  0.500000  1
  P  P35  1  0.175967  0.176253  0.000000  1
