# generated using pymatgen
data_Sr2ErTmF10
_symmetry_space_group_name_H-M   'P 1'
_cell_length_a   8.16216006
_cell_length_b   8.16215975
_cell_length_c   5.74021069
_cell_angle_alpha   89.09349119
_cell_angle_beta   89.09349082
_cell_angle_gamma   149.39865384
_symmetry_Int_Tables_number   1
_chemical_formula_structural   Sr2ErTmF10
_chemical_formula_sum   'Sr2 Er1 Tm1 F10'
_cell_volume   194.32401085
_cell_formula_units_Z   1
loop_
 _symmetry_equiv_pos_site_id
 _symmetry_equiv_pos_as_xyz
  1  'x, y, z'
loop_
 _atom_site_type_symbol
 _atom_site_label
 _atom_site_symmetry_multiplicity
 _atom_site_fract_x
 _atom_site_fract_y
 _atom_site_fract_z
 _atom_site_occupancy
  Sr  Sr0  1  0.324385  0.675615  0.750000  1
  Sr  Sr1  1  0.675733  0.324267  0.250000  1
  Er  Er2  1  0.074848  0.925152  0.750000  1
  Tm  Tm3  1  0.925022  0.074978  0.250000  1
  F  F4  1  0.731144  0.806847  0.598980  1
  F  F5  1  0.806301  0.731979  0.101197  1
  F  F6  1  0.803465  0.178303  0.005570  1
  F  F7  1  0.620672  0.379328  0.750000  1
  F  F8  1  0.821697  0.196535  0.494430  1
  F  F9  1  0.178854  0.803026  0.504411  1
  F  F10  1  0.379731  0.620269  0.250000  1
  F  F11  1  0.196974  0.821146  0.995589  1
  F  F12  1  0.193153  0.268856  0.901020  1
  F  F13  1  0.268021  0.193699  0.398803  1
