# generated using pymatgen
data_LaCe7Zn8(Ru3Rh)2
_symmetry_space_group_name_H-M   'P 1'
_cell_length_a   3.88957800
_cell_length_b   7.39990792
_cell_length_c   16.30546123
_cell_angle_alpha   88.75875586
_cell_angle_beta   90.00000000
_cell_angle_gamma   90.00000000
_symmetry_Int_Tables_number   1
_chemical_formula_structural   LaCe7Zn8(Ru3Rh)2
_chemical_formula_sum   'La1 Ce7 Zn8 Ru6 Rh2'
_cell_volume   469.20212384
_cell_formula_units_Z   1
loop_
 _symmetry_equiv_pos_site_id
 _symmetry_equiv_pos_as_xyz
  1  'x, y, z'
loop_
 _atom_site_type_symbol
 _atom_site_label
 _atom_site_symmetry_multiplicity
 _atom_site_fract_x
 _atom_site_fract_y
 _atom_site_fract_z
 _atom_site_occupancy
  La  La0  1  0.250000  0.672129  0.560419  1
  Ce  Ce1  1  0.750000  0.822479  0.058867  1
  Ce  Ce2  1  0.250000  0.049669  0.718216  1
  Ce  Ce3  1  0.250000  0.178616  0.937779  1
  Ce  Ce4  1  0.750000  0.930597  0.286790  1
  Ce  Ce5  1  0.250000  0.558384  0.783665  1
  Ce  Ce6  1  0.750000  0.446957  0.216910  1
  Ce  Ce7  1  0.750000  0.323099  0.443792  1
  Zn  Zn8  1  0.250000  0.111149  0.152407  1
  Zn  Zn9  1  0.750000  0.508256  0.938782  1
  Zn  Zn10  1  0.750000  0.998124  0.560462  1
  Zn  Zn11  1  0.750000  0.374744  0.653102  1
  Zn  Zn12  1  0.750000  0.886128  0.853399  1
  Zn  Zn13  1  0.250000  0.490263  0.059996  1
  Zn  Zn14  1  0.250000  0.605584  0.346309  1
  Zn  Zn15  1  0.250000  0.002819  0.439915  1
  Ru  Ru16  1  0.750000  0.768188  0.420580  1
  Ru  Ru17  1  0.750000  0.265055  0.815152  1
  Ru  Ru18  1  0.750000  0.769466  0.698219  1
  Ru  Ru19  1  0.250000  0.735380  0.180413  1
  Ru  Ru20  1  0.250000  0.758124  0.945023  1
  Ru  Ru21  1  0.250000  0.250409  0.559211  1
  Rh  Rh22  1  0.750000  0.244419  0.059930  1
  Rh  Rh23  1  0.250000  0.249959  0.310662  1
