# generated using pymatgen
data_Y8Co(Si4Ag)3
_symmetry_space_group_name_H-M   'P 1'
_cell_length_a   8.18675700
_cell_length_b   8.18675715
_cell_length_c   8.21881800
_cell_angle_alpha   90.00000000
_cell_angle_beta   90.00000000
_cell_angle_gamma   119.99999535
_symmetry_Int_Tables_number   1
_chemical_formula_structural   Y8Co(Si4Ag)3
_chemical_formula_sum   'Y8 Co1 Si12 Ag3'
_cell_volume   477.04991535
_cell_formula_units_Z   1
loop_
 _symmetry_equiv_pos_site_id
 _symmetry_equiv_pos_as_xyz
  1  'x, y, z'
loop_
 _atom_site_type_symbol
 _atom_site_label
 _atom_site_symmetry_multiplicity
 _atom_site_fract_x
 _atom_site_fract_y
 _atom_site_fract_z
 _atom_site_occupancy
  Y  Y0  1  0.496070  0.992139  0.244085  1
  Y  Y1  1  0.494992  0.989983  0.756437  1
  Y  Y2  1  0.007861  0.503930  0.244085  1
  Y  Y3  1  0.010017  0.505008  0.756437  1
  Y  Y4  1  0.496070  0.503930  0.244085  1
  Y  Y5  1  0.494992  0.505008  0.756437  1
  Y  Y6  1  0.000000  0.000000  0.248255  1
  Y  Y7  1  0.000000  0.000000  0.750730  1
  Co  Co8  1  0.333333  0.666667  0.001018  1
  Si  Si9  1  0.174541  0.349082  0.001163  1
  Si  Si10  1  0.839491  0.678982  0.998921  1
  Si  Si11  1  0.650918  0.825459  0.001163  1
  Si  Si12  1  0.836545  0.673090  0.496489  1
  Si  Si13  1  0.321018  0.160509  0.998921  1
  Si  Si14  1  0.162994  0.325989  0.502381  1
  Si  Si15  1  0.174541  0.825459  0.001163  1
  Si  Si16  1  0.326910  0.163455  0.496489  1
  Si  Si17  1  0.839491  0.160509  0.998921  1
  Si  Si18  1  0.674011  0.837006  0.502381  1
  Si  Si19  1  0.836545  0.163455  0.496489  1
  Si  Si20  1  0.162994  0.837006  0.502381  1
  Ag  Ag21  1  0.666667  0.333333  0.998933  1
  Ag  Ag22  1  0.666667  0.333333  0.503974  1
  Ag  Ag23  1  0.333333  0.666667  0.498661  1
