# generated using pymatgen
data_La2SmNiSn3Pt2
_symmetry_space_group_name_H-M   'P 1'
_cell_length_a   7.67777549
_cell_length_b   7.67777575
_cell_length_c   4.08728100
_cell_angle_alpha   90.00000000
_cell_angle_beta   90.00000000
_cell_angle_gamma   120.04093836
_symmetry_Int_Tables_number   1
_chemical_formula_structural   La2SmNiSn3Pt2
_chemical_formula_sum   'La2 Sm1 Ni1 Sn3 Pt2'
_cell_volume   208.57231236
_cell_formula_units_Z   1
loop_
 _symmetry_equiv_pos_site_id
 _symmetry_equiv_pos_as_xyz
  1  'x, y, z'
loop_
 _atom_site_type_symbol
 _atom_site_label
 _atom_site_symmetry_multiplicity
 _atom_site_fract_x
 _atom_site_fract_y
 _atom_site_fract_z
 _atom_site_occupancy
  La  La0  1  0.589889  0.999825  0.000000  1
  La  La1  1  0.999825  0.589889  0.000000  1
  Sm  Sm2  1  0.406705  0.406705  0.000000  1
  Ni  Ni3  1  0.002153  0.002153  0.000000  1
  Sn  Sn4  1  0.242936  0.003406  0.500000  1
  Sn  Sn5  1  0.003406  0.242936  0.500000  1
  Sn  Sn6  1  0.756178  0.756178  0.500000  1
  Pt  Pt7  1  0.334460  0.664448  0.500000  1
  Pt  Pt8  1  0.664448  0.334460  0.500000  1
