# generated using pymatgen
data_Dy2Er2SiTc7
_symmetry_space_group_name_H-M   'P 1'
_cell_length_a   5.31975200
_cell_length_b   5.31975168
_cell_length_c   8.88246300
_cell_angle_alpha   90.00000000
_cell_angle_beta   90.00000000
_cell_angle_gamma   120.00000201
_symmetry_Int_Tables_number   1
_chemical_formula_structural   Dy2Er2SiTc7
_chemical_formula_sum   'Dy2 Er2 Si1 Tc7'
_cell_volume   217.69415902
_cell_formula_units_Z   1
loop_
 _symmetry_equiv_pos_site_id
 _symmetry_equiv_pos_as_xyz
  1  'x, y, z'
loop_
 _atom_site_type_symbol
 _atom_site_label
 _atom_site_symmetry_multiplicity
 _atom_site_fract_x
 _atom_site_fract_y
 _atom_site_fract_z
 _atom_site_occupancy
  Dy  Dy0  1  0.333333  0.666667  0.434988  1
  Dy  Dy1  1  0.666667  0.333333  0.565012  1
  Er  Er2  1  0.666667  0.333333  0.935076  1
  Er  Er3  1  0.333333  0.666667  0.064924  1
  Si  Si4  1  0.000000  0.000000  0.500000  1
  Tc  Tc5  1  0.000000  0.000000  0.000000  1
  Tc  Tc6  1  0.830105  0.169895  0.253457  1
  Tc  Tc7  1  0.830105  0.660210  0.253457  1
  Tc  Tc8  1  0.339790  0.169895  0.253457  1
  Tc  Tc9  1  0.169895  0.830105  0.746543  1
  Tc  Tc10  1  0.169895  0.339790  0.746543  1
  Tc  Tc11  1  0.660210  0.830105  0.746543  1
