# generated using pymatgen
data_Tb5Y5(Ir2Ru)2
_symmetry_space_group_name_H-M   'P 1'
_cell_length_a   10.86616332
_cell_length_b   10.86216500
_cell_length_c   6.47213336
_cell_angle_alpha   90.00000000
_cell_angle_beta   90.07456192
_cell_angle_gamma   90.00000000
_symmetry_Int_Tables_number   1
_chemical_formula_structural   Tb5Y5(Ir2Ru)2
_chemical_formula_sum   'Tb10 Y10 Ir8 Ru4'
_cell_volume   763.90563465
_cell_formula_units_Z   2
loop_
 _symmetry_equiv_pos_site_id
 _symmetry_equiv_pos_as_xyz
  1  'x, y, z'
loop_
 _atom_site_type_symbol
 _atom_site_label
 _atom_site_symmetry_multiplicity
 _atom_site_fract_x
 _atom_site_fract_y
 _atom_site_fract_z
 _atom_site_occupancy
  Tb  Tb0  1  0.793154  0.412809  0.121235  1
  Tb  Tb1  1  0.793154  0.587191  0.621235  1
  Tb  Tb2  1  0.913146  0.706711  0.121223  1
  Tb  Tb3  1  0.913146  0.293289  0.621223  1
  Tb  Tb4  1  0.087422  0.706367  0.620814  1
  Tb  Tb5  1  0.087422  0.293633  0.120814  1
  Tb  Tb6  1  0.000009  0.000081  0.500228  1
  Tb  Tb7  1  0.000009  0.999919  0.000228  1
  Tb  Tb8  1  0.499909  0.500154  0.999965  1
  Tb  Tb9  1  0.499909  0.499846  0.499965  1
  Y  Y10  1  0.293254  0.087371  0.378678  1
  Y  Y11  1  0.293254  0.912629  0.878678  1
  Y  Y12  1  0.706592  0.087157  0.878475  1
  Y  Y13  1  0.706592  0.912843  0.378475  1
  Y  Y14  1  0.587068  0.793272  0.878294  1
  Y  Y15  1  0.587068  0.206728  0.378294  1
  Y  Y16  1  0.412959  0.793387  0.378222  1
  Y  Y17  1  0.412959  0.206613  0.878222  1
  Y  Y18  1  0.207129  0.412977  0.621165  1
  Y  Y19  1  0.207129  0.587023  0.121165  1
  Ir  Ir20  1  0.848410  0.152226  0.250124  1
  Ir  Ir21  1  0.848410  0.847774  0.750124  1
  Ir  Ir22  1  0.151721  0.151957  0.750529  1
  Ir  Ir23  1  0.151721  0.848043  0.250529  1
  Ir  Ir24  1  0.652391  0.348493  0.750162  1
  Ir  Ir25  1  0.652391  0.651507  0.250162  1
  Ir  Ir26  1  0.348015  0.348027  0.249779  1
  Ir  Ir27  1  0.348015  0.651973  0.749779  1
  Ru  Ru28  1  0.500040  0.999986  0.124018  1
  Ru  Ru29  1  0.500040  0.000014  0.624018  1
  Ru  Ru30  1  0.998781  0.499942  0.877090  1
  Ru  Ru31  1  0.998781  0.500058  0.377090  1
