# generated using pymatgen
data_Cs4TbSm3(GeSe4)4
_symmetry_space_group_name_H-M   'P 1'
_cell_length_a   6.83919518
_cell_length_b   7.17760396
_cell_length_c   18.78540535
_cell_angle_alpha   90.05040662
_cell_angle_beta   90.05968896
_cell_angle_gamma   89.96914102
_symmetry_Int_Tables_number   1
_chemical_formula_structural   Cs4TbSm3(GeSe4)4
_chemical_formula_sum   'Cs4 Tb1 Sm3 Ge4 Se16'
_cell_volume   922.15641838
_cell_formula_units_Z   1
loop_
 _symmetry_equiv_pos_site_id
 _symmetry_equiv_pos_as_xyz
  1  'x, y, z'
loop_
 _atom_site_type_symbol
 _atom_site_label
 _atom_site_symmetry_multiplicity
 _atom_site_fract_x
 _atom_site_fract_y
 _atom_site_fract_z
 _atom_site_occupancy
  Cs  Cs0  1  0.995409  0.006664  0.031173  1
  Cs  Cs1  1  0.504655  0.993481  0.531725  1
  Cs  Cs2  1  0.495321  0.493329  0.968260  1
  Cs  Cs3  1  0.005239  0.506701  0.468693  1
  Tb  Tb4  1  0.207453  0.519114  0.727255  1
  Sm  Sm5  1  0.293893  0.483545  0.227291  1
  Sm  Sm6  1  0.706238  0.983346  0.272679  1
  Sm  Sm7  1  0.793039  0.016676  0.772402  1
  Ge  Ge8  1  0.289599  0.981669  0.832614  1
  Ge  Ge9  1  0.210315  0.018705  0.333407  1
  Ge  Ge10  1  0.789693  0.518798  0.166615  1
  Ge  Ge11  1  0.710286  0.481574  0.667322  1
  Se  Se12  1  0.401573  0.904471  0.716286  1
  Se  Se13  1  0.098448  0.090637  0.216660  1
  Se  Se14  1  0.901635  0.590554  0.283413  1
  Se  Se15  1  0.591304  0.408238  0.782876  1
  Se  Se16  1  0.096514  0.257659  0.844741  1
  Se  Se17  1  0.404885  0.744267  0.346670  1
  Se  Se18  1  0.595395  0.244259  0.153378  1
  Se  Se19  1  0.908661  0.753592  0.654383  1
  Se  Se20  1  0.055429  0.740526  0.853255  1
  Se  Se21  1  0.446341  0.258204  0.354423  1
  Se  Se22  1  0.553557  0.758347  0.145656  1
  Se  Se23  1  0.949658  0.244704  0.646944  1
  Se  Se24  1  0.431738  0.486350  0.592903  1
  Se  Se25  1  0.064225  0.514311  0.090867  1
  Se  Se26  1  0.935778  0.014395  0.409189  1
  Se  Se27  1  0.563720  0.985885  0.908918  1
