# generated using pymatgen
data_Ti3Nb7N12
_symmetry_space_group_name_H-M   'P 1'
_cell_length_a   5.22933300
_cell_length_b   5.22933392
_cell_length_c   10.24415800
_cell_angle_alpha   90.00000000
_cell_angle_beta   90.00000000
_cell_angle_gamma   120.00000049
_symmetry_Int_Tables_number   1
_chemical_formula_structural   Ti3Nb7N12
_chemical_formula_sum   'Ti3 Nb7 N12'
_cell_volume   242.60490147
_cell_formula_units_Z   1
loop_
 _symmetry_equiv_pos_site_id
 _symmetry_equiv_pos_as_xyz
  1  'x, y, z'
loop_
 _atom_site_type_symbol
 _atom_site_label
 _atom_site_symmetry_multiplicity
 _atom_site_fract_x
 _atom_site_fract_y
 _atom_site_fract_z
 _atom_site_occupancy
  Ti  Ti0  1  0.333333  0.666667  0.000000  1
  Ti  Ti1  1  0.333333  0.666667  0.500000  1
  Ti  Ti2  1  0.666667  0.333333  0.500000  1
  Nb  Nb3  1  0.677763  0.678355  0.748459  1
  Nb  Nb4  1  0.321645  0.999408  0.748459  1
  Nb  Nb5  1  0.000592  0.322237  0.748459  1
  Nb  Nb6  1  0.321645  0.322237  0.251541  1
  Nb  Nb7  1  0.677763  0.999408  0.251541  1
  Nb  Nb8  1  0.000592  0.678355  0.251541  1
  Nb  Nb9  1  0.666667  0.333333  0.000000  1
  N  N10  1  0.652327  0.652433  0.380978  1
  N  N11  1  0.347567  0.999894  0.380978  1
  N  N12  1  0.000106  0.347673  0.380978  1
  N  N13  1  0.347567  0.347673  0.619022  1
  N  N14  1  0.652327  0.999894  0.619022  1
  N  N15  1  0.000106  0.652433  0.619022  1
  N  N16  1  0.340736  0.345509  0.879098  1
  N  N17  1  0.654491  0.995226  0.879098  1
  N  N18  1  0.004774  0.659264  0.879098  1
  N  N19  1  0.654491  0.659264  0.120902  1
  N  N20  1  0.340736  0.995226  0.120902  1
  N  N21  1  0.004774  0.345509  0.120902  1
