# generated using pymatgen
data_Ho6Er3Mg(BiAu2)2
_symmetry_space_group_name_H-M   'P 1'
_cell_length_a   8.71087842
_cell_length_b   8.71087934
_cell_length_c   8.70904511
_cell_angle_alpha   125.65177933
_cell_angle_beta   125.65419178
_cell_angle_gamma   80.47349200
_symmetry_Int_Tables_number   1
_chemical_formula_structural   Ho6Er3Mg(BiAu2)2
_chemical_formula_sum   'Ho6 Er3 Mg1 Bi2 Au4'
_cell_volume   420.85539601
_cell_formula_units_Z   1
loop_
 _symmetry_equiv_pos_site_id
 _symmetry_equiv_pos_as_xyz
  1  'x, y, z'
loop_
 _atom_site_type_symbol
 _atom_site_label
 _atom_site_symmetry_multiplicity
 _atom_site_fract_x
 _atom_site_fract_y
 _atom_site_fract_z
 _atom_site_occupancy
  Ho  Ho0  1  0.523069  0.711131  0.514864  1
  Ho  Ho1  1  0.196266  0.008205  0.485136  1
  Ho  Ho2  1  0.991751  0.476933  0.187940  1
  Ho  Ho3  1  0.288994  0.803811  0.812060  1
  Ho  Ho4  1  0.477083  0.288979  0.485170  1
  Ho  Ho5  1  0.803810  0.991914  0.514830  1
  Er  Er6  1  0.499916  0.499916  0.000000  1
  Er  Er7  1  0.008301  0.523050  0.811565  1
  Er  Er8  1  0.711486  0.196736  0.188435  1
  Mg  Mg9  1  0.999973  0.999973  0.000000  1
  Bi  Bi10  1  0.745901  0.745901  0.000000  1
  Bi  Bi11  1  0.254141  0.254141  0.000000  1
  Au  Au12  1  0.634953  0.141577  0.776798  1
  Au  Au13  1  0.364777  0.858154  0.223202  1
  Au  Au14  1  0.141219  0.365019  0.506658  1
  Au  Au15  1  0.858361  0.634561  0.493342  1
