# generated using pymatgen
data_HoTh5PtBr15
_symmetry_space_group_name_H-M   'P 1'
_cell_length_a   10.19134333
_cell_length_b   10.19134368
_cell_length_c   10.19134349
_cell_angle_alpha   109.93338901
_cell_angle_beta   109.24062967
_cell_angle_gamma   109.24063470
_symmetry_Int_Tables_number   1
_chemical_formula_structural   HoTh5PtBr15
_chemical_formula_sum   'Ho1 Th5 Pt1 Br15'
_cell_volume   814.80035873
_cell_formula_units_Z   1
loop_
 _symmetry_equiv_pos_site_id
 _symmetry_equiv_pos_as_xyz
  1  'x, y, z'
loop_
 _atom_site_type_symbol
 _atom_site_label
 _atom_site_symmetry_multiplicity
 _atom_site_fract_x
 _atom_site_fract_y
 _atom_site_fract_z
 _atom_site_occupancy
  Ho  Ho0  1  0.000000  0.241864  0.241864  1
  Th  Th1  1  0.000000  0.750735  0.750735  1
  Th  Th2  1  0.242291  0.003797  0.246089  1
  Th  Th3  1  0.757709  0.003797  0.761506  1
  Th  Th4  1  0.242291  0.246089  0.003797  1
  Th  Th5  1  0.757709  0.761506  0.003797  1
  Pt  Pt6  1  0.000000  0.995678  0.995678  1
  Br  Br7  1  0.498016  0.248724  0.248724  1
  Br  Br8  1  0.501984  0.750708  0.750708  1
  Br  Br9  1  0.000000  0.248724  0.750708  1
  Br  Br10  1  0.000000  0.750708  0.248724  1
  Br  Br11  1  0.242032  0.492851  0.250819  1
  Br  Br12  1  0.757968  0.008788  0.250819  1
  Br  Br13  1  0.750736  0.501837  0.751102  1
  Br  Br14  1  0.249264  0.000366  0.751102  1
  Br  Br15  1  0.242032  0.250819  0.492851  1
  Br  Br16  1  0.750736  0.751102  0.501837  1
  Br  Br17  1  0.757968  0.250819  0.008788  1
  Br  Br18  1  0.249264  0.751102  0.000366  1
  Br  Br19  1  0.000000  0.495198  0.495198  1
  Br  Br20  1  0.500000  0.997393  0.497393  1
  Br  Br21  1  0.500000  0.497393  0.997393  1
