# generated using pymatgen
data_HfPa5Al16Rh7
_symmetry_space_group_name_H-M   'P 1'
_cell_length_a   8.79232938
_cell_length_b   8.90624226
_cell_length_c   8.90624336
_cell_angle_alpha   59.15559177
_cell_angle_beta   60.42221265
_cell_angle_gamma   60.42220283
_symmetry_Int_Tables_number   1
_chemical_formula_structural   HfPa5Al16Rh7
_chemical_formula_sum   'Hf1 Pa5 Al16 Rh7'
_cell_volume   492.98954565
_cell_formula_units_Z   1
loop_
 _symmetry_equiv_pos_site_id
 _symmetry_equiv_pos_as_xyz
  1  'x, y, z'
loop_
 _atom_site_type_symbol
 _atom_site_label
 _atom_site_symmetry_multiplicity
 _atom_site_fract_x
 _atom_site_fract_y
 _atom_site_fract_z
 _atom_site_occupancy
  Hf  Hf0  1  0.700170  0.299830  0.299830  1
  Pa  Pa1  1  0.679729  0.320271  0.679582  1
  Pa  Pa2  1  0.679729  0.679582  0.320271  1
  Pa  Pa3  1  0.300355  0.699645  0.699645  1
  Pa  Pa4  1  0.320418  0.679582  0.320271  1
  Pa  Pa5  1  0.320418  0.320271  0.679582  1
  Al  Al6  1  0.646438  0.118987  0.118987  1
  Al  Al7  1  0.115770  0.645428  0.123033  1
  Al  Al8  1  0.115770  0.123033  0.645428  1
  Al  Al9  1  0.115588  0.118987  0.118987  1
  Al  Al10  1  0.354572  0.884230  0.884230  1
  Al  Al11  1  0.881013  0.353562  0.884412  1
  Al  Al12  1  0.881013  0.884412  0.353562  1
  Al  Al13  1  0.876967  0.884230  0.884230  1
  Al  Al14  1  0.009369  0.326484  0.326484  1
  Al  Al15  1  0.327475  0.017902  0.327146  1
  Al  Al16  1  0.327475  0.327146  0.017902  1
  Al  Al17  1  0.337662  0.326484  0.326484  1
  Al  Al18  1  0.982098  0.672525  0.672525  1
  Al  Al19  1  0.673516  0.990631  0.662338  1
  Al  Al20  1  0.673516  0.662338  0.990631  1
  Al  Al21  1  0.672854  0.672525  0.672525  1
  Rh  Rh22  1  0.999335  0.000665  0.000665  1
  Rh  Rh23  1  0.502243  0.997757  0.997757  1
  Rh  Rh24  1  0.499954  0.997822  0.500046  1
  Rh  Rh25  1  0.499954  0.500046  0.997822  1
  Rh  Rh26  1  0.002243  0.497757  0.497757  1
  Rh  Rh27  1  0.002178  0.500046  0.997822  1
  Rh  Rh28  1  0.002178  0.997822  0.500046  1
