# generated using pymatgen
data_ErLu3(TiIr)4
_symmetry_space_group_name_H-M   'P 1'
_cell_length_a   4.32136200
_cell_length_b   6.82744549
_cell_length_c   8.04594351
_cell_angle_alpha   90.12455146
_cell_angle_beta   90.00000000
_cell_angle_gamma   90.00000000
_symmetry_Int_Tables_number   1
_chemical_formula_structural   ErLu3(TiIr)4
_chemical_formula_sum   'Er1 Lu3 Ti4 Ir4'
_cell_volume   237.38585815
_cell_formula_units_Z   1
loop_
 _symmetry_equiv_pos_site_id
 _symmetry_equiv_pos_as_xyz
  1  'x, y, z'
loop_
 _atom_site_type_symbol
 _atom_site_label
 _atom_site_symmetry_multiplicity
 _atom_site_fract_x
 _atom_site_fract_y
 _atom_site_fract_z
 _atom_site_occupancy
  Er  Er0  1  0.750000  0.516251  0.818585  1
  Lu  Lu1  1  0.250000  0.982491  0.318861  1
  Lu  Lu2  1  0.250000  0.482292  0.182188  1
  Lu  Lu3  1  0.750000  0.017716  0.680724  1
  Ti  Ti4  1  0.250000  0.359328  0.564916  1
  Ti  Ti5  1  0.250000  0.859437  0.933972  1
  Ti  Ti6  1  0.750000  0.641860  0.431587  1
  Ti  Ti7  1  0.750000  0.140572  0.068203  1
  Ir  Ir8  1  0.250000  0.222888  0.902474  1
  Ir  Ir9  1  0.250000  0.725248  0.597325  1
  Ir  Ir10  1  0.750000  0.776091  0.100194  1
  Ir  Ir11  1  0.750000  0.275828  0.400972  1
