# generated using pymatgen
data_NdZn(InIr4)2
_symmetry_space_group_name_H-M   'P 1'
_cell_length_a   5.29451600
_cell_length_b   8.80761200
_cell_length_c   8.80761200
_cell_angle_alpha   90.00000000
_cell_angle_beta   90.00000000
_cell_angle_gamma   90.00000000
_symmetry_Int_Tables_number   1
_chemical_formula_structural   NdZn(InIr4)2
_chemical_formula_sum   'Nd2 Zn2 In4 Ir16'
_cell_volume   410.71693848
_cell_formula_units_Z   2
loop_
 _symmetry_equiv_pos_site_id
 _symmetry_equiv_pos_as_xyz
  1  'x, y, z'
loop_
 _atom_site_type_symbol
 _atom_site_label
 _atom_site_symmetry_multiplicity
 _atom_site_fract_x
 _atom_site_fract_y
 _atom_site_fract_z
 _atom_site_occupancy
  Nd  Nd0  1  0.000000  0.500000  0.500000  1
  Nd  Nd1  1  0.000000  0.000000  0.000000  1
  Zn  Zn2  1  0.500000  0.000000  0.500000  1
  Zn  Zn3  1  0.500000  0.500000  0.000000  1
  In  In4  1  0.000000  0.623146  0.123146  1
  In  In5  1  0.000000  0.376854  0.876854  1
  In  In6  1  0.000000  0.876854  0.623146  1
  In  In7  1  0.000000  0.123146  0.376854  1
  Ir  Ir8  1  0.762704  0.176689  0.676689  1
  Ir  Ir9  1  0.762704  0.823311  0.323311  1
  Ir  Ir10  1  0.762704  0.323311  0.176689  1
  Ir  Ir11  1  0.762704  0.676689  0.823311  1
  Ir  Ir12  1  0.237296  0.823311  0.323311  1
  Ir  Ir13  1  0.237296  0.176689  0.676689  1
  Ir  Ir14  1  0.237296  0.676689  0.823311  1
  Ir  Ir15  1  0.237296  0.323311  0.176689  1
  Ir  Ir16  1  0.500000  0.704735  0.566492  1
  Ir  Ir17  1  0.500000  0.295265  0.433508  1
  Ir  Ir18  1  0.500000  0.795265  0.066492  1
  Ir  Ir19  1  0.500000  0.204735  0.933508  1
  Ir  Ir20  1  0.500000  0.566492  0.295265  1
  Ir  Ir21  1  0.500000  0.433508  0.704735  1
  Ir  Ir22  1  0.500000  0.066492  0.204735  1
  Ir  Ir23  1  0.500000  0.933508  0.795265  1
