# generated using pymatgen
data_Dy5Ho(Tm2Sb3)2
_symmetry_space_group_name_H-M   'P 1'
_cell_length_a   6.25112700
_cell_length_b   8.95198335
_cell_length_c   8.95003408
_cell_angle_alpha   120.00720847
_cell_angle_beta   90.00000000
_cell_angle_gamma   90.00000000
_symmetry_Int_Tables_number   1
_chemical_formula_structural   Dy5Ho(Tm2Sb3)2
_chemical_formula_sum   'Dy5 Ho1 Tm4 Sb6'
_cell_volume   433.71192021
_cell_formula_units_Z   1
loop_
 _symmetry_equiv_pos_site_id
 _symmetry_equiv_pos_as_xyz
  1  'x, y, z'
loop_
 _atom_site_type_symbol
 _atom_site_label
 _atom_site_symmetry_multiplicity
 _atom_site_fract_x
 _atom_site_fract_y
 _atom_site_fract_z
 _atom_site_occupancy
  Dy  Dy0  1  0.750001  0.753251  0.753259  1
  Dy  Dy1  1  0.750001  0.999992  0.246741  1
  Dy  Dy2  1  0.249999  0.753242  0.000000  1
  Dy  Dy3  1  0.250001  0.246772  0.246737  1
  Dy  Dy4  1  0.250001  0.000036  0.753263  1
  Ho  Ho5  1  0.749999  0.246704  0.000000  1
  Tm  Tm6  1  0.499985  0.333329  0.666667  1
  Tm  Tm7  1  0.499985  0.666662  0.333333  1
  Tm  Tm8  1  0.000013  0.666666  0.333333  1
  Tm  Tm9  1  0.000013  0.333333  0.666667  1
  Sb  Sb10  1  0.749999  0.610323  0.000000  1
  Sb  Sb11  1  0.750001  0.389596  0.389491  1
  Sb  Sb12  1  0.750001  0.000105  0.610509  1
  Sb  Sb13  1  0.249999  0.389595  0.000000  1
  Sb  Sb14  1  0.250001  0.610391  0.610387  1
  Sb  Sb15  1  0.250001  0.000004  0.389613  1
