# generated using pymatgen
data_Tb12Ru7
_symmetry_space_group_name_H-M   'P 1'
_cell_length_a   11.38940400
_cell_length_b   8.41436725
_cell_length_c   11.24459745
_cell_angle_alpha   56.69018737
_cell_angle_beta   90.00000000
_cell_angle_gamma   90.00000000
_symmetry_Int_Tables_number   1
_chemical_formula_structural   Tb12Ru7
_chemical_formula_sum   'Tb24 Ru14'
_cell_volume   900.58290596
_cell_formula_units_Z   2
loop_
 _symmetry_equiv_pos_site_id
 _symmetry_equiv_pos_as_xyz
  1  'x, y, z'
loop_
 _atom_site_type_symbol
 _atom_site_label
 _atom_site_symmetry_multiplicity
 _atom_site_fract_x
 _atom_site_fract_y
 _atom_site_fract_z
 _atom_site_occupancy
  Tb  Tb0  1  0.706000  0.243075  0.530273  1
  Tb  Tb1  1  0.206000  0.756925  0.969727  1
  Tb  Tb2  1  0.846386  0.507479  0.654328  1
  Tb  Tb3  1  0.346386  0.492521  0.845672  1
  Tb  Tb4  1  0.153614  0.492521  0.345672  1
  Tb  Tb5  1  0.653614  0.507479  0.154328  1
  Tb  Tb6  1  0.006448  0.854079  0.360875  1
  Tb  Tb7  1  0.506448  0.145921  0.139125  1
  Tb  Tb8  1  0.993552  0.145921  0.639125  1
  Tb  Tb9  1  0.493552  0.854079  0.860875  1
  Tb  Tb10  1  0.794000  0.243075  0.030273  1
  Tb  Tb11  1  0.294000  0.756925  0.469727  1
  Tb  Tb12  1  0.931060  0.778362  0.089387  1
  Tb  Tb13  1  0.431060  0.221638  0.410613  1
  Tb  Tb14  1  0.068940  0.221638  0.910613  1
  Tb  Tb15  1  0.568940  0.778362  0.589387  1
  Tb  Tb16  1  0.301804  0.241600  0.676202  1
  Tb  Tb17  1  0.801804  0.758400  0.823798  1
  Tb  Tb18  1  0.698196  0.758400  0.323798  1
  Tb  Tb19  1  0.198196  0.241600  0.176202  1
  Tb  Tb20  1  0.924581  0.281795  0.293069  1
  Tb  Tb21  1  0.424581  0.718205  0.206931  1
  Tb  Tb22  1  0.075419  0.718205  0.706931  1
  Tb  Tb23  1  0.575419  0.281795  0.793069  1
  Ru  Ru24  1  0.500000  0.500000  0.500000  1
  Ru  Ru25  1  0.000000  0.500000  0.000000  1
  Ru  Ru26  1  0.646345  0.925282  0.033974  1
  Ru  Ru27  1  0.146345  0.074718  0.466026  1
  Ru  Ru28  1  0.353655  0.074718  0.966026  1
  Ru  Ru29  1  0.853655  0.925282  0.533974  1
  Ru  Ru30  1  0.398193  0.483817  0.102778  1
  Ru  Ru31  1  0.898193  0.516183  0.397222  1
  Ru  Ru32  1  0.601807  0.516183  0.897222  1
  Ru  Ru33  1  0.101807  0.483817  0.602778  1
  Ru  Ru34  1  0.819276  0.096607  0.852105  1
  Ru  Ru35  1  0.319276  0.903393  0.647895  1
  Ru  Ru36  1  0.180724  0.903393  0.147895  1
  Ru  Ru37  1  0.680724  0.096607  0.352105  1
