# generated using pymatgen
data_DyHo3(NiAs)4
_symmetry_space_group_name_H-M   'P 1'
_cell_length_a   4.03916500
_cell_length_b   4.03916618
_cell_length_c   15.49924600
_cell_angle_alpha   90.00000000
_cell_angle_beta   90.00000000
_cell_angle_gamma   120.00001488
_symmetry_Int_Tables_number   1
_chemical_formula_structural   DyHo3(NiAs)4
_chemical_formula_sum   'Dy1 Ho3 Ni4 As4'
_cell_volume   218.99008595
_cell_formula_units_Z   1
loop_
 _symmetry_equiv_pos_site_id
 _symmetry_equiv_pos_as_xyz
  1  'x, y, z'
loop_
 _atom_site_type_symbol
 _atom_site_label
 _atom_site_symmetry_multiplicity
 _atom_site_fract_x
 _atom_site_fract_y
 _atom_site_fract_z
 _atom_site_occupancy
  Dy  Dy0  1  0.000000  0.000000  0.000000  1
  Ho  Ho1  1  0.000000  0.000000  0.249983  1
  Ho  Ho2  1  0.000000  0.000000  0.750017  1
  Ho  Ho3  1  0.000000  0.000000  0.500000  1
  Ni  Ni4  1  0.333333  0.666667  0.134746  1
  Ni  Ni5  1  0.666667  0.333333  0.865254  1
  Ni  Ni6  1  0.666667  0.333333  0.634343  1
  Ni  Ni7  1  0.333333  0.666667  0.365657  1
  As  As8  1  0.333333  0.666667  0.620480  1
  As  As9  1  0.666667  0.333333  0.379520  1
  As  As10  1  0.666667  0.333333  0.120988  1
  As  As11  1  0.333333  0.666667  0.879012  1
