# generated using pymatgen
data_CeDy3Nb2(B2Ru5)2
_symmetry_space_group_name_H-M   'P 1'
_cell_length_a   9.67286713
_cell_length_b   9.67286713
_cell_length_c   3.15280500
_cell_angle_alpha   90.00000000
_cell_angle_beta   90.00000000
_cell_angle_gamma   90.05533594
_symmetry_Int_Tables_number   1
_chemical_formula_structural   CeDy3Nb2(B2Ru5)2
_chemical_formula_sum   'Ce1 Dy3 Nb2 B4 Ru10'
_cell_volume   294.99003964
_cell_formula_units_Z   1
loop_
 _symmetry_equiv_pos_site_id
 _symmetry_equiv_pos_as_xyz
  1  'x, y, z'
loop_
 _atom_site_type_symbol
 _atom_site_label
 _atom_site_symmetry_multiplicity
 _atom_site_fract_x
 _atom_site_fract_y
 _atom_site_fract_z
 _atom_site_occupancy
  Ce  Ce0  1  0.674971  0.174971  0.000000  1
  Dy  Dy1  1  0.825059  0.674701  0.000000  1
  Dy  Dy2  1  0.174701  0.325059  0.000000  1
  Dy  Dy3  1  0.324593  0.824593  0.000000  1
  Nb  Nb4  1  0.497958  0.503421  0.000000  1
  Nb  Nb5  1  0.003421  0.997958  0.000000  1
  B  B6  1  0.621535  0.876070  0.000000  1
  B  B7  1  0.376070  0.121535  0.000000  1
  B  B8  1  0.121451  0.621451  0.000000  1
  B  B9  1  0.880907  0.380907  0.000000  1
  Ru  Ru10  1  0.570507  0.719240  0.500000  1
  Ru  Ru11  1  0.430100  0.282030  0.500000  1
  Ru  Ru12  1  0.070547  0.780757  0.500000  1
  Ru  Ru13  1  0.927006  0.218111  0.500000  1
  Ru  Ru14  1  0.280757  0.570547  0.500000  1
  Ru  Ru15  1  0.718111  0.427006  0.500000  1
  Ru  Ru16  1  0.219240  0.070507  0.500000  1
  Ru  Ru17  1  0.782030  0.930100  0.500000  1
  Ru  Ru18  1  0.501676  0.001676  0.500000  1
  Ru  Ru19  1  0.999359  0.499359  0.500000  1
