# generated using pymatgen
data_SmSb3Pb4O13
_symmetry_space_group_name_H-M   'P 1'
_cell_length_a   7.72949357
_cell_length_b   7.72949290
_cell_length_c   7.72949291
_cell_angle_alpha   59.51829937
_cell_angle_beta   59.51830382
_cell_angle_gamma   59.51830676
_symmetry_Int_Tables_number   1
_chemical_formula_structural   SmSb3Pb4O13
_chemical_formula_sum   'Sm1 Sb3 Pb4 O13'
_cell_volume   322.96436152
_cell_formula_units_Z   1
loop_
 _symmetry_equiv_pos_site_id
 _symmetry_equiv_pos_as_xyz
  1  'x, y, z'
loop_
 _atom_site_type_symbol
 _atom_site_label
 _atom_site_symmetry_multiplicity
 _atom_site_fract_x
 _atom_site_fract_y
 _atom_site_fract_z
 _atom_site_occupancy
  Sm  Sm0  1  0.500195  0.500195  0.500195  1
  Sb  Sb1  1  0.001107  0.500015  0.500015  1
  Sb  Sb2  1  0.500015  0.500015  0.001107  1
  Sb  Sb3  1  0.500015  0.001107  0.500015  1
  Pb  Pb4  1  0.999170  0.999170  0.999170  1
  Pb  Pb5  1  0.496580  0.003862  0.003862  1
  Pb  Pb6  1  0.003862  0.003862  0.496580  1
  Pb  Pb7  1  0.003862  0.496580  0.003862  1
  O  O8  1  0.864873  0.411925  0.411925  1
  O  O9  1  0.416447  0.812176  0.812176  1
  O  O10  1  0.411925  0.411925  0.864873  1
  O  O11  1  0.812176  0.812176  0.416447  1
  O  O12  1  0.812176  0.416447  0.812176  1
  O  O13  1  0.411925  0.864873  0.411925  1
  O  O14  1  0.141373  0.584352  0.584352  1
  O  O15  1  0.583629  0.188054  0.188054  1
  O  O16  1  0.584352  0.584352  0.141373  1
  O  O17  1  0.188054  0.188054  0.583629  1
  O  O18  1  0.188054  0.583629  0.188054  1
  O  O19  1  0.584352  0.141373  0.584352  1
  O  O20  1  0.120858  0.120858  0.120858  1
