# generated using pymatgen
data_TbLu2Al12RuRh3
_symmetry_space_group_name_H-M   'P 1'
_cell_length_a   8.79819867
_cell_length_b   8.77132278
_cell_length_c   9.49955000
_cell_angle_alpha   90.00000000
_cell_angle_beta   90.00000000
_cell_angle_gamma   119.89900657
_symmetry_Int_Tables_number   1
_chemical_formula_structural   TbLu2Al12RuRh3
_chemical_formula_sum   'Tb2 Lu4 Al24 Ru2 Rh6'
_cell_volume   635.52639792
_cell_formula_units_Z   2
loop_
 _symmetry_equiv_pos_site_id
 _symmetry_equiv_pos_as_xyz
  1  'x, y, z'
loop_
 _atom_site_type_symbol
 _atom_site_label
 _atom_site_symmetry_multiplicity
 _atom_site_fract_x
 _atom_site_fract_y
 _atom_site_fract_z
 _atom_site_occupancy
  Tb  Tb0  1  0.191296  0.808740  0.750000  1
  Tb  Tb1  1  0.191296  0.382557  0.750000  1
  Lu  Lu2  1  0.387448  0.193723  0.250000  1
  Lu  Lu3  1  0.806894  0.194178  0.250000  1
  Lu  Lu4  1  0.806894  0.612716  0.250000  1
  Lu  Lu5  1  0.613887  0.806944  0.750000  1
  Al  Al6  1  0.438867  0.876494  0.250000  1
  Al  Al7  1  0.123462  0.561731  0.250000  1
  Al  Al8  1  0.438867  0.562373  0.250000  1
  Al  Al9  1  0.562946  0.124576  0.750000  1
  Al  Al10  1  0.874670  0.437335  0.750000  1
  Al  Al11  1  0.562946  0.438369  0.750000  1
  Al  Al12  1  0.163387  0.837129  0.421148  1
  Al  Al13  1  0.163387  0.326260  0.421148  1
  Al  Al14  1  0.674055  0.837028  0.422363  1
  Al  Al15  1  0.835490  0.162526  0.575932  1
  Al  Al16  1  0.835490  0.672962  0.575932  1
  Al  Al17  1  0.327738  0.163868  0.575094  1
  Al  Al18  1  0.835490  0.162526  0.924068  1
  Al  Al19  1  0.835490  0.672962  0.924068  1
  Al  Al20  1  0.327738  0.163868  0.924906  1
  Al  Al21  1  0.163387  0.837129  0.078852  1
  Al  Al22  1  0.163387  0.326260  0.078852  1
  Al  Al23  1  0.674055  0.837028  0.077637  1
  Al  Al24  1  0.333868  0.666935  0.528876  1
  Al  Al25  1  0.667217  0.333608  0.467535  1
  Al  Al26  1  0.667217  0.333608  0.032465  1
  Al  Al27  1  0.333868  0.666935  0.971124  1
  Al  Al28  1  0.000342  0.000171  0.250000  1
  Al  Al29  1  0.996118  0.998059  0.750000  1
  Ru  Ru30  1  0.000089  0.000045  0.499980  1
  Ru  Ru31  1  0.000089  0.000045  0.000020  1
  Rh  Rh32  1  0.501132  0.000940  0.499195  1
  Rh  Rh33  1  0.999048  0.499524  0.498779  1
  Rh  Rh34  1  0.501132  0.500192  0.499195  1
  Rh  Rh35  1  0.501132  0.000940  0.000805  1
  Rh  Rh36  1  0.999048  0.499524  0.001221  1
  Rh  Rh37  1  0.501132  0.500192  0.000805  1
