# generated using pymatgen
data_Tb11Lu(In2Au)4
_symmetry_space_group_name_H-M   'P 1'
_cell_length_a   13.27121288
_cell_length_b   13.27121220
_cell_length_c   3.79494200
_cell_angle_alpha   90.00000000
_cell_angle_beta   90.00000000
_cell_angle_gamma   110.36667444
_symmetry_Int_Tables_number   1
_chemical_formula_structural   Tb11Lu(In2Au)4
_chemical_formula_sum   'Tb11 Lu1 In8 Au4'
_cell_volume   626.60013221
_cell_formula_units_Z   1
loop_
 _symmetry_equiv_pos_site_id
 _symmetry_equiv_pos_as_xyz
  1  'x, y, z'
loop_
 _atom_site_type_symbol
 _atom_site_label
 _atom_site_symmetry_multiplicity
 _atom_site_fract_x
 _atom_site_fract_y
 _atom_site_fract_z
 _atom_site_occupancy
  Tb  Tb0  1  0.416917  0.072015  0.000000  1
  Tb  Tb1  1  0.583083  0.927985  0.000000  1
  Tb  Tb2  1  0.072015  0.416917  0.000000  1
  Tb  Tb3  1  0.927985  0.583083  0.000000  1
  Tb  Tb4  1  0.162146  0.837854  0.000000  1
  Tb  Tb5  1  0.837854  0.162146  0.000000  1
  Tb  Tb6  1  0.359125  0.640875  0.000000  1
  Tb  Tb7  1  0.640875  0.359125  0.000000  1
  Tb  Tb8  1  0.289927  0.289927  0.000000  1
  Tb  Tb9  1  0.710073  0.710073  0.000000  1
  Tb  Tb10  1  0.000000  0.000000  0.000000  1
  Lu  Lu11  1  0.500000  0.500000  0.500000  1
  In  In12  1  0.368646  0.852078  0.500000  1
  In  In13  1  0.631354  0.147922  0.500000  1
  In  In14  1  0.852078  0.368646  0.500000  1
  In  In15  1  0.147922  0.631354  0.500000  1
  In  In16  1  0.214069  0.064292  0.500000  1
  In  In17  1  0.785931  0.935708  0.500000  1
  In  In18  1  0.064292  0.214069  0.500000  1
  In  In19  1  0.935708  0.785931  0.500000  1
  Au  Au20  1  0.454200  0.258920  0.500000  1
  Au  Au21  1  0.545800  0.741080  0.500000  1
  Au  Au22  1  0.258920  0.454200  0.500000  1
  Au  Au23  1  0.741080  0.545800  0.500000  1
