# generated using pymatgen
data_Ta2(NbRe8)3
_symmetry_space_group_name_H-M   'P 1'
_cell_length_a   8.41978366
_cell_length_b   8.41182006
_cell_length_c   8.41978275
_cell_angle_alpha   109.47320202
_cell_angle_beta   109.50558515
_cell_angle_gamma   109.47319475
_symmetry_Int_Tables_number   1
_chemical_formula_structural   Ta2(NbRe8)3
_chemical_formula_sum   'Ta2 Nb3 Re24'
_cell_volume   458.84321091
_cell_formula_units_Z   1
loop_
 _symmetry_equiv_pos_site_id
 _symmetry_equiv_pos_as_xyz
  1  'x, y, z'
loop_
 _atom_site_type_symbol
 _atom_site_label
 _atom_site_symmetry_multiplicity
 _atom_site_fract_x
 _atom_site_fract_y
 _atom_site_fract_z
 _atom_site_occupancy
  Ta  Ta0  1  0.364259  0.363946  0.364259  1
  Ta  Ta1  1  0.000313  0.636054  0.000313  1
  Nb  Nb2  1  0.636347  0.000000  0.000332  1
  Nb  Nb3  1  0.000332  0.000000  0.636347  1
  Nb  Nb4  1  0.999573  0.000000  0.999573  1
  Re  Re5  1  0.999828  0.399088  0.682930  1
  Re  Re6  1  0.283842  0.600912  0.600739  1
  Re  Re7  1  0.716912  0.317492  0.317282  1
  Re  Re8  1  0.317080  0.717227  0.317080  1
  Re  Re9  1  0.682878  0.000000  0.398710  1
  Re  Re10  1  0.999791  0.682508  0.399421  1
  Re  Re11  1  0.600739  0.600912  0.283842  1
  Re  Re12  1  0.806135  0.805615  0.183121  1
  Re  Re13  1  0.377507  0.194385  0.000521  1
  Re  Re14  1  0.194285  0.377910  0.000484  1
  Re  Re15  1  0.622042  0.816226  0.622042  1
  Re  Re16  1  0.377100  0.000000  0.193955  1
  Re  Re17  1  0.000484  0.377910  0.194285  1
  Re  Re18  1  0.816375  0.622090  0.622573  1
  Re  Re19  1  0.183121  0.805615  0.806135  1
  Re  Re20  1  0.805816  0.183774  0.805816  1
  Re  Re21  1  0.193955  0.000000  0.377100  1
  Re  Re22  1  0.000521  0.194385  0.377507  1
  Re  Re23  1  0.622573  0.622090  0.816375  1
  Re  Re24  1  0.398710  0.000000  0.682878  1
  Re  Re25  1  0.599851  0.282773  0.599851  1
  Re  Re26  1  0.682930  0.399088  0.999828  1
  Re  Re27  1  0.399421  0.682508  0.999791  1
  Re  Re28  1  0.317282  0.317492  0.716912  1
