# generated using pymatgen
data_Tb3GeP2Ru3
_symmetry_space_group_name_H-M   'P 1'
_cell_length_a   6.92677900
_cell_length_b   6.92677825
_cell_length_c   3.84357200
_cell_angle_alpha   90.00000000
_cell_angle_beta   90.00000000
_cell_angle_gamma   119.99999882
_symmetry_Int_Tables_number   1
_chemical_formula_structural   Tb3GeP2Ru3
_chemical_formula_sum   'Tb3 Ge1 P2 Ru3'
_cell_volume   159.70858940
_cell_formula_units_Z   1
loop_
 _symmetry_equiv_pos_site_id
 _symmetry_equiv_pos_as_xyz
  1  'x, y, z'
loop_
 _atom_site_type_symbol
 _atom_site_label
 _atom_site_symmetry_multiplicity
 _atom_site_fract_x
 _atom_site_fract_y
 _atom_site_fract_z
 _atom_site_occupancy
  Tb  Tb0  1  0.585359  0.000000  0.499999  1
  Tb  Tb1  1  0.414641  0.414641  0.499999  1
  Tb  Tb2  1  0.000000  0.585359  0.499999  1
  Ge  Ge3  1  0.000000  0.000000  0.499999  1
  P  P4  1  0.666668  0.333334  0.000000  1
  P  P5  1  0.333333  0.666666  0.000000  1
  Ru  Ru6  1  0.243882  0.000000  0.000000  1
  Ru  Ru7  1  0.000000  0.243882  0.000000  1
  Ru  Ru8  1  0.756119  0.756118  0.000000  1
