# generated using pymatgen
data_LiTm12Ni4Sn
_symmetry_space_group_name_H-M   'P 1'
_cell_length_a   8.23446743
_cell_length_b   8.23397558
_cell_length_c   8.23440828
_cell_angle_alpha   106.71917709
_cell_angle_beta   110.22306758
_cell_angle_gamma   111.51432103
_symmetry_Int_Tables_number   1
_chemical_formula_structural   LiTm12Ni4Sn
_chemical_formula_sum   'Li1 Tm12 Ni4 Sn1'
_cell_volume   428.96247570
_cell_formula_units_Z   1
loop_
 _symmetry_equiv_pos_site_id
 _symmetry_equiv_pos_as_xyz
  1  'x, y, z'
loop_
 _atom_site_type_symbol
 _atom_site_label
 _atom_site_symmetry_multiplicity
 _atom_site_fract_x
 _atom_site_fract_y
 _atom_site_fract_z
 _atom_site_occupancy
  Li  Li0  1  0.499950  0.499994  0.999951  1
  Tm  Tm1  1  0.698132  0.271203  0.969329  1
  Tm  Tm2  1  0.301880  0.728852  0.030742  1
  Tm  Tm3  1  0.698120  0.728800  0.426926  1
  Tm  Tm4  1  0.301890  0.271135  0.573023  1
  Tm  Tm5  1  0.806179  0.128065  0.321885  1
  Tm  Tm6  1  0.806181  0.484307  0.678114  1
  Tm  Tm7  1  0.193806  0.871935  0.678111  1
  Tm  Tm8  1  0.193809  0.515699  0.321883  1
  Tm  Tm9  1  0.607989  0.790310  0.817688  1
  Tm  Tm10  1  0.972610  0.790317  0.182301  1
  Tm  Tm11  1  0.027374  0.209680  0.817686  1
  Tm  Tm12  1  0.391998  0.209690  0.182299  1
  Ni  Ni13  1  0.848454  0.499980  0.348507  1
  Ni  Ni14  1  0.151591  0.500014  0.651505  1
  Ni  Ni15  1  0.000004  0.124977  0.124989  1
  Ni  Ni16  1  0.000027  0.875049  0.875059  1
  Sn  Sn17  1  0.500005  0.999994  0.500003  1
