# generated using pymatgen
data_DyYFe3Re14C3
_symmetry_space_group_name_H-M   'P 1'
_cell_length_a   6.92576947
_cell_length_b   6.92576973
_cell_length_c   6.92577009
_cell_angle_alpha   82.51111515
_cell_angle_beta   82.51111058
_cell_angle_gamma   82.51110097
_symmetry_Int_Tables_number   1
_chemical_formula_structural   DyYFe3Re14C3
_chemical_formula_sum   'Dy1 Y1 Fe3 Re14 C3'
_cell_volume   324.38219776
_cell_formula_units_Z   1
loop_
 _symmetry_equiv_pos_site_id
 _symmetry_equiv_pos_as_xyz
  1  'x, y, z'
loop_
 _atom_site_type_symbol
 _atom_site_label
 _atom_site_symmetry_multiplicity
 _atom_site_fract_x
 _atom_site_fract_y
 _atom_site_fract_z
 _atom_site_occupancy
  Dy  Dy0  1  0.648693  0.648693  0.648693  1
  Y  Y1  1  0.351325  0.351325  0.351325  1
  Fe  Fe2  1  0.999983  0.999983  0.500008  1
  Fe  Fe3  1  0.500008  0.999983  0.999983  1
  Fe  Fe4  1  0.999983  0.500008  0.999983  1
  Re  Re5  1  0.722188  0.277843  0.999972  1
  Re  Re6  1  0.999972  0.722188  0.277843  1
  Re  Re7  1  0.277843  0.999972  0.722188  1
  Re  Re8  1  0.999972  0.277843  0.722188  1
  Re  Re9  1  0.722188  0.999972  0.277843  1
  Re  Re10  1  0.277843  0.722188  0.999972  1
  Re  Re11  1  0.346460  0.346460  0.860904  1
  Re  Re12  1  0.860904  0.346460  0.346460  1
  Re  Re13  1  0.346460  0.860904  0.346460  1
  Re  Re14  1  0.653581  0.653581  0.139056  1
  Re  Re15  1  0.139056  0.653581  0.653581  1
  Re  Re16  1  0.653581  0.139056  0.653581  1
  Re  Re17  1  0.897781  0.897781  0.897781  1
  Re  Re18  1  0.102176  0.102176  0.102176  1
  C  C19  1  0.500039  0.500039  0.999926  1
  C  C20  1  0.999926  0.500039  0.500039  1
  C  C21  1  0.500039  0.999926  0.500039  1
