# generated using pymatgen
data_Tm6NbCo17P12
_symmetry_space_group_name_H-M   'P 1'
_cell_length_a   3.68367800
_cell_length_b   10.53565800
_cell_length_c   12.21645400
_cell_angle_alpha   90.00000000
_cell_angle_beta   90.00000000
_cell_angle_gamma   90.00000000
_symmetry_Int_Tables_number   1
_chemical_formula_structural   Tm6NbCo17P12
_chemical_formula_sum   'Tm6 Nb1 Co17 P12'
_cell_volume   474.12023267
_cell_formula_units_Z   1
loop_
 _symmetry_equiv_pos_site_id
 _symmetry_equiv_pos_as_xyz
  1  'x, y, z'
loop_
 _atom_site_type_symbol
 _atom_site_label
 _atom_site_symmetry_multiplicity
 _atom_site_fract_x
 _atom_site_fract_y
 _atom_site_fract_z
 _atom_site_occupancy
  Tm  Tm0  1  0.000000  0.500000  0.527448  1
  Tm  Tm1  1  0.500000  0.000000  0.477018  1
  Tm  Tm2  1  0.500000  0.819992  0.207266  1
  Tm  Tm3  1  0.500000  0.180008  0.207266  1
  Tm  Tm4  1  0.000000  0.682555  0.795939  1
  Tm  Tm5  1  0.000000  0.317445  0.795939  1
  Nb  Nb6  1  0.500000  0.500000  0.155533  1
  Co  Co7  1  0.000000  0.000000  0.837687  1
  Co  Co8  1  0.500000  0.500000  0.701637  1
  Co  Co9  1  0.000000  0.000000  0.296913  1
  Co  Co10  1  0.000000  0.500000  0.983961  1
  Co  Co11  1  0.500000  0.000000  0.014536  1
  Co  Co12  1  0.500000  0.329540  0.988767  1
  Co  Co13  1  0.500000  0.670460  0.988767  1
  Co  Co14  1  0.000000  0.163603  0.003989  1
  Co  Co15  1  0.000000  0.836397  0.003989  1
  Co  Co16  1  0.500000  0.295150  0.433515  1
  Co  Co17  1  0.500000  0.704850  0.433515  1
  Co  Co18  1  0.000000  0.202000  0.569675  1
  Co  Co19  1  0.000000  0.798000  0.569675  1
  Co  Co20  1  0.500000  0.879082  0.707730  1
  Co  Co21  1  0.500000  0.120918  0.707730  1
  Co  Co22  1  0.000000  0.623746  0.295067  1
  Co  Co23  1  0.000000  0.376254  0.295067  1
  P  P24  1  0.500000  0.500000  0.879943  1
  P  P25  1  0.000000  0.000000  0.117946  1
  P  P26  1  0.500000  0.500000  0.357405  1
  P  P27  1  0.000000  0.000000  0.654107  1
  P  P28  1  0.500000  0.310772  0.617863  1
  P  P29  1  0.500000  0.689228  0.617863  1
  P  P30  1  0.000000  0.187151  0.385434  1
  P  P31  1  0.000000  0.812849  0.385434  1
  P  P32  1  0.500000  0.851070  0.889213  1
  P  P33  1  0.500000  0.148930  0.889213  1
  P  P34  1  0.000000  0.661690  0.103475  1
  P  P35  1  0.000000  0.338310  0.103475  1
