# generated using pymatgen
data_La7Pr(Ho3Si4)4
_symmetry_space_group_name_H-M   'P 1'
_cell_length_a   7.56434723
_cell_length_b   7.84569034
_cell_length_c   14.90344499
_cell_angle_alpha   90.03221143
_cell_angle_beta   90.02649329
_cell_angle_gamma   89.99011371
_symmetry_Int_Tables_number   1
_chemical_formula_structural   La7Pr(Ho3Si4)4
_chemical_formula_sum   'La7 Pr1 Ho12 Si16'
_cell_volume   884.48234120
_cell_formula_units_Z   1
loop_
 _symmetry_equiv_pos_site_id
 _symmetry_equiv_pos_as_xyz
  1  'x, y, z'
loop_
 _atom_site_type_symbol
 _atom_site_label
 _atom_site_symmetry_multiplicity
 _atom_site_fract_x
 _atom_site_fract_y
 _atom_site_fract_z
 _atom_site_occupancy
  La  La0  1  0.476740  0.678109  0.401805  1
  La  La1  1  0.523381  0.321992  0.902000  1
  La  La2  1  0.023239  0.178021  0.597991  1
  La  La3  1  0.023051  0.177853  0.902316  1
  La  La4  1  0.523224  0.322001  0.598023  1
  La  La5  1  0.476438  0.678175  0.098152  1
  La  La6  1  0.976679  0.822033  0.401960  1
  Pr  Pr7  1  0.976560  0.821348  0.098405  1
  Ho  Ho8  1  0.649949  0.990505  0.249852  1
  Ho  Ho9  1  0.149643  0.509551  0.249827  1
  Ho  Ho10  1  0.850169  0.490662  0.750045  1
  Ho  Ho11  1  0.350225  0.009373  0.749938  1
  Ho  Ho12  1  0.681421  0.822408  0.876679  1
  Ho  Ho13  1  0.181178  0.677546  0.623457  1
  Ho  Ho14  1  0.819069  0.322153  0.123428  1
  Ho  Ho15  1  0.318892  0.177501  0.376353  1
  Ho  Ho16  1  0.318714  0.177378  0.123411  1
  Ho  Ho17  1  0.818901  0.322453  0.376372  1
  Ho  Ho18  1  0.180876  0.677770  0.876675  1
  Ho  Ho19  1  0.681112  0.822420  0.623471  1
  Si  Si20  1  0.770449  0.619489  0.249813  1
  Si  Si21  1  0.269605  0.880675  0.249688  1
  Si  Si22  1  0.729915  0.119240  0.750015  1
  Si  Si23  1  0.229878  0.380839  0.749978  1
  Si  Si24  1  0.023831  0.114703  0.249768  1
  Si  Si25  1  0.524006  0.384869  0.249907  1
  Si  Si26  1  0.476036  0.615166  0.749980  1
  Si  Si27  1  0.976135  0.884903  0.750027  1
  Si  Si28  1  0.857416  0.531631  0.960240  1
  Si  Si29  1  0.357198  0.969010  0.539943  1
  Si  Si30  1  0.643422  0.030784  0.040203  1
  Si  Si31  1  0.142820  0.469034  0.460016  1
  Si  Si32  1  0.142666  0.469662  0.040131  1
  Si  Si33  1  0.642747  0.030914  0.460008  1
  Si  Si34  1  0.357214  0.968884  0.960174  1
  Si  Si35  1  0.857200  0.530943  0.539948  1
