# generated using pymatgen
data_Pr4Al13Ga11Pt9
_symmetry_space_group_name_H-M   'P 1'
_cell_length_a   7.55818087
_cell_length_b   7.57287757
_cell_length_c   13.46271956
_cell_angle_alpha   84.69359252
_cell_angle_beta   100.66852319
_cell_angle_gamma   119.65745967
_symmetry_Int_Tables_number   1
_chemical_formula_structural   Pr4Al13Ga11Pt9
_chemical_formula_sum   'Pr4 Al13 Ga11 Pt9'
_cell_volume   658.04798100
_cell_formula_units_Z   1
loop_
 _symmetry_equiv_pos_site_id
 _symmetry_equiv_pos_as_xyz
  1  'x, y, z'
loop_
 _atom_site_type_symbol
 _atom_site_label
 _atom_site_symmetry_multiplicity
 _atom_site_fract_x
 _atom_site_fract_y
 _atom_site_fract_z
 _atom_site_occupancy
  Pr  Pr0  1  0.734600  0.001274  0.191605  1
  Pr  Pr1  1  0.265243  0.000296  0.807645  1
  Pr  Pr2  1  0.062569  0.664429  0.189884  1
  Pr  Pr3  1  0.938613  0.335778  0.809226  1
  Al  Al4  1  0.771240  0.660450  0.335905  1
  Al  Al5  1  0.852756  0.331634  0.556743  1
  Al  Al6  1  0.186724  0.999683  0.557051  1
  Al  Al7  1  0.812021  0.998767  0.441545  1
  Al  Al8  1  0.351906  0.002608  0.052482  1
  Al  Al9  1  0.648552  0.998372  0.947458  1
  Al  Al10  1  0.555585  0.994365  0.664966  1
  Al  Al11  1  0.444019  0.005050  0.335313  1
  Al  Al12  1  0.519726  0.666508  0.559225  1
  Al  Al13  1  0.478019  0.331588  0.440438  1
  Al  Al14  1  0.682502  0.666044  0.045895  1
  Al  Al15  1  0.319579  0.335916  0.955001  1
  Al  Al16  1  0.145324  0.667293  0.442107  1
  Ga  Ga17  1  0.801200  0.871319  0.813989  1
  Ga  Ga18  1  0.198948  0.128595  0.186058  1
  Ga  Ga19  1  0.978953  0.667299  0.942078  1
  Ga  Ga20  1  0.022427  0.333433  0.058201  1
  Ga  Ga21  1  0.402211  0.666056  0.815466  1
  Ga  Ga22  1  0.598755  0.336763  0.184953  1
  Ga  Ga23  1  0.882389  0.665660  0.666911  1
  Ga  Ga24  1  0.117373  0.333781  0.333513  1
  Ga  Ga25  1  0.600472  0.461980  0.814420  1
  Ga  Ga26  1  0.402286  0.539323  0.186258  1
  Ga  Ga27  1  0.227756  0.337333  0.667492  1
  Pt  Pt28  1  0.335838  0.673685  0.000756  1
  Pt  Pt29  1  0.545716  0.325316  0.632058  1
  Pt  Pt30  1  0.456576  0.673647  0.368079  1
  Pt  Pt31  1  0.879226  0.003922  0.632366  1
  Pt  Pt32  1  0.115357  0.991154  0.366356  1
  Pt  Pt33  1  0.665024  0.326929  0.999586  1
  Pt  Pt34  1  0.210380  0.669967  0.633410  1
  Pt  Pt35  1  0.789525  0.332789  0.365981  1
  Pt  Pt36  1  0.000611  0.000994  0.999575  1
