# generated using pymatgen
data_Sc4Ta3SnRu8
_symmetry_space_group_name_H-M   'P 1'
_cell_length_a   6.37789300
_cell_length_b   4.52082800
_cell_length_c   9.03816600
_cell_angle_alpha   90.00000000
_cell_angle_beta   89.99938024
_cell_angle_gamma   90.00000000
_symmetry_Int_Tables_number   1
_chemical_formula_structural   Sc4Ta3SnRu8
_chemical_formula_sum   'Sc4 Ta3 Sn1 Ru8'
_cell_volume   260.60066920
_cell_formula_units_Z   1
loop_
 _symmetry_equiv_pos_site_id
 _symmetry_equiv_pos_as_xyz
  1  'x, y, z'
loop_
 _atom_site_type_symbol
 _atom_site_label
 _atom_site_symmetry_multiplicity
 _atom_site_fract_x
 _atom_site_fract_y
 _atom_site_fract_z
 _atom_site_occupancy
  Sc  Sc0  1  0.750038  0.250000  0.124993  1
  Sc  Sc1  1  0.250046  0.750000  0.370859  1
  Sc  Sc2  1  0.750019  0.250000  0.625054  1
  Sc  Sc3  1  0.249965  0.750000  0.879159  1
  Ta  Ta4  1  0.750031  0.750000  0.374226  1
  Ta  Ta5  1  0.249975  0.250000  0.625012  1
  Ta  Ta6  1  0.749949  0.750000  0.875791  1
  Sn  Sn7  1  0.249988  0.250000  0.124959  1
  Ru  Ru8  1  0.509115  0.750000  0.124917  1
  Ru  Ru9  1  0.990911  0.750000  0.124929  1
  Ru  Ru10  1  0.503604  0.250000  0.380511  1
  Ru  Ru11  1  0.996458  0.250000  0.380523  1
  Ru  Ru12  1  0.001196  0.750000  0.625043  1
  Ru  Ru13  1  0.498758  0.750000  0.625055  1
  Ru  Ru14  1  0.996457  0.250000  0.869478  1
  Ru  Ru15  1  0.503490  0.250000  0.869488  1
