# generated using pymatgen
data_Ho4Mg(GaB4)2
_symmetry_space_group_name_H-M   'P 1'
_cell_length_a   7.17016900
_cell_length_b   7.17016900
_cell_length_c   7.98600300
_cell_angle_alpha   90.00000000
_cell_angle_beta   90.00000000
_cell_angle_gamma   90.00000000
_symmetry_Int_Tables_number   1
_chemical_formula_structural   Ho4Mg(GaB4)2
_chemical_formula_sum   'Ho8 Mg2 Ga4 B16'
_cell_volume   410.57098361
_cell_formula_units_Z   2
loop_
 _symmetry_equiv_pos_site_id
 _symmetry_equiv_pos_as_xyz
  1  'x, y, z'
loop_
 _atom_site_type_symbol
 _atom_site_label
 _atom_site_symmetry_multiplicity
 _atom_site_fract_x
 _atom_site_fract_y
 _atom_site_fract_z
 _atom_site_occupancy
  Ho  Ho0  1  0.681488  0.181488  0.226098  1
  Ho  Ho1  1  0.318512  0.818512  0.773902  1
  Ho  Ho2  1  0.318512  0.818512  0.226098  1
  Ho  Ho3  1  0.818512  0.681488  0.226098  1
  Ho  Ho4  1  0.818512  0.681488  0.773902  1
  Ho  Ho5  1  0.681488  0.181488  0.773902  1
  Ho  Ho6  1  0.181488  0.318512  0.773902  1
  Ho  Ho7  1  0.181488  0.318512  0.226098  1
  Mg  Mg8  1  0.000000  0.000000  0.500000  1
  Mg  Mg9  1  0.500000  0.500000  0.500000  1
  Ga  Ga10  1  0.122357  0.622357  0.500000  1
  Ga  Ga11  1  0.877643  0.377643  0.500000  1
  Ga  Ga12  1  0.377643  0.122357  0.500000  1
  Ga  Ga13  1  0.622357  0.877643  0.500000  1
  B  B14  1  0.172857  0.040565  0.000000  1
  B  B15  1  0.827143  0.959435  0.000000  1
  B  B16  1  0.959435  0.172857  0.000000  1
  B  B17  1  0.327143  0.540565  0.000000  1
  B  B18  1  0.040565  0.827143  0.000000  1
  B  B19  1  0.672857  0.459435  0.000000  1
  B  B20  1  0.540565  0.672857  0.000000  1
  B  B21  1  0.459435  0.327143  0.000000  1
  B  B22  1  0.089807  0.589807  0.000000  1
  B  B23  1  0.910193  0.410193  0.000000  1
  B  B24  1  0.410193  0.089807  0.000000  1
  B  B25  1  0.589807  0.910193  0.000000  1
  B  B26  1  0.000000  0.000000  0.161295  1
  B  B27  1  0.000000  0.000000  0.838705  1
  B  B28  1  0.500000  0.500000  0.838705  1
  B  B29  1  0.500000  0.500000  0.161295  1
