# generated using pymatgen
data_Nb6CoTcS12
_symmetry_space_group_name_H-M   'P 1'
_cell_length_a   5.79641600
_cell_length_b   5.79641643
_cell_length_c   12.01094500
_cell_angle_alpha   90.00000000
_cell_angle_beta   90.00000000
_cell_angle_gamma   119.99999756
_symmetry_Int_Tables_number   1
_chemical_formula_structural   Nb6CoTcS12
_chemical_formula_sum   'Nb6 Co1 Tc1 S12'
_cell_volume   349.48371675
_cell_formula_units_Z   1
loop_
 _symmetry_equiv_pos_site_id
 _symmetry_equiv_pos_as_xyz
  1  'x, y, z'
loop_
 _atom_site_type_symbol
 _atom_site_label
 _atom_site_symmetry_multiplicity
 _atom_site_fract_x
 _atom_site_fract_y
 _atom_site_fract_z
 _atom_site_occupancy
  Nb  Nb0  1  0.333333  0.666667  0.998260  1
  Nb  Nb1  1  0.666667  0.333333  0.496503  1
  Nb  Nb2  1  0.333333  0.666667  0.501740  1
  Nb  Nb3  1  0.000000  0.000000  0.000155  1
  Nb  Nb4  1  0.666667  0.333333  0.003497  1
  Nb  Nb5  1  0.000000  0.000000  0.499845  1
  Co  Co6  1  0.333333  0.666667  0.250000  1
  Tc  Tc7  1  0.666667  0.333333  0.750000  1
  S  S8  1  0.002197  0.668697  0.132040  1
  S  S9  1  0.667719  0.664590  0.630670  1
  S  S10  1  0.002197  0.333500  0.367960  1
  S  S11  1  0.331303  0.333500  0.132040  1
  S  S12  1  0.335410  0.003129  0.630670  1
  S  S13  1  0.335410  0.332281  0.869330  1
  S  S14  1  0.666500  0.668697  0.367960  1
  S  S15  1  0.996871  0.664590  0.869330  1
  S  S16  1  0.667719  0.003129  0.869330  1
  S  S17  1  0.331303  0.997803  0.367960  1
  S  S18  1  0.666500  0.997803  0.132040  1
  S  S19  1  0.996871  0.332281  0.630670  1
