# generated using pymatgen
data_La4Y12Cd4OsPd3
_symmetry_space_group_name_H-M   'P 1'
_cell_length_a   9.88994892
_cell_length_b   9.88994731
_cell_length_c   9.88994747
_cell_angle_alpha   59.39000029
_cell_angle_beta   59.39000683
_cell_angle_gamma   59.39000375
_symmetry_Int_Tables_number   1
_chemical_formula_structural   La4Y12Cd4OsPd3
_chemical_formula_sum   'La4 Y12 Cd4 Os1 Pd3'
_cell_volume   674.52153792
_cell_formula_units_Z   1
loop_
 _symmetry_equiv_pos_site_id
 _symmetry_equiv_pos_as_xyz
  1  'x, y, z'
loop_
 _atom_site_type_symbol
 _atom_site_label
 _atom_site_symmetry_multiplicity
 _atom_site_fract_x
 _atom_site_fract_y
 _atom_site_fract_z
 _atom_site_occupancy
  La  La0  1  0.355686  0.355686  0.355686  1
  La  La1  1  0.349835  0.349835  0.943880  1
  La  La2  1  0.349835  0.943880  0.349835  1
  La  La3  1  0.943880  0.349835  0.349835  1
  Y  Y4  1  0.819652  0.185470  0.185470  1
  Y  Y5  1  0.185549  0.812379  0.812379  1
  Y  Y6  1  0.185470  0.819652  0.185470  1
  Y  Y7  1  0.812379  0.185549  0.812379  1
  Y  Y8  1  0.185470  0.185470  0.819652  1
  Y  Y9  1  0.812379  0.812379  0.185549  1
  Y  Y10  1  0.932446  0.567221  0.567221  1
  Y  Y11  1  0.561675  0.933595  0.933595  1
  Y  Y12  1  0.567221  0.932446  0.567221  1
  Y  Y13  1  0.933595  0.561675  0.933595  1
  Y  Y14  1  0.567221  0.567221  0.932446  1
  Y  Y15  1  0.933595  0.933595  0.561675  1
  Cd  Cd16  1  0.582487  0.582487  0.582487  1
  Cd  Cd17  1  0.583850  0.583850  0.247686  1
  Cd  Cd18  1  0.583850  0.247686  0.583850  1
  Cd  Cd19  1  0.247686  0.583850  0.583850  1
  Os  Os20  1  0.143213  0.143213  0.143213  1
  Pd  Pd21  1  0.143526  0.143526  0.575971  1
  Pd  Pd22  1  0.143526  0.575971  0.143526  1
  Pd  Pd23  1  0.575971  0.143526  0.143526  1
