# generated using pymatgen
data_Dy5Hf2Si12Ir17
_symmetry_space_group_name_H-M   'P 1'
_cell_length_a   12.94159500
_cell_length_b   12.98743316
_cell_length_c   4.00654700
_cell_angle_alpha   90.00000000
_cell_angle_beta   90.00000000
_cell_angle_gamma   119.88331865
_symmetry_Int_Tables_number   1
_chemical_formula_structural   Dy5Hf2Si12Ir17
_chemical_formula_sum   'Dy5 Hf2 Si12 Ir17'
_cell_volume   583.87708261
_cell_formula_units_Z   1
loop_
 _symmetry_equiv_pos_site_id
 _symmetry_equiv_pos_as_xyz
  1  'x, y, z'
loop_
 _atom_site_type_symbol
 _atom_site_label
 _atom_site_symmetry_multiplicity
 _atom_site_fract_x
 _atom_site_fract_y
 _atom_site_fract_z
 _atom_site_occupancy
  Dy  Dy0  1  0.331108  0.665922  0.500000  1
  Dy  Dy1  1  0.665187  0.334078  0.500000  1
  Dy  Dy2  1  0.004805  0.817606  0.000000  1
  Dy  Dy3  1  0.187199  0.182394  0.000000  1
  Dy  Dy4  1  0.815407  0.000000  0.000000  1
  Hf  Hf5  1  0.997751  0.439027  0.500000  1
  Hf  Hf6  1  0.558724  0.560973  0.500000  1
  Si  Si7  1  0.003790  0.645762  0.500000  1
  Si  Si8  1  0.358027  0.354238  0.500000  1
  Si  Si9  1  0.626677  0.000000  0.500000  1
  Si  Si10  1  0.516928  0.693422  0.000000  1
  Si  Si11  1  0.310919  0.831125  0.000000  1
  Si  Si12  1  0.175789  0.479168  0.000000  1
  Si  Si13  1  0.479794  0.168875  0.000000  1
  Si  Si14  1  0.696621  0.520832  0.000000  1
  Si  Si15  1  0.823506  0.306578  0.000000  1
  Si  Si16  1  0.998084  0.180422  0.500000  1
  Si  Si17  1  0.817662  0.819578  0.500000  1
  Si  Si18  1  0.180553  0.000000  0.500000  1
  Ir  Ir19  1  0.511645  0.876399  0.000000  1
  Ir  Ir20  1  0.130820  0.637549  0.000000  1
  Ir  Ir21  1  0.366731  0.487900  0.000000  1
  Ir  Ir22  1  0.493272  0.362451  0.000000  1
  Ir  Ir23  1  0.878833  0.512100  0.000000  1
  Ir  Ir24  1  0.635248  0.123601  0.000000  1
  Ir  Ir25  1  0.444093  0.000000  0.500000  1
  Ir  Ir26  1  0.997248  0.276996  0.000000  1
  Ir  Ir27  1  0.720252  0.723004  0.000000  1
  Ir  Ir28  1  0.283325  0.000000  0.000000  1
  Ir  Ir29  1  0.621915  0.808339  0.500000  1
  Ir  Ir30  1  0.195477  0.822046  0.500000  1
  Ir  Ir31  1  0.179648  0.370969  0.500000  1
  Ir  Ir32  1  0.373431  0.177954  0.500000  1
  Ir  Ir33  1  0.808679  0.629031  0.500000  1
  Ir  Ir34  1  0.813577  0.191661  0.500000  1
  Ir  Ir35  1  0.997276  0.000000  0.500000  1
