# generated using pymatgen
data_Cs2Ge(WO4)3
_symmetry_space_group_name_H-M   'P 1'
_cell_length_a   7.22496321
_cell_length_b   7.22496332
_cell_length_c   7.22496344
_cell_angle_alpha   61.46563820
_cell_angle_beta   61.46563555
_cell_angle_gamma   61.46563973
_symmetry_Int_Tables_number   1
_chemical_formula_structural   Cs2Ge(WO4)3
_chemical_formula_sum   'Cs2 Ge1 W3 O12'
_cell_volume   275.45678040
_cell_formula_units_Z   1
loop_
 _symmetry_equiv_pos_site_id
 _symmetry_equiv_pos_as_xyz
  1  'x, y, z'
loop_
 _atom_site_type_symbol
 _atom_site_label
 _atom_site_symmetry_multiplicity
 _atom_site_fract_x
 _atom_site_fract_y
 _atom_site_fract_z
 _atom_site_occupancy
  Cs  Cs0  1  0.631266  0.631266  0.631266  1
  Cs  Cs1  1  0.368734  0.368734  0.368734  1
  Ge  Ge2  1  0.000000  0.000000  0.000000  1
  W  W3  1  0.500000  0.000000  0.000000  1
  W  W4  1  0.000000  0.000000  0.500000  1
  W  W5  1  0.000000  0.500000  0.000000  1
  O  O6  1  0.943705  0.314583  0.314583  1
  O  O7  1  0.306371  0.941049  0.941049  1
  O  O8  1  0.314583  0.314583  0.943705  1
  O  O9  1  0.941049  0.941049  0.306371  1
  O  O10  1  0.941049  0.306371  0.941049  1
  O  O11  1  0.314583  0.943705  0.314583  1
  O  O12  1  0.056295  0.685417  0.685417  1
  O  O13  1  0.693629  0.058951  0.058951  1
  O  O14  1  0.685417  0.685417  0.056295  1
  O  O15  1  0.058951  0.058951  0.693629  1
  O  O16  1  0.058951  0.693629  0.058951  1
  O  O17  1  0.685417  0.056295  0.685417  1
