# generated using pymatgen
data_Er3Ni2Ir7
_symmetry_space_group_name_H-M   'P 1'
_cell_length_a   8.94926817
_cell_length_b   8.94926777
_cell_length_c   8.94926800
_cell_angle_alpha   34.31947522
_cell_angle_beta   34.31947775
_cell_angle_gamma   34.31947769
_symmetry_Int_Tables_number   1
_chemical_formula_structural   Er3Ni2Ir7
_chemical_formula_sum   'Er3 Ni2 Ir7'
_cell_volume   203.19644885
_cell_formula_units_Z   1
loop_
 _symmetry_equiv_pos_site_id
 _symmetry_equiv_pos_as_xyz
  1  'x, y, z'
loop_
 _atom_site_type_symbol
 _atom_site_label
 _atom_site_symmetry_multiplicity
 _atom_site_fract_x
 _atom_site_fract_y
 _atom_site_fract_z
 _atom_site_occupancy
  Er  Er0  1  0.860014  0.860014  0.860014  1
  Er  Er1  1  0.139986  0.139986  0.139986  1
  Er  Er2  1  0.000000  0.000000  0.000000  1
  Ni  Ni3  1  0.666399  0.666399  0.666399  1
  Ni  Ni4  1  0.333601  0.333601  0.333601  1
  Ir  Ir5  1  0.418990  0.922281  0.418990  1
  Ir  Ir6  1  0.418990  0.418990  0.922281  1
  Ir  Ir7  1  0.922281  0.418990  0.418990  1
  Ir  Ir8  1  0.581010  0.077719  0.581010  1
  Ir  Ir9  1  0.581010  0.581010  0.077719  1
  Ir  Ir10  1  0.077719  0.581010  0.581010  1
  Ir  Ir11  1  0.500000  0.500000  0.500000  1
