# generated using pymatgen
data_Tb2DySc3MnSb2
_symmetry_space_group_name_H-M   'P 1'
_cell_length_a   7.83091100
_cell_length_b   7.82907707
_cell_length_c   4.24714700
_cell_angle_alpha   90.00000000
_cell_angle_beta   90.00000000
_cell_angle_gamma   120.00773644
_symmetry_Int_Tables_number   1
_chemical_formula_structural   Tb2DySc3MnSb2
_chemical_formula_sum   'Tb2 Dy1 Sc3 Mn1 Sb2'
_cell_volume   225.48461709
_cell_formula_units_Z   1
loop_
 _symmetry_equiv_pos_site_id
 _symmetry_equiv_pos_as_xyz
  1  'x, y, z'
loop_
 _atom_site_type_symbol
 _atom_site_label
 _atom_site_symmetry_multiplicity
 _atom_site_fract_x
 _atom_site_fract_y
 _atom_site_fract_z
 _atom_site_occupancy
  Tb  Tb0  1  0.000095  0.604215  0.000000  1
  Tb  Tb1  1  0.395880  0.395785  0.000000  1
  Dy  Dy2  1  0.604438  0.000000  0.000000  1
  Sc  Sc3  1  0.227437  0.000000  0.500000  1
  Sc  Sc4  1  0.999781  0.227328  0.500000  1
  Sc  Sc5  1  0.772453  0.772672  0.500000  1
  Mn  Mn6  1  0.999648  0.000000  0.000000  1
  Sb  Sb7  1  0.333680  0.667092  0.500000  1
  Sb  Sb8  1  0.666589  0.332908  0.500000  1
