# generated using pymatgen
data_Ca6Sc3Ga(SeO3)12
_symmetry_space_group_name_H-M   'P 1'
_cell_length_a   14.43960318
_cell_length_b   14.43960253
_cell_length_c   14.43960309
_cell_angle_alpha   35.07045985
_cell_angle_beta   35.07046228
_cell_angle_gamma   35.07045660
_symmetry_Int_Tables_number   1
_chemical_formula_structural   Ca6Sc3Ga(SeO3)12
_chemical_formula_sum   'Ca6 Sc3 Ga1 Se12 O36'
_cell_volume   887.60061228
_cell_formula_units_Z   1
loop_
 _symmetry_equiv_pos_site_id
 _symmetry_equiv_pos_as_xyz
  1  'x, y, z'
loop_
 _atom_site_type_symbol
 _atom_site_label
 _atom_site_symmetry_multiplicity
 _atom_site_fract_x
 _atom_site_fract_y
 _atom_site_fract_z
 _atom_site_occupancy
  Ca  Ca0  1  0.750000  0.159074  0.340926  1
  Ca  Ca1  1  0.838997  0.661003  0.250000  1
  Ca  Ca2  1  0.159074  0.340926  0.750000  1
  Ca  Ca3  1  0.340926  0.750000  0.159074  1
  Ca  Ca4  1  0.661003  0.250000  0.838997  1
  Ca  Ca5  1  0.250000  0.838997  0.661003  1
  Sc  Sc6  1  0.499644  0.499644  0.499644  1
  Sc  Sc7  1  0.250000  0.250000  0.250000  1
  Sc  Sc8  1  0.000356  0.000356  0.000356  1
  Ga  Ga9  1  0.750000  0.750000  0.750000  1
  Se  Se10  1  0.504379  0.081842  0.817572  1
  Se  Se11  1  0.911810  0.183088  0.498299  1
  Se  Se12  1  0.316912  0.588190  0.001701  1
  Se  Se13  1  0.183088  0.498299  0.911810  1
  Se  Se14  1  0.817572  0.504379  0.081842  1
  Se  Se15  1  0.418158  0.995621  0.682428  1
  Se  Se16  1  0.081842  0.817572  0.504379  1
  Se  Se17  1  0.682428  0.418158  0.995621  1
  Se  Se18  1  0.995621  0.682428  0.418158  1
  Se  Se19  1  0.001701  0.316912  0.588190  1
  Se  Se20  1  0.498299  0.911810  0.183088  1
  Se  Se21  1  0.588190  0.001701  0.316912  1
  O  O22  1  0.344317  0.318582  0.992904  1
  O  O23  1  0.507096  0.181418  0.155683  1
  O  O24  1  0.313865  0.600008  0.680518  1
  O  O25  1  0.335286  0.043732  0.944141  1
  O  O26  1  0.837736  0.441553  0.544074  1
  O  O27  1  0.899992  0.186135  0.819482  1
  O  O28  1  0.944141  0.335286  0.043732  1
  O  O29  1  0.658766  0.683142  0.996691  1
  O  O30  1  0.555859  0.456268  0.164714  1
  O  O31  1  0.318582  0.992904  0.344317  1
  O  O32  1  0.815956  0.186389  0.093895  1
  O  O33  1  0.181418  0.155683  0.507096  1
  O  O34  1  0.164714  0.555859  0.456268  1
  O  O35  1  0.992904  0.344317  0.318582  1
  O  O36  1  0.996691  0.658766  0.683142  1
  O  O37  1  0.680518  0.313865  0.600008  1
  O  O38  1  0.043732  0.944141  0.335286  1
  O  O39  1  0.155683  0.507096  0.181418  1
  O  O40  1  0.662264  0.955926  0.058447  1
  O  O41  1  0.186389  0.093895  0.815956  1
  O  O42  1  0.600008  0.680518  0.313865  1
  O  O43  1  0.819482  0.899992  0.186135  1
  O  O44  1  0.816858  0.841234  0.503309  1
  O  O45  1  0.406105  0.313611  0.684044  1
  O  O46  1  0.684045  0.406105  0.313611  1
  O  O47  1  0.544074  0.837736  0.441553  1
  O  O48  1  0.841234  0.503309  0.816858  1
  O  O49  1  0.058447  0.662264  0.955926  1
  O  O50  1  0.313611  0.684044  0.406105  1
  O  O51  1  0.456268  0.164714  0.555859  1
  O  O52  1  0.503309  0.816858  0.841234  1
  O  O53  1  0.683142  0.996691  0.658766  1
  O  O54  1  0.955926  0.058447  0.662264  1
  O  O55  1  0.441553  0.544074  0.837736  1
  O  O56  1  0.186135  0.819482  0.899992  1
  O  O57  1  0.093895  0.815955  0.186389  1
