# generated using pymatgen
data_Tb7(HoPb2)3
_symmetry_space_group_name_H-M   'P 1'
_cell_length_a   9.08891100
_cell_length_b   9.08891141
_cell_length_c   6.66444700
_cell_angle_alpha   90.00000000
_cell_angle_beta   90.00000000
_cell_angle_gamma   120.00000216
_symmetry_Int_Tables_number   1
_chemical_formula_structural   Tb7(HoPb2)3
_chemical_formula_sum   'Tb7 Ho3 Pb6'
_cell_volume   476.78047475
_cell_formula_units_Z   1
loop_
 _symmetry_equiv_pos_site_id
 _symmetry_equiv_pos_as_xyz
  1  'x, y, z'
loop_
 _atom_site_type_symbol
 _atom_site_label
 _atom_site_symmetry_multiplicity
 _atom_site_fract_x
 _atom_site_fract_y
 _atom_site_fract_z
 _atom_site_occupancy
  Tb  Tb0  1  0.333333  0.666667  0.000000  1
  Tb  Tb1  1  0.237410  0.000075  0.250085  1
  Tb  Tb2  1  0.237410  0.237335  0.749915  1
  Tb  Tb3  1  0.999925  0.762590  0.749915  1
  Tb  Tb4  1  0.999925  0.237335  0.250085  1
  Tb  Tb5  1  0.762665  0.762590  0.250085  1
  Tb  Tb6  1  0.762665  0.000075  0.749915  1
  Ho  Ho7  1  0.666667  0.333333  0.500000  1
  Ho  Ho8  1  0.666667  0.333333  0.000000  1
  Ho  Ho9  1  0.333333  0.666667  0.500000  1
  Pb  Pb10  1  0.605110  0.000324  0.250265  1
  Pb  Pb11  1  0.605110  0.604785  0.749735  1
  Pb  Pb12  1  0.999676  0.394890  0.749735  1
  Pb  Pb13  1  0.999676  0.604785  0.250265  1
  Pb  Pb14  1  0.395215  0.394890  0.250265  1
  Pb  Pb15  1  0.395215  0.000324  0.749735  1
