# generated using pymatgen
data_AcLa(SnHg)3
_symmetry_space_group_name_H-M   'P 1'
_cell_length_a   6.95928000
_cell_length_b   6.95927890
_cell_length_c   5.37952000
_cell_angle_alpha   90.00000000
_cell_angle_beta   90.00000000
_cell_angle_gamma   120.00000524
_symmetry_Int_Tables_number   1
_chemical_formula_structural   AcLa(SnHg)3
_chemical_formula_sum   'Ac1 La1 Sn3 Hg3'
_cell_volume   225.63303599
_cell_formula_units_Z   1
loop_
 _symmetry_equiv_pos_site_id
 _symmetry_equiv_pos_as_xyz
  1  'x, y, z'
loop_
 _atom_site_type_symbol
 _atom_site_label
 _atom_site_symmetry_multiplicity
 _atom_site_fract_x
 _atom_site_fract_y
 _atom_site_fract_z
 _atom_site_occupancy
  Ac  Ac0  1  0.333333  0.666667  0.750000  1
  La  La1  1  0.666667  0.333333  0.250000  1
  Sn  Sn2  1  0.147582  0.295165  0.250000  1
  Sn  Sn3  1  0.704835  0.852418  0.250000  1
  Sn  Sn4  1  0.147582  0.852418  0.250000  1
  Hg  Hg5  1  0.833553  0.667107  0.750000  1
  Hg  Hg6  1  0.332893  0.166447  0.750000  1
  Hg  Hg7  1  0.833553  0.166447  0.750000  1
