# generated using pymatgen
data_Ce9Y(Si3H)2
_symmetry_space_group_name_H-M   'P 1'
_cell_length_a   8.59024101
_cell_length_b   8.59024007
_cell_length_c   8.59024100
_cell_angle_alpha   126.23655435
_cell_angle_beta   126.23655804
_cell_angle_gamma   79.49969523
_symmetry_Int_Tables_number   1
_chemical_formula_structural   Ce9Y(Si3H)2
_chemical_formula_sum   'Ce9 Y1 Si6 H2'
_cell_volume   398.54686069
_cell_formula_units_Z   1
loop_
 _symmetry_equiv_pos_site_id
 _symmetry_equiv_pos_as_xyz
  1  'x, y, z'
loop_
 _atom_site_type_symbol
 _atom_site_label
 _atom_site_symmetry_multiplicity
 _atom_site_fract_x
 _atom_site_fract_y
 _atom_site_fract_z
 _atom_site_occupancy
  Ce  Ce0  1  0.000000  0.000000  0.000000  1
  Ce  Ce1  1  0.528101  0.022030  0.857540  1
  Ce  Ce2  1  0.164490  0.670563  0.142460  1
  Ce  Ce3  1  0.022030  0.164490  0.493929  1
  Ce  Ce4  1  0.670563  0.528101  0.506071  1
  Ce  Ce5  1  0.471899  0.977970  0.142460  1
  Ce  Ce6  1  0.835510  0.329437  0.857540  1
  Ce  Ce7  1  0.977970  0.835510  0.506071  1
  Ce  Ce8  1  0.329437  0.471899  0.493929  1
  Y  Y9  1  0.500000  0.500000  0.000000  1
  Si  Si10  1  0.254606  0.254606  0.000000  1
  Si  Si11  1  0.745394  0.745394  0.000000  1
  Si  Si12  1  0.884623  0.388028  0.272652  1
  Si  Si13  1  0.115377  0.611972  0.727348  1
  Si  Si14  1  0.388028  0.115377  0.503405  1
  Si  Si15  1  0.611972  0.884623  0.496595  1
  H  H16  1  0.250000  0.750000  0.500000  1
  H  H17  1  0.750000  0.250000  0.500000  1
