# generated using pymatgen
data_Dy4Lu4Tc3RuC8
_symmetry_space_group_name_H-M   'P 1'
_cell_length_a   5.03337000
_cell_length_b   6.52897498
_cell_length_c   9.71306484
_cell_angle_alpha   90.11278404
_cell_angle_beta   90.00000000
_cell_angle_gamma   90.00000000
_symmetry_Int_Tables_number   1
_chemical_formula_structural   Dy4Lu4Tc3RuC8
_chemical_formula_sum   'Dy4 Lu4 Tc3 Ru1 C8'
_cell_volume   319.19737186
_cell_formula_units_Z   1
loop_
 _symmetry_equiv_pos_site_id
 _symmetry_equiv_pos_as_xyz
  1  'x, y, z'
loop_
 _atom_site_type_symbol
 _atom_site_label
 _atom_site_symmetry_multiplicity
 _atom_site_fract_x
 _atom_site_fract_y
 _atom_site_fract_z
 _atom_site_occupancy
  Dy  Dy0  1  0.250000  0.464618  0.213527  1
  Dy  Dy1  1  0.250000  0.967036  0.288518  1
  Dy  Dy2  1  0.750000  0.533163  0.785417  1
  Dy  Dy3  1  0.750000  0.033881  0.713327  1
  Lu  Lu4  1  0.250000  0.828543  0.940923  1
  Lu  Lu5  1  0.250000  0.328176  0.559268  1
  Lu  Lu6  1  0.750000  0.171835  0.059231  1
  Lu  Lu7  1  0.750000  0.668576  0.441895  1
  Tc  Tc8  1  0.250000  0.281306  0.867976  1
  Tc  Tc9  1  0.250000  0.780783  0.632249  1
  Tc  Tc10  1  0.750000  0.718447  0.132904  1
  Ru  Ru11  1  0.750000  0.218412  0.367262  1
  C  C12  1  0.250000  0.050385  0.739414  1
  C  C13  1  0.250000  0.550826  0.760484  1
  C  C14  1  0.750000  0.949079  0.258713  1
  C  C15  1  0.750000  0.450675  0.239423  1
  C  C16  1  0.250000  0.671271  0.447303  1
  C  C17  1  0.250000  0.171142  0.052117  1
  C  C18  1  0.750000  0.331833  0.551209  1
  C  C19  1  0.750000  0.830014  0.948844  1
