# generated using pymatgen
data_PrDy6Sn23Ir6
_symmetry_space_group_name_H-M   'P 1'
_cell_length_a   9.88979800
_cell_length_b   9.88979810
_cell_length_c   10.14895200
_cell_angle_alpha   90.00000000
_cell_angle_beta   90.00000000
_cell_angle_gamma   119.99999297
_symmetry_Int_Tables_number   1
_chemical_formula_structural   PrDy6Sn23Ir6
_chemical_formula_sum   'Pr1 Dy6 Sn23 Ir6'
_cell_volume   859.65997676
_cell_formula_units_Z   1
loop_
 _symmetry_equiv_pos_site_id
 _symmetry_equiv_pos_as_xyz
  1  'x, y, z'
loop_
 _atom_site_type_symbol
 _atom_site_label
 _atom_site_symmetry_multiplicity
 _atom_site_fract_x
 _atom_site_fract_y
 _atom_site_fract_z
 _atom_site_occupancy
  Pr  Pr0  1  0.000000  0.000000  0.000000  1
  Dy  Dy1  1  0.479902  0.520098  0.307069  1
  Dy  Dy2  1  0.520098  0.479902  0.692931  1
  Dy  Dy3  1  0.479902  0.959804  0.307069  1
  Dy  Dy4  1  0.520098  0.040196  0.692931  1
  Dy  Dy5  1  0.040196  0.520098  0.307069  1
  Dy  Dy6  1  0.959804  0.479902  0.692931  1
  Sn  Sn7  1  0.353100  0.000000  0.000000  1
  Sn  Sn8  1  0.646900  0.000000  0.000000  1
  Sn  Sn9  1  0.000000  0.353100  0.000000  1
  Sn  Sn10  1  0.000000  0.646900  0.000000  1
  Sn  Sn11  1  0.646900  0.646900  0.000000  1
  Sn  Sn12  1  0.353100  0.353100  0.000000  1
  Sn  Sn13  1  0.333333  0.666667  0.825444  1
  Sn  Sn14  1  0.666667  0.333333  0.174556  1
  Sn  Sn15  1  0.000000  0.000000  0.500000  1
  Sn  Sn16  1  0.777713  0.222287  0.455780  1
  Sn  Sn17  1  0.222287  0.777713  0.544220  1
  Sn  Sn18  1  0.777713  0.555427  0.455780  1
  Sn  Sn19  1  0.222287  0.444573  0.544220  1
  Sn  Sn20  1  0.444573  0.222287  0.455780  1
  Sn  Sn21  1  0.555427  0.777713  0.544220  1
  Sn  Sn22  1  0.333333  0.666667  0.121745  1
  Sn  Sn23  1  0.666667  0.333333  0.878255  1
  Sn  Sn24  1  0.119314  0.880686  0.284387  1
  Sn  Sn25  1  0.880686  0.119314  0.715613  1
  Sn  Sn26  1  0.119314  0.238629  0.284387  1
  Sn  Sn27  1  0.880686  0.761371  0.715613  1
  Sn  Sn28  1  0.761371  0.880686  0.284387  1
  Sn  Sn29  1  0.238629  0.119314  0.715613  1
  Ir  Ir30  1  0.830632  0.169368  0.198926  1
  Ir  Ir31  1  0.169368  0.830632  0.801074  1
  Ir  Ir32  1  0.830632  0.661263  0.198926  1
  Ir  Ir33  1  0.169368  0.338737  0.801074  1
  Ir  Ir34  1  0.338737  0.169368  0.198926  1
  Ir  Ir35  1  0.661263  0.830632  0.801074  1
