# generated using pymatgen
data_MnCoNi6RhS8
_symmetry_space_group_name_H-M   'P 1'
_cell_length_a   7.07691127
_cell_length_b   7.09837137
_cell_length_c   7.09837144
_cell_angle_alpha   59.97943337
_cell_angle_beta   59.93800524
_cell_angle_gamma   59.93800176
_symmetry_Int_Tables_number   1
_chemical_formula_structural   MnCoNi6RhS8
_chemical_formula_sum   'Mn1 Co1 Ni6 Rh1 S8'
_cell_volume   251.86693949
_cell_formula_units_Z   1
loop_
 _symmetry_equiv_pos_site_id
 _symmetry_equiv_pos_as_xyz
  1  'x, y, z'
loop_
 _atom_site_type_symbol
 _atom_site_label
 _atom_site_symmetry_multiplicity
 _atom_site_fract_x
 _atom_site_fract_y
 _atom_site_fract_z
 _atom_site_occupancy
  Mn  Mn0  1  0.623601  0.125819  0.125819  1
  Co  Co1  1  0.877103  0.874128  0.874128  1
  Ni  Ni2  1  0.126523  0.621504  0.126128  1
  Ni  Ni3  1  0.126523  0.126128  0.621504  1
  Ni  Ni4  1  0.125550  0.127765  0.127765  1
  Ni  Ni5  1  0.387279  0.870081  0.870081  1
  Ni  Ni6  1  0.874792  0.379975  0.872408  1
  Ni  Ni7  1  0.874792  0.872408  0.379975  1
  Rh  Rh8  1  0.491108  0.501379  0.501379  1
  S  S9  1  0.260264  0.247389  0.247389  1
  S  S10  1  0.760006  0.750303  0.750303  1
  S  S11  1  0.733539  0.257085  0.257085  1
  S  S12  1  0.734943  0.251416  0.752626  1
  S  S13  1  0.734943  0.752626  0.251416  1
  S  S14  1  0.252344  0.742763  0.742763  1
  S  S15  1  0.258346  0.744032  0.255202  1
  S  S16  1  0.258346  0.255202  0.744032  1
