# generated using pymatgen
data_Sm2Mn3Fe2Co4Ni3P7
_symmetry_space_group_name_H-M   'P 1'
_cell_length_a   9.09410100
_cell_length_b   9.09410219
_cell_length_c   3.66709800
_cell_angle_alpha   90.00000000
_cell_angle_beta   90.00000000
_cell_angle_gamma   120.00000658
_symmetry_Int_Tables_number   1
_chemical_formula_structural   Sm2Mn3Fe2Co4Ni3P7
_chemical_formula_sum   'Sm2 Mn3 Fe2 Co4 Ni3 P7'
_cell_volume   262.64716806
_cell_formula_units_Z   1
loop_
 _symmetry_equiv_pos_site_id
 _symmetry_equiv_pos_as_xyz
  1  'x, y, z'
loop_
 _atom_site_type_symbol
 _atom_site_label
 _atom_site_symmetry_multiplicity
 _atom_site_fract_x
 _atom_site_fract_y
 _atom_site_fract_z
 _atom_site_occupancy
  Sm  Sm0  1  0.666293  0.333296  0.000000  1
  Sm  Sm1  1  0.333365  0.666720  0.500000  1
  Mn  Mn2  1  0.217096  0.098443  0.000000  1
  Mn  Mn3  1  0.899347  0.115552  0.000000  1
  Mn  Mn4  1  0.884991  0.785239  0.000000  1
  Fe  Fe5  1  0.155028  0.274853  0.500000  1
  Fe  Fe6  1  0.725685  0.881060  0.500000  1
  Co  Co7  1  0.119352  0.844328  0.500000  1
  Co  Co8  1  0.386165  0.434876  0.000000  1
  Co  Co9  1  0.564387  0.951574  0.000000  1
  Co  Co10  1  0.048858  0.613453  0.000000  1
  Ni  Ni11  1  0.429758  0.061088  0.500000  1
  Ni  Ni12  1  0.937412  0.368807  0.500000  1
  Ni  Ni13  1  0.630849  0.568527  0.500000  1
  P  P14  1  0.117850  0.401987  0.000000  1
  P  P15  1  0.598254  0.715283  0.000000  1
  P  P16  1  0.285872  0.885351  0.000000  1
  P  P17  1  0.000628  0.000836  0.500000  1
  P  P18  1  0.405545  0.300801  0.500000  1
  P  P19  1  0.698321  0.105049  0.500000  1
  P  P20  1  0.894946  0.592873  0.500000  1
