# generated using pymatgen
data_Y5MnRhO12
_symmetry_space_group_name_H-M   'P 1'
_cell_length_a   6.84129302
_cell_length_b   6.84129121
_cell_length_c   7.28362024
_cell_angle_alpha   74.43629167
_cell_angle_beta   74.43629665
_cell_angle_gamma   50.76482437
_symmetry_Int_Tables_number   1
_chemical_formula_structural   Y5MnRhO12
_chemical_formula_sum   'Y5 Mn1 Rh1 O12'
_cell_volume   252.13164208
_cell_formula_units_Z   1
loop_
 _symmetry_equiv_pos_site_id
 _symmetry_equiv_pos_as_xyz
  1  'x, y, z'
loop_
 _atom_site_type_symbol
 _atom_site_label
 _atom_site_symmetry_multiplicity
 _atom_site_fract_x
 _atom_site_fract_y
 _atom_site_fract_z
 _atom_site_occupancy
  Y  Y0  1  0.500089  0.499911  0.500000  1
  Y  Y1  1  0.191405  0.191175  0.168892  1
  Y  Y2  1  0.808825  0.808595  0.831108  1
  Y  Y3  1  0.796343  0.810323  0.358974  1
  Y  Y4  1  0.189677  0.203657  0.641026  1
  Mn  Mn5  1  0.750356  0.249644  0.000000  1
  Rh  Rh6  1  0.259993  0.740007  0.000000  1
  O  O7  1  0.993231  0.006217  0.183488  1
  O  O8  1  0.993783  0.006769  0.816512  1
  O  O9  1  0.511571  0.488833  0.819167  1
  O  O10  1  0.511167  0.488429  0.180833  1
  O  O11  1  0.593870  0.097886  0.576407  1
  O  O12  1  0.902114  0.406130  0.423593  1
  O  O13  1  0.400100  0.902492  0.426643  1
  O  O14  1  0.402640  0.923847  0.917580  1
  O  O15  1  0.076153  0.597360  0.082420  1
  O  O16  1  0.598262  0.077087  0.081114  1
  O  O17  1  0.922913  0.401738  0.918886  1
  O  O18  1  0.097508  0.599900  0.573357  1
