# generated using pymatgen
data_Os3WO12
_symmetry_space_group_name_H-M   'P 1'
_cell_length_a   5.34710558
_cell_length_b   5.35003618
_cell_length_c   7.58689601
_cell_angle_alpha   89.92263437
_cell_angle_beta   89.99346823
_cell_angle_gamma   90.01562310
_symmetry_Int_Tables_number   1
_chemical_formula_structural   Os3WO12
_chemical_formula_sum   'Os3 W1 O12'
_cell_volume   217.03970733
_cell_formula_units_Z   1
loop_
 _symmetry_equiv_pos_site_id
 _symmetry_equiv_pos_as_xyz
  1  'x, y, z'
loop_
 _atom_site_type_symbol
 _atom_site_label
 _atom_site_symmetry_multiplicity
 _atom_site_fract_x
 _atom_site_fract_y
 _atom_site_fract_z
 _atom_site_occupancy
  Os  Os0  1  0.000000  0.000000  0.500000  1
  Os  Os1  1  0.500000  0.500000  0.000000  1
  Os  Os2  1  0.500000  0.500000  0.500000  1
  W  W3  1  0.000000  0.000000  0.000000  1
  O  O4  1  0.757069  0.254578  0.506056  1
  O  O5  1  0.986628  0.001168  0.250995  1
  O  O6  1  0.719471  0.776576  0.993481  1
  O  O7  1  0.745399  0.756996  0.505765  1
  O  O8  1  0.223367  0.719485  0.006493  1
  O  O9  1  0.511399  0.500724  0.246881  1
  O  O10  1  0.488601  0.499276  0.753119  1
  O  O11  1  0.776633  0.280515  0.993507  1
  O  O12  1  0.254601  0.243004  0.494235  1
  O  O13  1  0.280529  0.223424  0.006519  1
  O  O14  1  0.013372  0.998832  0.749005  1
  O  O15  1  0.242931  0.745422  0.493944  1
