# generated using pymatgen
data_Sm4Zn3(Ga5Pd2)3
_symmetry_space_group_name_H-M   'P 1'
_cell_length_a   7.67788487
_cell_length_b   7.69195791
_cell_length_c   9.59406000
_cell_angle_alpha   90.00000000
_cell_angle_beta   90.00000000
_cell_angle_gamma   119.32781316
_symmetry_Int_Tables_number   1
_chemical_formula_structural   Sm4Zn3(Ga5Pd2)3
_chemical_formula_sum   'Sm4 Zn3 Ga15 Pd6'
_cell_volume   493.98474229
_cell_formula_units_Z   1
loop_
 _symmetry_equiv_pos_site_id
 _symmetry_equiv_pos_as_xyz
  1  'x, y, z'
loop_
 _atom_site_type_symbol
 _atom_site_label
 _atom_site_symmetry_multiplicity
 _atom_site_fract_x
 _atom_site_fract_y
 _atom_site_fract_z
 _atom_site_occupancy
  Sm  Sm0  1  0.996318  0.670343  0.250000  1
  Sm  Sm1  1  0.003576  0.330268  0.750000  1
  Sm  Sm2  1  0.671991  0.998133  0.250000  1
  Sm  Sm3  1  0.329969  0.003470  0.750000  1
  Zn  Zn4  1  0.140214  0.138855  0.250000  1
  Zn  Zn5  1  0.863633  0.863060  0.750000  1
  Zn  Zn6  1  0.342343  0.542727  0.250000  1
  Ga  Ga7  1  0.007510  0.335878  0.084417  1
  Ga  Ga8  1  0.995550  0.666945  0.918734  1
  Ga  Ga9  1  0.995550  0.666945  0.581266  1
  Ga  Ga10  1  0.333223  0.002008  0.417580  1
  Ga  Ga11  1  0.007510  0.335878  0.415583  1
  Ga  Ga12  1  0.667748  0.997163  0.581774  1
  Ga  Ga13  1  0.667748  0.997163  0.918226  1
  Ga  Ga14  1  0.333223  0.002008  0.082420  1
  Ga  Ga15  1  0.332180  0.332105  0.558188  1
  Ga  Ga16  1  0.663168  0.665804  0.437023  1
  Ga  Ga17  1  0.663168  0.665804  0.062977  1
  Ga  Ga18  1  0.332180  0.332105  0.941812  1
  Ga  Ga19  1  0.657766  0.455574  0.750000  1
  Ga  Ga20  1  0.540142  0.342407  0.250000  1
  Ga  Ga21  1  0.457175  0.657351  0.750000  1
  Pd  Pd22  1  0.673718  0.326758  0.000061  1
  Pd  Pd23  1  0.326425  0.673295  0.996461  1
  Pd  Pd24  1  0.326425  0.673295  0.503539  1
  Pd  Pd25  1  0.673718  0.326758  0.499939  1
  Pd  Pd26  1  0.998914  0.998950  0.000480  1
  Pd  Pd27  1  0.998914  0.998950  0.499520  1
