# generated using pymatgen
data_Hf6Ti2Al15TcIr6
_symmetry_space_group_name_H-M   'P 1'
_cell_length_a   8.79351829
_cell_length_b   8.79353579
_cell_length_c   8.79352503
_cell_angle_alpha   120.23348975
_cell_angle_beta   119.75114257
_cell_angle_gamma   90.01394126
_symmetry_Int_Tables_number   1
_chemical_formula_structural   Hf6Ti2Al15TcIr6
_chemical_formula_sum   'Hf6 Ti2 Al15 Tc1 Ir6'
_cell_volume   480.85545592
_cell_formula_units_Z   1
loop_
 _symmetry_equiv_pos_site_id
 _symmetry_equiv_pos_as_xyz
  1  'x, y, z'
loop_
 _atom_site_type_symbol
 _atom_site_label
 _atom_site_symmetry_multiplicity
 _atom_site_fract_x
 _atom_site_fract_y
 _atom_site_fract_z
 _atom_site_occupancy
  Hf  Hf0  1  0.793793  0.290684  0.077085  1
  Hf  Hf1  1  0.213592  0.290695  0.496892  1
  Hf  Hf2  1  0.206298  0.706327  0.500046  1
  Hf  Hf3  1  0.213571  0.716705  0.922845  1
  Hf  Hf4  1  0.793863  0.716702  0.503132  1
  Hf  Hf5  1  0.783361  0.283352  0.500010  1
  Ti  Ti6  1  0.381057  0.121281  0.740232  1
  Ti  Ti7  1  0.381038  0.640841  0.259806  1
  Al  Al8  1  0.994571  0.494542  0.499963  1
  Al  Al9  1  0.161352  0.338694  0.177334  1
  Al  Al10  1  0.161388  0.984085  0.822693  1
  Al  Al11  1  0.157085  0.341719  0.815332  1
  Al  Al12  1  0.526398  0.341728  0.184656  1
  Al  Al13  1  0.839858  0.658800  0.818926  1
  Al  Al14  1  0.839877  0.020939  0.181069  1
  Al  Al15  1  0.838410  0.660264  0.178125  1
  Al  Al16  1  0.482134  0.660257  0.821848  1
  Al  Al17  1  0.380097  0.121137  0.258963  1
  Al  Al18  1  0.862176  0.121123  0.741039  1
  Al  Al19  1  0.619384  0.876778  0.257389  1
  Al  Al20  1  0.619381  0.362014  0.742630  1
  Al  Al21  1  0.618107  0.878202  0.739947  1
  Al  Al22  1  0.138256  0.878192  0.260084  1
  Tc  Tc23  1  0.497852  0.997903  0.500053  1
  Ir  Ir24  1  0.000683  0.999980  0.501321  1
  Ir  Ir25  1  0.498632  0.999967  0.999291  1
  Ir  Ir26  1  0.498145  0.498129  0.999988  1
  Ir  Ir27  1  0.498641  0.499314  0.498657  1
  Ir  Ir28  1  0.000634  0.499285  0.000650  1
  Ir  Ir29  1  0.000360  0.000358  0.999995  1
