# generated using pymatgen
data_Y2ErIn3Ag2Ir
_symmetry_space_group_name_H-M   'P 1'
_cell_length_a   7.93139139
_cell_length_b   7.93851887
_cell_length_c   3.76936900
_cell_angle_alpha   90.00000000
_cell_angle_beta   90.00000000
_cell_angle_gamma   119.84764490
_symmetry_Int_Tables_number   1
_chemical_formula_structural   Y2ErIn3Ag2Ir
_chemical_formula_sum   'Y2 Er1 In3 Ag2 Ir1'
_cell_volume   205.85093636
_cell_formula_units_Z   1
loop_
 _symmetry_equiv_pos_site_id
 _symmetry_equiv_pos_as_xyz
  1  'x, y, z'
loop_
 _atom_site_type_symbol
 _atom_site_label
 _atom_site_symmetry_multiplicity
 _atom_site_fract_x
 _atom_site_fract_y
 _atom_site_fract_z
 _atom_site_occupancy
  Y  Y0  1  0.389413  0.970605  0.000000  1
  Y  Y1  1  0.029994  0.418878  0.000000  1
  Er  Er2  1  0.578736  0.611470  0.000000  1
  In  In3  1  0.991464  0.724021  0.500000  1
  In  In4  1  0.275511  0.267221  0.500000  1
  In  In5  1  0.732361  0.007716  0.500000  1
  Ag  Ag6  1  0.999097  0.998862  0.000000  1
  Ag  Ag7  1  0.666544  0.335230  0.500000  1
  Ir  Ir8  1  0.336878  0.665998  0.500000  1
