# generated using pymatgen
data_Pr3Ho2(Co2Sn5)2
_symmetry_space_group_name_H-M   'P 1'
_cell_length_a   13.91005400
_cell_length_b   13.91005400
_cell_length_c   4.51582200
_cell_angle_alpha   90.00000000
_cell_angle_beta   90.00000000
_cell_angle_gamma   90.00000000
_symmetry_Int_Tables_number   1
_chemical_formula_structural   Pr3Ho2(Co2Sn5)2
_chemical_formula_sum   'Pr6 Ho4 Co8 Sn20'
_cell_volume   873.76460276
_cell_formula_units_Z   2
loop_
 _symmetry_equiv_pos_site_id
 _symmetry_equiv_pos_as_xyz
  1  'x, y, z'
loop_
 _atom_site_type_symbol
 _atom_site_label
 _atom_site_symmetry_multiplicity
 _atom_site_fract_x
 _atom_site_fract_y
 _atom_site_fract_z
 _atom_site_occupancy
  Pr  Pr0  1  0.500000  0.500000  0.000000  1
  Pr  Pr1  1  0.000000  0.000000  0.000000  1
  Pr  Pr2  1  0.889579  0.389579  0.500000  1
  Pr  Pr3  1  0.110421  0.610421  0.500000  1
  Pr  Pr4  1  0.389579  0.110421  0.500000  1
  Pr  Pr5  1  0.610421  0.889579  0.500000  1
  Ho  Ho6  1  0.678412  0.178412  0.500000  1
  Ho  Ho7  1  0.321588  0.821588  0.500000  1
  Ho  Ho8  1  0.178412  0.321588  0.500000  1
  Ho  Ho9  1  0.821588  0.678412  0.500000  1
  Co  Co10  1  0.745760  0.533189  0.000000  1
  Co  Co11  1  0.254240  0.466811  0.000000  1
  Co  Co12  1  0.245760  0.966811  0.000000  1
  Co  Co13  1  0.754240  0.033189  0.000000  1
  Co  Co14  1  0.466811  0.745760  0.000000  1
  Co  Co15  1  0.533189  0.254240  0.000000  1
  Co  Co16  1  0.033189  0.245760  0.000000  1
  Co  Co17  1  0.966811  0.754240  0.000000  1
  Sn  Sn18  1  0.572667  0.072667  0.000000  1
  Sn  Sn19  1  0.427333  0.927333  0.000000  1
  Sn  Sn20  1  0.072667  0.427333  0.000000  1
  Sn  Sn21  1  0.927333  0.572667  0.000000  1
  Sn  Sn22  1  0.650411  0.698097  0.000000  1
  Sn  Sn23  1  0.349589  0.301903  0.000000  1
  Sn  Sn24  1  0.150411  0.801903  0.000000  1
  Sn  Sn25  1  0.849589  0.198097  0.000000  1
  Sn  Sn26  1  0.301903  0.650411  0.000000  1
  Sn  Sn27  1  0.698097  0.349589  0.000000  1
  Sn  Sn28  1  0.198097  0.150411  0.000000  1
  Sn  Sn29  1  0.801903  0.849589  0.000000  1
  Sn  Sn30  1  0.670085  0.509352  0.500000  1
  Sn  Sn31  1  0.329915  0.490648  0.500000  1
  Sn  Sn32  1  0.170085  0.990648  0.500000  1
  Sn  Sn33  1  0.829915  0.009352  0.500000  1
  Sn  Sn34  1  0.490648  0.670085  0.500000  1
  Sn  Sn35  1  0.509352  0.329915  0.500000  1
  Sn  Sn36  1  0.009352  0.170085  0.500000  1
  Sn  Sn37  1  0.990648  0.829915  0.500000  1
