# generated using pymatgen
data_Er3Tm9IrOs3
_symmetry_space_group_name_H-M   'P 1'
_cell_length_a   7.31497859
_cell_length_b   8.90578800
_cell_length_c   6.28035800
_cell_angle_alpha   90.00000000
_cell_angle_beta   90.02213260
_cell_angle_gamma   90.00000000
_symmetry_Int_Tables_number   1
_chemical_formula_structural   Er3Tm9IrOs3
_chemical_formula_sum   'Er3 Tm9 Ir1 Os3'
_cell_volume   409.13796445
_cell_formula_units_Z   1
loop_
 _symmetry_equiv_pos_site_id
 _symmetry_equiv_pos_as_xyz
  1  'x, y, z'
loop_
 _atom_site_type_symbol
 _atom_site_label
 _atom_site_symmetry_multiplicity
 _atom_site_fract_x
 _atom_site_fract_y
 _atom_site_fract_z
 _atom_site_occupancy
  Er  Er0  1  0.038947  0.250000  0.628770  1
  Er  Er1  1  0.961905  0.750000  0.371219  1
  Er  Er2  1  0.460501  0.750000  0.128770  1
  Tm  Tm3  1  0.539092  0.250000  0.870794  1
  Tm  Tm4  1  0.174831  0.063085  0.167619  1
  Tm  Tm5  1  0.826324  0.938373  0.834020  1
  Tm  Tm6  1  0.323228  0.938663  0.668425  1
  Tm  Tm7  1  0.826324  0.561627  0.834020  1
  Tm  Tm8  1  0.675579  0.065484  0.329321  1
  Tm  Tm9  1  0.174831  0.436915  0.167619  1
  Tm  Tm10  1  0.675579  0.434516  0.329321  1
  Tm  Tm11  1  0.323228  0.561337  0.668425  1
  Ir  Ir12  1  0.616546  0.750000  0.540861  1
  Os  Os13  1  0.383700  0.250000  0.461891  1
  Os  Os14  1  0.116965  0.750000  0.960135  1
  Os  Os15  1  0.882424  0.250000  0.038792  1
