# generated using pymatgen
data_Ho4MnRe2Ru5
_symmetry_space_group_name_H-M   'P 1'
_cell_length_a   5.40020706
_cell_length_b   5.14727330
_cell_length_c   8.95129500
_cell_angle_alpha   90.00000000
_cell_angle_beta   90.00000000
_cell_angle_gamma   119.67574723
_symmetry_Int_Tables_number   1
_chemical_formula_structural   Ho4MnRe2Ru5
_chemical_formula_sum   'Ho4 Mn1 Re2 Ru5'
_cell_volume   216.17919624
_cell_formula_units_Z   1
loop_
 _symmetry_equiv_pos_site_id
 _symmetry_equiv_pos_as_xyz
  1  'x, y, z'
loop_
 _atom_site_type_symbol
 _atom_site_label
 _atom_site_symmetry_multiplicity
 _atom_site_fract_x
 _atom_site_fract_y
 _atom_site_fract_z
 _atom_site_occupancy
  Ho  Ho0  1  0.670982  0.337278  0.566687  1
  Ho  Ho1  1  0.327209  0.661317  0.436450  1
  Ho  Ho2  1  0.327209  0.661317  0.063550  1
  Ho  Ho3  1  0.670982  0.337278  0.933313  1
  Mn  Mn4  1  0.163913  0.328515  0.750000  1
  Re  Re5  1  0.841189  0.673823  0.250000  1
  Re  Re6  1  0.833747  0.176025  0.250000  1
  Ru  Ru7  1  0.989126  0.993743  0.502782  1
  Ru  Ru8  1  0.989126  0.993743  0.997218  1
  Ru  Ru9  1  0.177585  0.829042  0.750000  1
  Ru  Ru10  1  0.654502  0.830382  0.750000  1
  Ru  Ru11  1  0.354427  0.177535  0.250000  1
