# generated using pymatgen
data_K3Ba3InBi4
_symmetry_space_group_name_H-M   'P 1'
_cell_length_a   11.48143000
_cell_length_b   11.48142982
_cell_length_c   8.64417400
_cell_angle_alpha   90.00000000
_cell_angle_beta   90.00000000
_cell_angle_gamma   119.99998899
_symmetry_Int_Tables_number   1
_chemical_formula_structural   K3Ba3InBi4
_chemical_formula_sum   'K6 Ba6 In2 Bi8'
_cell_volume   986.83862182
_cell_formula_units_Z   2
loop_
 _symmetry_equiv_pos_site_id
 _symmetry_equiv_pos_as_xyz
  1  'x, y, z'
loop_
 _atom_site_type_symbol
 _atom_site_label
 _atom_site_symmetry_multiplicity
 _atom_site_fract_x
 _atom_site_fract_y
 _atom_site_fract_z
 _atom_site_occupancy
  K  K0  1  0.138506  0.861494  0.174841  1
  K  K1  1  0.277012  0.138506  0.674841  1
  K  K2  1  0.861494  0.722988  0.674841  1
  K  K3  1  0.138506  0.277012  0.174841  1
  K  K4  1  0.722988  0.861494  0.174841  1
  K  K5  1  0.861494  0.138506  0.674841  1
  Ba  Ba6  1  0.955239  0.477620  0.999128  1
  Ba  Ba7  1  0.522380  0.044761  0.999128  1
  Ba  Ba8  1  0.477620  0.955239  0.499128  1
  Ba  Ba9  1  0.044761  0.522380  0.499128  1
  Ba  Ba10  1  0.522380  0.477620  0.999128  1
  Ba  Ba11  1  0.477620  0.522380  0.499128  1
  In  In12  1  0.666667  0.333333  0.377341  1
  In  In13  1  0.333333  0.666667  0.877341  1
  Bi  Bi14  1  0.333333  0.666667  0.229525  1
  Bi  Bi15  1  0.808741  0.191259  0.269743  1
  Bi  Bi16  1  0.617480  0.808741  0.769743  1
  Bi  Bi17  1  0.191259  0.382520  0.769743  1
  Bi  Bi18  1  0.808741  0.617480  0.269743  1
  Bi  Bi19  1  0.666667  0.333333  0.729525  1
  Bi  Bi20  1  0.382520  0.191259  0.269743  1
  Bi  Bi21  1  0.191259  0.808741  0.769743  1
