# generated using pymatgen
data_Ho5InAu4
_symmetry_space_group_name_H-M   'P 1'
_cell_length_a   8.09217700
_cell_length_b   8.09217700
_cell_length_c   3.71439300
_cell_angle_alpha   90.00000000
_cell_angle_beta   90.00000000
_cell_angle_gamma   90.00000000
_symmetry_Int_Tables_number   1
_chemical_formula_structural   Ho5InAu4
_chemical_formula_sum   'Ho5 In1 Au4'
_cell_volume   243.23081737
_cell_formula_units_Z   1
loop_
 _symmetry_equiv_pos_site_id
 _symmetry_equiv_pos_as_xyz
  1  'x, y, z'
loop_
 _atom_site_type_symbol
 _atom_site_label
 _atom_site_symmetry_multiplicity
 _atom_site_fract_x
 _atom_site_fract_y
 _atom_site_fract_z
 _atom_site_occupancy
  Ho  Ho0  1  0.500000  0.500000  0.000000  1
  Ho  Ho1  1  0.684193  0.140517  0.500000  1
  Ho  Ho2  1  0.315807  0.859483  0.500000  1
  Ho  Ho3  1  0.140517  0.315807  0.500000  1
  Ho  Ho4  1  0.859483  0.684193  0.500000  1
  In  In5  1  0.000000  0.000000  0.000000  1
  Au  Au6  1  0.146640  0.619002  0.000000  1
  Au  Au7  1  0.853360  0.380998  0.000000  1
  Au  Au8  1  0.619002  0.853360  0.000000  1
  Au  Au9  1  0.380998  0.146640  0.000000  1
