# generated using pymatgen
data_Tm3Lu3Ni2
_symmetry_space_group_name_H-M   'P 1'
_cell_length_a   6.22918653
_cell_length_b   6.70438923
_cell_length_c   9.36132146
_cell_angle_alpha   90.00453155
_cell_angle_beta   89.65959201
_cell_angle_gamma   89.93074743
_symmetry_Int_Tables_number   1
_chemical_formula_structural   Tm3Lu3Ni2
_chemical_formula_sum   'Tm6 Lu6 Ni4'
_cell_volume   390.94866118
_cell_formula_units_Z   2
loop_
 _symmetry_equiv_pos_site_id
 _symmetry_equiv_pos_as_xyz
  1  'x, y, z'
loop_
 _atom_site_type_symbol
 _atom_site_label
 _atom_site_symmetry_multiplicity
 _atom_site_fract_x
 _atom_site_fract_y
 _atom_site_fract_z
 _atom_site_occupancy
  Tm  Tm0  1  0.633775  0.031185  0.250086  1
  Tm  Tm1  1  0.366225  0.968815  0.749914  1
  Tm  Tm2  1  0.135522  0.469136  0.750605  1
  Tm  Tm3  1  0.864478  0.530864  0.249395  1
  Tm  Tm4  1  0.318707  0.678729  0.433875  1
  Tm  Tm5  1  0.681293  0.321271  0.566125  1
  Lu  Lu6  1  0.180372  0.178529  0.064894  1
  Lu  Lu7  1  0.819628  0.821471  0.935106  1
  Lu  Lu8  1  0.681130  0.320518  0.935872  1
  Lu  Lu9  1  0.820368  0.821086  0.565635  1
  Lu  Lu10  1  0.318870  0.679482  0.064128  1
  Lu  Lu11  1  0.179632  0.178914  0.434365  1
  Ni  Ni12  1  0.447073  0.392957  0.247195  1
  Ni  Ni13  1  0.552927  0.607043  0.752805  1
  Ni  Ni14  1  0.951269  0.106253  0.749625  1
  Ni  Ni15  1  0.048731  0.893747  0.250375  1
