# generated using pymatgen
data_Tb2Ho(ErRu)2
_symmetry_space_group_name_H-M   'P 1'
_cell_length_a   6.32964821
_cell_length_b   7.26289508
_cell_length_c   8.44743945
_cell_angle_alpha   96.71450640
_cell_angle_beta   112.00260538
_cell_angle_gamma   89.99999821
_symmetry_Int_Tables_number   1
_chemical_formula_structural   Tb2Ho(ErRu)2
_chemical_formula_sum   'Tb4 Ho2 Er4 Ru4'
_cell_volume   357.18340570
_cell_formula_units_Z   2
loop_
 _symmetry_equiv_pos_site_id
 _symmetry_equiv_pos_as_xyz
  1  'x, y, z'
loop_
 _atom_site_type_symbol
 _atom_site_label
 _atom_site_symmetry_multiplicity
 _atom_site_fract_x
 _atom_site_fract_y
 _atom_site_fract_z
 _atom_site_occupancy
  Tb  Tb0  1  0.789968  0.583754  0.812585  1
  Tb  Tb1  1  0.977383  0.916246  0.187415  1
  Tb  Tb2  1  0.210041  0.415956  0.187400  1
  Tb  Tb3  1  0.022641  0.084044  0.812600  1
  Ho  Ho4  1  0.205568  0.685043  0.565596  1
  Ho  Ho5  1  0.639971  0.814957  0.434404  1
  Er  Er6  1  0.794454  0.315034  0.434303  1
  Er  Er7  1  0.360152  0.184966  0.565697  1
  Er  Er8  1  0.419805  0.750000  0.000000  1
  Er  Er9  1  0.580284  0.250000  0.000000  1
  Ru  Ru10  1  0.601091  0.924448  0.779297  1
  Ru  Ru11  1  0.821793  0.575552  0.220703  1
  Ru  Ru12  1  0.398891  0.075938  0.220935  1
  Ru  Ru13  1  0.177956  0.424062  0.779065  1
