# generated using pymatgen
data_Dy3Ho7Si5Pb
_symmetry_space_group_name_H-M   'P 1'
_cell_length_a   8.50651200
_cell_length_b   8.53703202
_cell_length_c   6.39180000
_cell_angle_alpha   90.00000000
_cell_angle_beta   90.00000000
_cell_angle_gamma   119.88180974
_symmetry_Int_Tables_number   1
_chemical_formula_structural   Dy3Ho7Si5Pb
_chemical_formula_sum   'Dy3 Ho7 Si5 Pb1'
_cell_volume   402.46510928
_cell_formula_units_Z   1
loop_
 _symmetry_equiv_pos_site_id
 _symmetry_equiv_pos_as_xyz
  1  'x, y, z'
loop_
 _atom_site_type_symbol
 _atom_site_label
 _atom_site_symmetry_multiplicity
 _atom_site_fract_x
 _atom_site_fract_y
 _atom_site_fract_z
 _atom_site_occupancy
  Dy  Dy0  1  0.998586  0.242800  0.250000  1
  Dy  Dy1  1  0.755786  0.757200  0.250000  1
  Dy  Dy2  1  0.240681  0.000000  0.250000  1
  Ho  Ho3  1  0.987445  0.747155  0.750000  1
  Ho  Ho4  1  0.766579  0.000000  0.750000  1
  Ho  Ho5  1  0.240290  0.252845  0.750000  1
  Ho  Ho6  1  0.674930  0.343678  0.003906  1
  Ho  Ho7  1  0.331251  0.656322  0.496094  1
  Ho  Ho8  1  0.331251  0.656322  0.003906  1
  Ho  Ho9  1  0.674930  0.343678  0.496094  1
  Si  Si10  1  0.393785  0.392291  0.250000  1
  Si  Si11  1  0.001494  0.607709  0.250000  1
  Si  Si12  1  0.998491  0.394333  0.750000  1
  Si  Si13  1  0.604157  0.605667  0.750000  1
  Si  Si14  1  0.605769  0.000000  0.250000  1
  Pb  Pb15  1  0.394572  0.000000  0.750000  1
