# generated using pymatgen
data_Pr12FeOsI17
_symmetry_space_group_name_H-M   'P 1'
_cell_length_a   10.14158320
_cell_length_b   12.17002404
_cell_length_c   12.22656088
_cell_angle_alpha   93.58797204
_cell_angle_beta   104.77470129
_cell_angle_gamma   114.31173583
_symmetry_Int_Tables_number   1
_chemical_formula_structural   Pr12FeOsI17
_chemical_formula_sum   'Pr12 Fe1 Os1 I17'
_cell_volume   1305.48351838
_cell_formula_units_Z   1
loop_
 _symmetry_equiv_pos_site_id
 _symmetry_equiv_pos_as_xyz
  1  'x, y, z'
loop_
 _atom_site_type_symbol
 _atom_site_label
 _atom_site_symmetry_multiplicity
 _atom_site_fract_x
 _atom_site_fract_y
 _atom_site_fract_z
 _atom_site_occupancy
  Pr  Pr0  1  0.052853  0.504581  0.319788  1
  Pr  Pr1  1  0.986965  0.811691  0.578404  1
  Pr  Pr2  1  0.649243  0.240650  0.282498  1
  Pr  Pr3  1  0.011349  0.192178  0.413570  1
  Pr  Pr4  1  0.226753  0.669766  0.993934  1
  Pr  Pr5  1  0.261486  0.991349  0.892804  1
  Pr  Pr6  1  0.352565  0.759874  0.716509  1
  Pr  Pr7  1  0.939039  0.485075  0.676523  1
  Pr  Pr8  1  0.745066  0.019952  0.110194  1
  Pr  Pr9  1  0.147035  0.286420  0.151409  1
  Pr  Pr10  1  0.777881  0.327977  0.014780  1
  Pr  Pr11  1  0.850809  0.712457  0.849016  1
  Fe  Fe12  1  0.896296  0.261570  0.214018  1
  Os  Os13  1  0.104151  0.738571  0.785985  1
  I  I14  1  0.785305  0.527200  0.418733  1
  I  I15  1  0.643970  0.419333  0.761885  1
  I  I16  1  0.843182  0.897617  0.323948  1
  I  I17  1  0.325198  0.212607  0.367573  1
  I  I18  1  0.155617  0.104391  0.673432  1
  I  I19  1  0.587112  0.051974  0.845547  1
  I  I20  1  0.756123  0.182668  0.535165  1
  I  I21  1  0.549320  0.711128  0.954171  1
  I  I22  1  0.357371  0.578456  0.242995  1
  I  I23  1  0.212518  0.472172  0.580963  1
  I  I24  1  0.054883  0.368649  0.898600  1
  I  I25  1  0.452949  0.293715  0.048316  1
  I  I26  1  0.999391  0.999083  0.999572  1
  I  I27  1  0.240609  0.812030  0.461539  1
  I  I28  1  0.414283  0.948945  0.155038  1
  I  I29  1  0.675616  0.787592  0.631122  1
  I  I30  1  0.945061  0.630333  0.101971  1
