# generated using pymatgen
data_GdCuRhO4
_symmetry_space_group_name_H-M   'P 1'
_cell_length_a   12.24627505
_cell_length_b   12.39652211
_cell_length_c   12.57084677
_cell_angle_alpha   117.77303189
_cell_angle_beta   115.32300979
_cell_angle_gamma   93.24792943
_symmetry_Int_Tables_number   1
_chemical_formula_structural   GdCuRhO4
_chemical_formula_sum   'Gd2 Cu2 Rh2 O8'
_cell_volume   1446.02072459
_cell_formula_units_Z   2
loop_
 _symmetry_equiv_pos_site_id
 _symmetry_equiv_pos_as_xyz
  1  'x, y, z'
loop_
 _atom_site_type_symbol
 _atom_site_label
 _atom_site_symmetry_multiplicity
 _atom_site_fract_x
 _atom_site_fract_y
 _atom_site_fract_z
 _atom_site_occupancy
  Gd  Gd0  1  0.875000  0.625000  0.250000  1
  Gd  Gd1  1  0.375000  0.625000  0.250000  1
  Cu  Cu2  1  0.748583  0.248730  0.497994  1
  Cu  Cu3  1  0.001417  0.001270  0.002006  1
  Rh  Rh4  1  0.375000  0.125000  0.750000  1
  Rh  Rh5  1  0.375000  0.625000  0.750000  1
  O  O6  1  0.608405  0.394378  0.767800  1
  O  O7  1  0.154214  0.877665  0.284349  1
  O  O8  1  0.588688  0.873016  0.726833  1
  O  O9  1  0.616152  0.843414  0.215706  1
  O  O10  1  0.141595  0.855622  0.732200  1
  O  O11  1  0.595786  0.372335  0.215651  1
  O  O12  1  0.161312  0.376984  0.773167  1
  O  O13  1  0.133848  0.406586  0.284294  1
