# generated using pymatgen
data_Ho3HfGa2Ir3
_symmetry_space_group_name_H-M   'P 1'
_cell_length_a   7.13974237
_cell_length_b   7.13974240
_cell_length_c   4.13322500
_cell_angle_alpha   90.00000000
_cell_angle_beta   90.00000000
_cell_angle_gamma   121.34090756
_symmetry_Int_Tables_number   1
_chemical_formula_structural   Ho3HfGa2Ir3
_chemical_formula_sum   'Ho3 Hf1 Ga2 Ir3'
_cell_volume   179.95196524
_cell_formula_units_Z   1
loop_
 _symmetry_equiv_pos_site_id
 _symmetry_equiv_pos_as_xyz
  1  'x, y, z'
loop_
 _atom_site_type_symbol
 _atom_site_label
 _atom_site_symmetry_multiplicity
 _atom_site_fract_x
 _atom_site_fract_y
 _atom_site_fract_z
 _atom_site_occupancy
  Ho  Ho0  1  0.391904  0.391904  0.500000  1
  Ho  Ho1  1  0.580035  0.011828  0.500000  1
  Ho  Ho2  1  0.011828  0.580035  0.500000  1
  Hf  Hf3  1  0.761162  0.761162  0.000000  1
  Ga  Ga4  1  0.248429  0.999598  0.000000  1
  Ga  Ga5  1  0.999598  0.248429  0.000000  1
  Ir  Ir6  1  0.669879  0.343079  0.000000  1
  Ir  Ir7  1  0.343079  0.669879  0.000000  1
  Ir  Ir8  1  0.994088  0.994088  0.500000  1
