# generated using pymatgen
data_Sc2In7CoHg
_symmetry_space_group_name_H-M   'P 1'
_cell_length_a   4.51585400
_cell_length_b   4.49572300
_cell_length_c   11.91515000
_cell_angle_alpha   90.00000000
_cell_angle_beta   90.00000000
_cell_angle_gamma   90.00000000
_symmetry_Int_Tables_number   1
_chemical_formula_structural   Sc2In7CoHg
_chemical_formula_sum   'Sc2 In7 Co1 Hg1'
_cell_volume   241.90171717
_cell_formula_units_Z   1
loop_
 _symmetry_equiv_pos_site_id
 _symmetry_equiv_pos_as_xyz
  1  'x, y, z'
loop_
 _atom_site_type_symbol
 _atom_site_label
 _atom_site_symmetry_multiplicity
 _atom_site_fract_x
 _atom_site_fract_y
 _atom_site_fract_z
 _atom_site_occupancy
  Sc  Sc0  1  0.000000  0.000000  0.693371  1
  Sc  Sc1  1  0.000000  0.000000  0.306629  1
  In  In2  1  0.500000  0.000000  0.877187  1
  In  In3  1  0.000000  0.500000  0.877009  1
  In  In4  1  0.500000  0.000000  0.122813  1
  In  In5  1  0.000000  0.500000  0.122991  1
  In  In6  1  0.000000  0.500000  0.500000  1
  In  In7  1  0.500000  0.500000  0.687808  1
  In  In8  1  0.500000  0.500000  0.312192  1
  Co  Co9  1  0.000000  0.000000  0.000000  1
  Hg  Hg10  1  0.500000  0.000000  0.500000  1
