# generated using pymatgen
data_La3Nd2IrRu
_symmetry_space_group_name_H-M   'P 1'
_cell_length_a   9.15032100
_cell_length_b   9.15032189
_cell_length_c   7.36923295
_cell_angle_alpha   84.62757262
_cell_angle_beta   84.62757280
_cell_angle_gamma   42.71197268
_symmetry_Int_Tables_number   1
_chemical_formula_structural   La3Nd2IrRu
_chemical_formula_sum   'La6 Nd4 Ir2 Ru2'
_cell_volume   416.40837935
_cell_formula_units_Z   2
loop_
 _symmetry_equiv_pos_site_id
 _symmetry_equiv_pos_as_xyz
  1  'x, y, z'
loop_
 _atom_site_type_symbol
 _atom_site_label
 _atom_site_symmetry_multiplicity
 _atom_site_fract_x
 _atom_site_fract_y
 _atom_site_fract_z
 _atom_site_occupancy
  La  La0  1  0.009258  0.805615  0.916208  1
  La  La1  1  0.194385  0.990742  0.583792  1
  La  La2  1  0.983781  0.202015  0.091479  1
  La  La3  1  0.797985  0.016219  0.408521  1
  La  La4  1  0.362437  0.211622  0.818509  1
  La  La5  1  0.788378  0.637563  0.681491  1
  Nd  Nd6  1  0.642311  0.789264  0.186173  1
  Nd  Nd7  1  0.210736  0.357689  0.313827  1
  Nd  Nd8  1  0.567424  0.432576  0.750000  1
  Nd  Nd9  1  0.427691  0.572309  0.250000  1
  Ir  Ir10  1  0.177771  0.597318  0.579426  1
  Ir  Ir11  1  0.402682  0.822229  0.920574  1
  Ru  Ru12  1  0.830353  0.395192  0.423595  1
  Ru  Ru13  1  0.604808  0.169647  0.076405  1
