# generated using pymatgen
data_Er4Si4TcOs
_symmetry_space_group_name_H-M   'P 1'
_cell_length_a   5.72797542
_cell_length_b   5.72797618
_cell_length_c   9.96993089
_cell_angle_alpha   116.41895475
_cell_angle_beta   116.41896080
_cell_angle_gamma   43.07784844
_symmetry_Int_Tables_number   1
_chemical_formula_structural   Er4Si4TcOs
_chemical_formula_sum   'Er4 Si4 Tc1 Os1'
_cell_volume   196.19692326
_cell_formula_units_Z   1
loop_
 _symmetry_equiv_pos_site_id
 _symmetry_equiv_pos_as_xyz
  1  'x, y, z'
loop_
 _atom_site_type_symbol
 _atom_site_label
 _atom_site_symmetry_multiplicity
 _atom_site_fract_x
 _atom_site_fract_y
 _atom_site_fract_z
 _atom_site_occupancy
  Er  Er0  1  0.006113  0.006113  0.178256  1
  Er  Er1  1  0.815252  0.815252  0.390851  1
  Er  Er2  1  0.186370  0.186370  0.612176  1
  Er  Er3  1  0.992043  0.992043  0.821045  1
  Si  Si4  1  0.641062  0.641062  0.058200  1
  Si  Si5  1  0.503903  0.503903  0.378386  1
  Si  Si6  1  0.497591  0.497591  0.624498  1
  Si  Si7  1  0.356710  0.356710  0.937827  1
  Tc  Tc8  1  0.271397  0.271397  0.128062  1
  Os  Os9  1  0.729557  0.729557  0.870699  1
