# generated using pymatgen
data_Sc6AlSn5Pd6
_symmetry_space_group_name_H-M   'P 1'
_cell_length_a   7.48809800
_cell_length_b   7.55990002
_cell_length_c   7.11804225
_cell_angle_alpha   89.94182247
_cell_angle_beta   90.00000000
_cell_angle_gamma   119.68631126
_symmetry_Int_Tables_number   1
_chemical_formula_structural   Sc6AlSn5Pd6
_chemical_formula_sum   'Sc6 Al1 Sn5 Pd6'
_cell_volume   350.06007733
_cell_formula_units_Z   1
loop_
 _symmetry_equiv_pos_site_id
 _symmetry_equiv_pos_as_xyz
  1  'x, y, z'
loop_
 _atom_site_type_symbol
 _atom_site_label
 _atom_site_symmetry_multiplicity
 _atom_site_fract_x
 _atom_site_fract_y
 _atom_site_fract_z
 _atom_site_occupancy
  Sc  Sc0  1  0.404624  0.013189  0.245201  1
  Sc  Sc1  1  0.612942  0.605101  0.247884  1
  Sc  Sc2  1  0.982303  0.382615  0.246913  1
  Sc  Sc3  1  0.391434  0.986811  0.754799  1
  Sc  Sc4  1  0.599688  0.617385  0.753087  1
  Sc  Sc5  1  0.007841  0.394899  0.752116  1
  Al  Al6  1  0.728234  0.000000  0.000000  1
  Sn  Sn7  1  0.273807  0.273263  0.500149  1
  Sn  Sn8  1  0.000543  0.726737  0.499851  1
  Sn  Sn9  1  0.996498  0.722856  0.999876  1
  Sn  Sn10  1  0.273641  0.277144  0.000124  1
  Sn  Sn11  1  0.724074  0.000000  0.500000  1
  Pd  Pd12  1  0.347218  0.678434  0.022213  1
  Pd  Pd13  1  0.333574  0.665221  0.474418  1
  Pd  Pd14  1  0.668785  0.321566  0.977787  1
  Pd  Pd15  1  0.668355  0.334779  0.525582  1
  Pd  Pd16  1  0.993364  0.000290  0.244259  1
  Pd  Pd17  1  0.993074  0.999710  0.755741  1
