# generated using pymatgen
data_Nd5IrRh2
_symmetry_space_group_name_H-M   'P 1'
_cell_length_a   11.26165300
_cell_length_b   11.26165300
_cell_length_c   6.61532200
_cell_angle_alpha   90.00000000
_cell_angle_beta   90.00000000
_cell_angle_gamma   90.00000000
_symmetry_Int_Tables_number   1
_chemical_formula_structural   Nd5IrRh2
_chemical_formula_sum   'Nd20 Ir4 Rh8'
_cell_volume   838.98707675
_cell_formula_units_Z   4
loop_
 _symmetry_equiv_pos_site_id
 _symmetry_equiv_pos_as_xyz
  1  'x, y, z'
loop_
 _atom_site_type_symbol
 _atom_site_label
 _atom_site_symmetry_multiplicity
 _atom_site_fract_x
 _atom_site_fract_y
 _atom_site_fract_z
 _atom_site_occupancy
  Nd  Nd0  1  0.090933  0.291000  0.115750  1
  Nd  Nd1  1  0.791000  0.409067  0.115750  1
  Nd  Nd2  1  0.209000  0.590933  0.115750  1
  Nd  Nd3  1  0.909067  0.709000  0.115750  1
  Nd  Nd4  1  0.409067  0.791000  0.384250  1
  Nd  Nd5  1  0.590933  0.209000  0.384250  1
  Nd  Nd6  1  0.291000  0.090933  0.384250  1
  Nd  Nd7  1  0.709000  0.909067  0.384250  1
  Nd  Nd8  1  0.409618  0.208549  0.882273  1
  Nd  Nd9  1  0.708549  0.090382  0.882273  1
  Nd  Nd10  1  0.291451  0.909618  0.882273  1
  Nd  Nd11  1  0.590382  0.791451  0.882273  1
  Nd  Nd12  1  0.090382  0.708549  0.617727  1
  Nd  Nd13  1  0.909618  0.291451  0.617727  1
  Nd  Nd14  1  0.208549  0.409618  0.617727  1
  Nd  Nd15  1  0.791451  0.590382  0.617727  1
  Nd  Nd16  1  0.000000  0.000000  0.000344  1
  Nd  Nd17  1  0.500000  0.500000  0.000344  1
  Nd  Nd18  1  0.500000  0.500000  0.499656  1
  Nd  Nd19  1  0.000000  0.000000  0.499656  1
  Ir  Ir20  1  0.346133  0.653867  0.750000  1
  Ir  Ir21  1  0.153867  0.153867  0.750000  1
  Ir  Ir22  1  0.846133  0.846133  0.750000  1
  Ir  Ir23  1  0.653867  0.346133  0.750000  1
  Rh  Rh24  1  0.154067  0.845933  0.250000  1
  Rh  Rh25  1  0.345933  0.345933  0.250000  1
  Rh  Rh26  1  0.654067  0.654067  0.250000  1
  Rh  Rh27  1  0.845933  0.154067  0.250000  1
  Rh  Rh28  1  0.000000  0.500000  0.378672  1
  Rh  Rh29  1  0.500000  0.000000  0.121328  1
  Rh  Rh30  1  0.500000  0.000000  0.620091  1
  Rh  Rh31  1  0.000000  0.500000  0.879909  1
