# generated using pymatgen
data_Er3Zr(Al3Ir)6
_symmetry_space_group_name_H-M   'P 1'
_cell_length_a   7.53226969
_cell_length_b   7.52388444
_cell_length_c   9.39828200
_cell_angle_alpha   90.00000000
_cell_angle_beta   90.00000000
_cell_angle_gamma   119.61372086
_symmetry_Int_Tables_number   1
_chemical_formula_structural   Er3Zr(Al3Ir)6
_chemical_formula_sum   'Er3 Zr1 Al18 Ir6'
_cell_volume   463.04628623
_cell_formula_units_Z   1
loop_
 _symmetry_equiv_pos_site_id
 _symmetry_equiv_pos_as_xyz
  1  'x, y, z'
loop_
 _atom_site_type_symbol
 _atom_site_label
 _atom_site_symmetry_multiplicity
 _atom_site_fract_x
 _atom_site_fract_y
 _atom_site_fract_z
 _atom_site_occupancy
  Er  Er0  1  0.005981  0.327186  0.750000  1
  Er  Er1  1  0.671112  0.995677  0.250000  1
  Er  Er2  1  0.328853  0.006849  0.750000  1
  Zr  Zr3  1  0.996616  0.671802  0.250000  1
  Al  Al4  1  0.125720  0.123377  0.250000  1
  Al  Al5  1  0.870681  0.869265  0.750000  1
  Al  Al6  1  0.000223  0.337613  0.078427  1
  Al  Al7  1  0.999504  0.664952  0.929090  1
  Al  Al8  1  0.999504  0.664952  0.570910  1
  Al  Al9  1  0.332608  0.998312  0.421358  1
  Al  Al10  1  0.000223  0.337613  0.421573  1
  Al  Al11  1  0.664453  0.998456  0.574794  1
  Al  Al12  1  0.664453  0.998456  0.925206  1
  Al  Al13  1  0.332608  0.998312  0.078642  1
  Al  Al14  1  0.333902  0.334000  0.551259  1
  Al  Al15  1  0.668941  0.667138  0.443341  1
  Al  Al16  1  0.668941  0.667138  0.056659  1
  Al  Al17  1  0.333902  0.334000  0.948741  1
  Al  Al18  1  0.336032  0.549665  0.250000  1
  Al  Al19  1  0.661004  0.451953  0.750000  1
  Al  Al20  1  0.554846  0.343953  0.250000  1
  Al  Al21  1  0.450372  0.659455  0.750000  1
  Ir  Ir22  1  0.672464  0.328257  0.000666  1
  Ir  Ir23  1  0.327642  0.672218  0.001341  1
  Ir  Ir24  1  0.327642  0.672218  0.498659  1
  Ir  Ir25  1  0.672464  0.328257  0.499334  1
  Ir  Ir26  1  0.999655  0.999464  0.000564  1
  Ir  Ir27  1  0.999655  0.999464  0.499436  1
