# generated using pymatgen
data_Tb6Er4In8IrPd3
_symmetry_space_group_name_H-M   'P 1'
_cell_length_a   3.64201700
_cell_length_b   8.14414503
_cell_length_c   18.25257895
_cell_angle_alpha   90.01376536
_cell_angle_beta   90.00000000
_cell_angle_gamma   90.00000000
_symmetry_Int_Tables_number   1
_chemical_formula_structural   Tb6Er4In8IrPd3
_chemical_formula_sum   'Tb6 Er4 In8 Ir1 Pd3'
_cell_volume   541.39182122
_cell_formula_units_Z   1
loop_
 _symmetry_equiv_pos_site_id
 _symmetry_equiv_pos_as_xyz
  1  'x, y, z'
loop_
 _atom_site_type_symbol
 _atom_site_label
 _atom_site_symmetry_multiplicity
 _atom_site_fract_x
 _atom_site_fract_y
 _atom_site_fract_z
 _atom_site_occupancy
  Tb  Tb0  1  0.000000  0.500467  0.499738  1
  Tb  Tb1  1  0.000000  0.000658  0.000820  1
  Tb  Tb2  1  0.000000  0.729978  0.277931  1
  Tb  Tb3  1  0.000000  0.259631  0.719015  1
  Tb  Tb4  1  0.000000  0.759032  0.780213  1
  Tb  Tb5  1  0.000000  0.253750  0.220011  1
  Er  Er6  1  0.000000  0.615253  0.087264  1
  Er  Er7  1  0.000000  0.382797  0.916150  1
  Er  Er8  1  0.000000  0.882507  0.583462  1
  Er  Er9  1  0.000000  0.117023  0.415028  1
  In  In10  1  0.500000  0.706372  0.933205  1
  In  In11  1  0.500000  0.294653  0.067561  1
  In  In12  1  0.500000  0.794086  0.432487  1
  In  In13  1  0.500000  0.205160  0.566381  1
  In  In14  1  0.500000  0.579768  0.649357  1
  In  In15  1  0.500000  0.421710  0.351627  1
  In  In16  1  0.500000  0.923476  0.150216  1
  In  In17  1  0.500000  0.079232  0.850407  1
  Ir  Ir18  1  0.500000  0.521223  0.194942  1
  Pd  Pd19  1  0.500000  0.475685  0.804929  1
  Pd  Pd20  1  0.500000  0.976109  0.694644  1
  Pd  Pd21  1  0.500000  0.021431  0.304611  1
