# generated using pymatgen
data_LiLa19(Ir2Ru)4
_symmetry_space_group_name_H-M   'P 1'
_cell_length_a   11.27032200
_cell_length_b   11.27032200
_cell_length_c   6.64483200
_cell_angle_alpha   90.00000000
_cell_angle_beta   90.00000000
_cell_angle_gamma   90.00000000
_symmetry_Int_Tables_number   1
_chemical_formula_structural   LiLa19(Ir2Ru)4
_chemical_formula_sum   'Li1 La19 Ir8 Ru4'
_cell_volume   844.02761042
_cell_formula_units_Z   1
loop_
 _symmetry_equiv_pos_site_id
 _symmetry_equiv_pos_as_xyz
  1  'x, y, z'
loop_
 _atom_site_type_symbol
 _atom_site_label
 _atom_site_symmetry_multiplicity
 _atom_site_fract_x
 _atom_site_fract_y
 _atom_site_fract_z
 _atom_site_occupancy
  Li  Li0  1  0.000000  0.000000  0.500000  1
  La  La1  1  0.277383  0.085942  0.391645  1
  La  La2  1  0.294488  0.910989  0.887339  1
  La  La3  1  0.705512  0.089011  0.887339  1
  La  La4  1  0.722617  0.914058  0.391645  1
  La  La5  1  0.591488  0.794498  0.887098  1
  La  La6  1  0.585454  0.201959  0.385033  1
  La  La7  1  0.414546  0.798041  0.385033  1
  La  La8  1  0.408512  0.205502  0.887098  1
  La  La9  1  0.201959  0.414546  0.614967  1
  La  La10  1  0.205502  0.591488  0.112902  1
  La  La11  1  0.794498  0.408512  0.112902  1
  La  La12  1  0.798041  0.585454  0.614967  1
  La  La13  1  0.910989  0.705512  0.112661  1
  La  La14  1  0.914058  0.277383  0.608355  1
  La  La15  1  0.085942  0.722617  0.608355  1
  La  La16  1  0.089011  0.294488  0.112661  1
  La  La17  1  0.000000  0.000000  0.000000  1
  La  La18  1  0.500000  0.500000  0.000000  1
  La  La19  1  0.500000  0.500000  0.500000  1
  Ir  Ir20  1  0.845838  0.154840  0.242173  1
  Ir  Ir21  1  0.845160  0.845838  0.757827  1
  Ir  Ir22  1  0.154840  0.154162  0.757827  1
  Ir  Ir23  1  0.154162  0.845160  0.242173  1
  Ir  Ir24  1  0.652974  0.347486  0.747570  1
  Ir  Ir25  1  0.652514  0.652974  0.252430  1
  Ir  Ir26  1  0.347486  0.347026  0.252430  1
  Ir  Ir27  1  0.347026  0.652514  0.747570  1
  Ru  Ru28  1  0.500000  0.000000  0.121454  1
  Ru  Ru29  1  0.500000  0.000000  0.617505  1
  Ru  Ru30  1  0.000000  0.500000  0.878546  1
  Ru  Ru31  1  0.000000  0.500000  0.382495  1
