# generated using pymatgen
data_Ce3MgZn2CuIr2
_symmetry_space_group_name_H-M   'P 1'
_cell_length_a   7.29129700
_cell_length_b   7.29129700
_cell_length_c   3.94763100
_cell_angle_alpha   90.00000000
_cell_angle_beta   90.00000000
_cell_angle_gamma   120.05995050
_symmetry_Int_Tables_number   1
_chemical_formula_structural   Ce3MgZn2CuIr2
_chemical_formula_sum   'Ce3 Mg1 Zn2 Cu1 Ir2'
_cell_volume   181.64108413
_cell_formula_units_Z   1
loop_
 _symmetry_equiv_pos_site_id
 _symmetry_equiv_pos_as_xyz
  1  'x, y, z'
loop_
 _atom_site_type_symbol
 _atom_site_label
 _atom_site_symmetry_multiplicity
 _atom_site_fract_x
 _atom_site_fract_y
 _atom_site_fract_z
 _atom_site_occupancy
  Ce  Ce0  1  0.575278  0.004487  0.000000  1
  Ce  Ce1  1  0.004487  0.575278  0.000000  1
  Ce  Ce2  1  0.410704  0.410704  0.000000  1
  Mg  Mg3  1  0.765295  0.765295  0.500000  1
  Zn  Zn4  1  0.237920  0.000346  0.500000  1
  Zn  Zn5  1  0.000346  0.237920  0.500000  1
  Cu  Cu6  1  0.008126  0.008126  0.000000  1
  Ir  Ir7  1  0.331675  0.666168  0.500000  1
  Ir  Ir8  1  0.666168  0.331675  0.500000  1
