# generated using pymatgen
data_Sc4SiNi13
_symmetry_space_group_name_H-M   'P 1'
_cell_length_a   4.75199096
_cell_length_b   4.83212472
_cell_length_c   12.16373486
_cell_angle_alpha   78.54324605
_cell_angle_beta   78.73577938
_cell_angle_gamma   59.44059702
_symmetry_Int_Tables_number   1
_chemical_formula_structural   Sc4SiNi13
_chemical_formula_sum   'Sc4 Si1 Ni13'
_cell_volume   234.24158342
_cell_formula_units_Z   1
loop_
 _symmetry_equiv_pos_site_id
 _symmetry_equiv_pos_as_xyz
  1  'x, y, z'
loop_
 _atom_site_type_symbol
 _atom_site_label
 _atom_site_symmetry_multiplicity
 _atom_site_fract_x
 _atom_site_fract_y
 _atom_site_fract_z
 _atom_site_occupancy
  Sc  Sc0  1  0.948419  0.948033  0.155512  1
  Sc  Sc1  1  0.051581  0.051967  0.844488  1
  Sc  Sc2  1  0.854244  0.851281  0.443195  1
  Sc  Sc3  1  0.145756  0.148719  0.556805  1
  Si  Si4  1  0.000000  0.500000  0.000000  1
  Ni  Ni5  1  0.500000  0.500000  0.500000  1
  Ni  Ni6  1  0.730013  0.718298  0.833391  1
  Ni  Ni7  1  0.269987  0.281702  0.166609  1
  Ni  Ni8  1  0.621675  0.605646  0.167033  1
  Ni  Ni9  1  0.378325  0.394354  0.832967  1
  Ni  Ni10  1  0.500000  0.000000  0.000000  1
  Ni  Ni11  1  0.500000  0.500000  0.000000  1
  Ni  Ni12  1  0.391734  0.386631  0.332391  1
  Ni  Ni13  1  0.894130  0.384902  0.336067  1
  Ni  Ni14  1  0.391734  0.889246  0.332391  1
  Ni  Ni15  1  0.608266  0.613369  0.667609  1
  Ni  Ni16  1  0.105870  0.615098  0.663933  1
  Ni  Ni17  1  0.608266  0.110754  0.667609  1
