# generated using pymatgen
data_Ba4Ti2RhO10
_symmetry_space_group_name_H-M   'P 1'
_cell_length_a   7.40285125
_cell_length_b   7.40285231
_cell_length_c   13.17066600
_cell_angle_alpha   90.00000000
_cell_angle_beta   90.00000000
_cell_angle_gamma   133.44381399
_symmetry_Int_Tables_number   1
_chemical_formula_structural   Ba4Ti2RhO10
_chemical_formula_sum   'Ba8 Ti4 Rh2 O20'
_cell_volume   524.04888682
_cell_formula_units_Z   2
loop_
 _symmetry_equiv_pos_site_id
 _symmetry_equiv_pos_as_xyz
  1  'x, y, z'
loop_
 _atom_site_type_symbol
 _atom_site_label
 _atom_site_symmetry_multiplicity
 _atom_site_fract_x
 _atom_site_fract_y
 _atom_site_fract_z
 _atom_site_occupancy
  Ba  Ba0  1  0.470750  0.529250  0.140651  1
  Ba  Ba1  1  0.234834  0.765166  0.897422  1
  Ba  Ba2  1  0.734834  0.265166  0.602578  1
  Ba  Ba3  1  0.029250  0.970750  0.640651  1
  Ba  Ba4  1  0.970750  0.029250  0.359349  1
  Ba  Ba5  1  0.265166  0.734834  0.397422  1
  Ba  Ba6  1  0.529250  0.470750  0.859349  1
  Ba  Ba7  1  0.765166  0.234834  0.102578  1
  Ti  Ti8  1  0.138369  0.861631  0.153625  1
  Ti  Ti9  1  0.361631  0.638369  0.653625  1
  Ti  Ti10  1  0.861631  0.138369  0.846375  1
  Ti  Ti11  1  0.638369  0.361631  0.346375  1
  Rh  Rh12  1  0.000000  0.000000  0.000000  1
  Rh  Rh13  1  0.500000  0.500000  0.500000  1
  O  O14  1  0.538069  0.461931  0.648572  1
  O  O15  1  0.729691  0.270309  0.854519  1
  O  O16  1  0.384174  0.165961  0.461170  1
  O  O17  1  0.884174  0.665961  0.038830  1
  O  O18  1  0.626374  0.873626  0.750000  1
  O  O19  1  0.126374  0.373626  0.750000  1
  O  O20  1  0.270309  0.729691  0.145481  1
  O  O21  1  0.038069  0.961931  0.851428  1
  O  O22  1  0.373626  0.126374  0.250000  1
  O  O23  1  0.834039  0.615826  0.461170  1
  O  O24  1  0.770309  0.229691  0.354519  1
  O  O25  1  0.461931  0.538069  0.351428  1
  O  O26  1  0.873626  0.626374  0.250000  1
  O  O27  1  0.115826  0.334039  0.961170  1
  O  O28  1  0.615826  0.834039  0.538830  1
  O  O29  1  0.229691  0.770309  0.645481  1
  O  O30  1  0.665961  0.884174  0.961170  1
  O  O31  1  0.165961  0.384174  0.538830  1
  O  O32  1  0.961931  0.038069  0.148572  1
  O  O33  1  0.334039  0.115826  0.038830  1
