# generated using pymatgen
data_K2Tm4Cu4S9
_symmetry_space_group_name_H-M   'P 1'
_cell_length_a   3.92164300
_cell_length_b   7.09843992
_cell_length_c   14.99761876
_cell_angle_alpha   93.54269008
_cell_angle_beta   97.51248109
_cell_angle_gamma   106.03549804
_symmetry_Int_Tables_number   1
_chemical_formula_structural   K2Tm4Cu4S9
_chemical_formula_sum   'K2 Tm4 Cu4 S9'
_cell_volume   395.70258775
_cell_formula_units_Z   1
loop_
 _symmetry_equiv_pos_site_id
 _symmetry_equiv_pos_as_xyz
  1  'x, y, z'
loop_
 _atom_site_type_symbol
 _atom_site_label
 _atom_site_symmetry_multiplicity
 _atom_site_fract_x
 _atom_site_fract_y
 _atom_site_fract_z
 _atom_site_occupancy
  K  K0  1  0.259270  0.288518  0.230021  1
  K  K1  1  0.740730  0.711481  0.769979  1
  Tm  Tm2  1  0.400092  0.745515  0.054671  1
  Tm  Tm3  1  0.628890  0.862312  0.395468  1
  Tm  Tm4  1  0.371110  0.137687  0.604533  1
  Tm  Tm5  1  0.599908  0.254485  0.945330  1
  Cu  Cu6  1  0.983458  0.738301  0.228616  1
  Cu  Cu7  1  0.891449  0.322864  0.460033  1
  Cu  Cu8  1  0.108552  0.677137  0.539967  1
  Cu  Cu9  1  0.016541  0.261698  0.771384  1
  S  S10  1  0.000000  0.000000  0.000000  1
  S  S11  1  0.803579  0.505380  0.101778  1
  S  S12  1  0.572484  0.923336  0.221631  1
  S  S13  1  0.983586  0.594043  0.373128  1
  S  S14  1  0.284609  0.144965  0.424253  1
  S  S15  1  0.715392  0.855036  0.575747  1
  S  S16  1  0.016415  0.405957  0.626872  1
  S  S17  1  0.427517  0.076665  0.778369  1
  S  S18  1  0.196421  0.494619  0.898223  1
