# generated using pymatgen
data_DyHo2In3SnPt2
_symmetry_space_group_name_H-M   'P 1'
_cell_length_a   7.60115622
_cell_length_b   7.60645229
_cell_length_c   4.15861400
_cell_angle_alpha   90.00000000
_cell_angle_beta   90.00000000
_cell_angle_gamma   120.00424021
_symmetry_Int_Tables_number   1
_chemical_formula_structural   DyHo2In3SnPt2
_chemical_formula_sum   'Dy1 Ho2 In3 Sn1 Pt2'
_cell_volume   208.22002247
_cell_formula_units_Z   1
loop_
 _symmetry_equiv_pos_site_id
 _symmetry_equiv_pos_as_xyz
  1  'x, y, z'
loop_
 _atom_site_type_symbol
 _atom_site_label
 _atom_site_symmetry_multiplicity
 _atom_site_fract_x
 _atom_site_fract_y
 _atom_site_fract_z
 _atom_site_occupancy
  Dy  Dy0  1  0.607178  0.020810  0.500000  1
  Ho  Ho1  1  0.413597  0.392396  0.500000  1
  Ho  Ho2  1  0.978723  0.586413  0.500000  1
  In  In3  1  0.755499  0.744556  0.000000  1
  In  In4  1  0.989375  0.244691  0.000000  1
  In  In5  1  0.255339  0.010906  0.000000  1
  Sn  Sn6  1  0.333058  0.666256  0.000000  1
  Pt  Pt7  1  0.666814  0.333950  0.000000  1
  Pt  Pt8  1  0.000418  0.000019  0.500000  1
