# generated using pymatgen
data_Sc6Zn20Ag3As
_symmetry_space_group_name_H-M   'P 1'
_cell_length_a   8.85928576
_cell_length_b   8.85928627
_cell_length_c   8.85648900
_cell_angle_alpha   60.01044791
_cell_angle_beta   60.01044602
_cell_angle_gamma   60.01855840
_symmetry_Int_Tables_number   1
_chemical_formula_structural   Sc6Zn20Ag3As
_chemical_formula_sum   'Sc6 Zn20 Ag3 As1'
_cell_volume   491.66974964
_cell_formula_units_Z   1
loop_
 _symmetry_equiv_pos_site_id
 _symmetry_equiv_pos_as_xyz
  1  'x, y, z'
loop_
 _atom_site_type_symbol
 _atom_site_label
 _atom_site_symmetry_multiplicity
 _atom_site_fract_x
 _atom_site_fract_y
 _atom_site_fract_z
 _atom_site_occupancy
  Sc  Sc0  1  0.712429  0.287818  0.288079  1
  Sc  Sc1  1  0.712429  0.287818  0.711675  1
  Sc  Sc2  1  0.710348  0.710348  0.289652  1
  Sc  Sc3  1  0.287818  0.712429  0.711675  1
  Sc  Sc4  1  0.287818  0.712429  0.288079  1
  Sc  Sc5  1  0.285894  0.285894  0.714106  1
  Zn  Zn6  1  0.124956  0.124956  0.623061  1
  Zn  Zn7  1  0.124956  0.124956  0.127030  1
  Zn  Zn8  1  0.375837  0.871708  0.876227  1
  Zn  Zn9  1  0.871708  0.375837  0.876227  1
  Zn  Zn10  1  0.876396  0.876396  0.367171  1
  Zn  Zn11  1  0.876396  0.876396  0.880037  1
  Zn  Zn12  1  0.496842  0.998587  0.999474  1
  Zn  Zn13  1  0.496842  0.998587  0.505098  1
  Zn  Zn14  1  0.500831  0.500831  0.999169  1
  Zn  Zn15  1  0.998587  0.496842  0.505098  1
  Zn  Zn16  1  0.998587  0.496842  0.999474  1
  Zn  Zn17  1  0.998882  0.998882  0.501118  1
  Zn  Zn18  1  0.995668  0.333589  0.335370  1
  Zn  Zn19  1  0.333589  0.995668  0.335370  1
  Zn  Zn20  1  0.334664  0.334664  0.994059  1
  Zn  Zn21  1  0.334664  0.334664  0.336611  1
  Zn  Zn22  1  0.001479  0.666437  0.666043  1
  Zn  Zn23  1  0.666437  0.001479  0.666043  1
  Zn  Zn24  1  0.665922  0.665922  0.003382  1
  Zn  Zn25  1  0.665922  0.665922  0.664776  1
  Ag  Ag26  1  0.633068  0.120635  0.123149  1
  Ag  Ag27  1  0.120635  0.633068  0.123149  1
  Ag  Ag28  1  0.012184  0.012184  0.987816  1
  As  As29  1  0.498215  0.498215  0.501785  1
