# generated using pymatgen
data_La3Nd7(Sn3O)2
_symmetry_space_group_name_H-M   'P 1'
_cell_length_a   9.44733827
_cell_length_b   9.44733821
_cell_length_c   9.44456153
_cell_angle_alpha   126.31363987
_cell_angle_beta   126.31363331
_cell_angle_gamma   79.29527431
_symmetry_Int_Tables_number   1
_chemical_formula_structural   La3Nd7(Sn3O)2
_chemical_formula_sum   'La3 Nd7 Sn6 O2'
_cell_volume   529.36204882
_cell_formula_units_Z   1
loop_
 _symmetry_equiv_pos_site_id
 _symmetry_equiv_pos_as_xyz
  1  'x, y, z'
loop_
 _atom_site_type_symbol
 _atom_site_label
 _atom_site_symmetry_multiplicity
 _atom_site_fract_x
 _atom_site_fract_y
 _atom_site_fract_z
 _atom_site_occupancy
  La  La0  1  0.497969  0.306675  0.499305  1
  La  La1  1  0.806675  0.997969  0.499305  1
  La  La2  1  0.999488  0.499488  0.193468  1
  Nd  Nd3  1  0.303866  0.803866  0.805873  1
  Nd  Nd4  1  0.504757  0.700371  0.501638  1
  Nd  Nd5  1  0.200371  0.004757  0.501638  1
  Nd  Nd6  1  0.004517  0.504517  0.804955  1
  Nd  Nd7  1  0.698407  0.198407  0.193944  1
  Nd  Nd8  1  0.501382  0.501797  0.999795  1
  Nd  Nd9  1  0.001797  0.001382  0.999795  1
  Sn  Sn10  1  0.140235  0.359499  0.501125  1
  Sn  Sn11  1  0.859499  0.640235  0.501125  1
  Sn  Sn12  1  0.640005  0.140005  0.782137  1
  Sn  Sn13  1  0.357556  0.857556  0.216178  1
  Sn  Sn14  1  0.750859  0.753708  0.999371  1
  Sn  Sn15  1  0.253708  0.250859  0.999371  1
  O  O16  1  0.751081  0.251081  0.500842  1
  O  O17  1  0.250670  0.750670  0.500136  1
