# generated using pymatgen
data_Sc3Cr(Ni4P3)2
_symmetry_space_group_name_H-M   'P 1'
_cell_length_a   3.62507300
_cell_length_b   10.44734500
_cell_length_c   12.09617200
_cell_angle_alpha   90.00000000
_cell_angle_beta   90.00000000
_cell_angle_gamma   90.00000000
_symmetry_Int_Tables_number   1
_chemical_formula_structural   Sc3Cr(Ni4P3)2
_chemical_formula_sum   'Sc6 Cr2 Ni16 P12'
_cell_volume   458.11092270
_cell_formula_units_Z   2
loop_
 _symmetry_equiv_pos_site_id
 _symmetry_equiv_pos_as_xyz
  1  'x, y, z'
loop_
 _atom_site_type_symbol
 _atom_site_label
 _atom_site_symmetry_multiplicity
 _atom_site_fract_x
 _atom_site_fract_y
 _atom_site_fract_z
 _atom_site_occupancy
  Sc  Sc0  1  0.000000  0.500000  0.524815  1
  Sc  Sc1  1  0.500000  0.000000  0.475185  1
  Sc  Sc2  1  0.500000  0.818454  0.206543  1
  Sc  Sc3  1  0.500000  0.181546  0.206543  1
  Sc  Sc4  1  0.000000  0.681546  0.793457  1
  Sc  Sc5  1  0.000000  0.318454  0.793457  1
  Cr  Cr6  1  0.500000  0.500000  0.157806  1
  Cr  Cr7  1  0.000000  0.000000  0.842194  1
  Ni  Ni8  1  0.500000  0.500000  0.700050  1
  Ni  Ni9  1  0.000000  0.000000  0.299950  1
  Ni  Ni10  1  0.000000  0.500000  0.984345  1
  Ni  Ni11  1  0.500000  0.000000  0.015655  1
  Ni  Ni12  1  0.500000  0.333164  0.988816  1
  Ni  Ni13  1  0.500000  0.666836  0.988816  1
  Ni  Ni14  1  0.000000  0.166836  0.011184  1
  Ni  Ni15  1  0.000000  0.833164  0.011184  1
  Ni  Ni16  1  0.500000  0.302340  0.431326  1
  Ni  Ni17  1  0.500000  0.697660  0.431326  1
  Ni  Ni18  1  0.000000  0.197660  0.568674  1
  Ni  Ni19  1  0.000000  0.802340  0.568674  1
  Ni  Ni20  1  0.500000  0.876301  0.707576  1
  Ni  Ni21  1  0.500000  0.123699  0.707576  1
  Ni  Ni22  1  0.000000  0.623699  0.292424  1
  Ni  Ni23  1  0.000000  0.376301  0.292424  1
  P  P24  1  0.500000  0.500000  0.875089  1
  P  P25  1  0.000000  0.000000  0.124911  1
  P  P26  1  0.500000  0.500000  0.352757  1
  P  P27  1  0.000000  0.000000  0.647243  1
  P  P28  1  0.500000  0.318065  0.616602  1
  P  P29  1  0.500000  0.681935  0.616602  1
  P  P30  1  0.000000  0.181935  0.383398  1
  P  P31  1  0.000000  0.818065  0.383398  1
  P  P32  1  0.500000  0.845067  0.888678  1
  P  P33  1  0.500000  0.154933  0.888678  1
  P  P34  1  0.000000  0.654933  0.111322  1
  P  P35  1  0.000000  0.345067  0.111322  1
