# generated using pymatgen
data_K4ZrTcI12
_symmetry_space_group_name_H-M   'P 1'
_cell_length_a   8.50483199
_cell_length_b   8.13429141
_cell_length_c   14.00265893
_cell_angle_alpha   54.52241083
_cell_angle_beta   90.03260664
_cell_angle_gamma   90.38747945
_symmetry_Int_Tables_number   1
_chemical_formula_structural   K4ZrTcI12
_chemical_formula_sum   'K4 Zr1 Tc1 I12'
_cell_volume   788.84105983
_cell_formula_units_Z   1
loop_
 _symmetry_equiv_pos_site_id
 _symmetry_equiv_pos_as_xyz
  1  'x, y, z'
loop_
 _atom_site_type_symbol
 _atom_site_label
 _atom_site_symmetry_multiplicity
 _atom_site_fract_x
 _atom_site_fract_y
 _atom_site_fract_z
 _atom_site_occupancy
  K  K0  1  0.424989  0.727305  0.253851  1
  K  K1  1  0.925905  0.257080  0.255939  1
  K  K2  1  0.074095  0.742920  0.744061  1
  K  K3  1  0.575011  0.272695  0.746149  1
  Zr  Zr4  1  0.000000  0.000000  0.000000  1
  Tc  Tc5  1  0.500000  0.000000  0.500000  1
  I  I6  1  0.821595  0.334906  0.961157  1
  I  I7  1  0.511309  0.154323  0.265731  1
  I  I8  1  0.488691  0.845677  0.734269  1
  I  I9  1  0.291100  0.214292  0.965037  1
  I  I10  1  0.317535  0.681754  0.542514  1
  I  I11  1  0.230247  0.218166  0.460741  1
  I  I12  1  0.178405  0.665094  0.038843  1
  I  I13  1  0.769753  0.781834  0.539259  1
  I  I14  1  0.708900  0.785708  0.034963  1
  I  I15  1  0.009759  0.822347  0.248312  1
  I  I16  1  0.990241  0.177653  0.751688  1
  I  I17  1  0.682465  0.318246  0.457486  1
