# generated using pymatgen
data_NdSmSc3(SiGe)2
_symmetry_space_group_name_H-M   'P 1'
_cell_length_a   7.27585906
_cell_length_b   7.50932246
_cell_length_c   14.25403533
_cell_angle_alpha   90.00893107
_cell_angle_beta   89.97682737
_cell_angle_gamma   90.22439422
_symmetry_Int_Tables_number   1
_chemical_formula_structural   NdSmSc3(SiGe)2
_chemical_formula_sum   'Nd4 Sm4 Sc12 Si8 Ge8'
_cell_volume   778.78843090
_cell_formula_units_Z   4
loop_
 _symmetry_equiv_pos_site_id
 _symmetry_equiv_pos_as_xyz
  1  'x, y, z'
loop_
 _atom_site_type_symbol
 _atom_site_label
 _atom_site_symmetry_multiplicity
 _atom_site_fract_x
 _atom_site_fract_y
 _atom_site_fract_z
 _atom_site_occupancy
  Nd  Nd0  1  0.006661  0.174859  0.099219  1
  Nd  Nd1  1  0.993222  0.825405  0.900910  1
  Nd  Nd2  1  0.493500  0.674448  0.901236  1
  Nd  Nd3  1  0.993258  0.825193  0.598671  1
  Sm  Sm4  1  0.506614  0.324894  0.099636  1
  Sm  Sm5  1  0.006842  0.175496  0.400437  1
  Sm  Sm6  1  0.506630  0.324725  0.400775  1
  Sm  Sm7  1  0.493237  0.675031  0.599083  1
  Sc  Sc8  1  0.165446  0.498951  0.749777  1
  Sc  Sc9  1  0.834419  0.500580  0.250168  1
  Sc  Sc10  1  0.334808  0.999263  0.250232  1
  Sc  Sc11  1  0.665089  0.001140  0.749844  1
  Sc  Sc12  1  0.336462  0.173119  0.626421  1
  Sc  Sc13  1  0.663603  0.827082  0.373323  1
  Sc  Sc14  1  0.163961  0.672619  0.373457  1
  Sc  Sc15  1  0.663668  0.827178  0.127014  1
  Sc  Sc16  1  0.836277  0.327180  0.626264  1
  Sc  Sc17  1  0.336488  0.173041  0.873256  1
  Sc  Sc18  1  0.836103  0.327281  0.873380  1
  Sc  Sc19  1  0.163931  0.672557  0.126870  1
  Si  Si20  1  0.038898  0.123882  0.749822  1
  Si  Si21  1  0.961221  0.877206  0.250518  1
  Si  Si22  1  0.461173  0.621623  0.250165  1
  Si  Si23  1  0.538922  0.377263  0.749485  1
  Si  Si24  1  0.293234  0.878448  0.749408  1
  Si  Si25  1  0.707169  0.122873  0.250642  1
  Si  Si26  1  0.208823  0.377758  0.250598  1
  Si  Si27  1  0.791580  0.620932  0.749356  1
  Ge  Ge28  1  0.168018  0.458645  0.540646  1
  Ge  Ge29  1  0.832173  0.539553  0.458606  1
  Ge  Ge30  1  0.333204  0.959918  0.458879  1
  Ge  Ge31  1  0.832408  0.540370  0.041363  1
  Ge  Ge32  1  0.665976  0.040926  0.540493  1
  Ge  Ge33  1  0.166806  0.458766  0.959267  1
  Ge  Ge34  1  0.665686  0.041784  0.959525  1
  Ge  Ge35  1  0.334490  0.960011  0.041252  1
