# generated using pymatgen
data_Li6Sm6Re(TeO8)3
_symmetry_space_group_name_H-M   'P 1'
_cell_length_a   10.87875212
_cell_length_b   10.87519014
_cell_length_c   10.87875192
_cell_angle_alpha   109.42924899
_cell_angle_beta   109.38344944
_cell_angle_gamma   109.61434943
_symmetry_Int_Tables_number   1
_chemical_formula_structural   Li6Sm6Re(TeO8)3
_chemical_formula_sum   'Li12 Sm12 Re2 Te6 O48'
_cell_volume   990.60353254
_cell_formula_units_Z   2
loop_
 _symmetry_equiv_pos_site_id
 _symmetry_equiv_pos_as_xyz
  1  'x, y, z'
loop_
 _atom_site_type_symbol
 _atom_site_label
 _atom_site_symmetry_multiplicity
 _atom_site_fract_x
 _atom_site_fract_y
 _atom_site_fract_z
 _atom_site_occupancy
  Li  Li0  1  0.752574  0.379097  0.125441  1
  Li  Li1  1  0.874611  0.750000  0.124611  1
  Li  Li2  1  0.123470  0.372716  0.247329  1
  Li  Li3  1  0.625388  0.872716  0.249246  1
  Li  Li4  1  0.624095  0.250000  0.374095  1
  Li  Li5  1  0.246346  0.120903  0.373477  1
  Li  Li6  1  0.753654  0.879097  0.626523  1
  Li  Li7  1  0.375905  0.750000  0.625906  1
  Li  Li8  1  0.374612  0.127283  0.750754  1
  Li  Li9  1  0.876530  0.627284  0.752671  1
  Li  Li10  1  0.247426  0.620903  0.874558  1
  Li  Li11  1  0.125389  0.250001  0.875389  1
  Sm  Sm12  1  0.255315  0.878736  0.126746  1
  Sm  Sm13  1  0.377038  0.250000  0.127038  1
  Sm  Sm14  1  0.372555  0.621511  0.249404  1
  Sm  Sm15  1  0.872107  0.121511  0.248957  1
  Sm  Sm16  1  0.748010  0.621265  0.376578  1
  Sm  Sm17  1  0.124506  0.750000  0.374507  1
  Sm  Sm18  1  0.875493  0.250000  0.625493  1
  Sm  Sm19  1  0.251990  0.378736  0.623422  1
  Sm  Sm20  1  0.127893  0.878489  0.751044  1
  Sm  Sm21  1  0.627446  0.378489  0.750596  1
  Sm  Sm22  1  0.744686  0.121264  0.873254  1
  Sm  Sm23  1  0.622962  0.750000  0.872962  1
  Re  Re24  1  0.500000  0.000000  0.000000  1
  Re  Re25  1  0.500000  0.500000  0.500000  1
  Te  Te26  1  0.000000  0.000000  0.000000  1
  Te  Te27  1  0.000000  0.500000  0.000000  1
  Te  Te28  1  0.500000  0.500000  0.000000  1
  Te  Te29  1  0.000000  0.000000  0.500000  1
  Te  Te30  1  0.500000  0.000000  0.500000  1
  Te  Te31  1  0.000000  0.500000  0.500000  1
  O  O32  1  0.198180  0.619561  0.027347  1
  O  O33  1  0.328700  0.405725  0.023813  1
  O  O34  1  0.687361  0.171963  0.079138  1
  O  O35  1  0.881912  0.905725  0.077024  1
  O  O36  1  0.619981  0.921174  0.092407  1
  O  O37  1  0.970720  0.169424  0.091950  1
  O  O38  1  0.024264  0.695644  0.117774  1
  O  O39  1  0.593906  0.421180  0.116597  1
  O  O40  1  0.195417  0.078820  0.172726  1
  O  O41  1  0.470476  0.090484  0.171196  1
  O  O42  1  0.116158  0.523653  0.195865  1
  O  O43  1  0.577476  0.669424  0.198705  1
  O  O44  1  0.476585  0.881624  0.305048  1
  O  O45  1  0.328767  0.421174  0.301193  1
  O  O46  1  0.906166  0.525828  0.329355  1
  O  O47  1  0.922132  0.804355  0.328619  1
  O  O48  1  0.303526  0.974172  0.380337  1
  O  O49  1  0.580713  0.409517  0.379992  1
  O  O50  1  0.827788  0.023653  0.407494  1
  O  O51  1  0.076575  0.381623  0.405039  1
  O  O52  1  0.827885  0.303297  0.421216  1
  O  O53  1  0.092215  0.119561  0.421381  1
  O  O54  1  0.382078  0.803297  0.475410  1
  O  O55  1  0.592825  0.671963  0.484604  1
  O  O56  1  0.617921  0.196703  0.524589  1
  O  O57  1  0.407175  0.328036  0.515397  1
  O  O58  1  0.172114  0.696703  0.578782  1
  O  O59  1  0.907785  0.880439  0.578620  1
  O  O60  1  0.172212  0.976347  0.592505  1
  O  O61  1  0.923424  0.618376  0.594962  1
  O  O62  1  0.419288  0.590483  0.620008  1
  O  O63  1  0.696474  0.025828  0.619662  1
  O  O64  1  0.077868  0.195644  0.671380  1
  O  O65  1  0.093834  0.474172  0.670645  1
  O  O66  1  0.671232  0.578827  0.698807  1
  O  O67  1  0.523415  0.118377  0.694952  1
  O  O68  1  0.883842  0.476348  0.804134  1
  O  O69  1  0.422525  0.330576  0.801295  1
  O  O70  1  0.804583  0.921179  0.827273  1
  O  O71  1  0.529525  0.909516  0.828804  1
  O  O72  1  0.975736  0.304356  0.882225  1
  O  O73  1  0.406095  0.578821  0.883404  1
  O  O74  1  0.380018  0.078826  0.907593  1
  O  O75  1  0.029280  0.830577  0.908051  1
  O  O76  1  0.118087  0.094276  0.922975  1
  O  O77  1  0.312639  0.828036  0.920862  1
  O  O78  1  0.801819  0.380439  0.972653  1
  O  O79  1  0.671300  0.594276  0.976187  1
