# generated using pymatgen
data_YbY3Ni14
_symmetry_space_group_name_H-M   'P 1'
_cell_length_a   4.93886492
_cell_length_b   4.93886406
_cell_length_c   12.35347778
_cell_angle_alpha   78.47219585
_cell_angle_beta   78.47219802
_cell_angle_gamma   60.00355132
_symmetry_Int_Tables_number   1
_chemical_formula_structural   YbY3Ni14
_chemical_formula_sum   'Yb1 Y3 Ni14'
_cell_volume   253.92583136
_cell_formula_units_Z   1
loop_
 _symmetry_equiv_pos_site_id
 _symmetry_equiv_pos_as_xyz
  1  'x, y, z'
loop_
 _atom_site_type_symbol
 _atom_site_label
 _atom_site_symmetry_multiplicity
 _atom_site_fract_x
 _atom_site_fract_y
 _atom_site_fract_z
 _atom_site_occupancy
  Yb  Yb0  1  0.146996  0.146996  0.558990  1
  Y  Y1  1  0.949005  0.949005  0.152942  1
  Y  Y2  1  0.051864  0.051864  0.844466  1
  Y  Y3  1  0.850955  0.850955  0.447088  1
  Ni  Ni4  1  0.499784  0.499784  0.500629  1
  Ni  Ni5  1  0.722251  0.722251  0.833447  1
  Ni  Ni6  1  0.277922  0.277922  0.165981  1
  Ni  Ni7  1  0.611658  0.611658  0.165093  1
  Ni  Ni8  1  0.388437  0.388437  0.834648  1
  Ni  Ni9  1  0.000047  0.500114  0.999735  1
  Ni  Ni10  1  0.500114  0.000047  0.999735  1
  Ni  Ni11  1  0.500113  0.500113  0.999735  1
  Ni  Ni12  1  0.389768  0.389768  0.329769  1
  Ni  Ni13  1  0.890594  0.389750  0.329791  1
  Ni  Ni14  1  0.389750  0.890594  0.329791  1
  Ni  Ni15  1  0.610410  0.610410  0.669395  1
  Ni  Ni16  1  0.109903  0.610432  0.669382  1
  Ni  Ni17  1  0.610432  0.109903  0.669382  1
