# generated using pymatgen
data_KAc3Te8
_symmetry_space_group_name_H-M   'P 1'
_cell_length_a   14.76370464
_cell_length_b   13.32758300
_cell_length_c   9.27927100
_cell_angle_alpha   90.00000000
_cell_angle_beta   98.97702167
_cell_angle_gamma   90.00000000
_symmetry_Int_Tables_number   1
_chemical_formula_structural   KAc3Te8
_chemical_formula_sum   'K4 Ac12 Te32'
_cell_volume   1803.46650123
_cell_formula_units_Z   4
loop_
 _symmetry_equiv_pos_site_id
 _symmetry_equiv_pos_as_xyz
  1  'x, y, z'
loop_
 _atom_site_type_symbol
 _atom_site_label
 _atom_site_symmetry_multiplicity
 _atom_site_fract_x
 _atom_site_fract_y
 _atom_site_fract_z
 _atom_site_occupancy
  K  K0  1  0.965269  0.906694  0.242011  1
  K  K1  1  0.034734  0.406690  0.257976  1
  K  K2  1  0.965265  0.593310  0.742023  1
  K  K3  1  0.034731  0.093306  0.757989  1
  Ac  Ac4  1  0.348045  0.415208  0.081598  1
  Ac  Ac5  1  0.347498  0.750691  0.086928  1
  Ac  Ac6  1  0.349640  0.084017  0.092630  1
  Ac  Ac7  1  0.650363  0.584013  0.407371  1
  Ac  Ac8  1  0.652503  0.250693  0.413073  1
  Ac  Ac9  1  0.651950  0.915209  0.418404  1
  Ac  Ac10  1  0.348050  0.084790  0.581595  1
  Ac  Ac11  1  0.347498  0.749307  0.586928  1
  Ac  Ac12  1  0.349637  0.415988  0.592629  1
  Ac  Ac13  1  0.650361  0.915984  0.907370  1
  Ac  Ac14  1  0.652502  0.249310  0.913072  1
  Ac  Ac15  1  0.651954  0.584792  0.918402  1
  Te  Te16  1  0.166248  0.914603  0.029614  1
  Te  Te17  1  0.169319  0.249319  0.042132  1
  Te  Te18  1  0.166316  0.586567  0.053262  1
  Te  Te19  1  0.586873  0.416031  0.145026  1
  Te  Te20  1  0.583891  0.754236  0.146120  1
  Te  Te21  1  0.587896  0.079826  0.148647  1
  Te  Te22  1  0.831592  0.604074  0.208624  1
  Te  Te23  1  0.838830  0.227262  0.209074  1
  Te  Te24  1  0.161170  0.727261  0.290921  1
  Te  Te25  1  0.168408  0.104075  0.291376  1
  Te  Te26  1  0.412106  0.579825  0.351354  1
  Te  Te27  1  0.416110  0.254237  0.353881  1
  Te  Te28  1  0.413127  0.916030  0.354972  1
  Te  Te29  1  0.833686  0.086569  0.446732  1
  Te  Te30  1  0.830679  0.749315  0.457870  1
  Te  Te31  1  0.833757  0.414604  0.470393  1
  Te  Te32  1  0.166243  0.585397  0.529607  1
  Te  Te33  1  0.169321  0.250684  0.542131  1
  Te  Te34  1  0.166314  0.913431  0.553269  1
  Te  Te35  1  0.586874  0.083970  0.645027  1
  Te  Te36  1  0.583890  0.745763  0.646119  1
  Te  Te37  1  0.587894  0.420174  0.648647  1
  Te  Te38  1  0.831591  0.895925  0.708624  1
  Te  Te39  1  0.838831  0.272738  0.709079  1
  Te  Te40  1  0.161170  0.772738  0.790926  1
  Te  Te41  1  0.168407  0.395925  0.791376  1
  Te  Te42  1  0.412103  0.920173  0.851353  1
  Te  Te43  1  0.416109  0.245764  0.853881  1
  Te  Te44  1  0.413127  0.583970  0.854973  1
  Te  Te45  1  0.833684  0.413432  0.946738  1
  Te  Te46  1  0.830681  0.750680  0.957868  1
  Te  Te47  1  0.833752  0.085397  0.970385  1
