# generated using pymatgen
data_Gd4Y4Tc3B24Rh
_symmetry_space_group_name_H-M   'P 1'
_cell_length_a   3.69962500
_cell_length_b   9.21946577
_cell_length_c   11.61795321
_cell_angle_alpha   89.84690392
_cell_angle_beta   90.00000000
_cell_angle_gamma   90.00000000
_symmetry_Int_Tables_number   1
_chemical_formula_structural   Gd4Y4Tc3B24Rh
_chemical_formula_sum   'Gd4 Y4 Tc3 B24 Rh1'
_cell_volume   396.27030979
_cell_formula_units_Z   1
loop_
 _symmetry_equiv_pos_site_id
 _symmetry_equiv_pos_as_xyz
  1  'x, y, z'
loop_
 _atom_site_type_symbol
 _atom_site_label
 _atom_site_symmetry_multiplicity
 _atom_site_fract_x
 _atom_site_fract_y
 _atom_site_fract_z
 _atom_site_occupancy
  Gd  Gd0  1  0.000000  0.819126  0.084561  1
  Gd  Gd1  1  0.000000  0.177531  0.909664  1
  Gd  Gd2  1  0.000000  0.326967  0.418204  1
  Gd  Gd3  1  0.000000  0.677357  0.587181  1
  Y  Y4  1  0.000000  0.443349  0.129935  1
  Y  Y5  1  0.000000  0.555745  0.871364  1
  Y  Y6  1  0.000000  0.941481  0.371032  1
  Y  Y7  1  0.000000  0.056938  0.628181  1
  Tc  Tc8  1  0.000000  0.862191  0.821817  1
  Tc  Tc9  1  0.000000  0.638478  0.319864  1
  Tc  Tc10  1  0.000000  0.361788  0.679385  1
  B  B11  1  0.500000  0.053684  0.066315  1
  B  B12  1  0.500000  0.946575  0.933131  1
  B  B13  1  0.500000  0.553701  0.433360  1
  B  B14  1  0.500000  0.447627  0.567631  1
  B  B15  1  0.500000  0.248652  0.079778  1
  B  B16  1  0.500000  0.750817  0.919039  1
  B  B17  1  0.500000  0.748874  0.418641  1
  B  B18  1  0.500000  0.252309  0.581068  1
  B  B19  1  0.500000  0.290958  0.234992  1
  B  B20  1  0.500000  0.708364  0.765846  1
  B  B21  1  0.500000  0.791737  0.264662  1
  B  B22  1  0.500000  0.208118  0.734081  1
  B  B23  1  0.500000  0.131709  0.316109  1
  B  B24  1  0.500000  0.869448  0.685690  1
  B  B25  1  0.500000  0.630646  0.184828  1
  B  B26  1  0.500000  0.368434  0.814664  1
  B  B27  1  0.500000  0.482688  0.288284  1
  B  B28  1  0.500000  0.517841  0.712924  1
  B  B29  1  0.500000  0.982930  0.211977  1
  B  B30  1  0.500000  0.018150  0.787517  1
  B  B31  1  0.500000  0.104210  0.470479  1
  B  B32  1  0.500000  0.897267  0.527912  1
  B  B33  1  0.500000  0.601582  0.028968  1
  B  B34  1  0.500000  0.394829  0.971907  1
  Rh  Rh35  1  0.000000  0.137895  0.179009  1
