# generated using pymatgen
data_RbAlSiSe4
_symmetry_space_group_name_H-M   'P 1'
_cell_length_a   16.94598300
_cell_length_b   7.25034410
_cell_length_c   7.89785243
_cell_angle_alpha   70.11409003
_cell_angle_beta   90.00000000
_cell_angle_gamma   90.00000000
_symmetry_Int_Tables_number   1
_chemical_formula_structural   RbAlSiSe4
_chemical_formula_sum   'Rb4 Al4 Si4 Se16'
_cell_volume   912.50236452
_cell_formula_units_Z   4
loop_
 _symmetry_equiv_pos_site_id
 _symmetry_equiv_pos_as_xyz
  1  'x, y, z'
loop_
 _atom_site_type_symbol
 _atom_site_label
 _atom_site_symmetry_multiplicity
 _atom_site_fract_x
 _atom_site_fract_y
 _atom_site_fract_z
 _atom_site_occupancy
  Rb  Rb0  1  0.394606  0.953433  0.183502  1
  Rb  Rb1  1  0.894606  0.046567  0.816498  1
  Rb  Rb2  1  0.603880  0.524270  0.826062  1
  Rb  Rb3  1  0.103880  0.475730  0.173938  1
  Al  Al4  1  0.582960  0.167066  0.479895  1
  Al  Al5  1  0.082960  0.832934  0.520105  1
  Al  Al6  1  0.272771  0.586555  0.700312  1
  Al  Al7  1  0.772771  0.413445  0.299688  1
  Si  Si8  1  0.421292  0.317833  0.539476  1
  Si  Si9  1  0.921292  0.682167  0.460524  1
  Si  Si10  1  0.725614  0.916038  0.276938  1
  Si  Si11  1  0.225614  0.083962  0.723062  1
  Se  Se12  1  0.598439  0.886801  0.382625  1
  Se  Se13  1  0.098439  0.113199  0.617375  1
  Se  Se14  1  0.411543  0.589522  0.625044  1
  Se  Se15  1  0.911543  0.410478  0.374956  1
  Se  Se16  1  0.801828  0.789711  0.536961  1
  Se  Se17  1  0.301828  0.210289  0.463039  1
  Se  Se18  1  0.200525  0.718003  0.429353  1
  Se  Se19  1  0.700525  0.281997  0.570647  1
  Se  Se20  1  0.762884  0.225276  0.096901  1
  Se  Se21  1  0.262884  0.774724  0.903099  1
  Se  Se22  1  0.236832  0.264875  0.910180  1
  Se  Se23  1  0.736832  0.735125  0.089820  1
  Se  Se24  1  0.995719  0.921108  0.257988  1
  Se  Se25  1  0.495719  0.078892  0.742012  1
  Se  Se26  1  0.991105  0.605031  0.725394  1
  Se  Se27  1  0.491105  0.394969  0.274606  1
