# generated using pymatgen
data_Tb4Ga4IrRu3
_symmetry_space_group_name_H-M   'P 1'
_cell_length_a   4.53009300
_cell_length_b   7.18746421
_cell_length_c   7.18034877
_cell_angle_alpha   89.89724030
_cell_angle_beta   90.00000000
_cell_angle_gamma   90.00000000
_symmetry_Int_Tables_number   1
_chemical_formula_structural   Tb4Ga4IrRu3
_chemical_formula_sum   'Tb4 Ga4 Ir1 Ru3'
_cell_volume   233.79092783
_cell_formula_units_Z   1
loop_
 _symmetry_equiv_pos_site_id
 _symmetry_equiv_pos_as_xyz
  1  'x, y, z'
loop_
 _atom_site_type_symbol
 _atom_site_label
 _atom_site_symmetry_multiplicity
 _atom_site_fract_x
 _atom_site_fract_y
 _atom_site_fract_z
 _atom_site_occupancy
  Tb  Tb0  1  0.250000  0.017705  0.804362  1
  Tb  Tb1  1  0.250000  0.522070  0.695649  1
  Tb  Tb2  1  0.750000  0.980717  0.197425  1
  Tb  Tb3  1  0.750000  0.477053  0.305001  1
  Ga  Ga4  1  0.250000  0.198797  0.397121  1
  Ga  Ga5  1  0.250000  0.692933  0.110581  1
  Ga  Ga6  1  0.750000  0.802163  0.600150  1
  Ga  Ga7  1  0.750000  0.303521  0.893000  1
  Ir  Ir8  1  0.750000  0.664133  0.933797  1
  Ru  Ru9  1  0.250000  0.842877  0.435724  1
  Ru  Ru10  1  0.250000  0.339083  0.063096  1
  Ru  Ru11  1  0.750000  0.158949  0.564095  1
