# generated using pymatgen
data_Te8Mo5Ru
_symmetry_space_group_name_H-M   'P 1'
_cell_length_a   7.12628956
_cell_length_b   7.11932083
_cell_length_c   7.21495261
_cell_angle_alpha   92.76750900
_cell_angle_beta   92.59499114
_cell_angle_gamma   93.03899182
_symmetry_Int_Tables_number   1
_chemical_formula_structural   Te8Mo5Ru
_chemical_formula_sum   'Te8 Mo5 Ru1'
_cell_volume   364.68464978
_cell_formula_units_Z   1
loop_
 _symmetry_equiv_pos_site_id
 _symmetry_equiv_pos_as_xyz
  1  'x, y, z'
loop_
 _atom_site_type_symbol
 _atom_site_label
 _atom_site_symmetry_multiplicity
 _atom_site_fract_x
 _atom_site_fract_y
 _atom_site_fract_z
 _atom_site_occupancy
  Te  Te0  1  0.710169  0.721967  0.709607  1
  Te  Te1  1  0.297340  0.291193  0.284599  1
  Te  Te2  1  0.761644  0.117409  0.385899  1
  Te  Te3  1  0.380727  0.755418  0.114551  1
  Te  Te4  1  0.118989  0.377403  0.761326  1
  Te  Te5  1  0.225407  0.887938  0.619680  1
  Te  Te6  1  0.622031  0.238999  0.882298  1
  Te  Te7  1  0.885715  0.615380  0.240613  1
  Mo  Mo8  1  0.747247  0.914064  0.049676  1
  Mo  Mo9  1  0.041817  0.743013  0.915398  1
  Mo  Mo10  1  0.087907  0.951865  0.252330  1
  Mo  Mo11  1  0.254309  0.083865  0.952407  1
  Mo  Mo12  1  0.954727  0.249779  0.087098  1
  Ru  Ru13  1  0.911970  0.051707  0.744518  1
