# generated using pymatgen
data_Ta6Be4Fe3Co7
_symmetry_space_group_name_H-M   'P 1'
_cell_length_a   8.72974386
_cell_length_b   8.66385687
_cell_length_c   3.17802000
_cell_angle_alpha   90.00000000
_cell_angle_beta   90.00000000
_cell_angle_gamma   89.94892752
_symmetry_Int_Tables_number   1
_chemical_formula_structural   Ta6Be4Fe3Co7
_chemical_formula_sum   'Ta6 Be4 Fe3 Co7'
_cell_volume   240.36388978
_cell_formula_units_Z   1
loop_
 _symmetry_equiv_pos_site_id
 _symmetry_equiv_pos_as_xyz
  1  'x, y, z'
loop_
 _atom_site_type_symbol
 _atom_site_label
 _atom_site_symmetry_multiplicity
 _atom_site_fract_x
 _atom_site_fract_y
 _atom_site_fract_z
 _atom_site_occupancy
  Ta  Ta0  1  0.499555  0.499499  0.000000  1
  Ta  Ta1  1  0.000367  0.999763  0.000000  1
  Ta  Ta2  1  0.823672  0.326332  0.000000  1
  Ta  Ta3  1  0.176155  0.675959  0.000000  1
  Ta  Ta4  1  0.323603  0.175652  0.000000  1
  Ta  Ta5  1  0.674633  0.822100  0.000000  1
  Be  Be6  1  0.618301  0.118026  0.000000  1
  Be  Be7  1  0.383291  0.881502  0.000000  1
  Be  Be8  1  0.116797  0.381459  0.000000  1
  Be  Be9  1  0.883558  0.619003  0.000000  1
  Fe  Fe10  1  0.716421  0.569880  0.500000  1
  Fe  Fe11  1  0.283774  0.429905  0.500000  1
  Fe  Fe12  1  0.216521  0.931086  0.500000  1
  Co  Co13  1  0.501552  0.999554  0.500000  1
  Co  Co14  1  0.999996  0.500482  0.500000  1
  Co  Co15  1  0.783691  0.069370  0.500000  1
  Co  Co16  1  0.430643  0.717159  0.500000  1
  Co  Co17  1  0.570701  0.282183  0.500000  1
  Co  Co18  1  0.066715  0.216860  0.500000  1
  Co  Co19  1  0.930053  0.784227  0.500000  1
