# generated using pymatgen
data_Ti8Al14GaOs5Rh2
_symmetry_space_group_name_H-M   'P 1'
_cell_length_a   8.65650055
_cell_length_b   8.65582225
_cell_length_c   8.65606558
_cell_angle_alpha   119.77689031
_cell_angle_beta   119.76987909
_cell_angle_gamma   90.39055477
_symmetry_Int_Tables_number   1
_chemical_formula_structural   Ti8Al14GaOs5Rh2
_chemical_formula_sum   'Ti8 Al14 Ga1 Os5 Rh2'
_cell_volume   460.19233974
_cell_formula_units_Z   1
loop_
 _symmetry_equiv_pos_site_id
 _symmetry_equiv_pos_as_xyz
  1  'x, y, z'
loop_
 _atom_site_type_symbol
 _atom_site_label
 _atom_site_symmetry_multiplicity
 _atom_site_fract_x
 _atom_site_fract_y
 _atom_site_fract_z
 _atom_site_occupancy
  Ti  Ti0  1  0.787773  0.293166  0.070271  1
  Ti  Ti1  1  0.222807  0.293052  0.505258  1
  Ti  Ti2  1  0.211321  0.711342  0.499963  1
  Ti  Ti3  1  0.222874  0.717559  0.929785  1
  Ti  Ti4  1  0.787794  0.717490  0.494674  1
  Ti  Ti5  1  0.779822  0.279790  0.499982  1
  Ti  Ti6  1  0.376879  0.121460  0.744664  1
  Ti  Ti7  1  0.376960  0.632275  0.255510  1
  Al  Al8  1  0.154641  0.340511  0.185916  1
  Al  Al9  1  0.154457  0.968570  0.813994  1
  Al  Al10  1  0.152331  0.343884  0.808478  1
  Al  Al11  1  0.535458  0.343958  0.191630  1
  Al  Al12  1  0.846978  0.655036  0.807932  1
  Al  Al13  1  0.846964  0.038933  0.191963  1
  Al  Al14  1  0.841331  0.658557  0.182915  1
  Al  Al15  1  0.475666  0.658491  0.817141  1
  Al  Al16  1  0.379293  0.120403  0.258913  1
  Al  Al17  1  0.861453  0.120272  0.741014  1
  Al  Al18  1  0.620227  0.876121  0.256036  1
  Al  Al19  1  0.620196  0.364266  0.744014  1
  Al  Al20  1  0.619552  0.878040  0.741339  1
  Al  Al21  1  0.136688  0.878095  0.258567  1
  Ga  Ga22  1  0.996132  0.496261  0.500062  1
  Os  Os23  1  0.999851  0.999056  0.501288  1
  Os  Os24  1  0.497648  0.998966  0.999151  1
  Os  Os25  1  0.497909  0.497935  0.999987  1
  Os  Os26  1  0.497660  0.498536  0.498695  1
  Os  Os27  1  0.999859  0.498605  0.000863  1
  Rh  Rh28  1  0.999872  0.999720  0.000074  1
  Rh  Rh29  1  0.499598  0.999643  0.499921  1
