# generated using pymatgen
data_Tb3Sm5(PI6)2
_symmetry_space_group_name_H-M   'P 1'
_cell_length_a   4.26244100
_cell_length_b   14.02912347
_cell_length_c   14.81229754
_cell_angle_alpha   90.05241740
_cell_angle_beta   90.00000000
_cell_angle_gamma   90.00000000
_symmetry_Int_Tables_number   1
_chemical_formula_structural   Tb3Sm5(PI6)2
_chemical_formula_sum   'Tb3 Sm5 P2 I12'
_cell_volume   885.75000576
_cell_formula_units_Z   1
loop_
 _symmetry_equiv_pos_site_id
 _symmetry_equiv_pos_as_xyz
  1  'x, y, z'
loop_
 _atom_site_type_symbol
 _atom_site_label
 _atom_site_symmetry_multiplicity
 _atom_site_fract_x
 _atom_site_fract_y
 _atom_site_fract_z
 _atom_site_occupancy
  Tb  Tb0  1  0.500000  0.886212  0.650489  1
  Tb  Tb1  1  0.500000  0.612744  0.149122  1
  Tb  Tb2  1  0.500000  0.387272  0.850803  1
  Sm  Sm3  1  0.500000  0.113535  0.349902  1
  Sm  Sm4  1  0.000000  0.108672  0.572674  1
  Sm  Sm5  1  0.000000  0.891665  0.426884  1
  Sm  Sm6  1  0.000000  0.608155  0.927300  1
  Sm  Sm7  1  0.000000  0.392014  0.072503  1
  P  P8  1  0.500000  0.998772  0.501627  1
  P  P9  1  0.500000  0.500113  0.999911  1
  I  I10  1  0.500000  0.245826  0.161779  1
  I  I11  1  0.500000  0.755103  0.836894  1
  I  I12  1  0.500000  0.744653  0.336896  1
  I  I13  1  0.500000  0.255145  0.663496  1
  I  I14  1  0.000000  0.261896  0.415454  1
  I  I15  1  0.000000  0.741649  0.586900  1
  I  I16  1  0.000000  0.758096  0.086817  1
  I  I17  1  0.000000  0.241790  0.913033  1
  I  I18  1  0.000000  0.999018  0.238212  1
  I  I19  1  0.000000  0.997621  0.759416  1
  I  I20  1  0.000000  0.502450  0.259249  1
  I  I21  1  0.000000  0.497601  0.740642  1
