# generated using pymatgen
data_Cs2BaOsO6
_symmetry_space_group_name_H-M   'P 1'
_cell_length_a   6.45537542
_cell_length_b   6.46740493
_cell_length_c   9.14434507
_cell_angle_alpha   90.03800405
_cell_angle_beta   90.01676865
_cell_angle_gamma   90.00226417
_symmetry_Int_Tables_number   1
_chemical_formula_structural   Cs2BaOsO6
_chemical_formula_sum   'Cs4 Ba2 Os2 O12'
_cell_volume   381.77197861
_cell_formula_units_Z   2
loop_
 _symmetry_equiv_pos_site_id
 _symmetry_equiv_pos_as_xyz
  1  'x, y, z'
loop_
 _atom_site_type_symbol
 _atom_site_label
 _atom_site_symmetry_multiplicity
 _atom_site_fract_x
 _atom_site_fract_y
 _atom_site_fract_z
 _atom_site_occupancy
  Cs  Cs0  1  0.449844  0.050045  0.249888  1
  Cs  Cs1  1  0.950034  0.550156  0.249945  1
  Cs  Cs2  1  0.449985  0.049892  0.750062  1
  Cs  Cs3  1  0.950106  0.549966  0.750133  1
  Ba  Ba4  1  0.450088  0.550325  0.999994  1
  Ba  Ba5  1  0.949864  0.049735  0.500000  1
  Os  Os6  1  0.950131  0.050463  0.000014  1
  Os  Os7  1  0.449927  0.549484  0.499968  1
  O  O8  1  0.153630  0.842096  0.000497  1
  O  O9  1  0.159099  0.253415  0.000813  1
  O  O10  1  0.948791  0.050489  0.205803  1
  O  O11  1  0.450952  0.549943  0.294186  1
  O  O12  1  0.238362  0.349217  0.499072  1
  O  O13  1  0.249077  0.760537  0.499802  1
  O  O14  1  0.650651  0.338464  0.500115  1
  O  O15  1  0.661437  0.749857  0.500962  1
  O  O16  1  0.448940  0.548878  0.705804  1
  O  O17  1  0.951174  0.050583  0.794201  1
  O  O18  1  0.741195  0.847440  0.999216  1
  O  O19  1  0.746711  0.259030  0.999504  1
