# generated using pymatgen
data_Dy4FeRu6W
_symmetry_space_group_name_H-M   'P 1'
_cell_length_a   5.52211700
_cell_length_b   5.17828757
_cell_length_c   8.96092200
_cell_angle_alpha   90.00000000
_cell_angle_beta   90.00000000
_cell_angle_gamma   122.29832208
_symmetry_Int_Tables_number   1
_chemical_formula_structural   Dy4FeRu6W
_chemical_formula_sum   'Dy4 Fe1 Ru6 W1'
_cell_volume   216.59267527
_cell_formula_units_Z   1
loop_
 _symmetry_equiv_pos_site_id
 _symmetry_equiv_pos_as_xyz
  1  'x, y, z'
loop_
 _atom_site_type_symbol
 _atom_site_label
 _atom_site_symmetry_multiplicity
 _atom_site_fract_x
 _atom_site_fract_y
 _atom_site_fract_z
 _atom_site_occupancy
  Dy  Dy0  1  0.673510  0.347241  0.562465  1
  Dy  Dy1  1  0.332330  0.664652  0.431144  1
  Dy  Dy2  1  0.332330  0.664652  0.068856  1
  Dy  Dy3  1  0.673510  0.347241  0.937535  1
  Fe  Fe4  1  0.834639  0.670887  0.250000  1
  Ru  Ru5  1  0.006097  0.012071  0.496170  1
  Ru  Ru6  1  0.006097  0.012071  0.003830  1
  Ru  Ru7  1  0.172236  0.815335  0.750000  1
  Ru  Ru8  1  0.643473  0.815673  0.750000  1
  Ru  Ru9  1  0.824709  0.171812  0.250000  1
  Ru  Ru10  1  0.347154  0.170907  0.250000  1
  W  W11  1  0.153915  0.307459  0.750000  1
