# generated using pymatgen
data_Zr6Ta4Al12CrIr6
_symmetry_space_group_name_H-M   'P 1'
_cell_length_a   8.81653500
_cell_length_b   8.81653620
_cell_length_c   8.81653600
_cell_angle_alpha   60.00000076
_cell_angle_beta   59.99999627
_cell_angle_gamma   60.00000417
_symmetry_Int_Tables_number   1
_chemical_formula_structural   Zr6Ta4Al12CrIr6
_chemical_formula_sum   'Zr6 Ta4 Al12 Cr1 Ir6'
_cell_volume   484.59499297
_cell_formula_units_Z   1
loop_
 _symmetry_equiv_pos_site_id
 _symmetry_equiv_pos_as_xyz
  1  'x, y, z'
loop_
 _atom_site_type_symbol
 _atom_site_label
 _atom_site_symmetry_multiplicity
 _atom_site_fract_x
 _atom_site_fract_y
 _atom_site_fract_z
 _atom_site_occupancy
  Zr  Zr0  1  0.692520  0.692520  0.307480  1
  Zr  Zr1  1  0.307480  0.692520  0.307480  1
  Zr  Zr2  1  0.692520  0.307480  0.307480  1
  Zr  Zr3  1  0.307480  0.307480  0.692520  1
  Zr  Zr4  1  0.692520  0.307480  0.692520  1
  Zr  Zr5  1  0.307480  0.692520  0.692520  1
  Ta  Ta6  1  0.881657  0.881657  0.355030  1
  Ta  Ta7  1  0.881657  0.355030  0.881657  1
  Ta  Ta8  1  0.355030  0.881657  0.881657  1
  Ta  Ta9  1  0.881657  0.881657  0.881657  1
  Al  Al10  1  0.118800  0.118800  0.643598  1
  Al  Al11  1  0.118800  0.643598  0.118800  1
  Al  Al12  1  0.643598  0.118800  0.118800  1
  Al  Al13  1  0.118800  0.118800  0.118800  1
  Al  Al14  1  0.661327  0.661327  0.016020  1
  Al  Al15  1  0.661327  0.016020  0.661327  1
  Al  Al16  1  0.016020  0.661327  0.661327  1
  Al  Al17  1  0.661327  0.661327  0.661327  1
  Al  Al18  1  0.336592  0.336592  0.990226  1
  Al  Al19  1  0.336592  0.990226  0.336592  1
  Al  Al20  1  0.990226  0.336592  0.336592  1
  Al  Al21  1  0.336592  0.336592  0.336592  1
  Cr  Cr22  1  0.000000  0.000000  0.000000  1
  Ir  Ir23  1  0.998136  0.998136  0.501864  1
  Ir  Ir24  1  0.501864  0.998136  0.501864  1
  Ir  Ir25  1  0.998136  0.501864  0.501864  1
  Ir  Ir26  1  0.501864  0.501864  0.998136  1
  Ir  Ir27  1  0.998136  0.501864  0.998136  1
  Ir  Ir28  1  0.501864  0.998136  0.998136  1
