# generated using pymatgen
data_Mn3Ni2PtCl18
_symmetry_space_group_name_H-M   'P 1'
_cell_length_a   6.06410901
_cell_length_b   6.06410935
_cell_length_c   19.45605200
_cell_angle_alpha   89.99752453
_cell_angle_beta   89.99752453
_cell_angle_gamma   119.99493034
_symmetry_Int_Tables_number   1
_chemical_formula_structural   Mn3Ni2PtCl18
_chemical_formula_sum   'Mn3 Ni2 Pt1 Cl18'
_cell_volume   619.64301140
_cell_formula_units_Z   1
loop_
 _symmetry_equiv_pos_site_id
 _symmetry_equiv_pos_as_xyz
  1  'x, y, z'
loop_
 _atom_site_type_symbol
 _atom_site_label
 _atom_site_symmetry_multiplicity
 _atom_site_fract_x
 _atom_site_fract_y
 _atom_site_fract_z
 _atom_site_occupancy
  Mn  Mn0  1  0.555310  0.110588  0.166683  1
  Mn  Mn1  1  0.889412  0.444690  0.499984  1
  Mn  Mn2  1  0.555771  0.444229  0.833333  1
  Ni  Ni3  1  0.221775  0.444372  0.166797  1
  Ni  Ni4  1  0.555628  0.778225  0.499870  1
  Pt  Pt5  1  0.222064  0.777936  0.833333  1
  Cl  Cl6  1  0.530977  0.773432  0.761598  1
  Cl  Cl7  1  0.908769  0.773515  0.905179  1
  Cl  Cl8  1  0.530968  0.091212  0.905067  1
  Cl  Cl9  1  0.865725  0.741145  0.432286  1
  Cl  Cl10  1  0.209086  0.467688  0.432367  1
  Cl  Cl11  1  0.875349  0.134157  0.098895  1
  Cl  Cl12  1  0.532312  0.790914  0.234299  1
  Cl  Cl13  1  0.908788  0.469032  0.761599  1
  Cl  Cl14  1  0.226568  0.469023  0.905069  1
  Cl  Cl15  1  0.592463  0.467888  0.567699  1
  Cl  Cl16  1  0.865843  0.124651  0.567772  1
  Cl  Cl17  1  0.208926  0.741116  0.567625  1
  Cl  Cl18  1  0.258855  0.134275  0.234380  1
  Cl  Cl19  1  0.592453  0.124524  0.432408  1
  Cl  Cl20  1  0.875476  0.407547  0.234259  1
  Cl  Cl21  1  0.532112  0.407537  0.098968  1
  Cl  Cl22  1  0.226485  0.091231  0.761488  1
  Cl  Cl23  1  0.258884  0.791074  0.099042  1
