# generated using pymatgen
data_Ho8Lu2(InSb)3
_symmetry_space_group_name_H-M   'P 1'
_cell_length_a   8.92148300
_cell_length_b   8.90190914
_cell_length_c   6.48619501
_cell_angle_alpha   89.92186599
_cell_angle_beta   90.00000000
_cell_angle_gamma   120.07276741
_symmetry_Int_Tables_number   1
_chemical_formula_structural   Ho8Lu2(InSb)3
_chemical_formula_sum   'Ho8 Lu2 In3 Sb3'
_cell_volume   445.78083061
_cell_formula_units_Z   1
loop_
 _symmetry_equiv_pos_site_id
 _symmetry_equiv_pos_as_xyz
  1  'x, y, z'
loop_
 _atom_site_type_symbol
 _atom_site_label
 _atom_site_symmetry_multiplicity
 _atom_site_fract_x
 _atom_site_fract_y
 _atom_site_fract_z
 _atom_site_occupancy
  Ho  Ho0  1  0.665213  0.334053  0.000920  1
  Ho  Ho1  1  0.331159  0.665947  0.499080  1
  Ho  Ho2  1  0.760384  0.000000  0.750000  1
  Ho  Ho3  1  0.762842  0.759332  0.249989  1
  Ho  Ho4  1  0.003510  0.240668  0.250011  1
  Ho  Ho5  1  0.002367  0.762890  0.750001  1
  Ho  Ho6  1  0.239479  0.237110  0.749999  1
  Ho  Ho7  1  0.238061  0.000000  0.250000  1
  Lu  Lu8  1  0.330906  0.665997  0.001270  1
  Lu  Lu9  1  0.664910  0.334003  0.498730  1
  In  In10  1  0.397267  0.000000  0.750000  1
  In  In11  1  0.395638  0.397266  0.249988  1
  In  In12  1  0.998371  0.602734  0.250012  1
  Sb  Sb13  1  0.997732  0.392577  0.749903  1
  Sb  Sb14  1  0.605155  0.607423  0.750097  1
  Sb  Sb15  1  0.607005  0.000000  0.250000  1
