# generated using pymatgen
data_Y3NiIrRh7
_symmetry_space_group_name_H-M   'P 1'
_cell_length_a   5.28145713
_cell_length_b   5.27618850
_cell_length_c   17.29926411
_cell_angle_alpha   89.99999973
_cell_angle_beta   89.96450192
_cell_angle_gamma   119.96699250
_symmetry_Int_Tables_number   1
_chemical_formula_structural   Y3NiIrRh7
_chemical_formula_sum   'Y6 Ni2 Ir2 Rh14'
_cell_volume   417.61545672
_cell_formula_units_Z   2
loop_
 _symmetry_equiv_pos_site_id
 _symmetry_equiv_pos_as_xyz
  1  'x, y, z'
loop_
 _atom_site_type_symbol
 _atom_site_label
 _atom_site_symmetry_multiplicity
 _atom_site_fract_x
 _atom_site_fract_y
 _atom_site_fract_z
 _atom_site_occupancy
  Y  Y0  1  0.332901  0.666451  0.958106  1
  Y  Y1  1  0.666641  0.333320  0.042257  1
  Y  Y2  1  0.667296  0.333648  0.458018  1
  Y  Y3  1  0.333133  0.666567  0.541463  1
  Y  Y4  1  0.333309  0.666655  0.749869  1
  Y  Y5  1  0.666347  0.333173  0.251335  1
  Ni  Ni6  1  0.333086  0.666544  0.250317  1
  Ni  Ni7  1  0.666286  0.333142  0.750388  1
  Ir  Ir8  1  0.167428  0.830017  0.372212  1
  Ir  Ir9  1  0.167428  0.337411  0.372212  1
  Rh  Rh10  1  0.661994  0.830998  0.372950  1
  Rh  Rh11  1  0.831193  0.168682  0.627473  1
  Rh  Rh12  1  0.831193  0.662510  0.627473  1
  Rh  Rh13  1  0.337664  0.168832  0.627277  1
  Rh  Rh14  1  0.830866  0.168483  0.872686  1
  Rh  Rh15  1  0.830866  0.662382  0.872686  1
  Rh  Rh16  1  0.337290  0.168644  0.872848  1
  Rh  Rh17  1  0.168689  0.831269  0.126697  1
  Rh  Rh18  1  0.168689  0.337421  0.126697  1
  Rh  Rh19  1  0.663152  0.831577  0.127365  1
  Rh  Rh20  1  0.001716  0.000858  0.249921  1
  Rh  Rh21  1  0.000824  0.000412  0.749957  1
  Rh  Rh22  1  0.002638  0.001319  0.499945  1
  Rh  Rh23  1  0.999375  0.999687  0.999849  1
