# generated using pymatgen
data_PmReBF
_symmetry_space_group_name_H-M   'P 1'
_cell_length_a   4.13438200
_cell_length_b   4.13438200
_cell_length_c   7.64268000
_cell_angle_alpha   90.00000000
_cell_angle_beta   90.00000000
_cell_angle_gamma   90.00000000
_symmetry_Int_Tables_number   1
_chemical_formula_structural   PmReBF
_chemical_formula_sum   'Pm2 Re2 B2 F2'
_cell_volume   130.63720449
_cell_formula_units_Z   2
loop_
 _symmetry_equiv_pos_site_id
 _symmetry_equiv_pos_as_xyz
  1  'x, y, z'
loop_
 _atom_site_type_symbol
 _atom_site_label
 _atom_site_symmetry_multiplicity
 _atom_site_fract_x
 _atom_site_fract_y
 _atom_site_fract_z
 _atom_site_occupancy
  Pm  Pm0  1  0.250003  0.250003  0.196490  1
  Pm  Pm1  1  0.750002  0.750002  0.803511  1
  Re  Re2  1  0.750002  0.250003  0.499999  1
  Re  Re3  1  0.250003  0.750002  0.499999  1
  B  B4  1  0.750002  0.750002  0.421665  1
  B  B5  1  0.250003  0.250003  0.578335  1
  F  F6  1  0.750002  0.250003  0.000000  1
  F  F7  1  0.250003  0.750002  0.000000  1
