# generated using pymatgen
data_Ti3Ga2PRu6
_symmetry_space_group_name_H-M   'P 1'
_cell_length_a   4.29328926
_cell_length_b   6.06498700
_cell_length_c   12.82871471
_cell_angle_alpha   90.00000000
_cell_angle_beta   89.96103995
_cell_angle_gamma   90.00000000
_symmetry_Int_Tables_number   1
_chemical_formula_structural   Ti3Ga2PRu6
_chemical_formula_sum   'Ti6 Ga4 P2 Ru12'
_cell_volume   334.04353508
_cell_formula_units_Z   2
loop_
 _symmetry_equiv_pos_site_id
 _symmetry_equiv_pos_as_xyz
  1  'x, y, z'
loop_
 _atom_site_type_symbol
 _atom_site_label
 _atom_site_symmetry_multiplicity
 _atom_site_fract_x
 _atom_site_fract_y
 _atom_site_fract_z
 _atom_site_occupancy
  Ti  Ti0  1  0.999637  0.000000  0.998645  1
  Ti  Ti1  1  0.500174  0.500001  0.168253  1
  Ti  Ti2  1  0.999895  0.000000  0.334872  1
  Ti  Ti3  1  0.499660  0.500001  0.499740  1
  Ti  Ti4  1  0.999816  0.000000  0.666878  1
  Ti  Ti5  1  0.500132  0.500001  0.831812  1
  Ga  Ga6  1  0.999973  0.500001  0.332279  1
  Ga  Ga7  1  0.499877  0.000000  0.499361  1
  Ga  Ga8  1  0.999954  0.500001  0.667317  1
  Ga  Ga9  1  0.500277  0.000000  0.834306  1
  P  P10  1  0.999786  0.500001  0.998953  1
  P  P11  1  0.500413  0.000000  0.167604  1
  Ru  Ru12  1  0.500036  0.252271  0.005218  1
  Ru  Ru13  1  0.500036  0.747729  0.005218  1
  Ru  Ru14  1  0.000144  0.247688  0.161455  1
  Ru  Ru15  1  0.000144  0.752312  0.161455  1
  Ru  Ru16  1  0.499996  0.244484  0.325914  1
  Ru  Ru17  1  0.499996  0.755516  0.325914  1
  Ru  Ru18  1  0.999877  0.249497  0.498494  1
  Ru  Ru19  1  0.999877  0.750503  0.498494  1
  Ru  Ru20  1  0.499932  0.250525  0.668156  1
  Ru  Ru21  1  0.499932  0.749475  0.668156  1
  Ru  Ru22  1  0.000214  0.255422  0.840752  1
  Ru  Ru23  1  0.000214  0.744578  0.840752  1
