# generated using pymatgen
data_SrGa5PtAu
_symmetry_space_group_name_H-M   'P 1'
_cell_length_a   4.38280700
_cell_length_b   4.38280700
_cell_length_c   8.25685500
_cell_angle_alpha   90.00000000
_cell_angle_beta   90.00000000
_cell_angle_gamma   90.00000000
_symmetry_Int_Tables_number   1
_chemical_formula_structural   SrGa5PtAu
_chemical_formula_sum   'Sr1 Ga5 Pt1 Au1'
_cell_volume   158.60590457
_cell_formula_units_Z   1
loop_
 _symmetry_equiv_pos_site_id
 _symmetry_equiv_pos_as_xyz
  1  'x, y, z'
loop_
 _atom_site_type_symbol
 _atom_site_label
 _atom_site_symmetry_multiplicity
 _atom_site_fract_x
 _atom_site_fract_y
 _atom_site_fract_z
 _atom_site_occupancy
  Sr  Sr0  1  0.000000  0.000000  0.995800  1
  Ga  Ga1  1  0.500000  0.000000  0.332812  1
  Ga  Ga2  1  0.000000  0.500000  0.332812  1
  Ga  Ga3  1  0.500000  0.000000  0.667033  1
  Ga  Ga4  1  0.000000  0.500000  0.667033  1
  Ga  Ga5  1  0.500000  0.500000  0.848604  1
  Pt  Pt6  1  0.000000  0.000000  0.500742  1
  Au  Au7  1  0.500000  0.500000  0.155164  1
