# generated using pymatgen
data_YbPrErS3
_symmetry_space_group_name_H-M   'P 1'
_cell_length_a   3.96215000
_cell_length_b   3.96214902
_cell_length_c   9.75799800
_cell_angle_alpha   90.00000000
_cell_angle_beta   90.00000000
_cell_angle_gamma   119.99999148
_symmetry_Int_Tables_number   1
_chemical_formula_structural   YbPrErS3
_chemical_formula_sum   'Yb1 Pr1 Er1 S3'
_cell_volume   132.66400762
_cell_formula_units_Z   1
loop_
 _symmetry_equiv_pos_site_id
 _symmetry_equiv_pos_as_xyz
  1  'x, y, z'
loop_
 _atom_site_type_symbol
 _atom_site_label
 _atom_site_symmetry_multiplicity
 _atom_site_fract_x
 _atom_site_fract_y
 _atom_site_fract_z
 _atom_site_occupancy
  Yb  Yb0  1  0.000000  0.000000  0.003194  1
  Pr  Pr1  1  0.333333  0.666667  0.658508  1
  Er  Er2  1  0.666667  0.333333  0.337628  1
  S  S3  1  0.333333  0.666667  0.173194  1
  S  S4  1  0.666667  0.333333  0.844545  1
  S  S5  1  0.000000  0.000000  0.482931  1
