# generated using pymatgen
data_Sc4AlCrOs6
_symmetry_space_group_name_H-M   'P 1'
_cell_length_a   5.23709355
_cell_length_b   5.16257639
_cell_length_c   8.58095400
_cell_angle_alpha   90.00000000
_cell_angle_beta   90.00000000
_cell_angle_gamma   121.43499512
_symmetry_Int_Tables_number   1
_chemical_formula_structural   Sc4AlCrOs6
_chemical_formula_sum   'Sc4 Al1 Cr1 Os6'
_cell_volume   197.95193126
_cell_formula_units_Z   1
loop_
 _symmetry_equiv_pos_site_id
 _symmetry_equiv_pos_as_xyz
  1  'x, y, z'
loop_
 _atom_site_type_symbol
 _atom_site_label
 _atom_site_symmetry_multiplicity
 _atom_site_fract_x
 _atom_site_fract_y
 _atom_site_fract_z
 _atom_site_occupancy
  Sc  Sc0  1  0.332959  0.663079  0.440533  1
  Sc  Sc1  1  0.665049  0.335578  0.566681  1
  Sc  Sc2  1  0.665049  0.335578  0.933319  1
  Sc  Sc3  1  0.332959  0.663079  0.059467  1
  Al  Al4  1  0.341579  0.168605  0.250000  1
  Cr  Cr5  1  0.173705  0.341737  0.750000  1
  Os  Os6  1  0.173426  0.822500  0.750000  1
  Os  Os7  1  0.834486  0.656087  0.250000  1
  Os  Os8  1  0.656451  0.827320  0.750000  1
  Os  Os9  1  0.995967  0.005493  0.997621  1
  Os  Os10  1  0.832403  0.175451  0.250000  1
  Os  Os11  1  0.995967  0.005493  0.502379  1
