# generated using pymatgen
data_Ho19ErSn16
_symmetry_space_group_name_H-M   'P 1'
_cell_length_a   8.01187656
_cell_length_b   8.14910622
_cell_length_c   15.40665600
_cell_angle_alpha   90.00393732
_cell_angle_beta   89.94595005
_cell_angle_gamma   89.96883562
_symmetry_Int_Tables_number   1
_chemical_formula_structural   Ho19ErSn16
_chemical_formula_sum   'Ho19 Er1 Sn16'
_cell_volume   1005.89432012
_cell_formula_units_Z   1
loop_
 _symmetry_equiv_pos_site_id
 _symmetry_equiv_pos_as_xyz
  1  'x, y, z'
loop_
 _atom_site_type_symbol
 _atom_site_label
 _atom_site_symmetry_multiplicity
 _atom_site_fract_x
 _atom_site_fract_y
 _atom_site_fract_z
 _atom_site_occupancy
  Ho  Ho0  1  0.020324  0.179537  0.902833  1
  Ho  Ho1  1  0.367663  0.836646  0.877706  1
  Ho  Ho2  1  0.867874  0.663417  0.622073  1
  Ho  Ho3  1  0.632019  0.163208  0.377663  1
  Ho  Ho4  1  0.132586  0.336719  0.122408  1
  Ho  Ho5  1  0.632431  0.163239  0.122438  1
  Ho  Ho6  1  0.132202  0.336669  0.377713  1
  Ho  Ho7  1  0.367990  0.836580  0.622145  1
  Ho  Ho8  1  0.867748  0.663235  0.877724  1
  Ho  Ho9  1  0.520946  0.320736  0.902712  1
  Ho  Ho10  1  0.021195  0.179536  0.597391  1
  Ho  Ho11  1  0.478886  0.679416  0.402535  1
  Ho  Ho12  1  0.979292  0.820396  0.097374  1
  Ho  Ho13  1  0.479115  0.679488  0.097393  1
  Ho  Ho14  1  0.978982  0.820622  0.402590  1
  Ho  Ho15  1  0.521098  0.320602  0.597213  1
  Ho  Ho16  1  0.198559  0.502977  0.749898  1
  Ho  Ho17  1  0.698501  0.997009  0.749849  1
  Ho  Ho18  1  0.801497  0.497033  0.250056  1
  Er  Er19  1  0.301502  0.002865  0.250107  1
  Sn  Sn20  1  0.292553  0.036711  0.042026  1
  Sn  Sn21  1  0.792172  0.463006  0.458259  1
  Sn  Sn22  1  0.707785  0.963428  0.541239  1
  Sn  Sn23  1  0.206930  0.536833  0.958825  1
  Sn  Sn24  1  0.707632  0.963076  0.958721  1
  Sn  Sn25  1  0.207821  0.536806  0.541186  1
  Sn  Sn26  1  0.292250  0.036614  0.457963  1
  Sn  Sn27  1  0.792689  0.462922  0.041796  1
  Sn  Sn28  1  0.565530  0.618624  0.749906  1
  Sn  Sn29  1  0.065274  0.881518  0.749904  1
  Sn  Sn30  1  0.434377  0.381184  0.250171  1
  Sn  Sn31  1  0.935404  0.118430  0.250102  1
  Sn  Sn32  1  0.330368  0.148176  0.750143  1
  Sn  Sn33  1  0.830002  0.351912  0.749895  1
  Sn  Sn34  1  0.669294  0.851920  0.249992  1
  Sn  Sn35  1  0.169511  0.648915  0.250050  1
