# generated using pymatgen
data_Ta3NbSi4Ir3Rh
_symmetry_space_group_name_H-M   'P 1'
_cell_length_a   3.80472500
_cell_length_b   6.43977464
_cell_length_c   7.33283707
_cell_angle_alpha   90.18267500
_cell_angle_beta   90.00000000
_cell_angle_gamma   90.00000000
_symmetry_Int_Tables_number   1
_chemical_formula_structural   Ta3NbSi4Ir3Rh
_chemical_formula_sum   'Ta3 Nb1 Si4 Ir3 Rh1'
_cell_volume   179.66511907
_cell_formula_units_Z   1
loop_
 _symmetry_equiv_pos_site_id
 _symmetry_equiv_pos_as_xyz
  1  'x, y, z'
loop_
 _atom_site_type_symbol
 _atom_site_label
 _atom_site_symmetry_multiplicity
 _atom_site_fract_x
 _atom_site_fract_y
 _atom_site_fract_z
 _atom_site_occupancy
  Ta  Ta0  1  0.750000  0.474758  0.328652  1
  Ta  Ta1  1  0.250000  0.023307  0.826681  1
  Ta  Ta2  1  0.750000  0.976286  0.172094  1
  Nb  Nb3  1  0.250000  0.524895  0.671412  1
  Si  Si4  1  0.250000  0.268320  0.122727  1
  Si  Si5  1  0.750000  0.730853  0.874978  1
  Si  Si6  1  0.250000  0.767489  0.376137  1
  Si  Si7  1  0.750000  0.233022  0.626287  1
  Ir  Ir8  1  0.750000  0.856101  0.563347  1
  Ir  Ir9  1  0.250000  0.145315  0.434748  1
  Ir  Ir10  1  0.250000  0.645796  0.065274  1
  Rh  Rh11  1  0.750000  0.353855  0.937664  1
