# generated using pymatgen
data_AcCe(Ni2B)12
_symmetry_space_group_name_H-M   'P 1'
_cell_length_a   6.07938775
_cell_length_b   6.07938777
_cell_length_c   11.13687671
_cell_angle_alpha   90.09018083
_cell_angle_beta   90.09018051
_cell_angle_gamma   104.70677254
_symmetry_Int_Tables_number   1
_chemical_formula_structural   AcCe(Ni2B)12
_chemical_formula_sum   'Ac1 Ce1 Ni24 B12'
_cell_volume   398.12082757
_cell_formula_units_Z   1
loop_
 _symmetry_equiv_pos_site_id
 _symmetry_equiv_pos_as_xyz
  1  'x, y, z'
loop_
 _atom_site_type_symbol
 _atom_site_label
 _atom_site_symmetry_multiplicity
 _atom_site_fract_x
 _atom_site_fract_y
 _atom_site_fract_z
 _atom_site_occupancy
  Ac  Ac0  1  0.833735  0.833735  0.501459  1
  Ce  Ce1  1  0.167321  0.167321  0.996034  1
  Ni  Ni2  1  0.147667  0.879859  0.758785  1
  Ni  Ni3  1  0.121762  0.852674  0.255023  1
  Ni  Ni4  1  0.342241  0.726510  0.066637  1
  Ni  Ni5  1  0.655059  0.277409  0.567277  1
  Ni  Ni6  1  0.277409  0.655059  0.567277  1
  Ni  Ni7  1  0.879859  0.147667  0.758785  1
  Ni  Ni8  1  0.629567  0.992749  0.937877  1
  Ni  Ni9  1  0.372484  0.007903  0.436703  1
  Ni  Ni10  1  0.007903  0.372484  0.436703  1
  Ni  Ni11  1  0.992749  0.629567  0.937877  1
  Ni  Ni12  1  0.524104  0.789133  0.271721  1
  Ni  Ni13  1  0.473126  0.208840  0.776729  1
  Ni  Ni14  1  0.208840  0.473126  0.776729  1
  Ni  Ni15  1  0.789133  0.524104  0.271721  1
  Ni  Ni16  1  0.194583  0.459229  0.232409  1
  Ni  Ni17  1  0.805236  0.537835  0.737274  1
  Ni  Ni18  1  0.537835  0.805236  0.737274  1
  Ni  Ni19  1  0.459229  0.194583  0.232409  1
  Ni  Ni20  1  0.229032  0.229032  0.599814  1
  Ni  Ni21  1  0.777980  0.777980  0.098112  1
  Ni  Ni22  1  0.427226  0.427226  0.413003  1
  Ni  Ni23  1  0.565468  0.565468  0.916910  1
  Ni  Ni24  1  0.726510  0.342241  0.066637  1
  Ni  Ni25  1  0.852674  0.121762  0.255023  1
  B  B26  1  0.013459  0.603127  0.121230  1
  B  B27  1  0.985519  0.393968  0.622953  1
  B  B28  1  0.255269  0.677447  0.384969  1
  B  B29  1  0.750130  0.322792  0.887238  1
  B  B30  1  0.322792  0.750130  0.887238  1
  B  B31  1  0.677447  0.255269  0.384969  1
  B  B32  1  0.485672  0.485672  0.667201  1
  B  B33  1  0.512566  0.512566  0.158163  1
  B  B34  1  0.836183  0.836183  0.833533  1
  B  B35  1  0.165136  0.165136  0.328131  1
  B  B36  1  0.393968  0.985519  0.622953  1
  B  B37  1  0.603127  0.013459  0.121230  1
