# generated using pymatgen
data_Ta2V10Si9P
_symmetry_space_group_name_H-M   'P 1'
_cell_length_a   9.18004098
_cell_length_b   9.18004066
_cell_length_c   7.55658363
_cell_angle_alpha   65.61692973
_cell_angle_beta   65.61692836
_cell_angle_gamma   30.64797695
_symmetry_Int_Tables_number   1
_chemical_formula_structural   Ta2V10Si9P
_chemical_formula_sum   'Ta2 V10 Si9 P1'
_cell_volume   293.38100430
_cell_formula_units_Z   1
loop_
 _symmetry_equiv_pos_site_id
 _symmetry_equiv_pos_as_xyz
  1  'x, y, z'
loop_
 _atom_site_type_symbol
 _atom_site_label
 _atom_site_symmetry_multiplicity
 _atom_site_fract_x
 _atom_site_fract_y
 _atom_site_fract_z
 _atom_site_occupancy
  Ta  Ta0  1  0.643135  0.643135  0.744421  1
  Ta  Ta1  1  0.356709  0.356709  0.255664  1
  V  V2  1  0.560592  0.058994  0.685409  1
  V  V3  1  0.941476  0.441831  0.313453  1
  V  V4  1  0.441831  0.941476  0.313453  1
  V  V5  1  0.058994  0.560592  0.685409  1
  V  V6  1  0.934616  0.934616  0.318900  1
  V  V7  1  0.062942  0.062942  0.682572  1
  V  V8  1  0.565095  0.565095  0.186369  1
  V  V9  1  0.435358  0.435358  0.811464  1
  V  V10  1  0.857413  0.857413  0.024385  1
  V  V11  1  0.142045  0.142045  0.978761  1
  Si  Si12  1  0.209720  0.209720  0.594915  1
  Si  Si13  1  0.715347  0.715347  0.993823  1
  Si  Si14  1  0.285072  0.285072  0.005138  1
  Si  Si15  1  0.246788  0.752851  0.000071  1
  Si  Si16  1  0.752851  0.246788  0.000071  1
  Si  Si17  1  0.562957  0.562957  0.520070  1
  Si  Si18  1  0.437621  0.437621  0.478083  1
  Si  Si19  1  0.935365  0.935365  0.653817  1
  Si  Si20  1  0.064489  0.064489  0.346515  1
  P  P21  1  0.789583  0.789583  0.407238  1
