# generated using pymatgen
data_Ce8Re3(Tc5B6)2
_symmetry_space_group_name_H-M   'P 1'
_cell_length_a   7.80493828
_cell_length_b   7.80493853
_cell_length_c   7.80493967
_cell_angle_alpha   86.86374284
_cell_angle_beta   86.86373827
_cell_angle_gamma   86.86374226
_symmetry_Int_Tables_number   1
_chemical_formula_structural   Ce8Re3(Tc5B6)2
_chemical_formula_sum   'Ce8 Re3 Tc10 B12'
_cell_volume   473.39266128
_cell_formula_units_Z   1
loop_
 _symmetry_equiv_pos_site_id
 _symmetry_equiv_pos_as_xyz
  1  'x, y, z'
loop_
 _atom_site_type_symbol
 _atom_site_label
 _atom_site_symmetry_multiplicity
 _atom_site_fract_x
 _atom_site_fract_y
 _atom_site_fract_z
 _atom_site_occupancy
  Ce  Ce0  1  0.650257  0.650257  0.650257  1
  Ce  Ce1  1  0.349648  0.349648  0.349648  1
  Ce  Ce2  1  0.177701  0.177701  0.678014  1
  Ce  Ce3  1  0.678014  0.177701  0.177701  1
  Ce  Ce4  1  0.177701  0.678014  0.177701  1
  Ce  Ce5  1  0.822651  0.822651  0.322014  1
  Ce  Ce6  1  0.322014  0.822651  0.822651  1
  Ce  Ce7  1  0.822651  0.322014  0.822651  1
  Re  Re8  1  0.595347  0.067794  0.595347  1
  Re  Re9  1  0.595347  0.595347  0.067794  1
  Re  Re10  1  0.067794  0.595347  0.595347  1
  Tc  Tc11  1  0.999970  0.999970  0.999970  1
  Tc  Tc12  1  0.404982  0.931967  0.404982  1
  Tc  Tc13  1  0.404982  0.404982  0.931967  1
  Tc  Tc14  1  0.931967  0.404982  0.404982  1
  Tc  Tc15  1  0.926602  0.926602  0.670416  1
  Tc  Tc16  1  0.670416  0.926602  0.926602  1
  Tc  Tc17  1  0.926602  0.670416  0.926602  1
  Tc  Tc18  1  0.073062  0.073062  0.329534  1
  Tc  Tc19  1  0.329534  0.073062  0.073062  1
  Tc  Tc20  1  0.073062  0.329534  0.073062  1
  B  B21  1  0.154904  0.845153  0.499774  1
  B  B22  1  0.499774  0.154904  0.845153  1
  B  B23  1  0.845153  0.499774  0.154904  1
  B  B24  1  0.499774  0.845153  0.154904  1
  B  B25  1  0.154904  0.499774  0.845153  1
  B  B26  1  0.845153  0.154904  0.499774  1
  B  B27  1  0.671046  0.499832  0.329139  1
  B  B28  1  0.329139  0.671046  0.499832  1
  B  B29  1  0.499832  0.329139  0.671046  1
  B  B30  1  0.329139  0.499832  0.671046  1
  B  B31  1  0.671046  0.329139  0.499832  1
  B  B32  1  0.499832  0.671046  0.329139  1
