# generated using pymatgen
data_Ho6SbO11F
_symmetry_space_group_name_H-M   'P 1'
_cell_length_a   6.47437570
_cell_length_b   6.50221553
_cell_length_c   6.45848721
_cell_angle_alpha   99.08966418
_cell_angle_beta   98.80396733
_cell_angle_gamma   98.96869384
_symmetry_Int_Tables_number   1
_chemical_formula_structural   Ho6SbO11F
_chemical_formula_sum   'Ho6 Sb1 O11 F1'
_cell_volume   260.75387830
_cell_formula_units_Z   1
loop_
 _symmetry_equiv_pos_site_id
 _symmetry_equiv_pos_as_xyz
  1  'x, y, z'
loop_
 _atom_site_type_symbol
 _atom_site_label
 _atom_site_symmetry_multiplicity
 _atom_site_fract_x
 _atom_site_fract_y
 _atom_site_fract_z
 _atom_site_occupancy
  Ho  Ho0  1  0.702782  0.870966  0.402060  1
  Ho  Ho1  1  0.389757  0.692777  0.842948  1
  Ho  Ho2  1  0.856330  0.393892  0.691476  1
  Ho  Ho3  1  0.310860  0.145730  0.609309  1
  Ho  Ho4  1  0.619399  0.288850  0.135886  1
  Ho  Ho5  1  0.125678  0.609474  0.312132  1
  Sb  Sb6  1  0.003847  0.998270  0.002061  1
  O  O7  1  0.174421  0.433367  0.585190  1
  O  O8  1  0.590183  0.180653  0.435937  1
  O  O9  1  0.566751  0.417626  0.831277  1
  O  O10  1  0.812873  0.567143  0.404388  1
  O  O11  1  0.410068  0.818860  0.557755  1
  O  O12  1  0.927272  0.042668  0.698092  1
  O  O13  1  0.963050  0.302956  0.074834  1
  O  O14  1  0.306981  0.071918  0.956650  1
  O  O15  1  0.069561  0.958117  0.307890  1
  O  O16  1  0.048347  0.695369  0.930180  1
  O  O17  1  0.694740  0.928433  0.045305  1
  F  F18  1  0.427098  0.582932  0.176631  1
