# generated using pymatgen
data_Ho3Er(Co5P3)4
_symmetry_space_group_name_H-M   'P 1'
_cell_length_a   3.64483300
_cell_length_b   10.27583601
_cell_length_c   11.71820602
_cell_angle_alpha   90.00629226
_cell_angle_beta   90.00000000
_cell_angle_gamma   90.00000000
_symmetry_Int_Tables_number   1
_chemical_formula_structural   Ho3Er(Co5P3)4
_chemical_formula_sum   'Ho3 Er1 Co20 P12'
_cell_volume   438.89024289
_cell_formula_units_Z   1
loop_
 _symmetry_equiv_pos_site_id
 _symmetry_equiv_pos_as_xyz
  1  'x, y, z'
loop_
 _atom_site_type_symbol
 _atom_site_label
 _atom_site_symmetry_multiplicity
 _atom_site_fract_x
 _atom_site_fract_y
 _atom_site_fract_z
 _atom_site_occupancy
  Ho  Ho0  1  0.250000  0.917191  0.202523  1
  Ho  Ho1  1  0.750000  0.417153  0.297298  1
  Ho  Ho2  1  0.750000  0.082888  0.797569  1
  Er  Er3  1  0.250000  0.582723  0.702509  1
  Co  Co4  1  0.250000  0.717017  0.991968  1
  Co  Co5  1  0.250000  0.782952  0.492225  1
  Co  Co6  1  0.750000  0.283157  0.007941  1
  Co  Co7  1  0.750000  0.216965  0.508125  1
  Co  Co8  1  0.250000  0.407135  0.488080  1
  Co  Co9  1  0.250000  0.093045  0.988026  1
  Co  Co10  1  0.750000  0.592936  0.512484  1
  Co  Co11  1  0.750000  0.907055  0.011983  1
  Co  Co12  1  0.250000  0.221534  0.176613  1
  Co  Co13  1  0.250000  0.278656  0.676574  1
  Co  Co14  1  0.750000  0.778358  0.823316  1
  Co  Co15  1  0.750000  0.721309  0.323518  1
  Co  Co16  1  0.250000  0.882538  0.698879  1
  Co  Co17  1  0.250000  0.617109  0.198605  1
  Co  Co18  1  0.750000  0.117233  0.301388  1
  Co  Co19  1  0.750000  0.383154  0.800978  1
  Co  Co20  1  0.250000  0.467988  0.931204  1
  Co  Co21  1  0.250000  0.032224  0.431640  1
  Co  Co22  1  0.750000  0.532307  0.068061  1
  Co  Co23  1  0.750000  0.967500  0.568526  1
  P  P24  1  0.250000  0.418526  0.111905  1
  P  P25  1  0.250000  0.081406  0.612281  1
  P  P26  1  0.750000  0.581473  0.887390  1
  P  P27  1  0.750000  0.918471  0.387858  1
  P  P28  1  0.250000  0.270402  0.870329  1
  P  P29  1  0.250000  0.229754  0.370376  1
  P  P30  1  0.750000  0.729643  0.129700  1
  P  P31  1  0.750000  0.769795  0.629973  1
  P  P32  1  0.250000  0.601633  0.391219  1
  P  P33  1  0.250000  0.898341  0.891272  1
  P  P34  1  0.750000  0.398644  0.608884  1
  P  P35  1  0.750000  0.101785  0.108781  1
