# generated using pymatgen
data_Hf10ZnSb5
_symmetry_space_group_name_H-M   'P 1'
_cell_length_a   5.55378999
_cell_length_b   8.29618671
_cell_length_c   8.29618615
_cell_angle_alpha   96.43275798
_cell_angle_beta   109.55547463
_cell_angle_gamma   70.44452857
_symmetry_Int_Tables_number   1
_chemical_formula_structural   Hf10ZnSb5
_chemical_formula_sum   'Hf10 Zn1 Sb5'
_cell_volume   339.42302967
_cell_formula_units_Z   1
loop_
 _symmetry_equiv_pos_site_id
 _symmetry_equiv_pos_as_xyz
  1  'x, y, z'
loop_
 _atom_site_type_symbol
 _atom_site_label
 _atom_site_symmetry_multiplicity
 _atom_site_fract_x
 _atom_site_fract_y
 _atom_site_fract_z
 _atom_site_occupancy
  Hf  Hf0  1  0.931448  0.857142  0.705509  1
  Hf  Hf1  1  0.083080  0.142858  0.294491  1
  Hf  Hf2  1  0.416920  0.294491  0.142858  1
  Hf  Hf3  1  0.568552  0.705509  0.857142  1
  Hf  Hf4  1  0.225938  0.705509  0.142858  1
  Hf  Hf5  1  0.788589  0.294491  0.857142  1
  Hf  Hf6  1  0.274062  0.142858  0.705509  1
  Hf  Hf7  1  0.711411  0.857142  0.294491  1
  Hf  Hf8  1  0.250000  0.500000  0.500000  1
  Hf  Hf9  1  0.750000  0.500000  0.500000  1
  Zn  Zn10  1  0.250000  0.000000  0.000000  1
  Sb  Sb11  1  0.335474  0.829051  0.500000  1
  Sb  Sb12  1  0.664526  0.170949  0.500000  1
  Sb  Sb13  1  0.835474  0.500000  0.170949  1
  Sb  Sb14  1  0.164526  0.500000  0.829051  1
  Sb  Sb15  1  0.750000  0.000000  0.000000  1
