# generated using pymatgen
data_Tb16Cd4Ir3Pt
_symmetry_space_group_name_H-M   'P 1'
_cell_length_a   9.69526639
_cell_length_b   9.69412910
_cell_length_c   9.69412900
_cell_angle_alpha   59.99999694
_cell_angle_beta   60.00387723
_cell_angle_gamma   60.00387630
_symmetry_Int_Tables_number   1
_chemical_formula_structural   Tb16Cd4Ir3Pt
_chemical_formula_sum   'Tb16 Cd4 Ir3 Pt1'
_cell_volume   644.29947618
_cell_formula_units_Z   1
loop_
 _symmetry_equiv_pos_site_id
 _symmetry_equiv_pos_as_xyz
  1  'x, y, z'
loop_
 _atom_site_type_symbol
 _atom_site_label
 _atom_site_symmetry_multiplicity
 _atom_site_fract_x
 _atom_site_fract_y
 _atom_site_fract_z
 _atom_site_occupancy
  Tb  Tb0  1  0.347497  0.351041  0.351041  1
  Tb  Tb1  1  0.347497  0.351041  0.950422  1
  Tb  Tb2  1  0.347497  0.950422  0.351041  1
  Tb  Tb3  1  0.954288  0.348571  0.348571  1
  Tb  Tb4  1  0.813851  0.189315  0.189315  1
  Tb  Tb5  1  0.188431  0.811514  0.811514  1
  Tb  Tb6  1  0.188431  0.811514  0.188541  1
  Tb  Tb7  1  0.813851  0.189315  0.807519  1
  Tb  Tb8  1  0.188431  0.188541  0.811514  1
  Tb  Tb9  1  0.813851  0.807519  0.189315  1
  Tb  Tb10  1  0.936218  0.563506  0.563506  1
  Tb  Tb11  1  0.562200  0.935851  0.935851  1
  Tb  Tb12  1  0.562200  0.935851  0.566098  1
  Tb  Tb13  1  0.936218  0.563506  0.936770  1
  Tb  Tb14  1  0.562200  0.566098  0.935851  1
  Tb  Tb15  1  0.936218  0.936770  0.563506  1
  Cd  Cd16  1  0.580653  0.580891  0.580891  1
  Cd  Cd17  1  0.580653  0.580891  0.257564  1
  Cd  Cd18  1  0.580653  0.257564  0.580891  1
  Cd  Cd19  1  0.256859  0.581047  0.581047  1
  Ir  Ir20  1  0.142964  0.141594  0.141594  1
  Ir  Ir21  1  0.142964  0.141594  0.573849  1
  Ir  Ir22  1  0.142964  0.573849  0.141594  1
  Pt  Pt23  1  0.573412  0.142196  0.142196  1
