# generated using pymatgen
data_Tb3Lu5CdHgIr2
_symmetry_space_group_name_H-M   'P 1'
_cell_length_a   9.49795302
_cell_length_b   9.49795308
_cell_length_c   9.50101500
_cell_angle_alpha   59.98933181
_cell_angle_beta   59.98933159
_cell_angle_gamma   60.02084170
_symmetry_Int_Tables_number   1
_chemical_formula_structural   Tb3Lu5CdHgIr2
_chemical_formula_sum   'Tb6 Lu10 Cd2 Hg2 Ir4'
_cell_volume   606.05680354
_cell_formula_units_Z   2
loop_
 _symmetry_equiv_pos_site_id
 _symmetry_equiv_pos_as_xyz
  1  'x, y, z'
loop_
 _atom_site_type_symbol
 _atom_site_label
 _atom_site_symmetry_multiplicity
 _atom_site_fract_x
 _atom_site_fract_y
 _atom_site_fract_z
 _atom_site_occupancy
  Tb  Tb0  1  0.189291  0.809809  0.810648  1
  Tb  Tb1  1  0.809809  0.189291  0.190251  1
  Tb  Tb2  1  0.809809  0.189291  0.810648  1
  Tb  Tb3  1  0.189291  0.809809  0.190251  1
  Tb  Tb4  1  0.810160  0.810160  0.189840  1
  Tb  Tb5  1  0.189662  0.189662  0.810338  1
  Lu  Lu6  1  0.599230  0.599230  0.597498  1
  Lu  Lu7  1  0.599230  0.599230  0.204044  1
  Lu  Lu8  1  0.600827  0.200865  0.599154  1
  Lu  Lu9  1  0.200865  0.600827  0.599154  1
  Lu  Lu10  1  0.060760  0.437421  0.440010  1
  Lu  Lu11  1  0.437421  0.060760  0.061809  1
  Lu  Lu12  1  0.437421  0.060760  0.440010  1
  Lu  Lu13  1  0.060760  0.437421  0.061809  1
  Lu  Lu14  1  0.438164  0.438164  0.061836  1
  Lu  Lu15  1  0.060589  0.060589  0.439411  1
  Cd  Cd16  1  0.829848  0.509147  0.830503  1
  Cd  Cd17  1  0.509147  0.829848  0.830503  1
  Hg  Hg18  1  0.833158  0.833158  0.835032  1
  Hg  Hg19  1  0.833158  0.833158  0.498652  1
  Ir  Ir20  1  0.392047  0.392047  0.391559  1
  Ir  Ir21  1  0.392047  0.392047  0.824347  1
  Ir  Ir22  1  0.391718  0.825590  0.391346  1
  Ir  Ir23  1  0.825590  0.391718  0.391346  1
