# generated using pymatgen
data_Dy4Cd2Si3Ge
_symmetry_space_group_name_H-M   'P 1'
_cell_length_a   7.19635870
_cell_length_b   7.19635870
_cell_length_c   4.21943100
_cell_angle_alpha   90.00000000
_cell_angle_beta   90.00000000
_cell_angle_gamma   90.14420368
_symmetry_Int_Tables_number   1
_chemical_formula_structural   Dy4Cd2Si3Ge
_chemical_formula_sum   'Dy4 Cd2 Si3 Ge1'
_cell_volume   218.51342211
_cell_formula_units_Z   1
loop_
 _symmetry_equiv_pos_site_id
 _symmetry_equiv_pos_as_xyz
  1  'x, y, z'
loop_
 _atom_site_type_symbol
 _atom_site_label
 _atom_site_symmetry_multiplicity
 _atom_site_fract_x
 _atom_site_fract_y
 _atom_site_fract_z
 _atom_site_occupancy
  Dy  Dy0  1  0.679620  0.177514  0.500000  1
  Dy  Dy1  1  0.322486  0.820380  0.500000  1
  Dy  Dy2  1  0.175861  0.324139  0.500000  1
  Dy  Dy3  1  0.822730  0.677270  0.500000  1
  Cd  Cd4  1  0.500868  0.502384  0.000000  1
  Cd  Cd5  1  0.997616  0.999132  0.000000  1
  Si  Si6  1  0.117221  0.617306  0.000000  1
  Si  Si7  1  0.882694  0.382779  0.000000  1
  Si  Si8  1  0.620196  0.879804  0.000000  1
  Ge  Ge9  1  0.380708  0.119292  0.000000  1
