# generated using pymatgen
data_ErBi(SeO4)3
_symmetry_space_group_name_H-M   'P 1'
_cell_length_a   10.08769552
_cell_length_b   10.08769663
_cell_length_c   10.08769679
_cell_angle_alpha   55.90021895
_cell_angle_beta   55.90021856
_cell_angle_gamma   55.90022193
_symmetry_Int_Tables_number   1
_chemical_formula_structural   ErBi(SeO4)3
_chemical_formula_sum   'Er2 Bi2 Se6 O24'
_cell_volume   656.89928674
_cell_formula_units_Z   2
loop_
 _symmetry_equiv_pos_site_id
 _symmetry_equiv_pos_as_xyz
  1  'x, y, z'
loop_
 _atom_site_type_symbol
 _atom_site_label
 _atom_site_symmetry_multiplicity
 _atom_site_fract_x
 _atom_site_fract_y
 _atom_site_fract_z
 _atom_site_occupancy
  Er  Er0  1  0.857377  0.857377  0.857377  1
  Er  Er1  1  0.142623  0.142623  0.142623  1
  Bi  Bi2  1  0.649323  0.649323  0.649323  1
  Bi  Bi3  1  0.350677  0.350677  0.350677  1
  Se  Se4  1  0.533434  0.240628  0.974506  1
  Se  Se5  1  0.974506  0.533434  0.240628  1
  Se  Se6  1  0.240628  0.974506  0.533434  1
  Se  Se7  1  0.466566  0.759372  0.025494  1
  Se  Se8  1  0.025494  0.466566  0.759372  1
  Se  Se9  1  0.759372  0.025494  0.466566  1
  O  O10  1  0.380946  0.200338  0.998129  1
  O  O11  1  0.998129  0.380946  0.200338  1
  O  O12  1  0.200338  0.998129  0.380946  1
  O  O13  1  0.619054  0.799662  0.001871  1
  O  O14  1  0.001871  0.619054  0.799662  1
  O  O15  1  0.799662  0.001871  0.619054  1
  O  O16  1  0.520025  0.199368  0.167545  1
  O  O17  1  0.167545  0.520025  0.199368  1
  O  O18  1  0.199368  0.167545  0.520025  1
  O  O19  1  0.479975  0.800632  0.832455  1
  O  O20  1  0.832455  0.479975  0.800632  1
  O  O21  1  0.800632  0.832455  0.479975  1
  O  O22  1  0.724626  0.109826  0.888950  1
  O  O23  1  0.888950  0.724626  0.109826  1
  O  O24  1  0.109826  0.888950  0.724626  1
  O  O25  1  0.275374  0.890174  0.111050  1
  O  O26  1  0.111050  0.275374  0.890174  1
  O  O27  1  0.890174  0.111050  0.275374  1
  O  O28  1  0.510718  0.444881  0.847404  1
  O  O29  1  0.847404  0.510718  0.444881  1
  O  O30  1  0.444881  0.847404  0.510718  1
  O  O31  1  0.489282  0.555119  0.152596  1
  O  O32  1  0.152596  0.489282  0.555119  1
  O  O33  1  0.555119  0.152596  0.489282  1
