# generated using pymatgen
data_Th2MgPd2
_symmetry_space_group_name_H-M   'P 1'
_cell_length_a   3.87606400
_cell_length_b   7.91449100
_cell_length_c   7.91449100
_cell_angle_alpha   90.00000000
_cell_angle_beta   90.00000000
_cell_angle_gamma   90.00000000
_symmetry_Int_Tables_number   1
_chemical_formula_structural   Th2MgPd2
_chemical_formula_sum   'Th4 Mg2 Pd4'
_cell_volume   242.79342326
_cell_formula_units_Z   2
loop_
 _symmetry_equiv_pos_site_id
 _symmetry_equiv_pos_as_xyz
  1  'x, y, z'
loop_
 _atom_site_type_symbol
 _atom_site_label
 _atom_site_symmetry_multiplicity
 _atom_site_fract_x
 _atom_site_fract_y
 _atom_site_fract_z
 _atom_site_occupancy
  Th  Th0  1  0.500000  0.172836  0.672836  1
  Th  Th1  1  0.500000  0.827164  0.327164  1
  Th  Th2  1  0.500000  0.327164  0.172836  1
  Th  Th3  1  0.500000  0.672836  0.827164  1
  Mg  Mg4  1  0.000000  0.000000  0.000000  1
  Mg  Mg5  1  0.000000  0.500000  0.500000  1
  Pd  Pd6  1  0.000000  0.631509  0.131509  1
  Pd  Pd7  1  0.000000  0.368491  0.868491  1
  Pd  Pd8  1  0.000000  0.868491  0.631509  1
  Pd  Pd9  1  0.000000  0.131509  0.368491  1
