# generated using pymatgen
data_Ho8Tm9Lu3Pb16
_symmetry_space_group_name_H-M   'P 1'
_cell_length_a   8.12376214
_cell_length_b   15.47484500
_cell_length_c   8.19795615
_cell_angle_alpha   90.00000000
_cell_angle_beta   90.02158900
_cell_angle_gamma   90.00000000
_symmetry_Int_Tables_number   1
_chemical_formula_structural   Ho8Tm9Lu3Pb16
_chemical_formula_sum   'Ho8 Tm9 Lu3 Pb16'
_cell_volume   1030.59745778
_cell_formula_units_Z   1
loop_
 _symmetry_equiv_pos_site_id
 _symmetry_equiv_pos_as_xyz
  1  'x, y, z'
loop_
 _atom_site_type_symbol
 _atom_site_label
 _atom_site_symmetry_multiplicity
 _atom_site_fract_x
 _atom_site_fract_y
 _atom_site_fract_z
 _atom_site_occupancy
  Ho  Ho0  1  0.464205  0.599604  0.676858  1
  Ho  Ho1  1  0.964344  0.900381  0.823300  1
  Ho  Ho2  1  0.535724  0.099643  0.323215  1
  Ho  Ho3  1  0.035708  0.400389  0.176786  1
  Ho  Ho4  1  0.535724  0.400357  0.323215  1
  Ho  Ho5  1  0.035708  0.099611  0.176786  1
  Ho  Ho6  1  0.464205  0.900396  0.676858  1
  Ho  Ho7  1  0.964344  0.599619  0.823300  1
  Tm  Tm8  1  0.623359  0.621206  0.158550  1
  Tm  Tm9  1  0.123665  0.878806  0.341251  1
  Tm  Tm10  1  0.376525  0.121211  0.841357  1
  Tm  Tm11  1  0.876536  0.378765  0.658631  1
  Tm  Tm12  1  0.376525  0.378789  0.841357  1
  Tm  Tm13  1  0.876536  0.121235  0.658631  1
  Tm  Tm14  1  0.623359  0.878794  0.158550  1
  Tm  Tm15  1  0.123665  0.621194  0.341251  1
  Tm  Tm16  1  0.791977  0.750000  0.495588  1
  Lu  Lu17  1  0.291867  0.750000  0.004566  1
  Lu  Lu18  1  0.208096  0.250000  0.504527  1
  Lu  Lu19  1  0.708092  0.250000  0.995481  1
  Pb  Pb20  1  0.717786  0.457168  0.965978  1
  Pb  Pb21  1  0.217776  0.042829  0.533994  1
  Pb  Pb22  1  0.282221  0.957192  0.034018  1
  Pb  Pb23  1  0.782223  0.542693  0.465994  1
  Pb  Pb24  1  0.282221  0.542808  0.034018  1
  Pb  Pb25  1  0.782223  0.957307  0.465994  1
  Pb  Pb26  1  0.717786  0.042832  0.965978  1
  Pb  Pb27  1  0.217776  0.457171  0.533994  1
  Pb  Pb28  1  0.429080  0.750000  0.371723  1
  Pb  Pb29  1  0.929493  0.750000  0.127893  1
  Pb  Pb30  1  0.570548  0.250000  0.628168  1
  Pb  Pb31  1  0.070514  0.250000  0.871881  1
  Pb  Pb32  1  0.652824  0.750000  0.846617  1
  Pb  Pb33  1  0.152945  0.750000  0.653800  1
  Pb  Pb34  1  0.347215  0.250000  0.153763  1
  Pb  Pb35  1  0.847206  0.250000  0.346128  1
