# generated using pymatgen
data_NaSm5YOsBr12
_symmetry_space_group_name_H-M   'P 1'
_cell_length_a   9.43832137
_cell_length_b   9.41088504
_cell_length_c   9.43102324
_cell_angle_alpha   107.02339872
_cell_angle_beta   107.12897052
_cell_angle_gamma   106.86271210
_symmetry_Int_Tables_number   1
_chemical_formula_structural   NaSm5YOsBr12
_chemical_formula_sum   'Na1 Sm5 Y1 Os1 Br12'
_cell_volume   697.53874846
_cell_formula_units_Z   1
loop_
 _symmetry_equiv_pos_site_id
 _symmetry_equiv_pos_as_xyz
  1  'x, y, z'
loop_
 _atom_site_type_symbol
 _atom_site_label
 _atom_site_symmetry_multiplicity
 _atom_site_fract_x
 _atom_site_fract_y
 _atom_site_fract_z
 _atom_site_occupancy
  Na  Na0  1  0.500007  0.500107  0.499969  1
  Sm  Sm1  1  0.317607  0.029415  0.111357  1
  Sm  Sm2  1  0.030309  0.112197  0.318045  1
  Sm  Sm3  1  0.970290  0.889676  0.682496  1
  Sm  Sm4  1  0.682608  0.971146  0.888468  1
  Sm  Sm5  1  0.888664  0.682385  0.970218  1
  Y  Y6  1  0.110810  0.315776  0.030713  1
  Os  Os7  1  0.000148  0.999920  0.000479  1
  Br  Br8  1  0.215576  0.678378  0.072030  1
  Br  Br9  1  0.446906  0.370063  0.148766  1
  Br  Br10  1  0.683446  0.072570  0.217626  1
  Br  Br11  1  0.928775  0.782728  0.317249  1
  Br  Br12  1  0.151572  0.452626  0.364726  1
  Br  Br13  1  0.370174  0.151346  0.453401  1
  Br  Br14  1  0.629866  0.848761  0.546614  1
  Br  Br15  1  0.848079  0.546871  0.629856  1
  Br  Br16  1  0.072413  0.220174  0.687952  1
  Br  Br17  1  0.316604  0.927648  0.782527  1
  Br  Br18  1  0.546702  0.630283  0.848420  1
  Br  Br19  1  0.789445  0.317933  0.929091  1
