# generated using pymatgen
data_Ho2CoSi14Ir5
_symmetry_space_group_name_H-M   'P 1'
_cell_length_a   7.99139950
_cell_length_b   7.99139950
_cell_length_c   7.97582430
_cell_angle_alpha   56.67361300
_cell_angle_beta   56.67361746
_cell_angle_gamma   56.59737871
_symmetry_Int_Tables_number   1
_chemical_formula_structural   Ho2CoSi14Ir5
_chemical_formula_sum   'Ho2 Co1 Si14 Ir5'
_cell_volume   332.28519913
_cell_formula_units_Z   1
loop_
 _symmetry_equiv_pos_site_id
 _symmetry_equiv_pos_as_xyz
  1  'x, y, z'
loop_
 _atom_site_type_symbol
 _atom_site_label
 _atom_site_symmetry_multiplicity
 _atom_site_fract_x
 _atom_site_fract_y
 _atom_site_fract_z
 _atom_site_occupancy
  Ho  Ho0  1  0.001085  0.998533  0.999442  1
  Ho  Ho1  1  0.501467  0.498915  0.500558  1
  Co  Co2  1  0.069530  0.430470  0.750000  1
  Si  Si3  1  0.759768  0.740232  0.750000  1
  Si  Si4  1  0.249749  0.250251  0.250000  1
  Si  Si5  1  0.850982  0.065950  0.670892  1
  Si  Si6  1  0.671237  0.850915  0.064122  1
  Si  Si7  1  0.062943  0.666314  0.846474  1
  Si  Si8  1  0.649085  0.828763  0.435878  1
  Si  Si9  1  0.434050  0.649018  0.829108  1
  Si  Si10  1  0.833686  0.437057  0.653526  1
  Si  Si11  1  0.170233  0.561778  0.359666  1
  Si  Si12  1  0.565580  0.350511  0.172291  1
  Si  Si13  1  0.342782  0.178857  0.572415  1
  Si  Si14  1  0.938222  0.329767  0.140334  1
  Si  Si15  1  0.321143  0.157218  0.927585  1
  Si  Si16  1  0.149489  0.934420  0.327709  1
  Ir  Ir17  1  0.248751  0.929729  0.572011  1
  Ir  Ir18  1  0.570271  0.251249  0.927989  1
  Ir  Ir19  1  0.929317  0.570683  0.250000  1
  Ir  Ir20  1  0.429734  0.749100  0.071049  1
  Ir  Ir21  1  0.750900  0.070266  0.428951  1
