# generated using pymatgen
data_Ce2NdMg3Ir2Au
_symmetry_space_group_name_H-M   'P 1'
_cell_length_a   7.66742324
_cell_length_b   7.42937879
_cell_length_c   4.02133500
_cell_angle_alpha   90.00000000
_cell_angle_beta   90.00000000
_cell_angle_gamma   118.97820280
_symmetry_Int_Tables_number   1
_chemical_formula_structural   Ce2NdMg3Ir2Au
_chemical_formula_sum   'Ce2 Nd1 Mg3 Ir2 Au1'
_cell_volume   200.39320586
_cell_formula_units_Z   1
loop_
 _symmetry_equiv_pos_site_id
 _symmetry_equiv_pos_as_xyz
  1  'x, y, z'
loop_
 _atom_site_type_symbol
 _atom_site_label
 _atom_site_symmetry_multiplicity
 _atom_site_fract_x
 _atom_site_fract_y
 _atom_site_fract_z
 _atom_site_occupancy
  Ce  Ce0  1  0.426058  0.428960  0.000000  1
  Ce  Ce1  1  0.573942  0.002902  0.000000  1
  Nd  Nd2  1  0.000000  0.580850  0.000000  1
  Mg  Mg3  1  0.000000  0.252252  0.500000  1
  Mg  Mg4  1  0.245997  0.999491  0.500000  1
  Mg  Mg5  1  0.754003  0.753494  0.500000  1
  Ir  Ir6  1  0.355634  0.668199  0.500000  1
  Ir  Ir7  1  0.644366  0.312564  0.500000  1
  Au  Au8  1  0.000000  0.001289  0.000000  1
