# generated using pymatgen
data_Pr5In2Sn
_symmetry_space_group_name_H-M   'P 1'
_cell_length_a   9.57102437
_cell_length_b   9.57102456
_cell_length_c   9.47101186
_cell_angle_alpha   96.16616547
_cell_angle_beta   96.16616842
_cell_angle_gamma   141.89672811
_symmetry_Int_Tables_number   1
_chemical_formula_structural   Pr5In2Sn
_chemical_formula_sum   'Pr10 In4 Sn2'
_cell_volume   505.55589103
_cell_formula_units_Z   2
loop_
 _symmetry_equiv_pos_site_id
 _symmetry_equiv_pos_as_xyz
  1  'x, y, z'
loop_
 _atom_site_type_symbol
 _atom_site_label
 _atom_site_symmetry_multiplicity
 _atom_site_fract_x
 _atom_site_fract_y
 _atom_site_fract_z
 _atom_site_occupancy
  Pr  Pr0  1  0.585513  0.283539  0.866458  1
  Pr  Pr1  1  0.416892  0.718927  0.133455  1
  Pr  Pr2  1  0.283163  0.416283  0.696675  1
  Pr  Pr3  1  0.913806  0.780743  0.696965  1
  Pr  Pr4  1  0.781073  0.083108  0.866545  1
  Pr  Pr5  1  0.252289  0.751329  0.500128  1
  Pr  Pr6  1  0.748671  0.247711  0.499872  1
  Pr  Pr7  1  0.083717  0.216837  0.303325  1
  Pr  Pr8  1  0.719257  0.586194  0.303035  1
  Pr  Pr9  1  0.216461  0.914487  0.133542  1
  In  In10  1  0.339208  0.160792  0.500000  1
  In  In11  1  0.160629  0.660617  0.821437  1
  In  In12  1  0.749803  0.750197  0.000000  1
  In  In13  1  0.839383  0.339371  0.178563  1
  Sn  Sn14  1  0.660255  0.839745  0.500000  1
  Sn  Sn15  1  0.249879  0.250121  0.000000  1
