# generated using pymatgen
data_Tb7Ta(B6Os)4
_symmetry_space_group_name_H-M   'P 1'
_cell_length_a   3.63587600
_cell_length_b   9.12803229
_cell_length_c   11.49518611
_cell_angle_alpha   90.08693892
_cell_angle_beta   90.00000000
_cell_angle_gamma   90.00000000
_symmetry_Int_Tables_number   1
_chemical_formula_structural   Tb7Ta(B6Os)4
_chemical_formula_sum   'Tb7 Ta1 B24 Os4'
_cell_volume   381.50632145
_cell_formula_units_Z   1
loop_
 _symmetry_equiv_pos_site_id
 _symmetry_equiv_pos_as_xyz
  1  'x, y, z'
loop_
 _atom_site_type_symbol
 _atom_site_label
 _atom_site_symmetry_multiplicity
 _atom_site_fract_x
 _atom_site_fract_y
 _atom_site_fract_z
 _atom_site_occupancy
  Tb  Tb0  1  0.000000  0.323025  0.413741  1
  Tb  Tb1  1  0.000000  0.677450  0.587956  1
  Tb  Tb2  1  0.000000  0.821452  0.085333  1
  Tb  Tb3  1  0.000000  0.178681  0.912657  1
  Tb  Tb4  1  0.000000  0.944636  0.374059  1
  Tb  Tb5  1  0.000000  0.056359  0.628077  1
  Tb  Tb6  1  0.000000  0.444975  0.123412  1
  Ta  Ta7  1  0.000000  0.556010  0.874732  1
  B  B8  1  0.500000  0.553167  0.432333  1
  B  B9  1  0.500000  0.447775  0.568862  1
  B  B10  1  0.500000  0.053067  0.066191  1
  B  B11  1  0.500000  0.942403  0.933418  1
  B  B12  1  0.500000  0.747100  0.419290  1
  B  B13  1  0.500000  0.254272  0.582519  1
  B  B14  1  0.500000  0.248255  0.080151  1
  B  B15  1  0.500000  0.744996  0.918684  1
  B  B16  1  0.500000  0.790715  0.265786  1
  B  B17  1  0.500000  0.210548  0.736148  1
  B  B18  1  0.500000  0.291445  0.232779  1
  B  B19  1  0.500000  0.704213  0.765654  1
  B  B20  1  0.500000  0.630488  0.185474  1
  B  B21  1  0.500000  0.374288  0.816725  1
  B  B22  1  0.500000  0.132960  0.314251  1
  B  B23  1  0.500000  0.865894  0.685678  1
  B  B24  1  0.500000  0.984299  0.212412  1
  B  B25  1  0.500000  0.014395  0.788848  1
  B  B26  1  0.500000  0.482668  0.287032  1
  B  B27  1  0.500000  0.521085  0.714049  1
  B  B28  1  0.500000  0.602031  0.021073  1
  B  B29  1  0.500000  0.403454  0.966330  1
  B  B30  1  0.500000  0.112793  0.470610  1
  B  B31  1  0.500000  0.888107  0.531569  1
  Os  Os32  1  0.000000  0.637379  0.319093  1
  Os  Os33  1  0.000000  0.366529  0.684924  1
  Os  Os34  1  0.000000  0.139121  0.177029  1
  Os  Os35  1  0.000000  0.853970  0.823124  1
