# generated using pymatgen
data_TbCe6ZrF30
_symmetry_space_group_name_H-M   'P 1'
_cell_length_a   8.64296845
_cell_length_b   8.63514940
_cell_length_c   8.64296900
_cell_angle_alpha   100.67929077
_cell_angle_beta   100.32952014
_cell_angle_gamma   100.67928514
_symmetry_Int_Tables_number   1
_chemical_formula_structural   TbCe6ZrF30
_chemical_formula_sum   'Tb1 Ce6 Zr1 F30'
_cell_volume   607.46526419
_cell_formula_units_Z   1
loop_
 _symmetry_equiv_pos_site_id
 _symmetry_equiv_pos_as_xyz
  1  'x, y, z'
loop_
 _atom_site_type_symbol
 _atom_site_label
 _atom_site_symmetry_multiplicity
 _atom_site_fract_x
 _atom_site_fract_y
 _atom_site_fract_z
 _atom_site_occupancy
  Tb  Tb0  1  0.821056  0.250000  0.678944  1
  Ce  Ce1  1  0.178285  0.750000  0.321715  1
  Ce  Ce2  1  0.247646  0.676535  0.820392  1
  Ce  Ce3  1  0.679608  0.823465  0.252354  1
  Ce  Ce4  1  0.750344  0.750000  0.749656  1
  Ce  Ce5  1  0.322432  0.178570  0.748642  1
  Ce  Ce6  1  0.751358  0.321430  0.177568  1
  Zr  Zr7  1  0.250168  0.250000  0.249832  1
  F  F8  1  0.964532  0.536988  0.252055  1
  F  F9  1  0.810618  0.338963  0.441386  1
  F  F10  1  0.488523  0.719460  0.718920  1
  F  F11  1  0.347887  0.447708  0.816062  1
  F  F12  1  0.012372  0.784960  0.779160  1
  F  F13  1  0.750129  0.031172  0.463001  1
  F  F14  1  0.949287  0.846289  0.318829  1
  F  F15  1  0.225930  0.220814  0.005609  1
  F  F16  1  0.777509  0.009154  0.774696  1
  F  F17  1  0.320100  0.947060  0.844283  1
  F  F18  1  0.277850  0.275306  0.494978  1
  F  F19  1  0.446421  0.813560  0.347090  1
  F  F20  1  0.533120  0.250000  0.966880  1
  F  F21  1  0.273424  0.495358  0.276918  1
  F  F22  1  0.152910  0.686440  0.053579  1
  F  F23  1  0.842388  0.317165  0.951632  1
  F  F24  1  0.725304  0.490846  0.722491  1
  F  F25  1  0.463632  0.750000  0.036368  1
  F  F26  1  0.548368  0.182835  0.657612  1
  F  F27  1  0.720840  0.715040  0.487628  1
  F  F28  1  0.683938  0.052292  0.152113  1
  F  F29  1  0.223082  0.004642  0.226576  1
  F  F30  1  0.781080  0.780540  0.011477  1
  F  F31  1  0.058614  0.161037  0.689382  1
  F  F32  1  0.247945  0.963012  0.535468  1
  F  F33  1  0.005022  0.224694  0.222150  1
  F  F34  1  0.655717  0.552940  0.179900  1
  F  F35  1  0.494391  0.279186  0.274070  1
  F  F36  1  0.181171  0.653711  0.550713  1
  F  F37  1  0.036999  0.468828  0.749871  1
