# generated using pymatgen
data_ErLu4(In2Rh)2
_symmetry_space_group_name_H-M   'P 1'
_cell_length_a   3.53469900
_cell_length_b   7.96425100
_cell_length_c   18.11795400
_cell_angle_alpha   90.00000000
_cell_angle_beta   90.00000000
_cell_angle_gamma   90.00000000
_symmetry_Int_Tables_number   1
_chemical_formula_structural   ErLu4(In2Rh)2
_chemical_formula_sum   'Er2 Lu8 In8 Rh4'
_cell_volume   510.04269101
_cell_formula_units_Z   2
loop_
 _symmetry_equiv_pos_site_id
 _symmetry_equiv_pos_as_xyz
  1  'x, y, z'
loop_
 _atom_site_type_symbol
 _atom_site_label
 _atom_site_symmetry_multiplicity
 _atom_site_fract_x
 _atom_site_fract_y
 _atom_site_fract_z
 _atom_site_occupancy
  Er  Er0  1  0.000000  0.500000  0.000000  1
  Er  Er1  1  0.000000  0.000000  0.500000  1
  Lu  Lu2  1  0.000000  0.883234  0.087419  1
  Lu  Lu3  1  0.000000  0.754998  0.279303  1
  Lu  Lu4  1  0.000000  0.745002  0.779303  1
  Lu  Lu5  1  0.000000  0.383234  0.412581  1
  Lu  Lu6  1  0.000000  0.116766  0.912581  1
  Lu  Lu7  1  0.000000  0.245002  0.720697  1
  Lu  Lu8  1  0.000000  0.254998  0.220697  1
  Lu  Lu9  1  0.000000  0.616766  0.587419  1
  In  In10  1  0.500000  0.206494  0.066664  1
  In  In11  1  0.500000  0.426175  0.850074  1
  In  In12  1  0.500000  0.573825  0.149926  1
  In  In13  1  0.500000  0.073825  0.350074  1
  In  In14  1  0.500000  0.926175  0.649926  1
  In  In15  1  0.500000  0.793506  0.933336  1
  In  In16  1  0.500000  0.706494  0.433336  1
  In  In17  1  0.500000  0.293506  0.566664  1
  Rh  Rh18  1  0.500000  0.974724  0.195874  1
  Rh  Rh19  1  0.500000  0.025276  0.804126  1
  Rh  Rh20  1  0.500000  0.525276  0.695874  1
  Rh  Rh21  1  0.500000  0.474724  0.304126  1
