# generated using pymatgen
data_Y3Ho2Co2Au
_symmetry_space_group_name_H-M   'P 1'
_cell_length_a   8.53404233
_cell_length_b   8.52278533
_cell_length_c   8.53412210
_cell_angle_alpha   128.14242514
_cell_angle_beta   128.17587805
_cell_angle_gamma   76.39563335
_symmetry_Int_Tables_number   1
_chemical_formula_structural   Y3Ho2Co2Au
_chemical_formula_sum   'Y6 Ho4 Co4 Au2'
_cell_volume   372.83584854
_cell_formula_units_Z   2
loop_
 _symmetry_equiv_pos_site_id
 _symmetry_equiv_pos_as_xyz
  1  'x, y, z'
loop_
 _atom_site_type_symbol
 _atom_site_label
 _atom_site_symmetry_multiplicity
 _atom_site_fract_x
 _atom_site_fract_y
 _atom_site_fract_z
 _atom_site_occupancy
  Y  Y0  1  0.697115  0.529704  0.500041  1
  Y  Y1  1  0.470366  0.970305  0.167445  1
  Y  Y2  1  0.803470  0.303395  0.833235  1
  Y  Y3  1  0.529332  0.029259  0.831630  1
  Y  Y4  1  0.029817  0.196584  0.500055  1
  Y  Y5  1  0.302368  0.470750  0.500057  1
  Ho  Ho6  1  0.000241  0.999798  0.000021  1
  Ho  Ho7  1  0.198475  0.698445  0.167623  1
  Ho  Ho8  1  0.969139  0.801573  0.500009  1
  Ho  Ho9  1  0.500238  0.500201  0.000456  1
  Co  Co10  1  0.126285  0.627940  0.754189  1
  Co  Co11  1  0.873576  0.375244  0.247797  1
  Co  Co12  1  0.626237  0.872058  0.498333  1
  Co  Co13  1  0.372548  0.124746  0.498319  1
  Au  Au14  1  0.249178  0.250000  0.999177  1
  Au  Au15  1  0.751616  0.749997  0.001612  1
