# generated using pymatgen
data_LaThPd2Pb
_symmetry_space_group_name_H-M   'P 1'
_cell_length_a   8.09822900
_cell_length_b   8.10047000
_cell_length_c   3.84218200
_cell_angle_alpha   90.00000000
_cell_angle_beta   90.00000000
_cell_angle_gamma   90.00000000
_symmetry_Int_Tables_number   1
_chemical_formula_structural   LaThPd2Pb
_chemical_formula_sum   'La2 Th2 Pd4 Pb2'
_cell_volume   252.04506852
_cell_formula_units_Z   2
loop_
 _symmetry_equiv_pos_site_id
 _symmetry_equiv_pos_as_xyz
  1  'x, y, z'
loop_
 _atom_site_type_symbol
 _atom_site_label
 _atom_site_symmetry_multiplicity
 _atom_site_fract_x
 _atom_site_fract_y
 _atom_site_fract_z
 _atom_site_occupancy
  La  La0  1  0.823056  0.676976  0.500000  1
  La  La1  1  0.323056  0.823024  0.500000  1
  Th  Th2  1  0.674027  0.173399  0.500000  1
  Th  Th3  1  0.174027  0.326601  0.500000  1
  Pd  Pd4  1  0.375243  0.136727  0.000000  1
  Pd  Pd5  1  0.126531  0.611959  0.000000  1
  Pd  Pd6  1  0.626531  0.888041  0.000000  1
  Pd  Pd7  1  0.875243  0.363273  0.000000  1
  Pb  Pb8  1  0.001143  0.999530  0.000000  1
  Pb  Pb9  1  0.501143  0.500470  0.000000  1
