# generated using pymatgen
data_Dy16Sc4(IrRh3)3
_symmetry_space_group_name_H-M   'P 1'
_cell_length_a   10.77264606
_cell_length_b   10.77264606
_cell_length_c   6.26405907
_cell_angle_alpha   90.01252021
_cell_angle_beta   90.01252021
_cell_angle_gamma   90.00045672
_symmetry_Int_Tables_number   1
_chemical_formula_structural   Dy16Sc4(IrRh3)3
_chemical_formula_sum   'Dy16 Sc4 Ir3 Rh9'
_cell_volume   726.94341471
_cell_formula_units_Z   1
loop_
 _symmetry_equiv_pos_site_id
 _symmetry_equiv_pos_as_xyz
  1  'x, y, z'
loop_
 _atom_site_type_symbol
 _atom_site_label
 _atom_site_symmetry_multiplicity
 _atom_site_fract_x
 _atom_site_fract_y
 _atom_site_fract_z
 _atom_site_occupancy
  Dy  Dy0  1  0.287567  0.087564  0.378550  1
  Dy  Dy1  1  0.287577  0.912227  0.878454  1
  Dy  Dy2  1  0.712627  0.086324  0.878712  1
  Dy  Dy3  1  0.712443  0.912379  0.378545  1
  Dy  Dy4  1  0.585449  0.786048  0.879359  1
  Dy  Dy5  1  0.585234  0.213182  0.378754  1
  Dy  Dy6  1  0.414465  0.786320  0.378996  1
  Dy  Dy7  1  0.413294  0.213202  0.879564  1
  Dy  Dy8  1  0.213952  0.414551  0.620641  1
  Dy  Dy9  1  0.213680  0.585535  0.121004  1
  Dy  Dy10  1  0.786818  0.414766  0.121246  1
  Dy  Dy11  1  0.786798  0.586706  0.620436  1
  Dy  Dy12  1  0.912436  0.712433  0.121450  1
  Dy  Dy13  1  0.913676  0.287373  0.621288  1
  Dy  Dy14  1  0.087773  0.712423  0.621546  1
  Dy  Dy15  1  0.087621  0.287557  0.121455  1
  Sc  Sc16  1  0.999969  0.999963  0.500019  1
  Sc  Sc17  1  0.000037  0.000031  0.999981  1
  Sc  Sc18  1  0.499478  0.500367  0.000574  1
  Sc  Sc19  1  0.499633  0.500522  0.499426  1
  Ir  Ir20  1  0.648432  0.647780  0.249962  1
  Ir  Ir21  1  0.352220  0.351568  0.250038  1
  Ir  Ir22  1  0.351746  0.648254  0.750000  1
  Rh  Rh23  1  0.852552  0.147448  0.250000  1
  Rh  Rh24  1  0.852885  0.853020  0.750069  1
  Rh  Rh25  1  0.146980  0.147115  0.749931  1
  Rh  Rh26  1  0.147010  0.852990  0.250000  1
  Rh  Rh27  1  0.648276  0.351724  0.750000  1
  Rh  Rh28  1  0.500091  0.000360  0.123372  1
  Rh  Rh29  1  0.500195  0.000555  0.623820  1
  Rh  Rh30  1  0.999445  0.499805  0.876180  1
  Rh  Rh31  1  0.999640  0.499909  0.376628  1
