# generated using pymatgen
data_Yb2Zn3Rh2
_symmetry_space_group_name_H-M   'P 1'
_cell_length_a   5.30630288
_cell_length_b   5.30630315
_cell_length_c   6.84151910
_cell_angle_alpha   111.25157885
_cell_angle_beta   111.25157673
_cell_angle_gamma   46.77680135
_symmetry_Int_Tables_number   1
_chemical_formula_structural   Yb2Zn3Rh2
_chemical_formula_sum   'Yb2 Zn3 Rh2'
_cell_volume   128.96237859
_cell_formula_units_Z   1
loop_
 _symmetry_equiv_pos_site_id
 _symmetry_equiv_pos_as_xyz
  1  'x, y, z'
loop_
 _atom_site_type_symbol
 _atom_site_label
 _atom_site_symmetry_multiplicity
 _atom_site_fract_x
 _atom_site_fract_y
 _atom_site_fract_z
 _atom_site_occupancy
  Yb  Yb0  1  0.856699  0.856699  0.224432  1
  Yb  Yb1  1  0.143301  0.143301  0.775568  1
  Zn  Zn2  1  0.500000  0.500000  0.000000  1
  Zn  Zn3  1  0.634814  0.634814  0.436488  1
  Zn  Zn4  1  0.365186  0.365186  0.563513  1
  Rh  Rh5  1  0.136992  0.136992  0.201867  1
  Rh  Rh6  1  0.863008  0.863008  0.798133  1
