# generated using pymatgen
data_TbSn6(RuRh)2
_symmetry_space_group_name_H-M   'P 1'
_cell_length_a   6.96141249
_cell_length_b   6.94792735
_cell_length_c   6.96141193
_cell_angle_alpha   120.06751418
_cell_angle_beta   120.00275978
_cell_angle_gamma   89.99475979
_symmetry_Int_Tables_number   1
_chemical_formula_structural   TbSn6(RuRh)2
_chemical_formula_sum   'Tb1 Sn6 Ru2 Rh2'
_cell_volume   237.84433715
_cell_formula_units_Z   1
loop_
 _symmetry_equiv_pos_site_id
 _symmetry_equiv_pos_as_xyz
  1  'x, y, z'
loop_
 _atom_site_type_symbol
 _atom_site_label
 _atom_site_symmetry_multiplicity
 _atom_site_fract_x
 _atom_site_fract_y
 _atom_site_fract_z
 _atom_site_occupancy
  Tb  Tb0  1  0.990923  0.000000  0.990923  1
  Sn  Sn1  1  0.876950  0.535629  0.003617  1
  Sn  Sn2  1  0.538520  0.879356  0.006648  1
  Sn  Sn3  1  0.127292  0.120644  0.659163  1
  Sn  Sn4  1  0.999622  0.500000  0.499622  1
  Sn  Sn5  1  0.467988  0.464371  0.341320  1
  Sn  Sn6  1  0.502337  0.000000  0.502337  1
  Ru  Ru7  1  0.602272  0.244089  0.999177  1
  Ru  Ru8  1  0.755088  0.755911  0.358183  1
  Rh  Rh9  1  0.242497  0.602242  0.998754  1
  Rh  Rh10  1  0.396513  0.397758  0.640255  1
