# generated using pymatgen
data_Hf15Sc3Ta2(Re3Si)2
_symmetry_space_group_name_H-M   'P 1'
_cell_length_a   8.69419500
_cell_length_b   8.69419411
_cell_length_c   8.61704300
_cell_angle_alpha   90.00000000
_cell_angle_beta   90.00000000
_cell_angle_gamma   119.99999957
_symmetry_Int_Tables_number   1
_chemical_formula_structural   Hf15Sc3Ta2(Re3Si)2
_chemical_formula_sum   'Hf15 Sc3 Ta2 Re6 Si2'
_cell_volume   564.08896343
_cell_formula_units_Z   1
loop_
 _symmetry_equiv_pos_site_id
 _symmetry_equiv_pos_as_xyz
  1  'x, y, z'
loop_
 _atom_site_type_symbol
 _atom_site_label
 _atom_site_symmetry_multiplicity
 _atom_site_fract_x
 _atom_site_fract_y
 _atom_site_fract_z
 _atom_site_occupancy
  Hf  Hf0  1  0.196822  0.803178  0.453854  1
  Hf  Hf1  1  0.196822  0.393644  0.453854  1
  Hf  Hf2  1  0.606356  0.803178  0.453854  1
  Hf  Hf3  1  0.803292  0.196708  0.546658  1
  Hf  Hf4  1  0.803292  0.606584  0.546658  1
  Hf  Hf5  1  0.393416  0.196708  0.546658  1
  Hf  Hf6  1  0.803292  0.196708  0.953342  1
  Hf  Hf7  1  0.803292  0.606584  0.953342  1
  Hf  Hf8  1  0.393416  0.196708  0.953342  1
  Hf  Hf9  1  0.196822  0.803178  0.046146  1
  Hf  Hf10  1  0.196822  0.393644  0.046146  1
  Hf  Hf11  1  0.606356  0.803178  0.046146  1
  Hf  Hf12  1  0.460419  0.539581  0.750000  1
  Hf  Hf13  1  0.460419  0.920841  0.750000  1
  Hf  Hf14  1  0.079159  0.539581  0.750000  1
  Sc  Sc15  1  0.539059  0.460941  0.250000  1
  Sc  Sc16  1  0.539059  0.078116  0.250000  1
  Sc  Sc17  1  0.921884  0.460941  0.250000  1
  Ta  Ta18  1  0.000000  0.000000  0.497460  1
  Ta  Ta19  1  0.000000  0.000000  0.002540  1
  Re  Re20  1  0.888034  0.111966  0.250000  1
  Re  Re21  1  0.888034  0.776066  0.250000  1
  Re  Re22  1  0.223934  0.111966  0.250000  1
  Re  Re23  1  0.112016  0.887984  0.750000  1
  Re  Re24  1  0.112016  0.224033  0.750000  1
  Re  Re25  1  0.775967  0.887984  0.750000  1
  Si  Si26  1  0.333333  0.666667  0.250000  1
  Si  Si27  1  0.666667  0.333333  0.750000  1
