# generated using pymatgen
data_CaCu4HgO8
_symmetry_space_group_name_H-M   'P 1'
_cell_length_a   6.28676054
_cell_length_b   6.28676027
_cell_length_c   6.28675969
_cell_angle_alpha   124.87451841
_cell_angle_beta   124.87452050
_cell_angle_gamma   81.74597614
_symmetry_Int_Tables_number   1
_chemical_formula_structural   CaCu4HgO8
_chemical_formula_sum   'Ca1 Cu4 Hg1 O8'
_cell_volume   160.91310331
_cell_formula_units_Z   1
loop_
 _symmetry_equiv_pos_site_id
 _symmetry_equiv_pos_as_xyz
  1  'x, y, z'
loop_
 _atom_site_type_symbol
 _atom_site_label
 _atom_site_symmetry_multiplicity
 _atom_site_fract_x
 _atom_site_fract_y
 _atom_site_fract_z
 _atom_site_occupancy
  Ca  Ca0  1  0.000000  0.000000  0.000000  1
  Cu  Cu1  1  0.875649  0.623839  0.249351  1
  Cu  Cu2  1  0.374489  0.626298  0.750649  1
  Cu  Cu3  1  0.373702  0.124351  0.748191  1
  Cu  Cu4  1  0.376161  0.625511  0.251809  1
  Hg  Hg5  1  0.750000  0.250000  0.500000  1
  O  O6  1  0.026671  0.939316  0.365672  1
  O  O7  1  0.060684  0.426355  0.087355  1
  O  O8  1  0.339000  0.973329  0.912645  1
  O  O9  1  0.177750  0.596727  0.872932  1
  O  O10  1  0.403273  0.276206  0.581024  1
  O  O11  1  0.695182  0.822250  0.418976  1
  O  O12  1  0.573645  0.661000  0.634328  1
  O  O13  1  0.723794  0.304818  0.127068  1
