# generated using pymatgen
data_Li8Tb7HoSn5Bi3
_symmetry_space_group_name_H-M   'P 1'
_cell_length_a   9.50160904
_cell_length_b   9.50177727
_cell_length_c   7.27091414
_cell_angle_alpha   89.99598715
_cell_angle_beta   90.00248537
_cell_angle_gamma   119.99979453
_symmetry_Int_Tables_number   1
_chemical_formula_structural   Li8Tb7HoSn5Bi3
_chemical_formula_sum   'Li8 Tb7 Ho1 Sn5 Bi3'
_cell_volume   568.48963213
_cell_formula_units_Z   1
loop_
 _symmetry_equiv_pos_site_id
 _symmetry_equiv_pos_as_xyz
  1  'x, y, z'
loop_
 _atom_site_type_symbol
 _atom_site_label
 _atom_site_symmetry_multiplicity
 _atom_site_fract_x
 _atom_site_fract_y
 _atom_site_fract_z
 _atom_site_occupancy
  Li  Li0  1  0.167059  0.334000  0.278984  1
  Li  Li1  1  0.167113  0.832952  0.279388  1
  Li  Li2  1  0.665925  0.832942  0.279124  1
  Li  Li3  1  0.831717  0.663416  0.787120  1
  Li  Li4  1  0.831678  0.168289  0.787819  1
  Li  Li5  1  0.336654  0.168381  0.787357  1
  Li  Li6  1  0.333324  0.666607  0.673003  1
  Li  Li7  1  0.666486  0.333382  0.180077  1
  Tb  Tb8  1  0.514033  0.027825  0.489102  1
  Tb  Tb9  1  0.513820  0.486172  0.488926  1
  Tb  Tb10  1  0.972174  0.485990  0.489039  1
  Tb  Tb11  1  0.491417  0.982833  0.999581  1
  Tb  Tb12  1  0.491281  0.508702  0.999493  1
  Tb  Tb13  1  0.017250  0.508617  0.999570  1
  Tb  Tb14  1  0.999966  0.999945  0.493017  1
  Ho  Ho15  1  0.000035  0.999946  0.008724  1
  Sn  Sn16  1  0.833695  0.667285  0.232847  1
  Sn  Sn17  1  0.833664  0.166332  0.232731  1
  Sn  Sn18  1  0.332722  0.166289  0.232794  1
  Sn  Sn19  1  0.333308  0.666656  0.259040  1
  Sn  Sn20  1  0.666732  0.333494  0.760585  1
  Bi  Bi21  1  0.166470  0.333100  0.734581  1
  Bi  Bi22  1  0.166653  0.833387  0.734542  1
  Bi  Bi23  1  0.666823  0.833457  0.734528  1
