# generated using pymatgen
data_Tb4GaAs5Ir7
_symmetry_space_group_name_H-M   'P 1'
_cell_length_a   7.32301338
_cell_length_b   7.32301354
_cell_length_c   7.32301506
_cell_angle_alpha   107.23848662
_cell_angle_beta   110.59898625
_cell_angle_gamma   110.59898490
_symmetry_Int_Tables_number   1
_chemical_formula_structural   Tb4GaAs5Ir7
_chemical_formula_sum   'Tb4 Ga1 As5 Ir7'
_cell_volume   301.96406749
_cell_formula_units_Z   1
loop_
 _symmetry_equiv_pos_site_id
 _symmetry_equiv_pos_as_xyz
  1  'x, y, z'
loop_
 _atom_site_type_symbol
 _atom_site_label
 _atom_site_symmetry_multiplicity
 _atom_site_fract_x
 _atom_site_fract_y
 _atom_site_fract_z
 _atom_site_occupancy
  Tb  Tb0  1  0.000000  0.001162  0.495053  1
  Tb  Tb1  1  0.000000  0.495053  0.001162  1
  Tb  Tb2  1  0.506110  0.001162  0.001162  1
  Tb  Tb3  1  0.493890  0.495053  0.495053  1
  Ga  Ga4  1  0.000000  0.683789  0.683789  1
  As  As5  1  0.684291  0.679593  0.995302  1
  As  As6  1  0.315709  0.995302  0.311010  1
  As  As7  1  0.000000  0.338369  0.338369  1
  As  As8  1  0.315709  0.311010  0.995302  1
  As  As9  1  0.684291  0.995302  0.679593  1
  Ir  Ir10  1  0.746006  0.250957  0.504951  1
  Ir  Ir11  1  0.746006  0.504951  0.250957  1
  Ir  Ir12  1  0.500000  0.250320  0.750320  1
  Ir  Ir13  1  0.253994  0.504951  0.758944  1
  Ir  Ir14  1  0.253994  0.758944  0.504951  1
  Ir  Ir15  1  0.500000  0.750320  0.250320  1
  Ir  Ir16  1  0.000000  0.983762  0.983762  1
