# generated using pymatgen
data_Rb2MnSiS4
_symmetry_space_group_name_H-M   'P 1'
_cell_length_a   13.59208780
_cell_length_b   12.12737193
_cell_length_c   7.39703000
_cell_angle_alpha   84.54864380
_cell_angle_beta   62.64819571
_cell_angle_gamma   32.80315451
_symmetry_Int_Tables_number   1
_chemical_formula_structural   Rb2MnSiS4
_chemical_formula_sum   'Rb4 Mn2 Si2 S8'
_cell_volume   467.09171309
_cell_formula_units_Z   2
loop_
 _symmetry_equiv_pos_site_id
 _symmetry_equiv_pos_as_xyz
  1  'x, y, z'
loop_
 _atom_site_type_symbol
 _atom_site_label
 _atom_site_symmetry_multiplicity
 _atom_site_fract_x
 _atom_site_fract_y
 _atom_site_fract_z
 _atom_site_occupancy
  Rb  Rb0  1  0.571518  0.571518  0.928482  1
  Rb  Rb1  1  0.928482  0.928482  0.571518  1
  Rb  Rb2  1  0.321518  0.321518  0.678482  1
  Rb  Rb3  1  0.678482  0.678482  0.321518  1
  Mn  Mn4  1  0.000000  0.000000  0.000000  1
  Mn  Mn5  1  0.250000  0.250000  0.250000  1
  Si  Si6  1  0.750000  0.750000  0.750000  1
  Si  Si7  1  0.500000  0.500000  0.500000  1
  S  S8  1  0.243745  0.859802  0.574088  1
  S  S9  1  0.322367  0.574088  0.859802  1
  S  S10  1  0.574088  0.322367  0.243745  1
  S  S11  1  0.859802  0.243745  0.322367  1
  S  S12  1  0.390198  0.006255  0.927633  1
  S  S13  1  0.927633  0.675912  0.390198  1
  S  S14  1  0.675912  0.927633  0.006255  1
  S  S15  1  0.006255  0.390198  0.675912  1
