# generated using pymatgen
data_LiDy5AsP11Ir18
_symmetry_space_group_name_H-M   'P 1'
_cell_length_a   12.74133246
_cell_length_b   12.79432346
_cell_length_c   3.98734200
_cell_angle_alpha   90.00000000
_cell_angle_beta   90.00000000
_cell_angle_gamma   120.13767352
_symmetry_Int_Tables_number   1
_chemical_formula_structural   LiDy5AsP11Ir18
_chemical_formula_sum   'Li1 Dy5 As1 P11 Ir18'
_cell_volume   562.13694341
_cell_formula_units_Z   1
loop_
 _symmetry_equiv_pos_site_id
 _symmetry_equiv_pos_as_xyz
  1  'x, y, z'
loop_
 _atom_site_type_symbol
 _atom_site_label
 _atom_site_symmetry_multiplicity
 _atom_site_fract_x
 _atom_site_fract_y
 _atom_site_fract_z
 _atom_site_occupancy
  Li  Li0  1  0.000000  0.439596  0.500000  1
  Dy  Dy1  1  0.331150  0.664378  0.500000  1
  Dy  Dy2  1  0.668850  0.333227  0.500000  1
  Dy  Dy3  1  0.000000  0.811818  0.000000  1
  Dy  Dy4  1  0.187934  0.186526  0.000000  1
  Dy  Dy5  1  0.812066  0.998592  0.000000  1
  As  As6  1  0.000000  0.632517  0.500000  1
  P  P7  1  0.357613  0.356373  0.500000  1
  P  P8  1  0.642387  0.998760  0.500000  1
  P  P9  1  0.514284  0.688451  0.000000  1
  P  P10  1  0.310741  0.829641  0.000000  1
  P  P11  1  0.168578  0.483111  0.000000  1
  P  P12  1  0.485716  0.174168  0.000000  1
  P  P13  1  0.689259  0.518899  0.000000  1
  P  P14  1  0.831422  0.314533  0.000000  1
  P  P15  1  0.000000  0.179062  0.500000  1
  P  P16  1  0.820555  0.822986  0.500000  1
  P  P17  1  0.179445  0.002431  0.500000  1
  Ir  Ir18  1  0.505900  0.868803  0.000000  1
  Ir  Ir19  1  0.135986  0.642858  0.000000  1
  Ir  Ir20  1  0.358922  0.492982  0.000000  1
  Ir  Ir21  1  0.494100  0.362903  0.000000  1
  Ir  Ir22  1  0.864014  0.506871  0.000000  1
  Ir  Ir23  1  0.641078  0.134059  0.000000  1
  Ir  Ir24  1  0.534979  0.537374  0.500000  1
  Ir  Ir25  1  0.465021  0.002395  0.500000  1
  Ir  Ir26  1  0.000000  0.281461  0.000000  1
  Ir  Ir27  1  0.714559  0.720186  0.000000  1
  Ir  Ir28  1  0.285441  0.005626  0.000000  1
  Ir  Ir29  1  0.620385  0.803514  0.500000  1
  Ir  Ir30  1  0.207315  0.831858  0.500000  1
  Ir  Ir31  1  0.181838  0.373515  0.500000  1
  Ir  Ir32  1  0.379615  0.183130  0.500000  1
  Ir  Ir33  1  0.792685  0.624542  0.500000  1
  Ir  Ir34  1  0.818162  0.191677  0.500000  1
  Ir  Ir35  1  0.000000  0.001173  0.500000  1
