# generated using pymatgen
data_LiThSi2Pd
_symmetry_space_group_name_H-M   'P 1'
_cell_length_a   5.98974175
_cell_length_b   5.98974185
_cell_length_c   5.98974156
_cell_angle_alpha   139.67441750
_cell_angle_beta   139.67442481
_cell_angle_gamma   58.34798415
_symmetry_Int_Tables_number   1
_chemical_formula_structural   LiThSi2Pd
_chemical_formula_sum   'Li1 Th1 Si2 Pd1'
_cell_volume   89.17102860
_cell_formula_units_Z   1
loop_
 _symmetry_equiv_pos_site_id
 _symmetry_equiv_pos_as_xyz
  1  'x, y, z'
loop_
 _atom_site_type_symbol
 _atom_site_label
 _atom_site_symmetry_multiplicity
 _atom_site_fract_x
 _atom_site_fract_y
 _atom_site_fract_z
 _atom_site_occupancy
  Li  Li0  1  0.250000  0.750000  0.500000  1
  Th  Th1  1  0.000000  0.000000  0.000000  1
  Si  Si2  1  0.614115  0.614115  0.000000  1
  Si  Si3  1  0.385885  0.385885  0.000000  1
  Pd  Pd4  1  0.750000  0.250000  0.500000  1
