# generated using pymatgen
data_La4Pr3Nd(CdIr)2
_symmetry_space_group_name_H-M   'P 1'
_cell_length_a   10.05957023
_cell_length_b   10.05956921
_cell_length_c   10.12176800
_cell_angle_alpha   59.79525480
_cell_angle_beta   59.79525818
_cell_angle_gamma   60.40949299
_symmetry_Int_Tables_number   1
_chemical_formula_structural   La4Pr3Nd(CdIr)2
_chemical_formula_sum   'La8 Pr6 Nd2 Cd4 Ir4'
_cell_volume   724.21379938
_cell_formula_units_Z   2
loop_
 _symmetry_equiv_pos_site_id
 _symmetry_equiv_pos_as_xyz
  1  'x, y, z'
loop_
 _atom_site_type_symbol
 _atom_site_label
 _atom_site_symmetry_multiplicity
 _atom_site_fract_x
 _atom_site_fract_y
 _atom_site_fract_z
 _atom_site_occupancy
  La  La0  1  0.346933  0.346933  0.349073  1
  La  La1  1  0.346933  0.346933  0.957061  1
  La  La2  1  0.349073  0.957061  0.346933  1
  La  La3  1  0.957061  0.349073  0.346933  1
  La  La4  1  0.810524  0.189476  0.189476  1
  La  La5  1  0.189476  0.810524  0.810524  1
  La  La6  1  0.189476  0.810524  0.189476  1
  La  La7  1  0.810524  0.189476  0.810524  1
  Pr  Pr8  1  0.937821  0.562179  0.562179  1
  Pr  Pr9  1  0.562179  0.937821  0.937821  1
  Pr  Pr10  1  0.562179  0.937821  0.562179  1
  Pr  Pr11  1  0.937821  0.562179  0.937821  1
  Pr  Pr12  1  0.561758  0.561758  0.938242  1
  Pr  Pr13  1  0.938242  0.938242  0.561758  1
  Nd  Nd14  1  0.191978  0.191978  0.808022  1
  Nd  Nd15  1  0.808022  0.808022  0.191978  1
  Cd  Cd16  1  0.580567  0.580567  0.579014  1
  Cd  Cd17  1  0.580567  0.580567  0.259849  1
  Cd  Cd18  1  0.579014  0.259849  0.580567  1
  Cd  Cd19  1  0.259849  0.579014  0.580567  1
  Ir  Ir20  1  0.139823  0.139823  0.143834  1
  Ir  Ir21  1  0.139823  0.139823  0.576522  1
  Ir  Ir22  1  0.143834  0.576522  0.139823  1
  Ir  Ir23  1  0.576522  0.143834  0.139823  1
