# generated using pymatgen
data_Gd8Er12Si15Ge
_symmetry_space_group_name_H-M   'P 1'
_cell_length_a   7.42673258
_cell_length_b   7.71704588
_cell_length_c   14.64740200
_cell_angle_alpha   90.04196370
_cell_angle_beta   89.73310542
_cell_angle_gamma   90.02647076
_symmetry_Int_Tables_number   1
_chemical_formula_structural   Gd8Er12Si15Ge
_chemical_formula_sum   'Gd8 Er12 Si15 Ge1'
_cell_volume   839.46886892
_cell_formula_units_Z   1
loop_
 _symmetry_equiv_pos_site_id
 _symmetry_equiv_pos_as_xyz
  1  'x, y, z'
loop_
 _atom_site_type_symbol
 _atom_site_label
 _atom_site_symmetry_multiplicity
 _atom_site_fract_x
 _atom_site_fract_y
 _atom_site_fract_z
 _atom_site_occupancy
  Gd  Gd0  1  0.021521  0.179028  0.097060  1
  Gd  Gd1  1  0.977979  0.821406  0.901717  1
  Gd  Gd2  1  0.478566  0.680152  0.900968  1
  Gd  Gd3  1  0.979982  0.820841  0.598229  1
  Gd  Gd4  1  0.521242  0.318924  0.097957  1
  Gd  Gd5  1  0.018110  0.179178  0.403205  1
  Gd  Gd6  1  0.520195  0.320637  0.403343  1
  Gd  Gd7  1  0.483521  0.679895  0.597477  1
  Er  Er8  1  0.155253  0.512242  0.750116  1
  Er  Er9  1  0.843561  0.487055  0.251175  1
  Er  Er10  1  0.344581  0.012694  0.250845  1
  Er  Er11  1  0.655687  0.987738  0.748665  1
  Er  Er12  1  0.324804  0.175422  0.623954  1
  Er  Er13  1  0.676384  0.822518  0.376677  1
  Er  Er14  1  0.175037  0.679094  0.377135  1
  Er  Er15  1  0.677176  0.821328  0.123217  1
  Er  Er16  1  0.822612  0.322232  0.622547  1
  Er  Er17  1  0.322395  0.178452  0.876658  1
  Er  Er18  1  0.823090  0.320886  0.876534  1
  Er  Er19  1  0.176374  0.678903  0.123303  1
  Si  Si20  1  0.027448  0.109487  0.749926  1
  Si  Si21  1  0.972748  0.892172  0.249821  1
  Si  Si22  1  0.471184  0.609064  0.249396  1
  Si  Si23  1  0.527089  0.390751  0.750670  1
  Si  Si24  1  0.273652  0.874014  0.750184  1
  Si  Si25  1  0.726939  0.125135  0.249537  1
  Si  Si26  1  0.226432  0.375445  0.250080  1
  Si  Si27  1  0.773524  0.625089  0.750234  1
  Si  Si28  1  0.842768  0.532289  0.459472  1
  Si  Si29  1  0.348540  0.969459  0.460057  1
  Si  Si30  1  0.850619  0.530210  0.039919  1
  Si  Si31  1  0.652286  0.030567  0.539663  1
  Si  Si32  1  0.149158  0.470252  0.960050  1
  Si  Si33  1  0.648447  0.030121  0.960039  1
  Si  Si34  1  0.351384  0.969102  0.039848  1
  Ge  Ge35  1  0.159714  0.468218  0.540317  1
