# generated using pymatgen
data_Tb17Lu(MgPb8)2
_symmetry_space_group_name_H-M   'P 1'
_cell_length_a   8.11427576
_cell_length_b   8.23624528
_cell_length_c   15.76906300
_cell_angle_alpha   90.00000000
_cell_angle_beta   90.00000000
_cell_angle_gamma   90.00587434
_symmetry_Int_Tables_number   1
_chemical_formula_structural   Tb17Lu(MgPb8)2
_chemical_formula_sum   'Tb17 Lu1 Mg2 Pb16'
_cell_volume   1053.86485270
_cell_formula_units_Z   1
loop_
 _symmetry_equiv_pos_site_id
 _symmetry_equiv_pos_as_xyz
  1  'x, y, z'
loop_
 _atom_site_type_symbol
 _atom_site_label
 _atom_site_symmetry_multiplicity
 _atom_site_fract_x
 _atom_site_fract_y
 _atom_site_fract_z
 _atom_site_occupancy
  Tb  Tb0  1  0.372996  0.840409  0.879264  1
  Tb  Tb1  1  0.880589  0.659103  0.621976  1
  Tb  Tb2  1  0.627040  0.160271  0.380161  1
  Tb  Tb3  1  0.118521  0.340811  0.121512  1
  Tb  Tb4  1  0.627040  0.160271  0.119839  1
  Tb  Tb5  1  0.118521  0.340811  0.378488  1
  Tb  Tb6  1  0.372996  0.840409  0.620736  1
  Tb  Tb7  1  0.880589  0.659103  0.878024  1
  Tb  Tb8  1  0.530432  0.324401  0.902042  1
  Tb  Tb9  1  0.034150  0.181743  0.598454  1
  Tb  Tb10  1  0.470168  0.675069  0.402538  1
  Tb  Tb11  1  0.965952  0.817752  0.097560  1
  Tb  Tb12  1  0.470168  0.675069  0.097462  1
  Tb  Tb13  1  0.965952  0.817752  0.402440  1
  Tb  Tb14  1  0.530432  0.324401  0.597958  1
  Tb  Tb15  1  0.034150  0.181743  0.901546  1
  Tb  Tb16  1  0.296022  0.005113  0.250000  1
  Lu  Lu17  1  0.703893  0.994587  0.750000  1
  Mg  Mg18  1  0.206587  0.503569  0.750000  1
  Mg  Mg19  1  0.794336  0.496231  0.250000  1
  Pb  Pb20  1  0.281986  0.032460  0.043705  1
  Pb  Pb21  1  0.783292  0.464457  0.458952  1
  Pb  Pb22  1  0.717850  0.967974  0.545047  1
  Pb  Pb23  1  0.217228  0.535754  0.958474  1
  Pb  Pb24  1  0.717850  0.967974  0.954953  1
  Pb  Pb25  1  0.217228  0.535754  0.541526  1
  Pb  Pb26  1  0.281986  0.032460  0.456295  1
  Pb  Pb27  1  0.783292  0.464457  0.041048  1
  Pb  Pb28  1  0.567388  0.621696  0.750000  1
  Pb  Pb29  1  0.068746  0.883103  0.750000  1
  Pb  Pb30  1  0.433556  0.380113  0.250000  1
  Pb  Pb31  1  0.927610  0.118738  0.250000  1
  Pb  Pb32  1  0.346160  0.155122  0.750000  1
  Pb  Pb33  1  0.839278  0.345307  0.750000  1
  Pb  Pb34  1  0.656726  0.844451  0.250000  1
  Pb  Pb35  1  0.159292  0.651561  0.250000  1
