# generated using pymatgen
data_Co3Mo2SeO11
_symmetry_space_group_name_H-M   'P 1'
_cell_length_a   6.61190644
_cell_length_b   6.62376575
_cell_length_c   10.22742560
_cell_angle_alpha   74.19797170
_cell_angle_beta   86.90286362
_cell_angle_gamma   84.84660435
_symmetry_Int_Tables_number   1
_chemical_formula_structural   Co3Mo2SeO11
_chemical_formula_sum   'Co6 Mo4 Se2 O22'
_cell_volume   429.04339422
_cell_formula_units_Z   2
loop_
 _symmetry_equiv_pos_site_id
 _symmetry_equiv_pos_as_xyz
  1  'x, y, z'
loop_
 _atom_site_type_symbol
 _atom_site_label
 _atom_site_symmetry_multiplicity
 _atom_site_fract_x
 _atom_site_fract_y
 _atom_site_fract_z
 _atom_site_occupancy
  Co  Co0  1  0.268093  0.812755  0.386996  1
  Co  Co1  1  0.532626  0.798075  0.125091  1
  Co  Co2  1  0.159360  0.186481  0.129141  1
  Co  Co3  1  0.467374  0.201925  0.874909  1
  Co  Co4  1  0.731907  0.187245  0.613004  1
  Co  Co5  1  0.840640  0.813519  0.870859  1
  Mo  Mo6  1  0.287950  0.212963  0.500573  1
  Mo  Mo7  1  0.607861  0.205189  0.235543  1
  Mo  Mo8  1  0.712050  0.787037  0.499427  1
  Mo  Mo9  1  0.392139  0.794811  0.764457  1
  Se  Se10  1  0.970105  0.355154  0.817265  1
  Se  Se11  1  0.029895  0.644846  0.182735  1
  O  O12  1  0.296126  0.488601  0.444137  1
  O  O13  1  0.486296  0.134955  0.088787  1
  O  O14  1  0.869337  0.166520  0.199406  1
  O  O15  1  0.284218  0.148752  0.325703  1
  O  O16  1  0.031807  0.182521  0.553655  1
  O  O17  1  0.852564  0.802721  0.071820  1
  O  O18  1  0.968193  0.817479  0.446345  1
  O  O19  1  0.414598  0.154360  0.675710  1
  O  O20  1  0.623816  0.148875  0.436678  1
  O  O21  1  0.130663  0.833480  0.800594  1
  O  O22  1  0.147436  0.197279  0.928180  1
  O  O23  1  0.703874  0.511399  0.555863  1
  O  O24  1  0.433639  0.518485  0.806835  1
  O  O25  1  0.715782  0.851248  0.674297  1
  O  O26  1  0.585402  0.845640  0.324290  1
  O  O27  1  0.213440  0.831430  0.186065  1
  O  O28  1  0.786560  0.168570  0.813935  1
  O  O29  1  0.376184  0.851125  0.563322  1
  O  O30  1  0.513704  0.865045  0.911213  1
  O  O31  1  0.834827  0.494037  0.912915  1
  O  O32  1  0.165173  0.505963  0.087085  1
  O  O33  1  0.566361  0.481515  0.193165  1
