# generated using pymatgen
data_Mn3Nb3FeMoP4
_symmetry_space_group_name_H-M   'P 1'
_cell_length_a   3.57437500
_cell_length_b   6.15655466
_cell_length_c   7.07886869
_cell_angle_alpha   90.96013364
_cell_angle_beta   90.00000000
_cell_angle_gamma   90.00000000
_symmetry_Int_Tables_number   1
_chemical_formula_structural   Mn3Nb3FeMoP4
_chemical_formula_sum   'Mn3 Nb3 Fe1 Mo1 P4'
_cell_volume   155.75454543
_cell_formula_units_Z   1
loop_
 _symmetry_equiv_pos_site_id
 _symmetry_equiv_pos_as_xyz
  1  'x, y, z'
loop_
 _atom_site_type_symbol
 _atom_site_label
 _atom_site_symmetry_multiplicity
 _atom_site_fract_x
 _atom_site_fract_y
 _atom_site_fract_z
 _atom_site_occupancy
  Mn  Mn0  1  0.250000  0.144720  0.442512  1
  Mn  Mn1  1  0.750000  0.358371  0.938172  1
  Mn  Mn2  1  0.250000  0.640140  0.059127  1
  Nb  Nb3  1  0.750000  0.473532  0.329151  1
  Nb  Nb4  1  0.250000  0.027983  0.823040  1
  Nb  Nb5  1  0.750000  0.971690  0.175197  1
  Fe  Fe6  1  0.750000  0.857330  0.561030  1
  Mo  Mo7  1  0.250000  0.525917  0.670073  1
  P  P8  1  0.250000  0.271204  0.129608  1
  P  P9  1  0.750000  0.725444  0.864821  1
  P  P10  1  0.250000  0.778782  0.385135  1
  P  P11  1  0.750000  0.224885  0.622134  1
