# generated using pymatgen
data_Sr4Fe(BrN2)2
_symmetry_space_group_name_H-M   'P 1'
_cell_length_a   5.87057200
_cell_length_b   7.96648686
_cell_length_c   10.50254258
_cell_angle_alpha   81.73991319
_cell_angle_beta   90.00000000
_cell_angle_gamma   90.00000000
_symmetry_Int_Tables_number   1
_chemical_formula_structural   Sr4Fe(BrN2)2
_chemical_formula_sum   'Sr8 Fe2 Br4 N8'
_cell_volume   486.08571561
_cell_formula_units_Z   2
loop_
 _symmetry_equiv_pos_site_id
 _symmetry_equiv_pos_as_xyz
  1  'x, y, z'
loop_
 _atom_site_type_symbol
 _atom_site_label
 _atom_site_symmetry_multiplicity
 _atom_site_fract_x
 _atom_site_fract_y
 _atom_site_fract_z
 _atom_site_occupancy
  Sr  Sr0  1  0.750000  0.285033  0.300117  1
  Sr  Sr1  1  0.750000  0.002500  0.614853  1
  Sr  Sr2  1  0.750000  0.453321  0.606959  1
  Sr  Sr3  1  0.750000  0.808688  0.115158  1
  Sr  Sr4  1  0.250000  0.997500  0.385147  1
  Sr  Sr5  1  0.250000  0.546679  0.393041  1
  Sr  Sr6  1  0.250000  0.191312  0.884842  1
  Sr  Sr7  1  0.250000  0.714967  0.699883  1
  Fe  Fe8  1  0.750000  0.770211  0.405522  1
  Fe  Fe9  1  0.250000  0.229789  0.594478  1
  Br  Br10  1  0.250000  0.331256  0.155243  1
  Br  Br11  1  0.750000  0.668744  0.844757  1
  Br  Br12  1  0.250000  0.842129  0.090931  1
  Br  Br13  1  0.750000  0.157871  0.909069  1
  N  N14  1  0.250000  0.036149  0.694099  1
  N  N15  1  0.011808  0.246227  0.493207  1
  N  N16  1  0.511808  0.753773  0.506793  1
  N  N17  1  0.988192  0.753773  0.506793  1
  N  N18  1  0.750000  0.601642  0.315685  1
  N  N19  1  0.750000  0.963851  0.305901  1
  N  N20  1  0.488192  0.246227  0.493207  1
  N  N21  1  0.250000  0.398358  0.684315  1
