# generated using pymatgen
data_Tb17Y3Cd6OsRu
_symmetry_space_group_name_H-M   'P 1'
_cell_length_a   9.64540100
_cell_length_b   9.64540099
_cell_length_c   9.91985100
_cell_angle_alpha   90.00000000
_cell_angle_beta   90.00000000
_cell_angle_gamma   120.00000345
_symmetry_Int_Tables_number   1
_chemical_formula_structural   Tb17Y3Cd6OsRu
_chemical_formula_sum   'Tb17 Y3 Cd6 Os1 Ru1'
_cell_volume   799.23839844
_cell_formula_units_Z   1
loop_
 _symmetry_equiv_pos_site_id
 _symmetry_equiv_pos_as_xyz
  1  'x, y, z'
loop_
 _atom_site_type_symbol
 _atom_site_label
 _atom_site_symmetry_multiplicity
 _atom_site_fract_x
 _atom_site_fract_y
 _atom_site_fract_z
 _atom_site_occupancy
  Tb  Tb0  1  0.000000  0.000000  0.499665  1
  Tb  Tb1  1  0.000000  0.000000  0.000335  1
  Tb  Tb2  1  0.209817  0.790183  0.440631  1
  Tb  Tb3  1  0.209817  0.419634  0.440631  1
  Tb  Tb4  1  0.580366  0.790183  0.440631  1
  Tb  Tb5  1  0.790093  0.209907  0.559841  1
  Tb  Tb6  1  0.790093  0.580185  0.559841  1
  Tb  Tb7  1  0.419815  0.209907  0.559841  1
  Tb  Tb8  1  0.790093  0.209907  0.940159  1
  Tb  Tb9  1  0.790093  0.580185  0.940159  1
  Tb  Tb10  1  0.419815  0.209907  0.940159  1
  Tb  Tb11  1  0.209817  0.790183  0.059369  1
  Tb  Tb12  1  0.209817  0.419634  0.059369  1
  Tb  Tb13  1  0.580366  0.790183  0.059369  1
  Tb  Tb14  1  0.458616  0.541384  0.750000  1
  Tb  Tb15  1  0.458616  0.917231  0.750000  1
  Tb  Tb16  1  0.082769  0.541384  0.750000  1
  Y  Y17  1  0.540146  0.459854  0.250000  1
  Y  Y18  1  0.540146  0.080292  0.250000  1
  Y  Y19  1  0.919708  0.459854  0.250000  1
  Cd  Cd20  1  0.885253  0.114747  0.250000  1
  Cd  Cd21  1  0.885253  0.770507  0.250000  1
  Cd  Cd22  1  0.229493  0.114747  0.250000  1
  Cd  Cd23  1  0.114726  0.885274  0.750000  1
  Cd  Cd24  1  0.114726  0.229452  0.750000  1
  Cd  Cd25  1  0.770548  0.885274  0.750000  1
  Os  Os26  1  0.333333  0.666667  0.250000  1
  Ru  Ru27  1  0.666667  0.333333  0.750000  1
