# generated using pymatgen
data_HoTh(SiTc2)4
_symmetry_space_group_name_H-M   'P 1'
_cell_length_a   4.15932600
_cell_length_b   7.14422727
_cell_length_c   15.55179193
_cell_angle_alpha   90.54645107
_cell_angle_beta   90.00000000
_cell_angle_gamma   90.00000000
_symmetry_Int_Tables_number   1
_chemical_formula_structural   HoTh(SiTc2)4
_chemical_formula_sum   'Ho2 Th2 Si8 Tc16'
_cell_volume   462.10312709
_cell_formula_units_Z   2
loop_
 _symmetry_equiv_pos_site_id
 _symmetry_equiv_pos_as_xyz
  1  'x, y, z'
loop_
 _atom_site_type_symbol
 _atom_site_label
 _atom_site_symmetry_multiplicity
 _atom_site_fract_x
 _atom_site_fract_y
 _atom_site_fract_z
 _atom_site_occupancy
  Ho  Ho0  1  0.000000  0.589988  0.114762  1
  Ho  Ho1  1  0.000000  0.410012  0.885238  1
  Th  Th2  1  0.500000  0.090414  0.380737  1
  Th  Th3  1  0.500000  0.909586  0.619263  1
  Si  Si4  1  0.000000  0.828052  0.473413  1
  Si  Si5  1  0.000000  0.171948  0.526587  1
  Si  Si6  1  0.500000  0.332693  0.024882  1
  Si  Si7  1  0.500000  0.667307  0.975118  1
  Si  Si8  1  0.000000  0.311904  0.269394  1
  Si  Si9  1  0.000000  0.688096  0.730606  1
  Si  Si10  1  0.500000  0.801661  0.222186  1
  Si  Si11  1  0.500000  0.198339  0.777814  1
  Tc  Tc12  1  0.000000  0.143198  0.051327  1
  Tc  Tc13  1  0.000000  0.856802  0.948673  1
  Tc  Tc14  1  0.500000  0.641680  0.448783  1
  Tc  Tc15  1  0.500000  0.358320  0.551217  1
  Tc  Tc16  1  0.000000  0.735948  0.318443  1
  Tc  Tc17  1  0.000000  0.264052  0.681557  1
  Tc  Tc18  1  0.500000  0.239136  0.177760  1
  Tc  Tc19  1  0.500000  0.760864  0.822240  1
  Tc  Tc20  1  0.000000  0.431048  0.419895  1
  Tc  Tc21  1  0.000000  0.568952  0.580105  1
  Tc  Tc22  1  0.500000  0.935215  0.079054  1
  Tc  Tc23  1  0.500000  0.064785  0.920946  1
  Tc  Tc24  1  0.000000  0.998034  0.203729  1
  Tc  Tc25  1  0.000000  0.001966  0.796271  1
  Tc  Tc26  1  0.500000  0.502650  0.292464  1
  Tc  Tc27  1  0.500000  0.497350  0.707536  1
