# generated using pymatgen
data_Ba6CaMn4O15
_symmetry_space_group_name_H-M   'P 1'
_cell_length_a   7.37556958
_cell_length_b   7.37558702
_cell_length_c   7.37557230
_cell_angle_alpha   87.36527544
_cell_angle_beta   87.36521299
_cell_angle_gamma   87.36537001
_symmetry_Int_Tables_number   1
_chemical_formula_structural   Ba6CaMn4O15
_chemical_formula_sum   'Ba6 Ca1 Mn4 O15'
_cell_volume   399.99024635
_cell_formula_units_Z   1
loop_
 _symmetry_equiv_pos_site_id
 _symmetry_equiv_pos_as_xyz
  1  'x, y, z'
loop_
 _atom_site_type_symbol
 _atom_site_label
 _atom_site_symmetry_multiplicity
 _atom_site_fract_x
 _atom_site_fract_y
 _atom_site_fract_z
 _atom_site_occupancy
  Ba  Ba0  1  0.334771  0.665229  0.000001  1
  Ba  Ba1  1  0.000001  0.334771  0.665230  1
  Ba  Ba2  1  0.665228  0.000001  0.334772  1
  Ba  Ba3  1  0.143599  0.856402  0.500001  1
  Ba  Ba4  1  0.500002  0.143599  0.856403  1
  Ba  Ba5  1  0.856402  0.500000  0.143597  1
  Ca  Ca6  1  0.500001  0.499998  0.499997  1
  Mn  Mn7  1  0.289955  0.289962  0.289959  1
  Mn  Mn8  1  0.710042  0.710045  0.710042  1
  Mn  Mn9  1  0.094925  0.094923  0.094925  1
  Mn  Mn10  1  0.905075  0.905075  0.905080  1
  O  O11  1  0.145256  0.000000  0.854746  1
  O  O12  1  0.854744  0.145255  0.000002  1
  O  O13  1  0.999999  0.854743  0.145258  1
  O  O14  1  0.031257  0.191361  0.329393  1
  O  O15  1  0.329391  0.031257  0.191358  1
  O  O16  1  0.191360  0.329392  0.031257  1
  O  O17  1  0.808640  0.968744  0.670610  1
  O  O18  1  0.670606  0.808641  0.968744  1
  O  O19  1  0.968742  0.670609  0.808641  1
  O  O20  1  0.361056  0.219170  0.525795  1
  O  O21  1  0.525799  0.361052  0.219170  1
  O  O22  1  0.219174  0.525799  0.361055  1
  O  O23  1  0.780828  0.638945  0.474200  1
  O  O24  1  0.474200  0.780827  0.638940  1
  O  O25  1  0.638945  0.474201  0.780825  1
