# generated using pymatgen
data_YbPr16Ho3Sn16
_symmetry_space_group_name_H-M   'P 1'
_cell_length_a   8.19855710
_cell_length_b   8.47757310
_cell_length_c   16.09233600
_cell_angle_alpha   90.00000000
_cell_angle_beta   90.00000000
_cell_angle_gamma   90.01744038
_symmetry_Int_Tables_number   1
_chemical_formula_structural   YbPr16Ho3Sn16
_chemical_formula_sum   'Yb1 Pr16 Ho3 Sn16'
_cell_volume   1118.47953041
_cell_formula_units_Z   1
loop_
 _symmetry_equiv_pos_site_id
 _symmetry_equiv_pos_as_xyz
  1  'x, y, z'
loop_
 _atom_site_type_symbol
 _atom_site_label
 _atom_site_symmetry_multiplicity
 _atom_site_fract_x
 _atom_site_fract_y
 _atom_site_fract_z
 _atom_site_occupancy
  Yb  Yb0  1  0.676613  0.002754  0.250000  1
  Pr  Pr1  1  0.652810  0.170070  0.624604  1
  Pr  Pr2  1  0.153365  0.331403  0.876009  1
  Pr  Pr3  1  0.348746  0.830264  0.123589  1
  Pr  Pr4  1  0.846968  0.670607  0.376283  1
  Pr  Pr5  1  0.348746  0.830264  0.376411  1
  Pr  Pr6  1  0.846968  0.670607  0.123717  1
  Pr  Pr7  1  0.652810  0.170070  0.875396  1
  Pr  Pr8  1  0.153365  0.331403  0.623991  1
  Pr  Pr9  1  0.498324  0.680935  0.596643  1
  Pr  Pr10  1  0.997723  0.818962  0.903141  1
  Pr  Pr11  1  0.502132  0.317743  0.096617  1
  Pr  Pr12  1  0.000622  0.180975  0.403814  1
  Pr  Pr13  1  0.502132  0.317743  0.403383  1
  Pr  Pr14  1  0.000622  0.180975  0.096186  1
  Pr  Pr15  1  0.498324  0.680935  0.903357  1
  Pr  Pr16  1  0.997723  0.818962  0.596859  1
  Ho  Ho17  1  0.821617  0.503275  0.750000  1
  Ho  Ho18  1  0.322395  0.996943  0.750000  1
  Ho  Ho19  1  0.177631  0.495290  0.250000  1
  Sn  Sn20  1  0.686955  0.962374  0.462183  1
  Sn  Sn21  1  0.186146  0.535435  0.041642  1
  Sn  Sn22  1  0.314197  0.036553  0.959323  1
  Sn  Sn23  1  0.812964  0.464779  0.541125  1
  Sn  Sn24  1  0.314197  0.036553  0.540677  1
  Sn  Sn25  1  0.812964  0.464779  0.958875  1
  Sn  Sn26  1  0.686955  0.962374  0.037817  1
  Sn  Sn27  1  0.186146  0.535435  0.458358  1
  Sn  Sn28  1  0.457781  0.392363  0.750000  1
  Sn  Sn29  1  0.958437  0.107908  0.750000  1
  Sn  Sn30  1  0.542572  0.603841  0.250000  1
  Sn  Sn31  1  0.046070  0.891557  0.250000  1
  Sn  Sn32  1  0.691881  0.852668  0.750000  1
  Sn  Sn33  1  0.191476  0.647440  0.750000  1
  Sn  Sn34  1  0.301568  0.147011  0.250000  1
  Sn  Sn35  1  0.810056  0.358748  0.250000  1
