# generated using pymatgen
data_Y6Hf5Al11Ir7
_symmetry_space_group_name_H-M   'P 1'
_cell_length_a   9.24568919
_cell_length_b   9.24569014
_cell_length_c   9.21043200
_cell_angle_alpha   59.87328492
_cell_angle_beta   59.87328149
_cell_angle_gamma   60.00000321
_symmetry_Int_Tables_number   1
_chemical_formula_structural   Y6Hf5Al11Ir7
_chemical_formula_sum   'Y6 Hf5 Al11 Ir7'
_cell_volume   555.66003516
_cell_formula_units_Z   1
loop_
 _symmetry_equiv_pos_site_id
 _symmetry_equiv_pos_as_xyz
  1  'x, y, z'
loop_
 _atom_site_type_symbol
 _atom_site_label
 _atom_site_symmetry_multiplicity
 _atom_site_fract_x
 _atom_site_fract_y
 _atom_site_fract_z
 _atom_site_occupancy
  Y  Y0  1  0.701282  0.701282  0.302869  1
  Y  Y1  1  0.294566  0.701282  0.302869  1
  Y  Y2  1  0.701282  0.294566  0.302869  1
  Y  Y3  1  0.303254  0.303254  0.702993  1
  Y  Y4  1  0.690500  0.303254  0.702993  1
  Y  Y5  1  0.303254  0.690500  0.702993  1
  Hf  Hf6  1  0.880602  0.880602  0.358197  1
  Hf  Hf7  1  0.877063  0.362045  0.883831  1
  Hf  Hf8  1  0.362045  0.877063  0.883831  1
  Hf  Hf9  1  0.877063  0.877063  0.883831  1
  Hf  Hf10  1  0.124158  0.124158  0.627526  1
  Al  Al11  1  0.118941  0.641234  0.120883  1
  Al  Al12  1  0.641234  0.118941  0.120883  1
  Al  Al13  1  0.118941  0.118941  0.120883  1
  Al  Al14  1  0.666143  0.666143  0.001568  1
  Al  Al15  1  0.666917  0.999717  0.666448  1
  Al  Al16  1  0.999717  0.666917  0.666448  1
  Al  Al17  1  0.666917  0.666917  0.666448  1
  Al  Al18  1  0.329218  0.329218  0.012346  1
  Al  Al19  1  0.332982  0.011325  0.322712  1
  Al  Al20  1  0.011325  0.332982  0.322712  1
  Al  Al21  1  0.332982  0.332982  0.322712  1
  Ir  Ir22  1  0.003272  0.003272  0.990184  1
  Ir  Ir23  1  0.998439  0.998439  0.502856  1
  Ir  Ir24  1  0.500268  0.998439  0.502856  1
  Ir  Ir25  1  0.998439  0.500268  0.502856  1
  Ir  Ir26  1  0.500389  0.500389  0.000802  1
  Ir  Ir27  1  0.998420  0.500389  0.000802  1
  Ir  Ir28  1  0.500389  0.998420  0.000802  1
