# generated using pymatgen
data_Be3Si3(NiMo2)2
_symmetry_space_group_name_H-M   'P 1'
_cell_length_a   4.65886624
_cell_length_b   4.56884377
_cell_length_c   7.71878900
_cell_angle_alpha   90.00000000
_cell_angle_beta   90.00000000
_cell_angle_gamma   121.13670787
_symmetry_Int_Tables_number   1
_chemical_formula_structural   Be3Si3(NiMo2)2
_chemical_formula_sum   'Be3 Si3 Ni2 Mo4'
_cell_volume   140.62968384
_cell_formula_units_Z   1
loop_
 _symmetry_equiv_pos_site_id
 _symmetry_equiv_pos_as_xyz
  1  'x, y, z'
loop_
 _atom_site_type_symbol
 _atom_site_label
 _atom_site_symmetry_multiplicity
 _atom_site_fract_x
 _atom_site_fract_y
 _atom_site_fract_z
 _atom_site_occupancy
  Be  Be0  1  0.661823  0.814203  0.500000  1
  Be  Be1  1  0.822114  0.183682  0.000000  1
  Be  Be2  1  0.351697  0.181767  0.000000  1
  Si  Si3  1  0.994905  0.007829  0.239938  1
  Si  Si4  1  0.994905  0.007829  0.760062  1
  Si  Si5  1  0.175701  0.813795  0.500000  1
  Ni  Ni6  1  0.165592  0.316222  0.500000  1
  Ni  Ni7  1  0.833831  0.673784  0.000000  1
  Mo  Mo8  1  0.335999  0.676935  0.814427  1
  Mo  Mo9  1  0.663729  0.323496  0.691368  1
  Mo  Mo10  1  0.663729  0.323496  0.308632  1
  Mo  Mo11  1  0.335999  0.676935  0.185573  1
