# generated using pymatgen
data_Ho2AlIrRu
_symmetry_space_group_name_H-M   'P 1'
_cell_length_a   5.53407909
_cell_length_b   5.53407737
_cell_length_c   5.53407770
_cell_angle_alpha   137.29654631
_cell_angle_beta   115.84740384
_cell_angle_gamma   80.16278240
_symmetry_Int_Tables_number   1
_chemical_formula_structural   Ho2AlIrRu
_chemical_formula_sum   'Ho2 Al1 Ir1 Ru1'
_cell_volume   100.29438868
_cell_formula_units_Z   1
loop_
 _symmetry_equiv_pos_site_id
 _symmetry_equiv_pos_as_xyz
  1  'x, y, z'
loop_
 _atom_site_type_symbol
 _atom_site_label
 _atom_site_symmetry_multiplicity
 _atom_site_fract_x
 _atom_site_fract_y
 _atom_site_fract_z
 _atom_site_occupancy
  Ho  Ho0  1  0.699428  0.202493  0.496934  1
  Ho  Ho1  1  0.294441  0.797507  0.496934  1
  Al  Al2  1  0.003704  0.000000  0.003704  1
  Ir  Ir3  1  0.736724  0.500000  0.236724  1
  Ru  Ru4  1  0.265702  0.500000  0.765702  1
