# generated using pymatgen
data_Ta2Ti(NbN3)2
_symmetry_space_group_name_H-M   'P 1'
_cell_length_a   5.22790319
_cell_length_b   5.22011662
_cell_length_c   10.30284605
_cell_angle_alpha   90.07233786
_cell_angle_beta   89.96388631
_cell_angle_gamma   119.95075685
_symmetry_Int_Tables_number   1
_chemical_formula_structural   Ta2Ti(NbN3)2
_chemical_formula_sum   'Ta4 Ti2 Nb4 N12'
_cell_volume   243.61864551
_cell_formula_units_Z   2
loop_
 _symmetry_equiv_pos_site_id
 _symmetry_equiv_pos_as_xyz
  1  'x, y, z'
loop_
 _atom_site_type_symbol
 _atom_site_label
 _atom_site_symmetry_multiplicity
 _atom_site_fract_x
 _atom_site_fract_y
 _atom_site_fract_z
 _atom_site_occupancy
  Ta  Ta0  1  0.667113  0.333556  0.500000  1
  Ta  Ta1  1  0.331039  0.665520  0.000000  1
  Ta  Ta2  1  0.677744  0.000005  0.749989  1
  Ta  Ta3  1  0.677744  0.677739  0.250011  1
  Ti  Ti4  1  0.332067  0.666034  0.500000  1
  Ti  Ti5  1  0.667153  0.333576  0.000000  1
  Nb  Nb6  1  0.000011  0.323083  0.249965  1
  Nb  Nb7  1  0.000011  0.676928  0.750035  1
  Nb  Nb8  1  0.323291  0.323434  0.749978  1
  Nb  Nb9  1  0.323291  0.999856  0.250022  1
  N  N10  1  0.347330  0.349202  0.379958  1
  N  N11  1  0.654911  0.994800  0.380449  1
  N  N12  1  0.997934  0.657557  0.380483  1
  N  N13  1  0.994518  0.338933  0.880605  1
  N  N14  1  0.656500  0.997599  0.119704  1
  N  N15  1  0.656500  0.658901  0.880296  1
  N  N16  1  0.349074  0.001817  0.879967  1
  N  N17  1  0.654911  0.660112  0.619551  1
  N  N18  1  0.997934  0.340378  0.619517  1
  N  N19  1  0.994518  0.655584  0.119395  1
  N  N20  1  0.347330  0.998129  0.620042  1
  N  N21  1  0.349074  0.347256  0.120033  1
