# generated using pymatgen
data_Ho8Zr12Si15Ni
_symmetry_space_group_name_H-M   'P 1'
_cell_length_a   7.13921120
_cell_length_b   7.28253644
_cell_length_c   13.92326511
_cell_angle_alpha   89.88114696
_cell_angle_beta   90.05585783
_cell_angle_gamma   90.12706799
_symmetry_Int_Tables_number   1
_chemical_formula_structural   Ho8Zr12Si15Ni
_chemical_formula_sum   'Ho8 Zr12 Si15 Ni1'
_cell_volume   723.88867431
_cell_formula_units_Z   1
loop_
 _symmetry_equiv_pos_site_id
 _symmetry_equiv_pos_as_xyz
  1  'x, y, z'
loop_
 _atom_site_type_symbol
 _atom_site_label
 _atom_site_symmetry_multiplicity
 _atom_site_fract_x
 _atom_site_fract_y
 _atom_site_fract_z
 _atom_site_occupancy
  Ho  Ho0  1  0.017551  0.175186  0.097456  1
  Ho  Ho1  1  0.984524  0.824973  0.903349  1
  Ho  Ho2  1  0.485080  0.676680  0.902734  1
  Ho  Ho3  1  0.982226  0.824185  0.596840  1
  Ho  Ho4  1  0.515766  0.323316  0.096420  1
  Ho  Ho5  1  0.016261  0.178148  0.402658  1
  Ho  Ho6  1  0.519071  0.323093  0.400452  1
  Ho  Ho7  1  0.479051  0.674126  0.596953  1
  Zr  Zr8  1  0.156105  0.502949  0.749282  1
  Zr  Zr9  1  0.846676  0.500013  0.249621  1
  Zr  Zr10  1  0.347358  0.998091  0.249520  1
  Zr  Zr11  1  0.652149  0.003438  0.748373  1
  Zr  Zr12  1  0.326270  0.186527  0.621345  1
  Zr  Zr13  1  0.672134  0.822903  0.375566  1
  Zr  Zr14  1  0.176396  0.664238  0.381250  1
  Zr  Zr15  1  0.674515  0.822430  0.125306  1
  Zr  Zr16  1  0.830285  0.326131  0.623457  1
  Zr  Zr17  1  0.327348  0.175679  0.874615  1
  Zr  Zr18  1  0.828154  0.322227  0.875370  1
  Zr  Zr19  1  0.171463  0.676892  0.125024  1
  Si  Si20  1  0.031247  0.118744  0.750298  1
  Si  Si21  1  0.972334  0.880365  0.252209  1
  Si  Si22  1  0.469086  0.616260  0.250561  1
  Si  Si23  1  0.532134  0.384329  0.750959  1
  Si  Si24  1  0.279662  0.875887  0.749833  1
  Si  Si25  1  0.720655  0.126575  0.248781  1
  Si  Si26  1  0.220531  0.370078  0.249046  1
  Si  Si27  1  0.780030  0.629479  0.751736  1
  Si  Si28  1  0.845051  0.532466  0.458350  1
  Si  Si29  1  0.347149  0.969151  0.457205  1
  Si  Si30  1  0.844383  0.530798  0.040483  1
  Si  Si31  1  0.652808  0.033613  0.540041  1
  Si  Si32  1  0.155421  0.466582  0.960037  1
  Si  Si33  1  0.654146  0.030841  0.959450  1
  Si  Si34  1  0.348017  0.967573  0.041097  1
  Ni  Ni35  1  0.138964  0.466035  0.544321  1
