# generated using pymatgen
data_Yb4(AgPd3)3
_symmetry_space_group_name_H-M   'P 1'
_cell_length_a   7.14733090
_cell_length_b   7.14732990
_cell_length_c   7.14733003
_cell_angle_alpha   107.71555364
_cell_angle_beta   107.71554659
_cell_angle_gamma   113.04268618
_symmetry_Int_Tables_number   1
_chemical_formula_structural   Yb4(AgPd3)3
_chemical_formula_sum   'Yb4 Ag3 Pd9'
_cell_volume   280.24235472
_cell_formula_units_Z   1
loop_
 _symmetry_equiv_pos_site_id
 _symmetry_equiv_pos_as_xyz
  1  'x, y, z'
loop_
 _atom_site_type_symbol
 _atom_site_label
 _atom_site_symmetry_multiplicity
 _atom_site_fract_x
 _atom_site_fract_y
 _atom_site_fract_z
 _atom_site_occupancy
  Yb  Yb0  1  0.242922  0.242922  0.485845  1
  Yb  Yb1  1  0.757078  0.757078  0.514155  1
  Yb  Yb2  1  0.242922  0.757078  0.000000  1
  Yb  Yb3  1  0.757078  0.242922  0.000000  1
  Ag  Ag4  1  0.500000  0.000000  0.500000  1
  Ag  Ag5  1  0.000000  0.500000  0.500000  1
  Ag  Ag6  1  0.500000  0.500000  0.000000  1
  Pd  Pd7  1  0.503478  0.253758  0.249719  1
  Pd  Pd8  1  0.496522  0.746242  0.750281  1
  Pd  Pd9  1  0.004037  0.253758  0.750281  1
  Pd  Pd10  1  0.253758  0.004037  0.750281  1
  Pd  Pd11  1  0.995963  0.746242  0.249719  1
  Pd  Pd12  1  0.746242  0.995963  0.249719  1
  Pd  Pd13  1  0.253758  0.503478  0.249719  1
  Pd  Pd14  1  0.746242  0.496522  0.750281  1
  Pd  Pd15  1  0.000000  0.000000  0.000000  1
