# generated using pymatgen
data_Li3Ho3HgGeBi
_symmetry_space_group_name_H-M   'P 1'
_cell_length_a   7.33452000
_cell_length_b   7.33451931
_cell_length_c   4.31913900
_cell_angle_alpha   90.00000000
_cell_angle_beta   90.00000000
_cell_angle_gamma   119.99998508
_symmetry_Int_Tables_number   1
_chemical_formula_structural   Li3Ho3HgGeBi
_chemical_formula_sum   'Li3 Ho3 Hg1 Ge1 Bi1'
_cell_volume   201.22004010
_cell_formula_units_Z   1
loop_
 _symmetry_equiv_pos_site_id
 _symmetry_equiv_pos_as_xyz
  1  'x, y, z'
loop_
 _atom_site_type_symbol
 _atom_site_label
 _atom_site_symmetry_multiplicity
 _atom_site_fract_x
 _atom_site_fract_y
 _atom_site_fract_z
 _atom_site_occupancy
  Li  Li0  1  0.247460  0.007562  0.500000  1
  Li  Li1  1  0.760102  0.752540  0.500000  1
  Li  Li2  1  0.992438  0.239898  0.500000  1
  Ho  Ho3  1  0.979684  0.567136  0.000000  1
  Ho  Ho4  1  0.587453  0.020316  0.000000  1
  Ho  Ho5  1  0.432864  0.412547  0.000000  1
  Hg  Hg6  1  0.000000  0.000000  0.000000  1
  Ge  Ge7  1  0.666667  0.333333  0.500000  1
  Bi  Bi8  1  0.333333  0.666667  0.500000  1
