# generated using pymatgen
data_Lu5ScNb3Al13Ru7
_symmetry_space_group_name_H-M   'P 1'
_cell_length_a   8.95053022
_cell_length_b   8.96263087
_cell_length_c   8.96263107
_cell_angle_alpha   59.61251782
_cell_angle_beta   59.78701069
_cell_angle_gamma   59.78700053
_symmetry_Int_Tables_number   1
_chemical_formula_structural   Lu5ScNb3Al13Ru7
_chemical_formula_sum   'Lu5 Sc1 Nb3 Al13 Ru7'
_cell_volume   505.26515309
_cell_formula_units_Z   1
loop_
 _symmetry_equiv_pos_site_id
 _symmetry_equiv_pos_as_xyz
  1  'x, y, z'
loop_
 _atom_site_type_symbol
 _atom_site_label
 _atom_site_symmetry_multiplicity
 _atom_site_fract_x
 _atom_site_fract_y
 _atom_site_fract_z
 _atom_site_occupancy
  Lu  Lu0  1  0.707813  0.708064  0.285881  1
  Lu  Lu1  1  0.294693  0.707248  0.294086  1
  Lu  Lu2  1  0.708252  0.293014  0.293014  1
  Lu  Lu3  1  0.294693  0.294086  0.707248  1
  Lu  Lu4  1  0.707813  0.285881  0.708064  1
  Sc  Sc5  1  0.279953  0.712841  0.712841  1
  Nb  Nb6  1  0.877754  0.877108  0.361141  1
  Nb  Nb7  1  0.877754  0.361141  0.877108  1
  Nb  Nb8  1  0.360128  0.876970  0.876970  1
  Al  Al9  1  0.884398  0.880912  0.880912  1
  Al  Al10  1  0.120921  0.118256  0.640268  1
  Al  Al11  1  0.120921  0.640268  0.118256  1
  Al  Al12  1  0.638981  0.120378  0.120378  1
  Al  Al13  1  0.121402  0.120519  0.120519  1
  Al  Al14  1  0.670918  0.670714  0.993257  1
  Al  Al15  1  0.670918  0.993257  0.670714  1
  Al  Al16  1  0.997305  0.670389  0.670389  1
  Al  Al17  1  0.663586  0.666281  0.666281  1
  Al  Al18  1  0.332493  0.335344  0.002957  1
  Al  Al19  1  0.332493  0.002957  0.335344  1
  Al  Al20  1  0.006496  0.332146  0.332146  1
  Al  Al21  1  0.332179  0.332366  0.332366  1
  Ru  Ru22  1  0.001306  0.002271  0.002271  1
  Ru  Ru23  1  0.000600  0.998635  0.498111  1
  Ru  Ru24  1  0.501446  0.995874  0.502651  1
  Ru  Ru25  1  0.995507  0.502580  0.502580  1
  Ru  Ru26  1  0.501446  0.502651  0.995874  1
  Ru  Ru27  1  0.000600  0.498111  0.998635  1
  Ru  Ru28  1  0.497231  0.999739  0.999739  1
