# generated using pymatgen
data_SrHo3(Ga2Ag)4
_symmetry_space_group_name_H-M   'P 1'
_cell_length_a   4.40007800
_cell_length_b   7.02739012
_cell_length_c   10.36372537
_cell_angle_alpha   90.92807972
_cell_angle_beta   90.00000000
_cell_angle_gamma   90.00000000
_symmetry_Int_Tables_number   1
_chemical_formula_structural   SrHo3(Ga2Ag)4
_chemical_formula_sum   'Sr1 Ho3 Ga8 Ag4'
_cell_volume   320.41538317
_cell_formula_units_Z   1
loop_
 _symmetry_equiv_pos_site_id
 _symmetry_equiv_pos_as_xyz
  1  'x, y, z'
loop_
 _atom_site_type_symbol
 _atom_site_label
 _atom_site_symmetry_multiplicity
 _atom_site_fract_x
 _atom_site_fract_y
 _atom_site_fract_z
 _atom_site_occupancy
  Sr  Sr0  1  0.250000  0.276484  0.674044  1
  Ho  Ho1  1  0.250000  0.779567  0.829743  1
  Ho  Ho2  1  0.750000  0.222236  0.171297  1
  Ho  Ho3  1  0.750000  0.721346  0.327576  1
  Ga  Ga4  1  0.250000  0.709710  0.534782  1
  Ga  Ga5  1  0.750000  0.298670  0.458135  1
  Ga  Ga6  1  0.750000  0.793648  0.039015  1
  Ga  Ga7  1  0.250000  0.197121  0.969699  1
  Ga  Ga8  1  0.250000  0.925530  0.155343  1
  Ga  Ga9  1  0.750000  0.065959  0.854081  1
  Ga  Ga10  1  0.750000  0.581279  0.649673  1
  Ga  Ga11  1  0.250000  0.429682  0.342505  1
  Ag  Ag12  1  0.250000  0.543446  0.096603  1
  Ag  Ag13  1  0.750000  0.457934  0.903776  1
  Ag  Ag14  1  0.750000  0.954641  0.595375  1
  Ag  Ag15  1  0.250000  0.042746  0.398354  1
