# generated using pymatgen
data_Pa3Co8P6W
_symmetry_space_group_name_H-M   'P 1'
_cell_length_a   3.77958100
_cell_length_b   10.56125000
_cell_length_c   12.26670600
_cell_angle_alpha   90.00000000
_cell_angle_beta   90.00000000
_cell_angle_gamma   90.00000000
_symmetry_Int_Tables_number   1
_chemical_formula_structural   Pa3Co8P6W
_chemical_formula_sum   'Pa6 Co16 P12 W2'
_cell_volume   489.65132806
_cell_formula_units_Z   2
loop_
 _symmetry_equiv_pos_site_id
 _symmetry_equiv_pos_as_xyz
  1  'x, y, z'
loop_
 _atom_site_type_symbol
 _atom_site_label
 _atom_site_symmetry_multiplicity
 _atom_site_fract_x
 _atom_site_fract_y
 _atom_site_fract_z
 _atom_site_occupancy
  Pa  Pa0  1  0.000000  0.500000  0.525392  1
  Pa  Pa1  1  0.500000  0.000000  0.474608  1
  Pa  Pa2  1  0.500000  0.820214  0.207396  1
  Pa  Pa3  1  0.500000  0.179786  0.207396  1
  Pa  Pa4  1  0.000000  0.679786  0.792604  1
  Pa  Pa5  1  0.000000  0.320214  0.792604  1
  Co  Co6  1  0.500000  0.500000  0.700071  1
  Co  Co7  1  0.000000  0.000000  0.299929  1
  Co  Co8  1  0.000000  0.500000  0.984112  1
  Co  Co9  1  0.500000  0.000000  0.015888  1
  Co  Co10  1  0.500000  0.332336  0.989759  1
  Co  Co11  1  0.500000  0.667664  0.989759  1
  Co  Co12  1  0.000000  0.167664  0.010241  1
  Co  Co13  1  0.000000  0.832336  0.010241  1
  Co  Co14  1  0.500000  0.301606  0.429570  1
  Co  Co15  1  0.500000  0.698394  0.429570  1
  Co  Co16  1  0.000000  0.198394  0.570430  1
  Co  Co17  1  0.000000  0.801606  0.570430  1
  Co  Co18  1  0.500000  0.877759  0.712728  1
  Co  Co19  1  0.500000  0.122241  0.712728  1
  Co  Co20  1  0.000000  0.622241  0.287272  1
  Co  Co21  1  0.000000  0.377759  0.287272  1
  P  P22  1  0.500000  0.500000  0.882168  1
  P  P23  1  0.000000  0.000000  0.117832  1
  P  P24  1  0.500000  0.500000  0.345722  1
  P  P25  1  0.000000  0.000000  0.654278  1
  P  P26  1  0.500000  0.308368  0.613147  1
  P  P27  1  0.500000  0.691632  0.613147  1
  P  P28  1  0.000000  0.191632  0.386853  1
  P  P29  1  0.000000  0.808368  0.386853  1
  P  P30  1  0.500000  0.845484  0.895943  1
  P  P31  1  0.500000  0.154516  0.895943  1
  P  P32  1  0.000000  0.654516  0.104057  1
  P  P33  1  0.000000  0.345484  0.104057  1
  W  W34  1  0.500000  0.500000  0.152509  1
  W  W35  1  0.000000  0.000000  0.847491  1
