# generated using pymatgen
data_Er3Lu5(CdCo)2
_symmetry_space_group_name_H-M   'P 1'
_cell_length_a   9.34994311
_cell_length_b   9.34994312
_cell_length_c   9.34994400
_cell_angle_alpha   59.99999689
_cell_angle_beta   59.99999685
_cell_angle_gamma   59.99999182
_symmetry_Int_Tables_number   1
_chemical_formula_structural   Er3Lu5(CdCo)2
_chemical_formula_sum   'Er6 Lu10 Cd4 Co4'
_cell_volume   577.97879051
_cell_formula_units_Z   2
loop_
 _symmetry_equiv_pos_site_id
 _symmetry_equiv_pos_as_xyz
  1  'x, y, z'
loop_
 _atom_site_type_symbol
 _atom_site_label
 _atom_site_symmetry_multiplicity
 _atom_site_fract_x
 _atom_site_fract_y
 _atom_site_fract_z
 _atom_site_occupancy
  Er  Er0  1  0.189684  0.810316  0.810316  1
  Er  Er1  1  0.810316  0.189684  0.189684  1
  Er  Er2  1  0.810316  0.189684  0.810316  1
  Er  Er3  1  0.189684  0.810316  0.189684  1
  Er  Er4  1  0.810316  0.810316  0.189684  1
  Er  Er5  1  0.189684  0.189684  0.810316  1
  Lu  Lu6  1  0.596081  0.596081  0.596081  1
  Lu  Lu7  1  0.596081  0.596081  0.211758  1
  Lu  Lu8  1  0.596081  0.211758  0.596081  1
  Lu  Lu9  1  0.211758  0.596081  0.596081  1
  Lu  Lu10  1  0.062665  0.437335  0.437335  1
  Lu  Lu11  1  0.437335  0.062665  0.062665  1
  Lu  Lu12  1  0.437335  0.062665  0.437335  1
  Lu  Lu13  1  0.062665  0.437335  0.062665  1
  Lu  Lu14  1  0.437335  0.437335  0.062665  1
  Lu  Lu15  1  0.062665  0.062665  0.437335  1
  Cd  Cd16  1  0.830683  0.830683  0.830683  1
  Cd  Cd17  1  0.830683  0.830683  0.507948  1
  Cd  Cd18  1  0.830683  0.507948  0.830683  1
  Cd  Cd19  1  0.507948  0.830683  0.830683  1
  Co  Co20  1  0.391128  0.391128  0.391128  1
  Co  Co21  1  0.391128  0.391128  0.826616  1
  Co  Co22  1  0.391128  0.826616  0.391128  1
  Co  Co23  1  0.826616  0.391128  0.391128  1
