# generated using pymatgen
data_BaMn3(AsO4)3
_symmetry_space_group_name_H-M   'P 1'
_cell_length_a   9.71669070
_cell_length_b   9.71669101
_cell_length_c   9.71669051
_cell_angle_alpha   137.69008217
_cell_angle_beta   112.23389541
_cell_angle_gamma   83.22890246
_symmetry_Int_Tables_number   1
_chemical_formula_structural   BaMn3(AsO4)3
_chemical_formula_sum   'Ba2 Mn6 As6 O24'
_cell_volume   551.98013979
_cell_formula_units_Z   2
loop_
 _symmetry_equiv_pos_site_id
 _symmetry_equiv_pos_as_xyz
  1  'x, y, z'
loop_
 _atom_site_type_symbol
 _atom_site_label
 _atom_site_symmetry_multiplicity
 _atom_site_fract_x
 _atom_site_fract_y
 _atom_site_fract_z
 _atom_site_occupancy
  Ba  Ba0  1  0.750000  0.156366  0.406366  1
  Ba  Ba1  1  0.250000  0.843634  0.593634  1
  Mn  Mn2  1  0.000000  0.000000  0.000000  1
  Mn  Mn3  1  0.500000  0.500000  0.000000  1
  Mn  Mn4  1  0.616491  0.616491  0.500000  1
  Mn  Mn5  1  0.883509  0.383509  0.000000  1
  Mn  Mn6  1  0.116491  0.616491  0.000000  1
  Mn  Mn7  1  0.383509  0.383509  0.500000  1
  As  As8  1  0.820517  0.820517  0.500000  1
  As  As9  1  0.679483  0.179483  0.000000  1
  As  As10  1  0.320517  0.820517  0.000000  1
  As  As11  1  0.179483  0.179483  0.500000  1
  As  As12  1  0.750000  0.670085  0.920085  1
  As  As13  1  0.250000  0.329915  0.079915  1
  O  O14  1  0.625868  0.513410  0.639279  1
  O  O15  1  0.125868  0.486590  0.112457  1
  O  O16  1  0.374132  0.486590  0.360721  1
  O  O17  1  0.874132  0.513410  0.887543  1
  O  O18  1  0.153563  0.094043  0.940479  1
  O  O19  1  0.846437  0.905957  0.059521  1
  O  O20  1  0.653563  0.713085  0.059521  1
  O  O21  1  0.346437  0.286915  0.940479  1
  O  O22  1  0.854126  0.792873  0.670092  1
  O  O23  1  0.877219  0.207127  0.061253  1
  O  O24  1  0.354126  0.684034  0.061253  1
  O  O25  1  0.377219  0.315966  0.670092  1
  O  O26  1  0.145874  0.207127  0.329908  1
  O  O27  1  0.122781  0.792873  0.938747  1
  O  O28  1  0.645874  0.315966  0.938747  1
  O  O29  1  0.622781  0.684034  0.329908  1
  O  O30  1  0.837087  0.074350  0.643254  1
  O  O31  1  0.568905  0.925650  0.762738  1
  O  O32  1  0.337087  0.693833  0.762738  1
  O  O33  1  0.068905  0.306167  0.643254  1
  O  O34  1  0.162913  0.925650  0.356746  1
  O  O35  1  0.431095  0.074350  0.237262  1
  O  O36  1  0.662913  0.306167  0.237262  1
  O  O37  1  0.931095  0.693833  0.356746  1
