# generated using pymatgen
data_TbDy7Sc12Si15Os
_symmetry_space_group_name_H-M   'P 1'
_cell_length_a   7.09134401
_cell_length_b   7.44446269
_cell_length_c   13.97131704
_cell_angle_alpha   90.00750998
_cell_angle_beta   90.00375252
_cell_angle_gamma   90.19932179
_symmetry_Int_Tables_number   1
_chemical_formula_structural   TbDy7Sc12Si15Os
_chemical_formula_sum   'Tb1 Dy7 Sc12 Si15 Os1'
_cell_volume   737.55876236
_cell_formula_units_Z   1
loop_
 _symmetry_equiv_pos_site_id
 _symmetry_equiv_pos_as_xyz
  1  'x, y, z'
loop_
 _atom_site_type_symbol
 _atom_site_label
 _atom_site_symmetry_multiplicity
 _atom_site_fract_x
 _atom_site_fract_y
 _atom_site_fract_z
 _atom_site_occupancy
  Tb  Tb0  1  0.011292  0.178470  0.096152  1
  Dy  Dy1  1  0.990949  0.827835  0.903417  1
  Dy  Dy2  1  0.488370  0.676517  0.904047  1
  Dy  Dy3  1  0.990955  0.827856  0.596567  1
  Dy  Dy4  1  0.510980  0.323173  0.096298  1
  Dy  Dy5  1  0.011336  0.178581  0.403749  1
  Dy  Dy6  1  0.511004  0.323151  0.403700  1
  Dy  Dy7  1  0.488357  0.676506  0.595944  1
  Sc  Sc8  1  0.155450  0.496306  0.750007  1
  Sc  Sc9  1  0.838355  0.495545  0.250030  1
  Sc  Sc10  1  0.339142  0.005105  0.250027  1
  Sc  Sc11  1  0.669111  0.998821  0.750005  1
  Sc  Sc12  1  0.318309  0.172212  0.627444  1
  Sc  Sc13  1  0.671761  0.825389  0.373827  1
  Sc  Sc14  1  0.171188  0.677961  0.374099  1
  Sc  Sc15  1  0.671750  0.825359  0.126176  1
  Sc  Sc16  1  0.837198  0.318917  0.627506  1
  Sc  Sc17  1  0.318355  0.172192  0.872532  1
  Sc  Sc18  1  0.837166  0.318951  0.872502  1
  Sc  Sc19  1  0.171183  0.677960  0.125901  1
  Si  Si20  1  0.968435  0.884263  0.250040  1
  Si  Si21  1  0.468939  0.614384  0.250006  1
  Si  Si22  1  0.529387  0.389355  0.749996  1
  Si  Si23  1  0.286449  0.867862  0.749997  1
  Si  Si24  1  0.713321  0.129414  0.250077  1
  Si  Si25  1  0.213723  0.371278  0.250080  1
  Si  Si26  1  0.778764  0.626800  0.749998  1
  Si  Si27  1  0.159535  0.468866  0.536923  1
  Si  Si28  1  0.844484  0.535875  0.461429  1
  Si  Si29  1  0.345142  0.965695  0.460031  1
  Si  Si30  1  0.844429  0.536022  0.038536  1
  Si  Si31  1  0.655366  0.034095  0.538250  1
  Si  Si32  1  0.159572  0.469000  0.963030  1
  Si  Si33  1  0.655295  0.034065  0.961733  1
  Si  Si34  1  0.345338  0.965598  0.039933  1
  Os  Os35  1  0.029608  0.110621  0.750008  1
