# generated using pymatgen
data_Tb3MgCdSb3O14
_symmetry_space_group_name_H-M   'P 1'
_cell_length_a   7.25433377
_cell_length_b   7.25433444
_cell_length_c   7.25433043
_cell_angle_alpha   118.08939175
_cell_angle_beta   61.91046300
_cell_angle_gamma   118.08947203
_symmetry_Int_Tables_number   1
_chemical_formula_structural   Tb3MgCdSb3O14
_chemical_formula_sum   'Tb3 Mg1 Cd1 Sb3 O14'
_cell_volume   281.48968333
_cell_formula_units_Z   1
loop_
 _symmetry_equiv_pos_site_id
 _symmetry_equiv_pos_as_xyz
  1  'x, y, z'
loop_
 _atom_site_type_symbol
 _atom_site_label
 _atom_site_symmetry_multiplicity
 _atom_site_fract_x
 _atom_site_fract_y
 _atom_site_fract_z
 _atom_site_occupancy
  Tb  Tb0  1  0.999997  0.500004  0.000012  1
  Tb  Tb1  1  0.499999  0.000000  0.999989  1
  Tb  Tb2  1  0.500012  0.500012  0.499999  1
  Mg  Mg3  1  0.999995  0.999993  0.500000  1
  Cd  Cd4  1  0.499999  0.499999  0.000001  1
  Sb  Sb5  1  0.500024  0.999982  0.500029  1
  Sb  Sb6  1  0.999979  0.500020  0.499969  1
  Sb  Sb7  1  0.000014  0.000007  0.000007  1
  O  O8  1  0.624491  0.375505  0.124493  1
  O  O9  1  0.375503  0.624494  0.875504  1
  O  O10  1  0.076075  0.324787  0.175217  1
  O  O11  1  0.675210  0.923919  0.175208  1
  O  O12  1  0.675217  0.324790  0.576076  1
  O  O13  1  0.923922  0.675212  0.824791  1
  O  O14  1  0.324784  0.076073  0.824782  1
  O  O15  1  0.324790  0.675216  0.423923  1
  O  O16  1  0.654677  0.910895  0.589105  1
  O  O17  1  0.089120  0.345293  0.589118  1
  O  O18  1  0.089112  0.910890  0.154689  1
  O  O19  1  0.345295  0.089119  0.410883  1
  O  O20  1  0.910897  0.654677  0.410896  1
  O  O21  1  0.910889  0.089113  0.845305  1
