# generated using pymatgen
data_Cr2In(Sb6Pt)2
_symmetry_space_group_name_H-M   'P 1'
_cell_length_a   8.22584340
_cell_length_b   8.30421588
_cell_length_c   8.30421660
_cell_angle_alpha   109.91398240
_cell_angle_beta   109.34626306
_cell_angle_gamma   109.53587049
_symmetry_Int_Tables_number   1
_chemical_formula_structural   Cr2In(Sb6Pt)2
_chemical_formula_sum   'Cr2 In1 Sb12 Pt2'
_cell_volume   434.59090627
_cell_formula_units_Z   1
loop_
 _symmetry_equiv_pos_site_id
 _symmetry_equiv_pos_as_xyz
  1  'x, y, z'
loop_
 _atom_site_type_symbol
 _atom_site_label
 _atom_site_symmetry_multiplicity
 _atom_site_fract_x
 _atom_site_fract_y
 _atom_site_fract_z
 _atom_site_occupancy
  Cr  Cr0  1  0.500000  0.000000  0.000000  1
  Cr  Cr1  1  0.500000  0.500000  0.500000  1
  In  In2  1  0.000000  0.000000  0.000000  1
  Sb  Sb3  1  0.342728  0.186967  0.850167  1
  Sb  Sb4  1  0.657272  0.813033  0.149833  1
  Sb  Sb5  1  0.657272  0.507440  0.844238  1
  Sb  Sb6  1  0.342728  0.492560  0.155762  1
  Sb  Sb7  1  0.194196  0.849390  0.344806  1
  Sb  Sb8  1  0.805804  0.150610  0.655194  1
  Sb  Sb9  1  0.507680  0.843822  0.663857  1
  Sb  Sb10  1  0.492320  0.156178  0.336143  1
  Sb  Sb11  1  0.844824  0.338872  0.186141  1
  Sb  Sb12  1  0.155176  0.661128  0.813859  1
  Sb  Sb13  1  0.844824  0.658684  0.505953  1
  Sb  Sb14  1  0.155176  0.341316  0.494047  1
  Pt  Pt15  1  0.000000  0.000000  0.500000  1
  Pt  Pt16  1  0.000000  0.500000  0.000000  1
