# generated using pymatgen
data_YLuMgB2Rh5
_symmetry_space_group_name_H-M   'P 1'
_cell_length_a   9.62354657
_cell_length_b   9.62354657
_cell_length_c   3.17681300
_cell_angle_alpha   90.00000000
_cell_angle_beta   90.00000000
_cell_angle_gamma   90.54681437
_symmetry_Int_Tables_number   1
_chemical_formula_structural   YLuMgB2Rh5
_chemical_formula_sum   'Y2 Lu2 Mg2 B4 Rh10'
_cell_volume   294.19966707
_cell_formula_units_Z   2
loop_
 _symmetry_equiv_pos_site_id
 _symmetry_equiv_pos_as_xyz
  1  'x, y, z'
loop_
 _atom_site_type_symbol
 _atom_site_label
 _atom_site_symmetry_multiplicity
 _atom_site_fract_x
 _atom_site_fract_y
 _atom_site_fract_z
 _atom_site_occupancy
  Y  Y0  1  0.176549  0.323451  0.000000  1
  Y  Y1  1  0.823451  0.676549  0.000000  1
  Lu  Lu2  1  0.675692  0.175692  0.000000  1
  Lu  Lu3  1  0.324308  0.824308  0.000000  1
  Mg  Mg4  1  0.000000  0.000000  0.000000  1
  Mg  Mg5  1  0.500000  0.500000  0.000000  1
  B  B6  1  0.122965  0.622965  0.000000  1
  B  B7  1  0.877035  0.377035  0.000000  1
  B  B8  1  0.621979  0.878021  0.000000  1
  B  B9  1  0.378021  0.121979  0.000000  1
  Rh  Rh10  1  0.500000  0.000000  0.500000  1
  Rh  Rh11  1  0.000000  0.500000  0.500000  1
  Rh  Rh12  1  0.225258  0.066865  0.500000  1
  Rh  Rh13  1  0.774742  0.933135  0.500000  1
  Rh  Rh14  1  0.073493  0.777658  0.500000  1
  Rh  Rh15  1  0.722342  0.426507  0.500000  1
  Rh  Rh16  1  0.926507  0.222342  0.500000  1
  Rh  Rh17  1  0.277658  0.573493  0.500000  1
  Rh  Rh18  1  0.566865  0.725258  0.500000  1
  Rh  Rh19  1  0.433135  0.274742  0.500000  1
