# generated using pymatgen
data_Nd4LuSc(Cu2Sb3)2
_symmetry_space_group_name_H-M   'P 1'
_cell_length_a   4.38386900
_cell_length_b   4.38386932
_cell_length_c   23.52547000
_cell_angle_alpha   90.00000000
_cell_angle_beta   90.00000000
_cell_angle_gamma   120.00000514
_symmetry_Int_Tables_number   1
_chemical_formula_structural   Nd4LuSc(Cu2Sb3)2
_chemical_formula_sum   'Nd4 Lu1 Sc1 Cu4 Sb6'
_cell_volume   391.54716639
_cell_formula_units_Z   1
loop_
 _symmetry_equiv_pos_site_id
 _symmetry_equiv_pos_as_xyz
  1  'x, y, z'
loop_
 _atom_site_type_symbol
 _atom_site_label
 _atom_site_symmetry_multiplicity
 _atom_site_fract_x
 _atom_site_fract_y
 _atom_site_fract_z
 _atom_site_occupancy
  Nd  Nd0  1  0.666667  0.333333  0.918647  1
  Nd  Nd1  1  0.333333  0.666667  0.077775  1
  Nd  Nd2  1  0.333333  0.666667  0.422225  1
  Nd  Nd3  1  0.666667  0.333333  0.581353  1
  Lu  Lu4  1  0.333333  0.666667  0.250000  1
  Sc  Sc5  1  0.666667  0.333333  0.750000  1
  Cu  Cu6  1  0.000000  0.000000  0.803923  1
  Cu  Cu7  1  0.000000  0.000000  0.194310  1
  Cu  Cu8  1  0.000000  0.000000  0.305690  1
  Cu  Cu9  1  0.000000  0.000000  0.696077  1
  Sb  Sb10  1  0.333333  0.666667  0.665948  1
  Sb  Sb11  1  0.000000  0.000000  0.501758  1
  Sb  Sb12  1  0.666667  0.333333  0.337657  1
  Sb  Sb13  1  0.333333  0.666667  0.834052  1
  Sb  Sb14  1  0.666667  0.333333  0.162343  1
  Sb  Sb15  1  0.000000  0.000000  0.998242  1
