# generated using pymatgen
data_Ho4Al18CuIr4Ru
_symmetry_space_group_name_H-M   'P 1'
_cell_length_a   7.55820288
_cell_length_b   7.55820250
_cell_length_c   9.46186689
_cell_angle_alpha   90.10076253
_cell_angle_beta   90.10076687
_cell_angle_gamma   119.54052758
_symmetry_Int_Tables_number   1
_chemical_formula_structural   Ho4Al18CuIr4Ru
_chemical_formula_sum   'Ho4 Al18 Cu1 Ir4 Ru1'
_cell_volume   470.25571681
_cell_formula_units_Z   1
loop_
 _symmetry_equiv_pos_site_id
 _symmetry_equiv_pos_as_xyz
  1  'x, y, z'
loop_
 _atom_site_type_symbol
 _atom_site_label
 _atom_site_symmetry_multiplicity
 _atom_site_fract_x
 _atom_site_fract_y
 _atom_site_fract_z
 _atom_site_occupancy
  Ho  Ho0  1  0.996318  0.671256  0.250239  1
  Ho  Ho1  1  0.004623  0.329401  0.749355  1
  Ho  Ho2  1  0.670599  0.995377  0.250645  1
  Ho  Ho3  1  0.328744  0.003682  0.749761  1
  Al  Al4  1  0.127862  0.128412  0.250466  1
  Al  Al5  1  0.871588  0.872138  0.749534  1
  Al  Al6  1  0.999147  0.338120  0.075859  1
  Al  Al7  1  0.996793  0.659255  0.924370  1
  Al  Al8  1  0.999289  0.666139  0.574665  1
  Al  Al9  1  0.333861  0.000711  0.425335  1
  Al  Al10  1  0.999941  0.334816  0.425479  1
  Al  Al11  1  0.665184  0.000059  0.574521  1
  Al  Al12  1  0.661880  0.000853  0.924141  1
  Al  Al13  1  0.340745  0.003207  0.075630  1
  Al  Al14  1  0.333876  0.334087  0.550967  1
  Al  Al15  1  0.665913  0.666124  0.449033  1
  Al  Al16  1  0.664404  0.661638  0.051953  1
  Al  Al17  1  0.338362  0.335596  0.948047  1
  Al  Al18  1  0.337595  0.547718  0.249707  1
  Al  Al19  1  0.661731  0.449646  0.751538  1
  Al  Al20  1  0.550354  0.338269  0.248462  1
  Al  Al21  1  0.452282  0.662405  0.750293  1
  Cu  Cu22  1  0.999930  0.000070  0.000000  1
  Ir  Ir23  1  0.327909  0.672091  0.000000  1
  Ir  Ir24  1  0.327622  0.672378  0.500000  1
  Ir  Ir25  1  0.671716  0.328284  0.500000  1
  Ir  Ir26  1  0.999484  0.000516  0.500000  1
  Ru  Ru27  1  0.672249  0.327751  0.000000  1
