# generated using pymatgen
data_PrSiNO2
_symmetry_space_group_name_H-M   'P 1'
_cell_length_a   7.29597900
_cell_length_b   7.29597889
_cell_length_c   9.53502500
_cell_angle_alpha   90.00000000
_cell_angle_beta   90.00000000
_cell_angle_gamma   120.20818336
_symmetry_Int_Tables_number   1
_chemical_formula_structural   PrSiNO2
_chemical_formula_sum   'Pr6 Si6 N6 O12'
_cell_volume   438.63645608
_cell_formula_units_Z   6
loop_
 _symmetry_equiv_pos_site_id
 _symmetry_equiv_pos_as_xyz
  1  'x, y, z'
loop_
 _atom_site_type_symbol
 _atom_site_label
 _atom_site_symmetry_multiplicity
 _atom_site_fract_x
 _atom_site_fract_y
 _atom_site_fract_z
 _atom_site_occupancy
  Pr  Pr0  1  0.826280  0.173720  0.500000  1
  Pr  Pr1  1  0.173720  0.826280  0.000000  1
  Pr  Pr2  1  0.826280  0.173720  0.000000  1
  Pr  Pr3  1  0.173720  0.826280  0.500000  1
  Pr  Pr4  1  0.500000  0.500000  0.500000  1
  Pr  Pr5  1  0.500000  0.500000  0.000000  1
  Si  Si6  1  0.164468  0.403420  0.250000  1
  Si  Si7  1  0.596580  0.835532  0.750000  1
  Si  Si8  1  0.922492  0.922492  0.250000  1
  Si  Si9  1  0.835532  0.596580  0.750000  1
  Si  Si10  1  0.077508  0.077508  0.750000  1
  Si  Si11  1  0.403420  0.164468  0.250000  1
  N  N12  1  0.606497  0.606497  0.750000  1
  N  N13  1  0.836211  0.066202  0.750000  1
  N  N14  1  0.066202  0.836211  0.750000  1
  N  N15  1  0.933798  0.163789  0.250000  1
  N  N16  1  0.393503  0.393503  0.250000  1
  N  N17  1  0.163789  0.933798  0.250000  1
  O  O18  1  0.165517  0.520139  0.099828  1
  O  O19  1  0.479861  0.834483  0.900172  1
  O  O20  1  0.479861  0.834483  0.599828  1
  O  O21  1  0.520139  0.165517  0.099828  1
  O  O22  1  0.808492  0.808492  0.401615  1
  O  O23  1  0.834483  0.479861  0.900172  1
  O  O24  1  0.834483  0.479861  0.599828  1
  O  O25  1  0.191508  0.191508  0.598385  1
  O  O26  1  0.191508  0.191508  0.901615  1
  O  O27  1  0.808492  0.808492  0.098385  1
  O  O28  1  0.520139  0.165517  0.400172  1
  O  O29  1  0.165517  0.520139  0.400172  1
