# generated using pymatgen
data_Li8Zn4Si3Ge
_symmetry_space_group_name_H-M   'P 1'
_cell_length_a   4.24578400
_cell_length_b   4.24578417
_cell_length_c   16.31756000
_cell_angle_alpha   90.00000000
_cell_angle_beta   90.00000000
_cell_angle_gamma   119.99999867
_symmetry_Int_Tables_number   1
_chemical_formula_structural   Li8Zn4Si3Ge
_chemical_formula_sum   'Li8 Zn4 Si3 Ge1'
_cell_volume   254.74265183
_cell_formula_units_Z   1
loop_
 _symmetry_equiv_pos_site_id
 _symmetry_equiv_pos_as_xyz
  1  'x, y, z'
loop_
 _atom_site_type_symbol
 _atom_site_label
 _atom_site_symmetry_multiplicity
 _atom_site_fract_x
 _atom_site_fract_y
 _atom_site_fract_z
 _atom_site_occupancy
  Li  Li0  1  0.666667  0.333333  0.790201  1
  Li  Li1  1  0.333333  0.666667  0.209061  1
  Li  Li2  1  0.666667  0.333333  0.459021  1
  Li  Li3  1  0.666667  0.333333  0.292235  1
  Li  Li4  1  0.333333  0.666667  0.042722  1
  Li  Li5  1  0.666667  0.333333  0.958669  1
  Li  Li6  1  0.333333  0.666667  0.707163  1
  Li  Li7  1  0.333333  0.666667  0.540941  1
  Zn  Zn8  1  0.000000  0.000000  0.872919  1
  Zn  Zn9  1  0.000000  0.000000  0.377108  1
  Zn  Zn10  1  0.000000  0.000000  0.622865  1
  Zn  Zn11  1  0.000000  0.000000  0.126927  1
  Si  Si12  1  0.666667  0.333333  0.624775  1
  Si  Si13  1  0.333333  0.666667  0.375309  1
  Si  Si14  1  0.666667  0.333333  0.125194  1
  Ge  Ge15  1  0.333333  0.666667  0.874889  1
