# generated using pymatgen
data_Nd6Fe5P12Rh13
_symmetry_space_group_name_H-M   'P 1'
_cell_length_a   3.88730500
_cell_length_b   11.25479455
_cell_length_c   12.70483701
_cell_angle_alpha   90.06224160
_cell_angle_beta   90.00000000
_cell_angle_gamma   90.00000000
_symmetry_Int_Tables_number   1
_chemical_formula_structural   Nd6Fe5P12Rh13
_chemical_formula_sum   'Nd6 Fe5 P12 Rh13'
_cell_volume   555.84669779
_cell_formula_units_Z   1
loop_
 _symmetry_equiv_pos_site_id
 _symmetry_equiv_pos_as_xyz
  1  'x, y, z'
loop_
 _atom_site_type_symbol
 _atom_site_label
 _atom_site_symmetry_multiplicity
 _atom_site_fract_x
 _atom_site_fract_y
 _atom_site_fract_z
 _atom_site_occupancy
  Nd  Nd0  1  0.000000  0.499610  0.519331  1
  Nd  Nd1  1  0.500000  0.000431  0.480080  1
  Nd  Nd2  1  0.500000  0.821109  0.199175  1
  Nd  Nd3  1  0.500000  0.181427  0.196325  1
  Nd  Nd4  1  0.000000  0.675055  0.802238  1
  Nd  Nd5  1  0.000000  0.321158  0.803965  1
  Fe  Fe6  1  0.000000  0.497960  0.994069  1
  Fe  Fe7  1  0.500000  0.001505  0.005596  1
  Fe  Fe8  1  0.500000  0.334513  0.997495  1
  Fe  Fe9  1  0.500000  0.663775  0.998054  1
  Fe  Fe10  1  0.000000  0.165794  0.001426  1
  P  P11  1  0.500000  0.499450  0.899817  1
  P  P12  1  0.000000  0.008702  0.104069  1
  P  P13  1  0.500000  0.499054  0.340609  1
  P  P14  1  0.000000  0.000931  0.658707  1
  P  P15  1  0.500000  0.311481  0.621273  1
  P  P16  1  0.500000  0.687954  0.620987  1
  P  P17  1  0.000000  0.189142  0.378821  1
  P  P18  1  0.000000  0.812181  0.379939  1
  P  P19  1  0.500000  0.841196  0.901683  1
  P  P20  1  0.500000  0.161402  0.908467  1
  P  P21  1  0.000000  0.651443  0.096082  1
  P  P22  1  0.000000  0.337927  0.090038  1
  Rh  Rh23  1  0.500000  0.500425  0.154362  1
  Rh  Rh24  1  0.000000  0.003552  0.843104  1
  Rh  Rh25  1  0.500000  0.499812  0.706211  1
  Rh  Rh26  1  0.000000  0.000198  0.294107  1
  Rh  Rh27  1  0.000000  0.833477  0.004648  1
  Rh  Rh28  1  0.500000  0.294726  0.428453  1
  Rh  Rh29  1  0.500000  0.705786  0.428415  1
  Rh  Rh30  1  0.000000  0.205437  0.571688  1
  Rh  Rh31  1  0.000000  0.792963  0.571746  1
  Rh  Rh32  1  0.500000  0.876127  0.716971  1
  Rh  Rh33  1  0.500000  0.125331  0.718129  1
  Rh  Rh34  1  0.000000  0.623779  0.283236  1
  Rh  Rh35  1  0.000000  0.375191  0.280685  1
