# generated using pymatgen
data_Yb2YTm(B4Ru)4
_symmetry_space_group_name_H-M   'P 1'
_cell_length_a   3.53682801
_cell_length_b   5.94612535
_cell_length_c   11.50245340
_cell_angle_alpha   90.06594479
_cell_angle_beta   89.99993532
_cell_angle_gamma   89.99959444
_symmetry_Int_Tables_number   1
_chemical_formula_structural   Yb2YTm(B4Ru)4
_chemical_formula_sum   'Yb2 Y1 Tm1 B16 Ru4'
_cell_volume   241.90129670
_cell_formula_units_Z   1
loop_
 _symmetry_equiv_pos_site_id
 _symmetry_equiv_pos_as_xyz
  1  'x, y, z'
loop_
 _atom_site_type_symbol
 _atom_site_label
 _atom_site_symmetry_multiplicity
 _atom_site_fract_x
 _atom_site_fract_y
 _atom_site_fract_z
 _atom_site_occupancy
  Yb  Yb0  1  0.999997  0.370718  0.649525  1
  Yb  Yb1  1  0.000004  0.129449  0.150207  1
  Y  Y2  1  0.999997  0.871223  0.849516  1
  Tm  Tm3  1  0.000003  0.628727  0.349651  1
  B  B4  1  0.500004  0.787955  0.186052  1
  B  B5  1  0.499997  0.212457  0.814770  1
  B  B6  1  0.500007  0.288990  0.314963  1
  B  B7  1  0.499994  0.711802  0.684735  1
  B  B8  1  0.500001  0.864170  0.031640  1
  B  B9  1  0.499997  0.136023  0.969987  1
  B  B10  1  0.500003  0.364594  0.469145  1
  B  B11  1  0.499998  0.635369  0.530279  1
  B  B12  1  0.500004  0.887776  0.452818  1
  B  B13  1  0.500000  0.113880  0.546942  1
  B  B14  1  0.500001  0.386166  0.047909  1
  B  B15  1  0.499997  0.610984  0.953818  1
  B  B16  1  0.500005  0.975044  0.307963  1
  B  B17  1  0.499997  0.023756  0.691198  1
  B  B18  1  0.500005  0.476885  0.192594  1
  B  B19  1  0.499993  0.523990  0.807919  1
  Ru  Ru20  1  0.000004  0.637872  0.090854  1
  Ru  Ru21  1  0.999993  0.362030  0.909476  1
  Ru  Ru22  1  0.000007  0.138706  0.408888  1
  Ru  Ru23  1  0.999995  0.861434  0.589153  1
