# generated using pymatgen
data_Ac5LaSn10
_symmetry_space_group_name_H-M   'P 1'
_cell_length_a   6.85433817
_cell_length_b   6.85433819
_cell_length_c   11.03775600
_cell_angle_alpha   90.00000000
_cell_angle_beta   90.00000000
_cell_angle_gamma   102.44192134
_symmetry_Int_Tables_number   1
_chemical_formula_structural   Ac5LaSn10
_chemical_formula_sum   'Ac5 La1 Sn10'
_cell_volume   506.39652988
_cell_formula_units_Z   1
loop_
 _symmetry_equiv_pos_site_id
 _symmetry_equiv_pos_as_xyz
  1  'x, y, z'
loop_
 _atom_site_type_symbol
 _atom_site_label
 _atom_site_symmetry_multiplicity
 _atom_site_fract_x
 _atom_site_fract_y
 _atom_site_fract_z
 _atom_site_occupancy
  Ac  Ac0  1  0.634419  0.634419  0.250000  1
  Ac  Ac1  1  0.202019  0.797617  0.500496  1
  Ac  Ac2  1  0.202019  0.797617  0.999504  1
  Ac  Ac3  1  0.797617  0.202019  0.500496  1
  Ac  Ac4  1  0.797617  0.202019  0.999504  1
  La  La5  1  0.364637  0.364637  0.750000  1
  Sn  Sn6  1  0.030960  0.030960  0.250000  1
  Sn  Sn7  1  0.972485  0.972485  0.750000  1
  Sn  Sn8  1  0.319370  0.319370  0.047546  1
  Sn  Sn9  1  0.679095  0.679095  0.947226  1
  Sn  Sn10  1  0.319370  0.319370  0.452454  1
  Sn  Sn11  1  0.679095  0.679095  0.552774  1
  Sn  Sn12  1  0.489243  0.078196  0.250000  1
  Sn  Sn13  1  0.924562  0.509295  0.750000  1
  Sn  Sn14  1  0.509295  0.924562  0.750000  1
  Sn  Sn15  1  0.078196  0.489243  0.250000  1
