# generated using pymatgen
data_Nd2Al8SiRh3
_symmetry_space_group_name_H-M   'P 1'
_cell_length_a   7.60347838
_cell_length_b   7.57922335
_cell_length_c   9.58657603
_cell_angle_alpha   89.95043097
_cell_angle_beta   89.97595737
_cell_angle_gamma   119.75415047
_symmetry_Int_Tables_number   1
_chemical_formula_structural   Nd2Al8SiRh3
_chemical_formula_sum   'Nd4 Al16 Si2 Rh6'
_cell_volume   479.62452015
_cell_formula_units_Z   2
loop_
 _symmetry_equiv_pos_site_id
 _symmetry_equiv_pos_as_xyz
  1  'x, y, z'
loop_
 _atom_site_type_symbol
 _atom_site_label
 _atom_site_symmetry_multiplicity
 _atom_site_fract_x
 _atom_site_fract_y
 _atom_site_fract_z
 _atom_site_occupancy
  Nd  Nd0  1  0.994980  0.664439  0.743295  1
  Nd  Nd1  1  0.005020  0.335561  0.256705  1
  Nd  Nd2  1  0.674319  0.000570  0.746719  1
  Nd  Nd3  1  0.325681  0.999430  0.253281  1
  Al  Al4  1  0.130689  0.129192  0.750528  1
  Al  Al5  1  0.869311  0.870808  0.249472  1
  Al  Al6  1  0.997141  0.665699  0.066963  1
  Al  Al7  1  0.334675  0.000791  0.927230  1
  Al  Al8  1  0.002859  0.334301  0.933037  1
  Al  Al9  1  0.665325  0.999209  0.072770  1
  Al  Al10  1  0.661674  0.994332  0.423787  1
  Al  Al11  1  0.338326  0.005668  0.576213  1
  Al  Al12  1  0.334430  0.333343  0.050255  1
  Al  Al13  1  0.665570  0.666657  0.949745  1
  Al  Al14  1  0.662677  0.665248  0.550847  1
  Al  Al15  1  0.337323  0.334752  0.449153  1
  Al  Al16  1  0.339895  0.547592  0.749632  1
  Al  Al17  1  0.660105  0.452408  0.250368  1
  Al  Al18  1  0.545675  0.341433  0.750279  1
  Al  Al19  1  0.454325  0.658567  0.249721  1
  Si  Si20  1  0.005101  0.328086  0.574871  1
  Si  Si21  1  0.994899  0.671914  0.425129  1
  Rh  Rh22  1  0.688268  0.337377  0.501270  1
  Rh  Rh23  1  0.311732  0.662623  0.498730  1
  Rh  Rh24  1  0.328038  0.670161  0.000301  1
  Rh  Rh25  1  0.671962  0.329839  0.999699  1
  Rh  Rh26  1  0.000000  0.000000  0.500000  1
  Rh  Rh27  1  0.000000  0.000000  0.000000  1
