# generated using pymatgen
data_Lu3MoO6
_symmetry_space_group_name_H-M   'P 1'
_cell_length_a   6.50079353
_cell_length_b   6.50079370
_cell_length_c   6.50079350
_cell_angle_alpha   91.99604029
_cell_angle_beta   91.99602622
_cell_angle_gamma   91.99603463
_symmetry_Int_Tables_number   1
_chemical_formula_structural   Lu3MoO6
_chemical_formula_sum   'Lu6 Mo2 O12'
_cell_volume   274.21358721
_cell_formula_units_Z   2
loop_
 _symmetry_equiv_pos_site_id
 _symmetry_equiv_pos_as_xyz
  1  'x, y, z'
loop_
 _atom_site_type_symbol
 _atom_site_label
 _atom_site_symmetry_multiplicity
 _atom_site_fract_x
 _atom_site_fract_y
 _atom_site_fract_z
 _atom_site_occupancy
  Lu  Lu0  1  0.747081  0.930645  0.439517  1
  Lu  Lu1  1  0.930645  0.439517  0.747081  1
  Lu  Lu2  1  0.439517  0.747081  0.930645  1
  Lu  Lu3  1  0.252919  0.069355  0.560483  1
  Lu  Lu4  1  0.069355  0.560483  0.252919  1
  Lu  Lu5  1  0.560483  0.252919  0.069355  1
  Mo  Mo6  1  0.500000  0.500000  0.500000  1
  Mo  Mo7  1  0.000000  0.000000  0.000000  1
  O  O8  1  0.598928  0.466955  0.815108  1
  O  O9  1  0.466955  0.815108  0.598928  1
  O  O10  1  0.815108  0.598928  0.466955  1
  O  O11  1  0.401072  0.533045  0.184892  1
  O  O12  1  0.533045  0.184892  0.401072  1
  O  O13  1  0.184892  0.401072  0.533045  1
  O  O14  1  0.071032  0.907914  0.314352  1
  O  O15  1  0.907914  0.314352  0.071032  1
  O  O16  1  0.685648  0.928968  0.092086  1
  O  O17  1  0.092086  0.685648  0.928968  1
  O  O18  1  0.928968  0.092086  0.685648  1
  O  O19  1  0.314352  0.071032  0.907914  1
