# generated using pymatgen
data_Dy3Pa(TcB6)2
_symmetry_space_group_name_H-M   'P 1'
_cell_length_a   3.70812400
_cell_length_b   9.17435529
_cell_length_c   11.54105603
_cell_angle_alpha   90.35808021
_cell_angle_beta   90.00000000
_cell_angle_gamma   90.00000000
_symmetry_Int_Tables_number   1
_chemical_formula_structural   Dy3Pa(TcB6)2
_chemical_formula_sum   'Dy6 Pa2 Tc4 B24'
_cell_volume   392.61498515
_cell_formula_units_Z   2
loop_
 _symmetry_equiv_pos_site_id
 _symmetry_equiv_pos_as_xyz
  1  'x, y, z'
loop_
 _atom_site_type_symbol
 _atom_site_label
 _atom_site_symmetry_multiplicity
 _atom_site_fract_x
 _atom_site_fract_y
 _atom_site_fract_z
 _atom_site_occupancy
  Dy  Dy0  1  0.000000  0.824491  0.085608  1
  Dy  Dy1  1  0.000000  0.175509  0.914392  1
  Dy  Dy2  1  0.000000  0.944613  0.372405  1
  Dy  Dy3  1  0.000000  0.055387  0.627595  1
  Dy  Dy4  1  0.000000  0.443576  0.126973  1
  Dy  Dy5  1  0.000000  0.556424  0.873027  1
  Pa  Pa6  1  0.000000  0.322383  0.412973  1
  Pa  Pa7  1  0.000000  0.677617  0.587027  1
  Tc  Tc8  1  0.000000  0.635070  0.325081  1
  Tc  Tc9  1  0.000000  0.364930  0.674919  1
  Tc  Tc10  1  0.000000  0.140552  0.181855  1
  Tc  Tc11  1  0.000000  0.859448  0.818145  1
  B  B12  1  0.500000  0.553061  0.433097  1
  B  B13  1  0.500000  0.446939  0.566903  1
  B  B14  1  0.500000  0.053447  0.067523  1
  B  B15  1  0.500000  0.946553  0.932477  1
  B  B16  1  0.500000  0.747302  0.419952  1
  B  B17  1  0.500000  0.252698  0.580048  1
  B  B18  1  0.500000  0.247370  0.080307  1
  B  B19  1  0.500000  0.752630  0.919693  1
  B  B20  1  0.500000  0.791124  0.266052  1
  B  B21  1  0.500000  0.208876  0.733948  1
  B  B22  1  0.500000  0.292127  0.233860  1
  B  B23  1  0.500000  0.707873  0.766140  1
  B  B24  1  0.500000  0.631629  0.185856  1
  B  B25  1  0.500000  0.368371  0.814144  1
  B  B26  1  0.500000  0.132771  0.314125  1
  B  B27  1  0.500000  0.867229  0.685875  1
  B  B28  1  0.500000  0.982585  0.212287  1
  B  B29  1  0.500000  0.017415  0.787713  1
  B  B30  1  0.500000  0.483109  0.287093  1
  B  B31  1  0.500000  0.516891  0.712907  1
  B  B32  1  0.500000  0.606498  0.029856  1
  B  B33  1  0.500000  0.393502  0.970144  1
  B  B34  1  0.500000  0.113136  0.468746  1
  B  B35  1  0.500000  0.886864  0.531254  1
