# generated using pymatgen
data_Ho5Lu5Si5Sb
_symmetry_space_group_name_H-M   'P 1'
_cell_length_a   8.40192900
_cell_length_b   8.42110410
_cell_length_c   6.25851500
_cell_angle_alpha   90.00000000
_cell_angle_beta   90.00000000
_cell_angle_gamma   119.82876782
_symmetry_Int_Tables_number   1
_chemical_formula_structural   Ho5Lu5Si5Sb
_chemical_formula_sum   'Ho5 Lu5 Si5 Sb1'
_cell_volume   384.14637769
_cell_formula_units_Z   1
loop_
 _symmetry_equiv_pos_site_id
 _symmetry_equiv_pos_as_xyz
  1  'x, y, z'
loop_
 _atom_site_type_symbol
 _atom_site_label
 _atom_site_symmetry_multiplicity
 _atom_site_fract_x
 _atom_site_fract_y
 _atom_site_fract_z
 _atom_site_occupancy
  Ho  Ho0  1  0.764743  0.999969  0.750000  1
  Ho  Ho1  1  0.753536  0.754697  0.250000  1
  Ho  Ho2  1  0.999417  0.244086  0.250000  1
  Ho  Ho3  1  0.988007  0.746867  0.750000  1
  Ho  Ho4  1  0.242387  0.000565  0.250000  1
  Lu  Lu5  1  0.674768  0.343519  0.003331  1
  Lu  Lu6  1  0.331079  0.656273  0.496875  1
  Lu  Lu7  1  0.331079  0.656273  0.003125  1
  Lu  Lu8  1  0.674768  0.343519  0.496669  1
  Lu  Lu9  1  0.241431  0.254067  0.750000  1
  Si  Si10  1  0.395207  0.392866  0.250000  1
  Si  Si11  1  0.002495  0.607657  0.250000  1
  Si  Si12  1  0.000019  0.394908  0.750000  1
  Si  Si13  1  0.601595  0.603003  0.750000  1
  Si  Si14  1  0.605475  0.000327  0.250000  1
  Sb  Sb15  1  0.393994  0.001403  0.750000  1
