# generated using pymatgen
data_NaUI6
_symmetry_space_group_name_H-M   'P 1'
_cell_length_a   7.85603901
_cell_length_b   7.85603923
_cell_length_c   14.90937823
_cell_angle_alpha   83.91203553
_cell_angle_beta   83.91203354
_cell_angle_gamma   119.07116718
_symmetry_Int_Tables_number   1
_chemical_formula_structural   NaUI6
_chemical_formula_sum   'Na2 U2 I12'
_cell_volume   786.44952846
_cell_formula_units_Z   2
loop_
 _symmetry_equiv_pos_site_id
 _symmetry_equiv_pos_as_xyz
  1  'x, y, z'
loop_
 _atom_site_type_symbol
 _atom_site_label
 _atom_site_symmetry_multiplicity
 _atom_site_fract_x
 _atom_site_fract_y
 _atom_site_fract_z
 _atom_site_occupancy
  Na  Na0  1  0.083996  0.916004  0.250000  1
  Na  Na1  1  0.916004  0.083996  0.750000  1
  U  U2  1  0.419063  0.580937  0.250000  1
  U  U3  1  0.580937  0.419063  0.750000  1
  I  I4  1  0.321674  0.464300  0.633267  1
  I  I5  1  0.464300  0.321674  0.133267  1
  I  I6  1  0.235622  0.073597  0.868664  1
  I  I7  1  0.073597  0.235622  0.368664  1
  I  I8  1  0.166444  0.631283  0.130023  1
  I  I9  1  0.631283  0.166444  0.630023  1
  I  I10  1  0.368717  0.833556  0.369977  1
  I  I11  1  0.833556  0.368717  0.869977  1
  I  I12  1  0.764378  0.926403  0.131336  1
  I  I13  1  0.926403  0.764378  0.631336  1
  I  I14  1  0.535700  0.678326  0.866733  1
  I  I15  1  0.678326  0.535700  0.366733  1
