# generated using pymatgen
data_Y2Er8FeHg3
_symmetry_space_group_name_H-M   'P 1'
_cell_length_a   9.52544200
_cell_length_b   9.52298361
_cell_length_c   9.54763700
_cell_angle_alpha   90.00000000
_cell_angle_beta   90.00000000
_cell_angle_gamma   119.99207781
_symmetry_Int_Tables_number   1
_chemical_formula_structural   Y2Er8FeHg3
_chemical_formula_sum   'Y4 Er16 Fe2 Hg6'
_cell_volume   750.10035001
_cell_formula_units_Z   2
loop_
 _symmetry_equiv_pos_site_id
 _symmetry_equiv_pos_as_xyz
  1  'x, y, z'
loop_
 _atom_site_type_symbol
 _atom_site_label
 _atom_site_symmetry_multiplicity
 _atom_site_fract_x
 _atom_site_fract_y
 _atom_site_fract_z
 _atom_site_occupancy
  Y  Y0  1  0.915977  0.457989  0.250000  1
  Y  Y1  1  0.458582  0.541239  0.750000  1
  Y  Y2  1  0.458570  0.917340  0.750000  1
  Y  Y3  1  0.082235  0.541117  0.750000  1
  Er  Er4  1  0.000177  0.000088  0.499814  1
  Er  Er5  1  0.000177  0.000088  0.000186  1
  Er  Er6  1  0.541191  0.458373  0.250000  1
  Er  Er7  1  0.541195  0.082819  0.250000  1
  Er  Er8  1  0.212694  0.788657  0.435526  1
  Er  Er9  1  0.212696  0.424043  0.435528  1
  Er  Er10  1  0.576275  0.788141  0.435260  1
  Er  Er11  1  0.787440  0.211592  0.563746  1
  Er  Er12  1  0.787443  0.575844  0.563746  1
  Er  Er13  1  0.424467  0.212232  0.563316  1
  Er  Er14  1  0.787440  0.211592  0.936254  1
  Er  Er15  1  0.787443  0.575844  0.936254  1
  Er  Er16  1  0.424467  0.212232  0.936684  1
  Er  Er17  1  0.212694  0.788657  0.064474  1
  Er  Er18  1  0.212696  0.424043  0.064472  1
  Er  Er19  1  0.576275  0.788141  0.064740  1
  Fe  Fe20  1  0.333760  0.666880  0.250000  1
  Fe  Fe21  1  0.666829  0.333409  0.750000  1
  Hg  Hg22  1  0.881808  0.116136  0.250000  1
  Hg  Hg23  1  0.881800  0.765656  0.250000  1
  Hg  Hg24  1  0.235299  0.117653  0.250000  1
  Hg  Hg25  1  0.116932  0.883412  0.750000  1
  Hg  Hg26  1  0.116943  0.233533  0.750000  1
  Hg  Hg27  1  0.766493  0.883247  0.750000  1
