# generated using pymatgen
data_Dy16CdIn3Ni4
_symmetry_space_group_name_H-M   'P 1'
_cell_length_a   9.58641326
_cell_length_b   9.58906421
_cell_length_c   9.58906400
_cell_angle_alpha   60.00000074
_cell_angle_beta   59.99085270
_cell_angle_gamma   59.99085082
_symmetry_Int_Tables_number   1
_chemical_formula_structural   Dy16CdIn3Ni4
_chemical_formula_sum   'Dy16 Cd1 In3 Ni4'
_cell_volume   623.20873184
_cell_formula_units_Z   1
loop_
 _symmetry_equiv_pos_site_id
 _symmetry_equiv_pos_as_xyz
  1  'x, y, z'
loop_
 _atom_site_type_symbol
 _atom_site_label
 _atom_site_symmetry_multiplicity
 _atom_site_fract_x
 _atom_site_fract_y
 _atom_site_fract_z
 _atom_site_occupancy
  Dy  Dy0  1  0.598165  0.597869  0.597869  1
  Dy  Dy1  1  0.598165  0.597869  0.206098  1
  Dy  Dy2  1  0.598165  0.206098  0.597869  1
  Dy  Dy3  1  0.205829  0.598057  0.598057  1
  Dy  Dy4  1  0.061240  0.438732  0.438732  1
  Dy  Dy5  1  0.437978  0.061994  0.061994  1
  Dy  Dy6  1  0.437978  0.061994  0.438035  1
  Dy  Dy7  1  0.061240  0.438732  0.061296  1
  Dy  Dy8  1  0.437978  0.438035  0.061994  1
  Dy  Dy9  1  0.061240  0.061296  0.438732  1
  Dy  Dy10  1  0.187463  0.813740  0.813740  1
  Dy  Dy11  1  0.814038  0.186325  0.186325  1
  Dy  Dy12  1  0.814038  0.186325  0.813312  1
  Dy  Dy13  1  0.187463  0.813740  0.185058  1
  Dy  Dy14  1  0.814038  0.813312  0.186325  1
  Dy  Dy15  1  0.187463  0.185058  0.813740  1
  Cd  Cd16  1  0.503411  0.832196  0.832196  1
  In  In17  1  0.831243  0.832465  0.832465  1
  In  In18  1  0.831243  0.832465  0.503828  1
  In  In19  1  0.831243  0.503828  0.832465  1
  Ni  Ni20  1  0.392310  0.392069  0.392069  1
  Ni  Ni21  1  0.392310  0.392069  0.823552  1
  Ni  Ni22  1  0.392310  0.823552  0.392069  1
  Ni  Ni23  1  0.823449  0.392184  0.392184  1
