# generated using pymatgen
data_SmY7Cd2CoNi
_symmetry_space_group_name_H-M   'P 1'
_cell_length_a   9.61714107
_cell_length_b   9.61714033
_cell_length_c   9.63667000
_cell_angle_alpha   59.93280174
_cell_angle_beta   59.93280427
_cell_angle_gamma   59.94660622
_symmetry_Int_Tables_number   1
_chemical_formula_structural   SmY7Cd2CoNi
_chemical_formula_sum   'Sm2 Y14 Cd4 Co2 Ni2'
_cell_volume   629.34223557
_cell_formula_units_Z   2
loop_
 _symmetry_equiv_pos_site_id
 _symmetry_equiv_pos_as_xyz
  1  'x, y, z'
loop_
 _atom_site_type_symbol
 _atom_site_label
 _atom_site_symmetry_multiplicity
 _atom_site_fract_x
 _atom_site_fract_y
 _atom_site_fract_z
 _atom_site_occupancy
  Sm  Sm0  1  0.596639  0.596639  0.600758  1
  Sm  Sm1  1  0.596639  0.596639  0.205965  1
  Y  Y2  1  0.596035  0.206594  0.598686  1
  Y  Y3  1  0.206594  0.596035  0.598686  1
  Y  Y4  1  0.065096  0.437614  0.439159  1
  Y  Y5  1  0.437614  0.065096  0.058131  1
  Y  Y6  1  0.437614  0.065096  0.439159  1
  Y  Y7  1  0.065096  0.437614  0.058131  1
  Y  Y8  1  0.438034  0.438034  0.061966  1
  Y  Y9  1  0.061312  0.061312  0.438688  1
  Y  Y10  1  0.187043  0.811810  0.814505  1
  Y  Y11  1  0.811810  0.187043  0.186643  1
  Y  Y12  1  0.811810  0.187043  0.814505  1
  Y  Y13  1  0.187043  0.811810  0.186643  1
  Y  Y14  1  0.813159  0.813159  0.186841  1
  Y  Y15  1  0.187567  0.187567  0.812433  1
  Cd  Cd16  1  0.830554  0.830554  0.829873  1
  Cd  Cd17  1  0.830554  0.830554  0.509018  1
  Cd  Cd18  1  0.831775  0.506008  0.831108  1
  Cd  Cd19  1  0.506008  0.831775  0.831108  1
  Co  Co20  1  0.392343  0.392343  0.391500  1
  Co  Co21  1  0.392343  0.392343  0.823817  1
  Ni  Ni22  1  0.391724  0.825599  0.391339  1
  Ni  Ni23  1  0.825599  0.391724  0.391339  1
