# generated using pymatgen
data_Zr4Ga3MoN
_symmetry_space_group_name_H-M   'P 1'
_cell_length_a   7.99762500
_cell_length_b   7.99762525
_cell_length_c   5.56741600
_cell_angle_alpha   90.00000000
_cell_angle_beta   90.00000000
_cell_angle_gamma   119.99999482
_symmetry_Int_Tables_number   1
_chemical_formula_structural   Zr4Ga3MoN
_chemical_formula_sum   'Zr8 Ga6 Mo2 N2'
_cell_volume   308.39435125
_cell_formula_units_Z   2
loop_
 _symmetry_equiv_pos_site_id
 _symmetry_equiv_pos_as_xyz
  1  'x, y, z'
loop_
 _atom_site_type_symbol
 _atom_site_label
 _atom_site_symmetry_multiplicity
 _atom_site_fract_x
 _atom_site_fract_y
 _atom_site_fract_z
 _atom_site_occupancy
  Zr  Zr0  1  0.229854  0.000000  0.749426  1
  Zr  Zr1  1  0.770146  0.000000  0.250574  1
  Zr  Zr2  1  0.000000  0.229854  0.749426  1
  Zr  Zr3  1  0.000000  0.770146  0.250574  1
  Zr  Zr4  1  0.770146  0.770146  0.749426  1
  Zr  Zr5  1  0.229854  0.229854  0.250574  1
  Zr  Zr6  1  0.666667  0.333333  0.000000  1
  Zr  Zr7  1  0.333333  0.666667  0.000000  1
  Ga  Ga8  1  0.590354  0.000000  0.724972  1
  Ga  Ga9  1  0.409646  0.000000  0.275028  1
  Ga  Ga10  1  0.000000  0.590354  0.724972  1
  Ga  Ga11  1  0.000000  0.409646  0.275028  1
  Ga  Ga12  1  0.409646  0.409646  0.724972  1
  Ga  Ga13  1  0.590354  0.590354  0.275028  1
  Mo  Mo14  1  0.333333  0.666667  0.500000  1
  Mo  Mo15  1  0.666667  0.333333  0.500000  1
  N  N16  1  0.000000  0.000000  0.500000  1
  N  N17  1  0.000000  0.000000  0.000000  1
