# generated using pymatgen
data_Ba2H10IrPt
_symmetry_space_group_name_H-M   'P 1'
_cell_length_a   4.99687100
_cell_length_b   7.00087655
_cell_length_c   9.66040901
_cell_angle_alpha   87.96040752
_cell_angle_beta   90.00000000
_cell_angle_gamma   90.00000000
_symmetry_Int_Tables_number   1
_chemical_formula_structural   Ba2H10IrPt
_chemical_formula_sum   'Ba4 H20 Ir2 Pt2'
_cell_volume   337.73093885
_cell_formula_units_Z   2
loop_
 _symmetry_equiv_pos_site_id
 _symmetry_equiv_pos_as_xyz
  1  'x, y, z'
loop_
 _atom_site_type_symbol
 _atom_site_label
 _atom_site_symmetry_multiplicity
 _atom_site_fract_x
 _atom_site_fract_y
 _atom_site_fract_z
 _atom_site_occupancy
  Ba  Ba0  1  0.237406  0.342477  0.178334  1
  Ba  Ba1  1  0.737406  0.657523  0.821666  1
  Ba  Ba2  1  0.734377  0.863335  0.314402  1
  Ba  Ba3  1  0.234377  0.136665  0.685598  1
  H  H4  1  0.983571  0.500113  0.500225  1
  H  H5  1  0.483571  0.499887  0.499775  1
  H  H6  1  0.400500  0.058423  0.979785  1
  H  H7  1  0.900500  0.941577  0.020215  1
  H  H8  1  0.026678  0.679472  0.091236  1
  H  H9  1  0.526678  0.320528  0.908764  1
  H  H10  1  0.476732  0.184899  0.410974  1
  H  H11  1  0.976732  0.815101  0.589026  1
  H  H12  1  0.482016  0.712398  0.081278  1
  H  H13  1  0.982016  0.287602  0.918722  1
  H  H14  1  0.990451  0.184558  0.410545  1
  H  H15  1  0.490451  0.815442  0.589455  1
  H  H16  1  0.234881  0.775435  0.881752  1
  H  H17  1  0.734881  0.224565  0.118248  1
  H  H18  1  0.733488  0.248734  0.608576  1
  H  H19  1  0.233488  0.751266  0.391424  1
  H  H20  1  0.234377  0.939792  0.204370  1
  H  H21  1  0.734377  0.060208  0.795630  1
  H  H22  1  0.735124  0.441955  0.290363  1
  H  H23  1  0.235124  0.558045  0.709637  1
  Ir  Ir24  1  0.730522  0.146460  0.957260  1
  Ir  Ir25  1  0.230522  0.853540  0.042740  1
  Pt  Pt26  1  0.233874  0.664789  0.551378  1
  Pt  Pt27  1  0.733874  0.335211  0.448622  1
