# generated using pymatgen
data_Zr3Ti3BAs2
_symmetry_space_group_name_H-M   'P 1'
_cell_length_a   6.94343900
_cell_length_b   6.94343876
_cell_length_c   3.63447900
_cell_angle_alpha   90.00000000
_cell_angle_beta   90.00000000
_cell_angle_gamma   120.00000590
_symmetry_Int_Tables_number   1
_chemical_formula_structural   Zr3Ti3BAs2
_chemical_formula_sum   'Zr3 Ti3 B1 As2'
_cell_volume   151.74766032
_cell_formula_units_Z   1
loop_
 _symmetry_equiv_pos_site_id
 _symmetry_equiv_pos_as_xyz
  1  'x, y, z'
loop_
 _atom_site_type_symbol
 _atom_site_label
 _atom_site_symmetry_multiplicity
 _atom_site_fract_x
 _atom_site_fract_y
 _atom_site_fract_z
 _atom_site_occupancy
  Zr  Zr0  1  0.000000  0.603334  0.500000  1
  Zr  Zr1  1  0.396666  0.396666  0.500000  1
  Zr  Zr2  1  0.603334  0.000000  0.500000  1
  Ti  Ti3  1  0.228586  0.000000  0.000000  1
  Ti  Ti4  1  0.771414  0.771414  0.000000  1
  Ti  Ti5  1  0.000000  0.228586  0.000000  1
  B  B6  1  0.000000  0.000000  0.500000  1
  As  As7  1  0.333333  0.666667  0.000000  1
  As  As8  1  0.666667  0.333333  0.000000  1
