# generated using pymatgen
data_AcNiGe3
_symmetry_space_group_name_H-M   'P 1'
_cell_length_a   5.87745929
_cell_length_b   5.87746003
_cell_length_c   5.87746008
_cell_angle_alpha   134.87755199
_cell_angle_beta   134.87756411
_cell_angle_gamma   65.72050431
_symmetry_Int_Tables_number   1
_chemical_formula_structural   AcNiGe3
_chemical_formula_sum   'Ac1 Ni1 Ge3'
_cell_volume   100.42064742
_cell_formula_units_Z   1
loop_
 _symmetry_equiv_pos_site_id
 _symmetry_equiv_pos_as_xyz
  1  'x, y, z'
loop_
 _atom_site_type_symbol
 _atom_site_label
 _atom_site_symmetry_multiplicity
 _atom_site_fract_x
 _atom_site_fract_y
 _atom_site_fract_z
 _atom_site_occupancy
  Ac  Ac0  1  0.001694  0.001694  0.000000  1
  Ni  Ni1  1  0.342491  0.342491  0.000000  1
  Ge  Ge2  1  0.247172  0.747172  0.500000  1
  Ge  Ge3  1  0.747172  0.247172  0.500000  1
  Ge  Ge4  1  0.586971  0.586971  0.000000  1
