# generated using pymatgen
data_Sr3RuO6
_symmetry_space_group_name_H-M   'P 1'
_cell_length_a   6.12813900
_cell_length_b   5.85037359
_cell_length_c   10.28513845
_cell_angle_alpha   54.85130853
_cell_angle_beta   90.00000000
_cell_angle_gamma   90.00000000
_symmetry_Int_Tables_number   1
_chemical_formula_structural   Sr3RuO6
_chemical_formula_sum   'Sr6 Ru2 O12'
_cell_volume   301.50568793
_cell_formula_units_Z   2
loop_
 _symmetry_equiv_pos_site_id
 _symmetry_equiv_pos_as_xyz
  1  'x, y, z'
loop_
 _atom_site_type_symbol
 _atom_site_label
 _atom_site_symmetry_multiplicity
 _atom_site_fract_x
 _atom_site_fract_y
 _atom_site_fract_z
 _atom_site_occupancy
  Sr  Sr0  1  0.500000  0.500000  0.500000  1
  Sr  Sr1  1  0.945662  0.728877  0.255439  1
  Sr  Sr2  1  0.445662  0.271123  0.244561  1
  Sr  Sr3  1  0.000000  0.500000  0.000000  1
  Sr  Sr4  1  0.554338  0.728877  0.755439  1
  Sr  Sr5  1  0.054338  0.271123  0.744561  1
  Ru  Ru6  1  0.500000  0.000000  0.000000  1
  Ru  Ru7  1  0.000000  0.000000  0.500000  1
  O  O8  1  0.455076  0.118011  0.781760  1
  O  O9  1  0.236827  0.766703  0.064466  1
  O  O10  1  0.176527  0.316631  0.453512  1
  O  O11  1  0.676527  0.683369  0.046488  1
  O  O12  1  0.736827  0.233297  0.435534  1
  O  O13  1  0.955076  0.881989  0.718240  1
  O  O14  1  0.044924  0.118011  0.281760  1
  O  O15  1  0.263173  0.766703  0.564466  1
  O  O16  1  0.323473  0.316631  0.953512  1
  O  O17  1  0.823473  0.683369  0.546488  1
  O  O18  1  0.763173  0.233297  0.935534  1
  O  O19  1  0.544924  0.881989  0.218240  1
