# generated using pymatgen
data_LiTm8Sc10Si16Ag
_symmetry_space_group_name_H-M   'P 1'
_cell_length_a   6.93072706
_cell_length_b   7.35561746
_cell_length_c   13.93175000
_cell_angle_alpha   90.00000000
_cell_angle_beta   90.00000000
_cell_angle_gamma   89.84506041
_symmetry_Int_Tables_number   1
_chemical_formula_structural   LiTm8Sc10Si16Ag
_chemical_formula_sum   'Li1 Tm8 Sc10 Si16 Ag1'
_cell_volume   710.23491031
_cell_formula_units_Z   1
loop_
 _symmetry_equiv_pos_site_id
 _symmetry_equiv_pos_as_xyz
  1  'x, y, z'
loop_
 _atom_site_type_symbol
 _atom_site_label
 _atom_site_symmetry_multiplicity
 _atom_site_fract_x
 _atom_site_fract_y
 _atom_site_fract_z
 _atom_site_occupancy
  Li  Li0  1  0.840111  0.492694  0.250000  1
  Tm  Tm1  1  0.009928  0.184639  0.097970  1
  Tm  Tm2  1  0.990473  0.814829  0.902133  1
  Tm  Tm3  1  0.486389  0.674123  0.903111  1
  Tm  Tm4  1  0.990473  0.814829  0.597867  1
  Tm  Tm5  1  0.513851  0.325289  0.096600  1
  Tm  Tm6  1  0.009928  0.184639  0.402030  1
  Tm  Tm7  1  0.513851  0.325289  0.403400  1
  Tm  Tm8  1  0.486389  0.674123  0.596889  1
  Sc  Sc9  1  0.342161  0.004453  0.250000  1
  Sc  Sc10  1  0.657278  0.996347  0.750000  1
  Sc  Sc11  1  0.324573  0.181502  0.626400  1
  Sc  Sc12  1  0.674255  0.818641  0.373738  1
  Sc  Sc13  1  0.165636  0.675088  0.372945  1
  Sc  Sc14  1  0.674255  0.818641  0.126262  1
  Sc  Sc15  1  0.835061  0.324930  0.627094  1
  Sc  Sc16  1  0.324573  0.181502  0.873600  1
  Sc  Sc17  1  0.835061  0.324930  0.872906  1
  Sc  Sc18  1  0.165636  0.675088  0.127055  1
  Si  Si19  1  0.026896  0.093739  0.750000  1
  Si  Si20  1  0.971393  0.901557  0.250000  1
  Si  Si21  1  0.467173  0.610980  0.250000  1
  Si  Si22  1  0.534797  0.386793  0.750000  1
  Si  Si23  1  0.289105  0.877966  0.750000  1
  Si  Si24  1  0.712856  0.124205  0.250000  1
  Si  Si25  1  0.220040  0.371462  0.250000  1
  Si  Si26  1  0.777757  0.630920  0.750000  1
  Si  Si27  1  0.162587  0.460332  0.531568  1
  Si  Si28  1  0.838577  0.538345  0.467204  1
  Si  Si29  1  0.341983  0.966989  0.461491  1
  Si  Si30  1  0.838577  0.538345  0.032796  1
  Si  Si31  1  0.658235  0.032469  0.538793  1
  Si  Si32  1  0.162587  0.460332  0.968432  1
  Si  Si33  1  0.658235  0.032469  0.961207  1
  Si  Si34  1  0.341983  0.966989  0.038509  1
  Ag  Ag35  1  0.157338  0.514532  0.750000  1
