# generated using pymatgen
data_Zr6Zn16Cu6NiP
_symmetry_space_group_name_H-M   'P 1'
_cell_length_a   8.63810559
_cell_length_b   8.62519529
_cell_length_c   8.62519527
_cell_angle_alpha   59.92744093
_cell_angle_beta   59.95047066
_cell_angle_gamma   59.95047077
_symmetry_Int_Tables_number   1
_chemical_formula_structural   Zr6Zn16Cu6NiP
_chemical_formula_sum   'Zr6 Zn16 Cu6 Ni1 P1'
_cell_volume   453.81358116
_cell_formula_units_Z   1
loop_
 _symmetry_equiv_pos_site_id
 _symmetry_equiv_pos_as_xyz
  1  'x, y, z'
loop_
 _atom_site_type_symbol
 _atom_site_label
 _atom_site_symmetry_multiplicity
 _atom_site_fract_x
 _atom_site_fract_y
 _atom_site_fract_z
 _atom_site_occupancy
  Zr  Zr0  1  0.708527  0.291473  0.291473  1
  Zr  Zr1  1  0.291473  0.708527  0.708527  1
  Zr  Zr2  1  0.290524  0.705479  0.294521  1
  Zr  Zr3  1  0.709476  0.294521  0.705479  1
  Zr  Zr4  1  0.290524  0.294521  0.705479  1
  Zr  Zr5  1  0.709476  0.705479  0.294521  1
  Zn  Zn6  1  0.121440  0.121060  0.121060  1
  Zn  Zn7  1  0.878560  0.878940  0.878940  1
  Zn  Zn8  1  0.119993  0.124684  0.635330  1
  Zn  Zn9  1  0.119993  0.635330  0.124684  1
  Zn  Zn10  1  0.880007  0.875316  0.364670  1
  Zn  Zn11  1  0.880007  0.364670  0.875316  1
  Zn  Zn12  1  0.636439  0.121060  0.121060  1
  Zn  Zn13  1  0.363561  0.878940  0.878940  1
  Zn  Zn14  1  0.331363  0.335101  0.335101  1
  Zn  Zn15  1  0.668637  0.664899  0.664899  1
  Zn  Zn16  1  0.334593  0.334367  0.996446  1
  Zn  Zn17  1  0.334593  0.996446  0.334367  1
  Zn  Zn18  1  0.665407  0.665633  0.003554  1
  Zn  Zn19  1  0.665407  0.003554  0.665633  1
  Zn  Zn20  1  0.998435  0.335101  0.335101  1
  Zn  Zn21  1  0.001565  0.664899  0.664899  1
  Cu  Cu22  1  0.500000  0.000000  0.000000  1
  Cu  Cu23  1  0.000000  0.500000  0.000000  1
  Cu  Cu24  1  0.500000  0.000000  0.500000  1
  Cu  Cu25  1  0.000000  0.000000  0.500000  1
  Cu  Cu26  1  0.500000  0.500000  0.000000  1
  Cu  Cu27  1  0.000000  0.000000  0.000000  1
  Ni  Ni28  1  0.000000  0.500000  0.500000  1
  P  P29  1  0.500000  0.500000  0.500000  1
