# generated using pymatgen
data_Na10Ca4AlGa(PO4)8
_symmetry_space_group_name_H-M   'P 1'
_cell_length_a   9.00807025
_cell_length_b   9.00807047
_cell_length_c   10.62145000
_cell_angle_alpha   72.24236033
_cell_angle_beta   72.24235989
_cell_angle_gamma   102.99813804
_symmetry_Int_Tables_number   1
_chemical_formula_structural   Na10Ca4AlGa(PO4)8
_chemical_formula_sum   'Na10 Ca4 Al1 Ga1 P8 O32'
_cell_volume   732.10597781
_cell_formula_units_Z   1
loop_
 _symmetry_equiv_pos_site_id
 _symmetry_equiv_pos_as_xyz
  1  'x, y, z'
loop_
 _atom_site_type_symbol
 _atom_site_label
 _atom_site_symmetry_multiplicity
 _atom_site_fract_x
 _atom_site_fract_y
 _atom_site_fract_z
 _atom_site_occupancy
  Na  Na0  1  0.580862  0.320255  0.555338  1
  Na  Na1  1  0.773015  0.745240  0.380973  1
  Na  Na2  1  0.321223  0.579273  0.056698  1
  Na  Na3  1  0.885277  0.242801  0.725047  1
  Na  Na4  1  0.815876  0.074693  0.513549  1
  Na  Na5  1  0.073092  0.815728  0.013726  1
  Na  Na6  1  0.281672  0.269036  0.370135  1
  Na  Na7  1  0.745210  0.772750  0.882066  1
  Na  Na8  1  0.268471  0.281362  0.870854  1
  Na  Na9  1  0.242180  0.887686  0.223898  1
  Ca  Ca10  1  0.014803  0.801076  0.570917  1
  Ca  Ca11  1  0.800640  0.015514  0.071169  1
  Ca  Ca12  1  0.552063  0.331838  0.030549  1
  Ca  Ca13  1  0.332174  0.551734  0.531414  1
  Al  Al14  1  0.926191  0.408296  0.167202  1
  Ga  Ga15  1  0.406893  0.924919  0.668074  1
  P  P16  1  0.472526  0.969119  0.366861  1
  P  P17  1  0.015310  0.503542  0.394920  1
  P  P18  1  0.068051  0.129475  0.215938  1
  P  P19  1  0.555513  0.640032  0.709700  1
  P  P20  1  0.643036  0.554715  0.209875  1
  P  P21  1  0.968128  0.471607  0.868835  1
  P  P22  1  0.126076  0.068520  0.716673  1
  P  P23  1  0.504197  0.015190  0.896570  1
  O  O24  1  0.479450  0.173885  0.909838  1
  O  O25  1  0.190062  0.913609  0.744311  1
  O  O26  1  0.274867  0.230163  0.613788  1
  O  O27  1  0.607026  0.897880  0.312085  1
  O  O28  1  0.175609  0.481444  0.406761  1
  O  O29  1  0.038696  0.534974  0.230958  1
  O  O30  1  0.567603  0.533088  0.367769  1
  O  O31  1  0.045387  0.510204  0.977073  1
  O  O32  1  0.457267  0.097882  0.242388  1
  O  O33  1  0.508993  0.512271  0.151936  1
  O  O34  1  0.660763  0.992944  0.919230  1
  O  O35  1  0.728474  0.777712  0.611493  1
  O  O36  1  0.232811  0.274674  0.113512  1
  O  O37  1  0.727536  0.418531  0.205910  1
  O  O38  1  0.995054  0.025916  0.654772  1
  O  O39  1  0.534677  0.567555  0.867477  1
  O  O40  1  0.023653  0.998184  0.154732  1
  O  O41  1  0.777142  0.729915  0.111948  1
  O  O42  1  0.515750  0.053720  0.469696  1
  O  O43  1  0.300728  0.824034  0.460217  1
  O  O44  1  0.067299  0.044456  0.366362  1
  O  O45  1  0.898782  0.607153  0.812275  1
  O  O46  1  0.821994  0.300124  0.959435  1
  O  O47  1  0.994447  0.662162  0.414556  1
  O  O48  1  0.919383  0.201574  0.238826  1
  O  O49  1  0.412438  0.715760  0.706015  1
  O  O50  1  0.346847  0.860037  0.996031  1
  O  O51  1  0.042341  0.070568  0.866022  1
  O  O52  1  0.860800  0.347145  0.498440  1
  O  O53  1  0.099129  0.456799  0.745574  1
  O  O54  1  0.544495  0.044383  0.729920  1
  O  O55  1  0.516203  0.505038  0.652147  1
