# generated using pymatgen
data_Pr10AgBi6Br
_symmetry_space_group_name_H-M   'P 1'
_cell_length_a   9.74756200
_cell_length_b   9.74756173
_cell_length_c   6.69907800
_cell_angle_alpha   90.00000000
_cell_angle_beta   90.00000000
_cell_angle_gamma   120.00000093
_symmetry_Int_Tables_number   1
_chemical_formula_structural   Pr10AgBi6Br
_chemical_formula_sum   'Pr10 Ag1 Bi6 Br1'
_cell_volume   551.23611384
_cell_formula_units_Z   1
loop_
 _symmetry_equiv_pos_site_id
 _symmetry_equiv_pos_as_xyz
  1  'x, y, z'
loop_
 _atom_site_type_symbol
 _atom_site_label
 _atom_site_symmetry_multiplicity
 _atom_site_fract_x
 _atom_site_fract_y
 _atom_site_fract_z
 _atom_site_occupancy
  Pr  Pr0  1  0.271690  0.000000  0.749550  1
  Pr  Pr1  1  0.728310  0.000000  0.250450  1
  Pr  Pr2  1  0.000000  0.271690  0.749550  1
  Pr  Pr3  1  0.000000  0.728310  0.250450  1
  Pr  Pr4  1  0.728310  0.728310  0.749550  1
  Pr  Pr5  1  0.271690  0.271690  0.250450  1
  Pr  Pr6  1  0.333333  0.666667  0.500000  1
  Pr  Pr7  1  0.666667  0.333333  0.500000  1
  Pr  Pr8  1  0.666667  0.333333  0.000000  1
  Pr  Pr9  1  0.333333  0.666667  0.000000  1
  Ag  Ag10  1  0.000000  0.000000  0.500000  1
  Bi  Bi11  1  0.617921  0.000000  0.748462  1
  Bi  Bi12  1  0.382079  0.000000  0.251538  1
  Bi  Bi13  1  0.000000  0.617921  0.748462  1
  Bi  Bi14  1  0.000000  0.382079  0.251538  1
  Bi  Bi15  1  0.382079  0.382079  0.748462  1
  Bi  Bi16  1  0.617921  0.617921  0.251538  1
  Br  Br17  1  0.000000  0.000000  0.000000  1
