# generated using pymatgen
data_Zr2(AlGa)3
_symmetry_space_group_name_H-M   'P 1'
_cell_length_a   9.21312297
_cell_length_b   9.21312329
_cell_length_c   9.21312292
_cell_angle_alpha   154.97671158
_cell_angle_beta   155.05547850
_cell_angle_gamma   35.62442328
_symmetry_Int_Tables_number   1
_chemical_formula_structural   Zr2(AlGa)3
_chemical_formula_sum   'Zr2 Al3 Ga3'
_cell_volume   139.33774358
_cell_formula_units_Z   1
loop_
 _symmetry_equiv_pos_site_id
 _symmetry_equiv_pos_as_xyz
  1  'x, y, z'
loop_
 _atom_site_type_symbol
 _atom_site_label
 _atom_site_symmetry_multiplicity
 _atom_site_fract_x
 _atom_site_fract_y
 _atom_site_fract_z
 _atom_site_occupancy
  Zr  Zr0  1  0.881071  0.881071  0.000000  1
  Zr  Zr1  1  0.118929  0.118929  0.000000  1
  Al  Al2  1  0.000000  0.500000  0.500000  1
  Al  Al3  1  0.750060  0.250060  0.500000  1
  Al  Al4  1  0.249940  0.749940  0.500000  1
  Ga  Ga5  1  0.500000  0.000000  0.500000  1
  Ga  Ga6  1  0.624993  0.624993  0.000000  1
  Ga  Ga7  1  0.375007  0.375007  0.000000  1
