# generated using pymatgen
data_Tb3Dy(HoAl)4
_symmetry_space_group_name_H-M   'P 1'
_cell_length_a   5.10054700
_cell_length_b   6.55839702
_cell_length_c   9.43258500
_cell_angle_alpha   89.95506947
_cell_angle_beta   90.00000000
_cell_angle_gamma   90.00000000
_symmetry_Int_Tables_number   1
_chemical_formula_structural   Tb3Dy(HoAl)4
_chemical_formula_sum   'Tb3 Dy1 Ho4 Al4'
_cell_volume   315.53319219
_cell_formula_units_Z   1
loop_
 _symmetry_equiv_pos_site_id
 _symmetry_equiv_pos_as_xyz
  1  'x, y, z'
loop_
 _atom_site_type_symbol
 _atom_site_label
 _atom_site_symmetry_multiplicity
 _atom_site_fract_x
 _atom_site_fract_y
 _atom_site_fract_z
 _atom_site_occupancy
  Tb  Tb0  1  0.750000  0.688135  0.427045  1
  Tb  Tb1  1  0.250000  0.311924  0.572820  1
  Tb  Tb2  1  0.750000  0.187415  0.072878  1
  Dy  Dy3  1  0.250000  0.812098  0.927239  1
  Ho  Ho4  1  0.750000  0.528280  0.790068  1
  Ho  Ho5  1  0.250000  0.472724  0.209954  1
  Ho  Ho6  1  0.750000  0.027297  0.710293  1
  Ho  Ho7  1  0.250000  0.972266  0.289709  1
  Al  Al8  1  0.750000  0.208150  0.397383  1
  Al  Al9  1  0.250000  0.791804  0.603132  1
  Al  Al10  1  0.750000  0.708390  0.101990  1
  Al  Al11  1  0.250000  0.291519  0.897489  1
