# generated using pymatgen
data_Sm8Sc12Si15Rh
_symmetry_space_group_name_H-M   'P 1'
_cell_length_a   7.16290261
_cell_length_b   7.51791229
_cell_length_c   14.08226400
_cell_angle_alpha   90.00000000
_cell_angle_beta   90.00000000
_cell_angle_gamma   90.18392727
_symmetry_Int_Tables_number   1
_chemical_formula_structural   Sm8Sc12Si15Rh
_chemical_formula_sum   'Sm8 Sc12 Si15 Rh1'
_cell_volume   758.32704504
_cell_formula_units_Z   1
loop_
 _symmetry_equiv_pos_site_id
 _symmetry_equiv_pos_as_xyz
  1  'x, y, z'
loop_
 _atom_site_type_symbol
 _atom_site_label
 _atom_site_symmetry_multiplicity
 _atom_site_fract_x
 _atom_site_fract_y
 _atom_site_fract_z
 _atom_site_occupancy
  Sm  Sm0  1  0.011564  0.177034  0.096659  1
  Sm  Sm1  1  0.990844  0.825539  0.903838  1
  Sm  Sm2  1  0.488722  0.675361  0.903434  1
  Sm  Sm3  1  0.990844  0.825539  0.596162  1
  Sm  Sm4  1  0.511214  0.324480  0.096490  1
  Sm  Sm5  1  0.011564  0.177034  0.403341  1
  Sm  Sm6  1  0.511214  0.324480  0.403510  1
  Sm  Sm7  1  0.488722  0.675361  0.596566  1
  Sc  Sc8  1  0.158668  0.500824  0.750000  1
  Sc  Sc9  1  0.838838  0.498196  0.250000  1
  Sc  Sc10  1  0.339126  0.002732  0.250000  1
  Sc  Sc11  1  0.667844  0.001104  0.750000  1
  Sc  Sc12  1  0.319727  0.172354  0.627197  1
  Sc  Sc13  1  0.671547  0.826157  0.373960  1
  Sc  Sc14  1  0.171434  0.676573  0.374036  1
  Sc  Sc15  1  0.671547  0.826157  0.126040  1
  Sc  Sc16  1  0.833774  0.321909  0.627073  1
  Sc  Sc17  1  0.319727  0.172354  0.872803  1
  Sc  Sc18  1  0.833774  0.321909  0.872927  1
  Sc  Sc19  1  0.171434  0.676573  0.125964  1
  Si  Si20  1  0.968428  0.879500  0.250000  1
  Si  Si21  1  0.468380  0.618922  0.250000  1
  Si  Si22  1  0.530611  0.383635  0.750000  1
  Si  Si23  1  0.288313  0.873617  0.750000  1
  Si  Si24  1  0.711883  0.124562  0.250000  1
  Si  Si25  1  0.212304  0.376089  0.250000  1
  Si  Si26  1  0.782072  0.622300  0.750000  1
  Si  Si27  1  0.156094  0.466571  0.538134  1
  Si  Si28  1  0.846181  0.536582  0.461340  1
  Si  Si29  1  0.347331  0.964381  0.460550  1
  Si  Si30  1  0.846181  0.536582  0.038660  1
  Si  Si31  1  0.654450  0.035552  0.539112  1
  Si  Si32  1  0.156094  0.466571  0.961866  1
  Si  Si33  1  0.654450  0.035552  0.960888  1
  Si  Si34  1  0.347331  0.964381  0.039450  1
  Rh  Rh35  1  0.027776  0.113533  0.750000  1
