# generated using pymatgen
data_TmLu5H18
_symmetry_space_group_name_H-M   'P 1'
_cell_length_a   6.13948100
_cell_length_b   6.13775098
_cell_length_c   6.40846307
_cell_angle_alpha   90.01415197
_cell_angle_beta   90.00000000
_cell_angle_gamma   120.00931908
_symmetry_Int_Tables_number   1
_chemical_formula_structural   TmLu5H18
_chemical_formula_sum   'Tm1 Lu5 H18'
_cell_volume   209.11473391
_cell_formula_units_Z   1
loop_
 _symmetry_equiv_pos_site_id
 _symmetry_equiv_pos_as_xyz
  1  'x, y, z'
loop_
 _atom_site_type_symbol
 _atom_site_label
 _atom_site_symmetry_multiplicity
 _atom_site_fract_x
 _atom_site_fract_y
 _atom_site_fract_z
 _atom_site_occupancy
  Tm  Tm0  1  0.662836  0.000000  0.750000  1
  Lu  Lu1  1  0.337727  0.337625  0.750008  1
  Lu  Lu2  1  0.000102  0.662375  0.749992  1
  Lu  Lu3  1  0.662196  0.661977  0.249898  1
  Lu  Lu4  1  0.000220  0.338023  0.250102  1
  Lu  Lu5  1  0.337484  0.000000  0.250000  1
  H  H6  1  0.319901  0.968508  0.910035  1
  H  H7  1  0.647848  0.677788  0.910523  1
  H  H8  1  0.031346  0.352120  0.909474  1
  H  H9  1  0.321112  0.352603  0.409515  1
  H  H10  1  0.031429  0.679019  0.409513  1
  H  H11  1  0.646915  0.967898  0.407612  1
  H  H12  1  0.679018  0.032102  0.092388  1
  H  H13  1  0.352411  0.320981  0.090487  1
  H  H14  1  0.968510  0.647397  0.090485  1
  H  H15  1  0.679227  0.647880  0.590526  1
  H  H16  1  0.970061  0.322212  0.589477  1
  H  H17  1  0.351394  0.031492  0.589965  1
  H  H18  1  0.002669  0.000000  0.750000  1
  H  H19  1  0.999757  0.000000  0.250000  1
  H  H20  1  0.666668  0.335614  0.815351  1
  H  H21  1  0.666639  0.333159  0.314850  1
  H  H22  1  0.333478  0.666841  0.185150  1
  H  H23  1  0.331053  0.664386  0.684649  1
