# generated using pymatgen
data_Dy2Y3IrPb3
_symmetry_space_group_name_H-M   'P 1'
_cell_length_a   9.23034083
_cell_length_b   9.23034062
_cell_length_c   6.87816000
_cell_angle_alpha   90.00000000
_cell_angle_beta   90.00000000
_cell_angle_gamma   120.04868711
_symmetry_Int_Tables_number   1
_chemical_formula_structural   Dy2Y3IrPb3
_chemical_formula_sum   'Dy4 Y6 Ir2 Pb6'
_cell_volume   507.25355094
_cell_formula_units_Z   2
loop_
 _symmetry_equiv_pos_site_id
 _symmetry_equiv_pos_as_xyz
  1  'x, y, z'
loop_
 _atom_site_type_symbol
 _atom_site_label
 _atom_site_symmetry_multiplicity
 _atom_site_fract_x
 _atom_site_fract_y
 _atom_site_fract_z
 _atom_site_occupancy
  Dy  Dy0  1  0.999931  0.235437  0.250000  1
  Dy  Dy1  1  0.764563  0.000069  0.750000  1
  Dy  Dy2  1  0.235224  0.235348  0.750000  1
  Dy  Dy3  1  0.764652  0.764776  0.250000  1
  Y  Y4  1  0.236639  0.000048  0.250000  1
  Y  Y5  1  0.999952  0.763361  0.750000  1
  Y  Y6  1  0.333335  0.666665  0.500000  1
  Y  Y7  1  0.666667  0.333333  0.500000  1
  Y  Y8  1  0.333335  0.666665  0.000000  1
  Y  Y9  1  0.666667  0.333333  0.000000  1
  Ir  Ir10  1  0.999484  0.000516  0.000000  1
  Ir  Ir11  1  0.999484  0.000516  0.500000  1
  Pb  Pb12  1  0.594033  0.999958  0.250000  1
  Pb  Pb13  1  0.406035  0.000044  0.750000  1
  Pb  Pb14  1  0.999956  0.593965  0.250000  1
  Pb  Pb15  1  0.593883  0.593881  0.750000  1
  Pb  Pb16  1  0.406119  0.406117  0.250000  1
  Pb  Pb17  1  0.000042  0.405967  0.750000  1
