# generated using pymatgen
data_Ba6SrNd(Tc2O9)2
_symmetry_space_group_name_H-M   'P 1'
_cell_length_a   6.04812717
_cell_length_b   6.05105166
_cell_length_c   15.04344925
_cell_angle_alpha   90.02481157
_cell_angle_beta   90.32688135
_cell_angle_gamma   120.07751582
_symmetry_Int_Tables_number   1
_chemical_formula_structural   Ba6SrNd(Tc2O9)2
_chemical_formula_sum   'Ba6 Sr1 Nd1 Tc4 O18'
_cell_volume   476.40889597
_cell_formula_units_Z   1
loop_
 _symmetry_equiv_pos_site_id
 _symmetry_equiv_pos_as_xyz
  1  'x, y, z'
loop_
 _atom_site_type_symbol
 _atom_site_label
 _atom_site_symmetry_multiplicity
 _atom_site_fract_x
 _atom_site_fract_y
 _atom_site_fract_z
 _atom_site_occupancy
  Ba  Ba0  1  0.333712  0.666199  0.396498  1
  Ba  Ba1  1  0.666288  0.333801  0.603502  1
  Ba  Ba2  1  0.663766  0.332761  0.886219  1
  Ba  Ba3  1  0.003186  0.001731  0.251345  1
  Ba  Ba4  1  0.996814  0.998269  0.748655  1
  Ba  Ba5  1  0.336234  0.667239  0.113781  1
  Sr  Sr6  1  0.000000  0.000000  0.000000  1
  Nd  Nd7  1  0.000000  0.000000  0.500000  1
  Tc  Tc8  1  0.322974  0.660687  0.830951  1
  Tc  Tc9  1  0.662581  0.329816  0.336131  1
  Tc  Tc10  1  0.337419  0.670184  0.663869  1
  Tc  Tc11  1  0.677026  0.339313  0.169049  1
  O  O12  1  0.177282  0.364367  0.589318  1
  O  O13  1  0.827263  0.176930  0.104255  1
  O  O14  1  0.201721  0.842897  0.591131  1
  O  O15  1  0.822718  0.635633  0.410682  1
  O  O16  1  0.619542  0.792480  0.904849  1
  O  O17  1  0.477664  0.494808  0.747584  1
  O  O18  1  0.857179  0.654313  0.105941  1
  O  O19  1  0.380458  0.207520  0.095151  1
  O  O20  1  0.142821  0.345687  0.894059  1
  O  O21  1  0.655125  0.818189  0.596448  1
  O  O22  1  0.172737  0.823070  0.895745  1
  O  O23  1  0.013475  0.521104  0.741937  1
  O  O24  1  0.522336  0.505192  0.252416  1
  O  O25  1  0.986525  0.478896  0.258063  1
  O  O26  1  0.798279  0.157103  0.408869  1
  O  O27  1  0.344875  0.181811  0.403552  1
  O  O28  1  0.496047  0.016657  0.250913  1
  O  O29  1  0.503953  0.983343  0.749087  1
