# generated using pymatgen
data_V17Fe(Si6Os)2
_symmetry_space_group_name_H-M   'P 1'
_cell_length_a   7.01500912
_cell_length_b   7.01500906
_cell_length_c   13.18750400
_cell_angle_alpha   90.00000000
_cell_angle_beta   90.00000000
_cell_angle_gamma   139.98013562
_symmetry_Int_Tables_number   1
_chemical_formula_structural   V17Fe(Si6Os)2
_chemical_formula_sum   'V17 Fe1 Si12 Os2'
_cell_volume   417.31688355
_cell_formula_units_Z   1
loop_
 _symmetry_equiv_pos_site_id
 _symmetry_equiv_pos_as_xyz
  1  'x, y, z'
loop_
 _atom_site_type_symbol
 _atom_site_label
 _atom_site_symmetry_multiplicity
 _atom_site_fract_x
 _atom_site_fract_y
 _atom_site_fract_z
 _atom_site_occupancy
  V  V0  1  0.069596  0.420619  0.399366  1
  V  V1  1  0.575284  0.929878  0.901632  1
  V  V2  1  0.420619  0.069596  0.600634  1
  V  V3  1  0.929878  0.575284  0.098368  1
  V  V4  1  0.850541  0.651766  0.676914  1
  V  V5  1  0.351151  0.152054  0.175874  1
  V  V6  1  0.651766  0.850541  0.323086  1
  V  V7  1  0.152054  0.351151  0.824126  1
  V  V8  1  0.651766  0.850541  0.676914  1
  V  V9  1  0.152054  0.351151  0.175874  1
  V  V10  1  0.850541  0.651766  0.323086  1
  V  V11  1  0.351151  0.152054  0.824126  1
  V  V12  1  0.420619  0.069596  0.399366  1
  V  V13  1  0.929878  0.575284  0.901632  1
  V  V14  1  0.069596  0.420619  0.600634  1
  V  V15  1  0.575284  0.929878  0.098368  1
  V  V16  1  0.997671  0.997671  0.500000  1
  Fe  Fe17  1  0.001442  0.001442  0.000000  1
  Si  Si18  1  0.250883  0.749400  0.750938  1
  Si  Si19  1  0.749400  0.250883  0.249062  1
  Si  Si20  1  0.749400  0.250883  0.750938  1
  Si  Si21  1  0.250883  0.749400  0.249062  1
  Si  Si22  1  0.242966  0.242966  0.667311  1
  Si  Si23  1  0.763910  0.763910  0.162984  1
  Si  Si24  1  0.242966  0.242966  0.332689  1
  Si  Si25  1  0.763910  0.763910  0.837016  1
  Si  Si26  1  0.583726  0.918261  0.500000  1
  Si  Si27  1  0.078918  0.404112  0.000000  1
  Si  Si28  1  0.918261  0.583726  0.500000  1
  Si  Si29  1  0.404112  0.078918  0.000000  1
  Os  Os30  1  0.502066  0.502066  0.000000  1
  Os  Os31  1  0.497704  0.497704  0.500000  1
