# generated using pymatgen
data_YbU(FeB4)2
_symmetry_space_group_name_H-M   'P 1'
_cell_length_a   3.34720200
_cell_length_b   5.86942219
_cell_length_c   11.35686036
_cell_angle_alpha   90.02892060
_cell_angle_beta   90.00000000
_cell_angle_gamma   90.00000000
_symmetry_Int_Tables_number   1
_chemical_formula_structural   YbU(FeB4)2
_chemical_formula_sum   'Yb2 U2 Fe4 B16'
_cell_volume   223.11845932
_cell_formula_units_Z   2
loop_
 _symmetry_equiv_pos_site_id
 _symmetry_equiv_pos_as_xyz
  1  'x, y, z'
loop_
 _atom_site_type_symbol
 _atom_site_label
 _atom_site_symmetry_multiplicity
 _atom_site_fract_x
 _atom_site_fract_y
 _atom_site_fract_z
 _atom_site_occupancy
  Yb  Yb0  1  0.000000  0.625528  0.851784  1
  Yb  Yb1  1  0.000000  0.374472  0.148216  1
  U  U2  1  0.000000  0.126535  0.652311  1
  U  U3  1  0.000000  0.873465  0.347689  1
  Fe  Fe4  1  0.000000  0.130540  0.909327  1
  Fe  Fe5  1  0.000000  0.869460  0.090673  1
  Fe  Fe6  1  0.000000  0.634897  0.588628  1
  Fe  Fe7  1  0.000000  0.365103  0.411372  1
  B  B8  1  0.500000  0.360533  0.967992  1
  B  B9  1  0.500000  0.639467  0.032008  1
  B  B10  1  0.500000  0.864523  0.534024  1
  B  B11  1  0.500000  0.135477  0.465976  1
  B  B12  1  0.500000  0.475935  0.690259  1
  B  B13  1  0.500000  0.524065  0.309741  1
  B  B14  1  0.500000  0.975507  0.810620  1
  B  B15  1  0.500000  0.024493  0.189380  1
  B  B16  1  0.500000  0.281579  0.816563  1
  B  B17  1  0.500000  0.718421  0.183437  1
  B  B18  1  0.500000  0.782568  0.684734  1
  B  B19  1  0.500000  0.217432  0.315266  1
  B  B20  1  0.500000  0.387153  0.546333  1
  B  B21  1  0.500000  0.612847  0.453667  1
  B  B22  1  0.500000  0.886951  0.955062  1
  B  B23  1  0.500000  0.113049  0.044938  1
