# generated using pymatgen
data_La3(PdAu2)2
_symmetry_space_group_name_H-M   'P 1'
_cell_length_a   7.80883000
_cell_length_b   7.80882937
_cell_length_c   3.99818500
_cell_angle_alpha   90.00000000
_cell_angle_beta   90.00000000
_cell_angle_gamma   119.99999421
_symmetry_Int_Tables_number   1
_chemical_formula_structural   La3(PdAu2)2
_chemical_formula_sum   'La3 Pd2 Au4'
_cell_volume   211.13753347
_cell_formula_units_Z   1
loop_
 _symmetry_equiv_pos_site_id
 _symmetry_equiv_pos_as_xyz
  1  'x, y, z'
loop_
 _atom_site_type_symbol
 _atom_site_label
 _atom_site_symmetry_multiplicity
 _atom_site_fract_x
 _atom_site_fract_y
 _atom_site_fract_z
 _atom_site_occupancy
  La  La0  1  0.379013  0.388749  0.500000  1
  La  La1  1  0.611251  0.990264  0.500000  1
  La  La2  1  0.009736  0.620987  0.500000  1
  Pd  Pd3  1  0.333333  0.666667  0.000000  1
  Pd  Pd4  1  0.000000  0.000000  0.500000  1
  Au  Au5  1  0.734068  0.737665  0.000000  1
  Au  Au6  1  0.262335  0.996403  0.000000  1
  Au  Au7  1  0.003597  0.265932  0.000000  1
  Au  Au8  1  0.666667  0.333333  0.000000  1
