# generated using pymatgen
data_Tb3Er7(RuPb3)2
_symmetry_space_group_name_H-M   'P 1'
_cell_length_a   9.28668200
_cell_length_b   9.28668241
_cell_length_c   6.55970800
_cell_angle_alpha   90.00000000
_cell_angle_beta   90.00000000
_cell_angle_gamma   119.99999855
_symmetry_Int_Tables_number   1
_chemical_formula_structural   Tb3Er7(RuPb3)2
_chemical_formula_sum   'Tb3 Er7 Ru2 Pb6'
_cell_volume   489.93257212
_cell_formula_units_Z   1
loop_
 _symmetry_equiv_pos_site_id
 _symmetry_equiv_pos_as_xyz
  1  'x, y, z'
loop_
 _atom_site_type_symbol
 _atom_site_label
 _atom_site_symmetry_multiplicity
 _atom_site_fract_x
 _atom_site_fract_y
 _atom_site_fract_z
 _atom_site_occupancy
  Tb  Tb0  1  0.333333  0.666667  0.500000  1
  Tb  Tb1  1  0.666667  0.333333  0.500000  1
  Tb  Tb2  1  0.333333  0.666667  0.000000  1
  Er  Er3  1  0.999888  0.764550  0.750026  1
  Er  Er4  1  0.235450  0.000112  0.249974  1
  Er  Er5  1  0.764663  0.000112  0.750026  1
  Er  Er6  1  0.999888  0.235337  0.249974  1
  Er  Er7  1  0.764663  0.764550  0.249974  1
  Er  Er8  1  0.235450  0.235337  0.750026  1
  Er  Er9  1  0.666667  0.333333  0.000000  1
  Ru  Ru10  1  0.000000  0.000000  0.000000  1
  Ru  Ru11  1  0.000000  0.000000  0.500000  1
  Pb  Pb12  1  0.402526  0.401777  0.249425  1
  Pb  Pb13  1  0.999251  0.401777  0.750575  1
  Pb  Pb14  1  0.999251  0.597474  0.249425  1
  Pb  Pb15  1  0.598223  0.000749  0.249425  1
  Pb  Pb16  1  0.402526  0.000749  0.750575  1
  Pb  Pb17  1  0.598223  0.597474  0.750575  1
