# generated using pymatgen
data_La4TbSmOsI10
_symmetry_space_group_name_H-M   'P 1'
_cell_length_a   8.11625002
_cell_length_b   10.07741354
_cell_length_c   10.06664650
_cell_angle_alpha   106.62903635
_cell_angle_beta   97.04506867
_cell_angle_gamma   106.00303263
_symmetry_Int_Tables_number   1
_chemical_formula_structural   La4TbSmOsI10
_chemical_formula_sum   'La4 Tb1 Sm1 Os1 I10'
_cell_volume   739.97248387
_cell_formula_units_Z   1
loop_
 _symmetry_equiv_pos_site_id
 _symmetry_equiv_pos_as_xyz
  1  'x, y, z'
loop_
 _atom_site_type_symbol
 _atom_site_label
 _atom_site_symmetry_multiplicity
 _atom_site_fract_x
 _atom_site_fract_y
 _atom_site_fract_z
 _atom_site_occupancy
  La  La0  1  0.860399  0.135220  0.677730  1
  La  La1  1  0.139775  0.863740  0.322265  1
  La  La2  1  0.384844  0.953774  0.724939  1
  La  La3  1  0.615198  0.045048  0.274614  1
  Tb  Tb4  1  0.531195  0.711890  0.415353  1
  Sm  Sm5  1  0.467274  0.290441  0.584795  1
  Os  Os6  1  0.499883  0.999217  0.499544  1
  I  I7  1  0.419352  0.625033  0.670254  1
  I  I8  1  0.581783  0.377168  0.327284  1
  I  I9  1  0.297954  0.264141  0.844075  1
  I  I10  1  0.700277  0.734746  0.158426  1
  I  I11  1  0.842980  0.458830  0.771152  1
  I  I12  1  0.160852  0.541669  0.230376  1
  I  I13  1  0.050572  0.184360  0.411764  1
  I  I14  1  0.243249  0.914503  0.038988  1
  I  I15  1  0.756707  0.085399  0.961118  1
  I  I16  1  0.947704  0.814821  0.587322  1
