# generated using pymatgen
data_NaZn(GaCl4)3
_symmetry_space_group_name_H-M   'P 1'
_cell_length_a   12.21289500
_cell_length_b   12.69074895
_cell_length_c   13.82127700
_cell_angle_alpha   73.16265451
_cell_angle_beta   90.00000000
_cell_angle_gamma   90.00000000
_symmetry_Int_Tables_number   1
_chemical_formula_structural   NaZn(GaCl4)3
_chemical_formula_sum   'Na4 Zn4 Ga12 Cl48'
_cell_volume   2050.33764554
_cell_formula_units_Z   4
loop_
 _symmetry_equiv_pos_site_id
 _symmetry_equiv_pos_as_xyz
  1  'x, y, z'
loop_
 _atom_site_type_symbol
 _atom_site_label
 _atom_site_symmetry_multiplicity
 _atom_site_fract_x
 _atom_site_fract_y
 _atom_site_fract_z
 _atom_site_occupancy
  Na  Na0  1  0.207466  0.516721  0.709713  1
  Na  Na1  1  0.792534  0.483279  0.290287  1
  Na  Na2  1  0.292534  0.016721  0.709713  1
  Na  Na3  1  0.707466  0.983279  0.290287  1
  Zn  Zn4  1  0.739113  0.259201  0.786144  1
  Zn  Zn5  1  0.239113  0.240799  0.213856  1
  Zn  Zn6  1  0.260887  0.740799  0.213856  1
  Zn  Zn7  1  0.760887  0.759201  0.786144  1
  Ga  Ga8  1  0.982464  0.175779  0.279357  1
  Ga  Ga9  1  0.753376  0.610264  0.022640  1
  Ga  Ga10  1  0.076768  0.672688  0.392708  1
  Ga  Ga11  1  0.482464  0.324221  0.720643  1
  Ga  Ga12  1  0.746624  0.110264  0.022640  1
  Ga  Ga13  1  0.423232  0.172688  0.392708  1
  Ga  Ga14  1  0.576768  0.827312  0.607292  1
  Ga  Ga15  1  0.923232  0.327312  0.607292  1
  Ga  Ga16  1  0.517536  0.675779  0.279357  1
  Ga  Ga17  1  0.253376  0.889736  0.977360  1
  Ga  Ga18  1  0.017536  0.824221  0.720643  1
  Ga  Ga19  1  0.246624  0.389736  0.977360  1
  Cl  Cl20  1  0.112340  0.246624  0.356061  1
  Cl  Cl21  1  0.611512  0.665396  0.722489  1
  Cl  Cl22  1  0.340280  0.238563  0.059987  1
  Cl  Cl23  1  0.833365  0.575818  0.889435  1
  Cl  Cl24  1  0.887660  0.753376  0.643939  1
  Cl  Cl25  1  0.904174  0.631352  0.401999  1
  Cl  Cl26  1  0.612340  0.253376  0.643939  1
  Cl  Cl27  1  0.089346  0.138091  0.161366  1
  Cl  Cl28  1  0.145107  0.018967  0.892978  1
  Cl  Cl29  1  0.404174  0.868648  0.598001  1
  Cl  Cl30  1  0.388488  0.334604  0.277511  1
  Cl  Cl31  1  0.888488  0.165396  0.722489  1
  Cl  Cl32  1  0.387660  0.746624  0.356061  1
  Cl  Cl33  1  0.910654  0.861909  0.838634  1
  Cl  Cl34  1  0.850365  0.316015  0.466420  1
  Cl  Cl35  1  0.354893  0.518967  0.892978  1
  Cl  Cl36  1  0.137878  0.700070  0.793152  1
  Cl  Cl37  1  0.324869  0.066117  0.321518  1
  Cl  Cl38  1  0.350365  0.183985  0.533580  1
  Cl  Cl39  1  0.675131  0.933883  0.678482  1
  Cl  Cl40  1  0.175131  0.566117  0.321518  1
  Cl  Cl41  1  0.666635  0.075818  0.889435  1
  Cl  Cl42  1  0.122422  0.356811  0.876319  1
  Cl  Cl43  1  0.091060  0.973880  0.623040  1
  Cl  Cl44  1  0.166635  0.424182  0.110565  1
  Cl  Cl45  1  0.149635  0.683985  0.533580  1
  Cl  Cl46  1  0.159720  0.738563  0.059987  1
  Cl  Cl47  1  0.908940  0.026120  0.376960  1
  Cl  Cl48  1  0.362122  0.200070  0.793152  1
  Cl  Cl49  1  0.622422  0.143189  0.123681  1
  Cl  Cl50  1  0.591060  0.526120  0.376960  1
  Cl  Cl51  1  0.862122  0.299930  0.206848  1
  Cl  Cl52  1  0.854893  0.981033  0.107022  1
  Cl  Cl53  1  0.877578  0.643189  0.123681  1
  Cl  Cl54  1  0.410654  0.638091  0.161366  1
  Cl  Cl55  1  0.377578  0.856811  0.876319  1
  Cl  Cl56  1  0.333365  0.924182  0.110565  1
  Cl  Cl57  1  0.645107  0.481033  0.107022  1
  Cl  Cl58  1  0.824869  0.433883  0.678482  1
  Cl  Cl59  1  0.840280  0.261437  0.940013  1
  Cl  Cl60  1  0.649635  0.816015  0.466420  1
  Cl  Cl61  1  0.595826  0.131352  0.401999  1
  Cl  Cl62  1  0.589346  0.361909  0.838634  1
  Cl  Cl63  1  0.408940  0.473880  0.623040  1
  Cl  Cl64  1  0.659720  0.761437  0.940013  1
  Cl  Cl65  1  0.637878  0.799930  0.206848  1
  Cl  Cl66  1  0.111512  0.834604  0.277511  1
  Cl  Cl67  1  0.095826  0.368648  0.598001  1
