# generated using pymatgen
data_Zr5BeSn2Sb
_symmetry_space_group_name_H-M   'P 1'
_cell_length_a   8.63984117
_cell_length_b   8.63983947
_cell_length_c   5.79998400
_cell_angle_alpha   90.00000000
_cell_angle_beta   90.00000000
_cell_angle_gamma   120.02105995
_symmetry_Int_Tables_number   1
_chemical_formula_structural   Zr5BeSn2Sb
_chemical_formula_sum   'Zr10 Be2 Sn4 Sb2'
_cell_volume   374.86652159
_cell_formula_units_Z   2
loop_
 _symmetry_equiv_pos_site_id
 _symmetry_equiv_pos_as_xyz
  1  'x, y, z'
loop_
 _atom_site_type_symbol
 _atom_site_label
 _atom_site_symmetry_multiplicity
 _atom_site_fract_x
 _atom_site_fract_y
 _atom_site_fract_z
 _atom_site_occupancy
  Zr  Zr0  1  0.666950  0.332352  0.999434  1
  Zr  Zr1  1  0.332352  0.666950  0.999434  1
  Zr  Zr2  1  0.332352  0.666950  0.500566  1
  Zr  Zr3  1  0.666950  0.332352  0.500566  1
  Zr  Zr4  1  0.746266  0.746266  0.750000  1
  Zr  Zr5  1  0.254883  0.000190  0.750000  1
  Zr  Zr6  1  0.000190  0.254883  0.750000  1
  Zr  Zr7  1  0.251918  0.251918  0.250000  1
  Zr  Zr8  1  0.747169  0.000686  0.250000  1
  Zr  Zr9  1  0.000686  0.747169  0.250000  1
  Be  Be10  1  0.999109  0.999109  0.997269  1
  Be  Be11  1  0.999109  0.999109  0.502731  1
  Sn  Sn12  1  0.389476  0.389476  0.750000  1
  Sn  Sn13  1  0.612454  0.999353  0.750000  1
  Sn  Sn14  1  0.999353  0.612454  0.750000  1
  Sn  Sn15  1  0.610905  0.610905  0.250000  1
  Sb  Sb16  1  0.389689  0.000190  0.250000  1
  Sb  Sb17  1  0.000190  0.389689  0.250000  1
