# generated using pymatgen
data_Rb3Li3(NbS4)2
_symmetry_space_group_name_H-M   'P 1'
_cell_length_a   12.92833484
_cell_length_b   12.92833506
_cell_length_c   14.61616146
_cell_angle_alpha   61.64423747
_cell_angle_beta   61.64423585
_cell_angle_gamma   27.10400837
_symmetry_Int_Tables_number   1
_chemical_formula_structural   Rb3Li3(NbS4)2
_chemical_formula_sum   'Rb6 Li6 Nb4 S16'
_cell_volume   971.16532086
_cell_formula_units_Z   2
loop_
 _symmetry_equiv_pos_site_id
 _symmetry_equiv_pos_as_xyz
  1  'x, y, z'
loop_
 _atom_site_type_symbol
 _atom_site_label
 _atom_site_symmetry_multiplicity
 _atom_site_fract_x
 _atom_site_fract_y
 _atom_site_fract_z
 _atom_site_occupancy
  Rb  Rb0  1  0.633504  0.754897  0.398936  1
  Rb  Rb1  1  0.366496  0.245103  0.601064  1
  Rb  Rb2  1  0.754897  0.633504  0.898936  1
  Rb  Rb3  1  0.000000  0.000000  0.500000  1
  Rb  Rb4  1  0.245103  0.366496  0.101064  1
  Rb  Rb5  1  0.000000  0.000000  0.000000  1
  Li  Li6  1  0.294382  0.705618  0.750000  1
  Li  Li7  1  0.705618  0.294382  0.250000  1
  Li  Li8  1  0.659724  0.089737  0.786270  1
  Li  Li9  1  0.910263  0.340276  0.713730  1
  Li  Li10  1  0.340276  0.910263  0.213730  1
  Li  Li11  1  0.089737  0.659724  0.286270  1
  Nb  Nb12  1  0.157342  0.585931  0.778769  1
  Nb  Nb13  1  0.842658  0.414069  0.221231  1
  Nb  Nb14  1  0.585931  0.157342  0.278769  1
  Nb  Nb15  1  0.414069  0.842658  0.721231  1
  S  S16  1  0.543169  0.554937  0.335354  1
  S  S17  1  0.113505  0.198249  0.310616  1
  S  S18  1  0.278130  0.307917  0.381543  1
  S  S19  1  0.985214  0.825761  0.872218  1
  S  S20  1  0.014786  0.174239  0.127782  1
  S  S21  1  0.445063  0.456831  0.164646  1
  S  S22  1  0.825761  0.985214  0.372218  1
  S  S23  1  0.456831  0.445063  0.664646  1
  S  S24  1  0.174239  0.014786  0.627782  1
  S  S25  1  0.307917  0.278130  0.881543  1
  S  S26  1  0.692083  0.721870  0.118457  1
  S  S27  1  0.721870  0.692083  0.618457  1
  S  S28  1  0.801751  0.886495  0.189384  1
  S  S29  1  0.886495  0.801751  0.689384  1
  S  S30  1  0.554937  0.543169  0.835354  1
  S  S31  1  0.198249  0.113505  0.810616  1
