# generated using pymatgen
data_Tm3Bi5O14
_symmetry_space_group_name_H-M   'P 1'
_cell_length_a   6.59473945
_cell_length_b   6.70232176
_cell_length_c   7.74710785
_cell_angle_alpha   106.68723678
_cell_angle_beta   89.49150669
_cell_angle_gamma   99.18673252
_symmetry_Int_Tables_number   1
_chemical_formula_structural   Tm3Bi5O14
_chemical_formula_sum   'Tm3 Bi5 O14'
_cell_volume   323.54730403
_cell_formula_units_Z   1
loop_
 _symmetry_equiv_pos_site_id
 _symmetry_equiv_pos_as_xyz
  1  'x, y, z'
loop_
 _atom_site_type_symbol
 _atom_site_label
 _atom_site_symmetry_multiplicity
 _atom_site_fract_x
 _atom_site_fract_y
 _atom_site_fract_z
 _atom_site_occupancy
  Tm  Tm0  1  0.463068  0.001316  0.252656  1
  Tm  Tm1  1  0.537047  0.995479  0.751071  1
  Tm  Tm2  1  0.264744  0.537899  0.885046  1
  Bi  Bi3  1  0.002898  0.007502  0.502973  1
  Bi  Bi4  1  0.004689  0.001385  0.998845  1
  Bi  Bi5  1  0.734145  0.474800  0.114381  1
  Bi  Bi6  1  0.722096  0.467887  0.615474  1
  Bi  Bi7  1  0.265194  0.524852  0.390235  1
  O  O8  1  0.448703  0.654000  0.162455  1
  O  O9  1  0.534989  0.342046  0.824329  1
  O  O10  1  0.305784  0.918874  0.949773  1
  O  O11  1  0.697168  0.055033  0.050832  1
  O  O12  1  0.302276  0.924078  0.515137  1
  O  O13  1  0.699232  0.079290  0.487348  1
  O  O14  1  0.530487  0.352160  0.348928  1
  O  O15  1  0.455482  0.645728  0.661744  1
  O  O16  1  0.939173  0.665962  0.954725  1
  O  O17  1  0.089512  0.327061  0.031737  1
  O  O18  1  0.097016  0.338022  0.626247  1
  O  O19  1  0.904977  0.678683  0.374753  1
  O  O20  1  0.870557  0.927827  0.732108  1
  O  O21  1  0.130760  0.080116  0.269205  1
