# generated using pymatgen
data_Ca10ZrTcN10
_symmetry_space_group_name_H-M   'P 1'
_cell_length_a   6.98766174
_cell_length_b   6.98766038
_cell_length_c   8.97740314
_cell_angle_alpha   80.40626707
_cell_angle_beta   80.40626086
_cell_angle_gamma   59.78725373
_symmetry_Int_Tables_number   1
_chemical_formula_structural   Ca10ZrTcN10
_chemical_formula_sum   'Ca10 Zr1 Tc1 N10'
_cell_volume   371.73478805
_cell_formula_units_Z   1
loop_
 _symmetry_equiv_pos_site_id
 _symmetry_equiv_pos_as_xyz
  1  'x, y, z'
loop_
 _atom_site_type_symbol
 _atom_site_label
 _atom_site_symmetry_multiplicity
 _atom_site_fract_x
 _atom_site_fract_y
 _atom_site_fract_z
 _atom_site_occupancy
  Ca  Ca0  1  0.876226  0.353277  0.826861  1
  Ca  Ca1  1  0.874466  0.874466  0.818036  1
  Ca  Ca2  1  0.738451  0.738451  0.531771  1
  Ca  Ca3  1  0.750546  0.251342  0.509720  1
  Ca  Ca4  1  0.629577  0.136927  0.149281  1
  Ca  Ca5  1  0.353277  0.876226  0.826861  1
  Ca  Ca6  1  0.251342  0.750546  0.509720  1
  Ca  Ca7  1  0.241378  0.241378  0.500206  1
  Ca  Ca8  1  0.140064  0.140064  0.158159  1
  Ca  Ca9  1  0.136927  0.629577  0.149281  1
  Zr  Zr10  1  0.369461  0.369461  0.779964  1
  Tc  Tc11  1  0.632124  0.632124  0.228551  1
  N  N12  1  0.902857  0.474038  0.316820  1
  N  N13  1  0.995299  0.995299  0.015490  1
  N  N14  1  0.675810  0.675810  0.024689  1
  N  N15  1  0.544195  0.544195  0.687526  1
  N  N16  1  0.474038  0.902857  0.316820  1
  N  N17  1  0.545313  0.073819  0.670971  1
  N  N18  1  0.476675  0.476675  0.296806  1
  N  N19  1  0.318448  0.318448  0.013132  1
  N  N20  1  0.061995  0.061995  0.644171  1
  N  N21  1  0.073819  0.545313  0.670971  1
