# generated using pymatgen
data_MnSeO4F
_symmetry_space_group_name_H-M   'P 1'
_cell_length_a   5.30485408
_cell_length_b   5.64162472
_cell_length_c   7.77981969
_cell_angle_alpha   67.28336751
_cell_angle_beta   69.65573094
_cell_angle_gamma   88.11259522
_symmetry_Int_Tables_number   1
_chemical_formula_structural   MnSeO4F
_chemical_formula_sum   'Mn2 Se2 O8 F2'
_cell_volume   199.98850480
_cell_formula_units_Z   2
loop_
 _symmetry_equiv_pos_site_id
 _symmetry_equiv_pos_as_xyz
  1  'x, y, z'
loop_
 _atom_site_type_symbol
 _atom_site_label
 _atom_site_symmetry_multiplicity
 _atom_site_fract_x
 _atom_site_fract_y
 _atom_site_fract_z
 _atom_site_occupancy
  Mn  Mn0  1  0.000000  0.500000  0.500000  1
  Mn  Mn1  1  0.000000  0.000000  0.000000  1
  Se  Se2  1  0.622004  0.930373  0.746146  1
  Se  Se3  1  0.377996  0.069627  0.253854  1
  O  O4  1  0.741119  0.772005  0.602890  1
  O  O5  1  0.258881  0.227995  0.397110  1
  O  O6  1  0.672904  0.252787  0.611528  1
  O  O7  1  0.327096  0.747213  0.388472  1
  O  O8  1  0.282886  0.848619  0.846304  1
  O  O9  1  0.717114  0.151381  0.153696  1
  O  O10  1  0.732939  0.836422  0.939434  1
  O  O11  1  0.267061  0.163578  0.060566  1
  F  F12  1  0.938308  0.657316  0.259463  1
  F  F13  1  0.061692  0.342684  0.740537  1
