# generated using pymatgen
data_Pr3Nd(CI)2
_symmetry_space_group_name_H-M   'P 1'
_cell_length_a   3.90651100
_cell_length_b   3.90651145
_cell_length_c   15.70530400
_cell_angle_alpha   90.00000000
_cell_angle_beta   90.00000000
_cell_angle_gamma   120.00000464
_symmetry_Int_Tables_number   1
_chemical_formula_structural   Pr3Nd(CI)2
_chemical_formula_sum   'Pr3 Nd1 C2 I2'
_cell_volume   207.56547231
_cell_formula_units_Z   1
loop_
 _symmetry_equiv_pos_site_id
 _symmetry_equiv_pos_as_xyz
  1  'x, y, z'
loop_
 _atom_site_type_symbol
 _atom_site_label
 _atom_site_symmetry_multiplicity
 _atom_site_fract_x
 _atom_site_fract_y
 _atom_site_fract_z
 _atom_site_occupancy
  Pr  Pr0  1  0.333333  0.666667  0.588912  1
  Pr  Pr1  1  0.666667  0.333333  0.413642  1
  Pr  Pr2  1  0.666667  0.333333  0.085518  1
  Nd  Nd3  1  0.333333  0.666667  0.912046  1
  C  C4  1  0.000000  0.000000  0.997282  1
  C  C5  1  0.000000  0.000000  0.501331  1
  I  I6  1  0.333333  0.666667  0.248794  1
  I  I7  1  0.666667  0.333333  0.752476  1
