# generated using pymatgen
data_Cs3NaIr2O9
_symmetry_space_group_name_H-M   'P 1'
_cell_length_a   6.39799500
_cell_length_b   6.39799371
_cell_length_c   14.81501600
_cell_angle_alpha   90.00000000
_cell_angle_beta   90.00000000
_cell_angle_gamma   120.00000151
_symmetry_Int_Tables_number   1
_chemical_formula_structural   Cs3NaIr2O9
_chemical_formula_sum   'Cs6 Na2 Ir4 O18'
_cell_volume   525.19484532
_cell_formula_units_Z   2
loop_
 _symmetry_equiv_pos_site_id
 _symmetry_equiv_pos_as_xyz
  1  'x, y, z'
loop_
 _atom_site_type_symbol
 _atom_site_label
 _atom_site_symmetry_multiplicity
 _atom_site_fract_x
 _atom_site_fract_y
 _atom_site_fract_z
 _atom_site_occupancy
  Cs  Cs0  1  0.333333  0.666667  0.097653  1
  Cs  Cs1  1  0.666667  0.333333  0.902347  1
  Cs  Cs2  1  0.666667  0.333333  0.597653  1
  Cs  Cs3  1  0.333333  0.666667  0.402347  1
  Cs  Cs4  1  0.000000  0.000000  0.250000  1
  Cs  Cs5  1  0.000000  0.000000  0.750000  1
  Na  Na6  1  0.000000  0.000000  0.000000  1
  Na  Na7  1  0.000000  0.000000  0.500000  1
  Ir  Ir8  1  0.333333  0.666667  0.653212  1
  Ir  Ir9  1  0.666667  0.333333  0.346788  1
  Ir  Ir10  1  0.666667  0.333333  0.153212  1
  Ir  Ir11  1  0.333333  0.666667  0.846788  1
  O  O12  1  0.537470  0.074940  0.250000  1
  O  O13  1  0.462530  0.925060  0.750000  1
  O  O14  1  0.925060  0.462530  0.250000  1
  O  O15  1  0.074940  0.537470  0.750000  1
  O  O16  1  0.537470  0.462530  0.250000  1
  O  O17  1  0.462530  0.537470  0.750000  1
  O  O18  1  0.188135  0.376271  0.591442  1
  O  O19  1  0.811865  0.623729  0.408558  1
  O  O20  1  0.623729  0.811865  0.591442  1
  O  O21  1  0.811865  0.623729  0.091442  1
  O  O22  1  0.376271  0.188135  0.408558  1
  O  O23  1  0.188135  0.376271  0.908558  1
  O  O24  1  0.188135  0.811865  0.591442  1
  O  O25  1  0.376271  0.188135  0.091442  1
  O  O26  1  0.811865  0.188135  0.408558  1
  O  O27  1  0.623729  0.811865  0.908558  1
  O  O28  1  0.811865  0.188135  0.091442  1
  O  O29  1  0.188135  0.811865  0.908558  1
