# generated using pymatgen
data_TmLu4Bi3C
_symmetry_space_group_name_H-M   'P 1'
_cell_length_a   9.01724900
_cell_length_b   9.01724814
_cell_length_c   6.36672300
_cell_angle_alpha   90.00000000
_cell_angle_beta   90.00000000
_cell_angle_gamma   119.99999949
_symmetry_Int_Tables_number   1
_chemical_formula_structural   TmLu4Bi3C
_chemical_formula_sum   'Tm2 Lu8 Bi6 C2'
_cell_volume   448.32677057
_cell_formula_units_Z   2
loop_
 _symmetry_equiv_pos_site_id
 _symmetry_equiv_pos_as_xyz
  1  'x, y, z'
loop_
 _atom_site_type_symbol
 _atom_site_label
 _atom_site_symmetry_multiplicity
 _atom_site_fract_x
 _atom_site_fract_y
 _atom_site_fract_z
 _atom_site_occupancy
  Tm  Tm0  1  0.333333  0.666667  0.500000  1
  Tm  Tm1  1  0.666667  0.333333  0.500000  1
  Lu  Lu2  1  0.666667  0.333333  0.000000  1
  Lu  Lu3  1  0.333333  0.666667  0.000000  1
  Lu  Lu4  1  0.795578  0.795578  0.750100  1
  Lu  Lu5  1  0.204422  0.000000  0.750100  1
  Lu  Lu6  1  0.000000  0.204422  0.750100  1
  Lu  Lu7  1  0.204422  0.204422  0.249900  1
  Lu  Lu8  1  0.795578  0.000000  0.249900  1
  Lu  Lu9  1  0.000000  0.795578  0.249900  1
  Bi  Bi10  1  0.400789  0.400789  0.751136  1
  Bi  Bi11  1  0.599211  0.000000  0.751136  1
  Bi  Bi12  1  0.000000  0.599211  0.751136  1
  Bi  Bi13  1  0.599211  0.599211  0.248864  1
  Bi  Bi14  1  0.400789  0.000000  0.248864  1
  Bi  Bi15  1  0.000000  0.400789  0.248864  1
  C  C16  1  0.000000  0.000000  0.000000  1
  C  C17  1  0.000000  0.000000  0.500000  1
