# generated using pymatgen
data_Zr2Nb2SiAs
_symmetry_space_group_name_H-M   'P 1'
_cell_length_a   3.64667600
_cell_length_b   7.06198700
_cell_length_c   8.55976200
_cell_angle_alpha   90.00000000
_cell_angle_beta   90.00000000
_cell_angle_gamma   90.00000000
_symmetry_Int_Tables_number   1
_chemical_formula_structural   Zr2Nb2SiAs
_chemical_formula_sum   'Zr4 Nb4 Si2 As2'
_cell_volume   220.43765484
_cell_formula_units_Z   2
loop_
 _symmetry_equiv_pos_site_id
 _symmetry_equiv_pos_as_xyz
  1  'x, y, z'
loop_
 _atom_site_type_symbol
 _atom_site_label
 _atom_site_symmetry_multiplicity
 _atom_site_fract_x
 _atom_site_fract_y
 _atom_site_fract_z
 _atom_site_occupancy
  Zr  Zr0  1  0.250000  0.546366  0.832949  1
  Zr  Zr1  1  0.750000  0.953634  0.332949  1
  Zr  Zr2  1  0.250000  0.036494  0.667331  1
  Zr  Zr3  1  0.750000  0.463506  0.167331  1
  Nb  Nb4  1  0.250000  0.132657  0.060620  1
  Nb  Nb5  1  0.750000  0.865413  0.940191  1
  Nb  Nb6  1  0.250000  0.634587  0.440191  1
  Nb  Nb7  1  0.750000  0.367343  0.560620  1
  Si  Si8  1  0.750000  0.742262  0.639889  1
  Si  Si9  1  0.250000  0.757738  0.139889  1
  As  As10  1  0.750000  0.246005  0.859020  1
  As  As11  1  0.250000  0.253995  0.359020  1
