# generated using pymatgen
data_HoTm7InHg3Au8
_symmetry_space_group_name_H-M   'P 1'
_cell_length_a   7.92140882
_cell_length_b   7.92023982
_cell_length_c   7.31072101
_cell_angle_alpha   90.00409351
_cell_angle_beta   89.99778691
_cell_angle_gamma   90.07764511
_symmetry_Int_Tables_number   1
_chemical_formula_structural   HoTm7InHg3Au8
_chemical_formula_sum   'Ho1 Tm7 In1 Hg3 Au8'
_cell_volume   458.67024784
_cell_formula_units_Z   1
loop_
 _symmetry_equiv_pos_site_id
 _symmetry_equiv_pos_as_xyz
  1  'x, y, z'
loop_
 _atom_site_type_symbol
 _atom_site_label
 _atom_site_symmetry_multiplicity
 _atom_site_fract_x
 _atom_site_fract_y
 _atom_site_fract_z
 _atom_site_occupancy
  Ho  Ho0  1  0.839585  0.157457  0.500357  1
  Tm  Tm1  1  0.160452  0.842467  0.500327  1
  Tm  Tm2  1  0.342597  0.339732  0.999660  1
  Tm  Tm3  1  0.657366  0.660330  0.999672  1
  Tm  Tm4  1  0.680723  0.685441  0.500516  1
  Tm  Tm5  1  0.319248  0.314561  0.500522  1
  Tm  Tm6  1  0.185540  0.819155  0.999485  1
  Tm  Tm7  1  0.814491  0.180797  0.999471  1
  In  In8  1  0.000052  0.500037  0.249956  1
  Hg  Hg9  1  0.499982  0.999964  0.249961  1
  Hg  Hg10  1  0.000035  0.500007  0.750042  1
  Hg  Hg11  1  0.499993  0.999965  0.750030  1
  Au  Au12  1  0.630274  0.373972  0.273829  1
  Au  Au13  1  0.369271  0.626501  0.274411  1
  Au  Au14  1  0.128058  0.128293  0.774631  1
  Au  Au15  1  0.872364  0.871274  0.774639  1
  Au  Au16  1  0.371579  0.627757  0.725694  1
  Au  Au17  1  0.627965  0.372698  0.726272  1
  Au  Au18  1  0.873615  0.868964  0.225258  1
  Au  Au19  1  0.126810  0.130626  0.225267  1
