# generated using pymatgen
data_Rb2Fe5F17
_symmetry_space_group_name_H-M   'P 1'
_cell_length_a   7.56645000
_cell_length_b   13.63594069
_cell_length_c   14.93540100
_cell_angle_alpha   90.00000000
_cell_angle_beta   90.00000000
_cell_angle_gamma   106.10777961
_symmetry_Int_Tables_number   1
_chemical_formula_structural   Rb2Fe5F17
_chemical_formula_sum   'Rb8 Fe20 F68'
_cell_volume   1480.47372703
_cell_formula_units_Z   4
loop_
 _symmetry_equiv_pos_site_id
 _symmetry_equiv_pos_as_xyz
  1  'x, y, z'
loop_
 _atom_site_type_symbol
 _atom_site_label
 _atom_site_symmetry_multiplicity
 _atom_site_fract_x
 _atom_site_fract_y
 _atom_site_fract_z
 _atom_site_occupancy
  Rb  Rb0  1  0.000000  0.000000  0.000000  1
  Rb  Rb1  1  0.249750  0.499500  0.032334  1
  Rb  Rb2  1  0.249750  0.499500  0.467666  1
  Rb  Rb3  1  0.750250  0.500500  0.532334  1
  Rb  Rb4  1  0.750250  0.500500  0.967666  1
  Rb  Rb5  1  0.252715  0.505429  0.750000  1
  Rb  Rb6  1  0.000000  0.000000  0.500000  1
  Rb  Rb7  1  0.747285  0.494571  0.250000  1
  Fe  Fe8  1  0.623366  0.754536  0.876721  1
  Fe  Fe9  1  0.376634  0.245464  0.376721  1
  Fe  Fe10  1  0.876008  0.249390  0.875506  1
  Fe  Fe11  1  0.373382  0.249390  0.624494  1
  Fe  Fe12  1  0.748847  0.001365  0.750000  1
  Fe  Fe13  1  0.876008  0.249390  0.624494  1
  Fe  Fe14  1  0.623366  0.754536  0.623279  1
  Fe  Fe15  1  0.123992  0.750610  0.375506  1
  Fe  Fe16  1  0.252517  0.001365  0.750000  1
  Fe  Fe17  1  0.131172  0.754536  0.623279  1
  Fe  Fe18  1  0.868828  0.245464  0.123279  1
  Fe  Fe19  1  0.626618  0.750610  0.375506  1
  Fe  Fe20  1  0.376634  0.245464  0.123279  1
  Fe  Fe21  1  0.373382  0.249390  0.875506  1
  Fe  Fe22  1  0.868828  0.245464  0.376721  1
  Fe  Fe23  1  0.747483  0.998635  0.250000  1
  Fe  Fe24  1  0.251153  0.998635  0.250000  1
  Fe  Fe25  1  0.131172  0.754536  0.876721  1
  Fe  Fe26  1  0.123992  0.750610  0.124494  1
  Fe  Fe27  1  0.626618  0.750610  0.124494  1
  F  F28  1  0.561388  0.718145  0.250000  1
  F  F29  1  0.438008  0.273842  0.250000  1
  F  F30  1  0.748279  0.900868  0.655890  1
  F  F31  1  0.898527  0.202024  0.500898  1
  F  F32  1  0.894417  0.382158  0.096977  1
  F  F33  1  0.982326  0.964653  0.250000  1
  F  F34  1  0.110353  0.220708  0.651383  1
  F  F35  1  0.481249  0.962497  0.750000  1
  F  F36  1  0.152590  0.900868  0.844110  1
  F  F37  1  0.561992  0.726158  0.750000  1
  F  F38  1  0.603363  0.612964  0.102485  1
  F  F39  1  0.251721  0.099132  0.155890  1
  F  F40  1  0.898527  0.202024  0.999102  1
  F  F41  1  0.101473  0.797976  0.000898  1
  F  F42  1  0.843244  0.281855  0.750000  1
  F  F43  1  0.137294  0.274587  0.359397  1
  F  F44  1  0.658072  0.898463  0.155247  1
  F  F45  1  0.601918  0.203838  0.393842  1
  F  F46  1  0.603363  0.612964  0.397515  1
  F  F47  1  0.101473  0.797976  0.499102  1
  F  F48  1  0.137294  0.274587  0.140603  1
  F  F49  1  0.152590  0.900868  0.655890  1
  F  F50  1  0.240391  0.898463  0.155247  1
  F  F51  1  0.303497  0.202024  0.500898  1
  F  F52  1  0.601918  0.203838  0.106158  1
  F  F53  1  0.240391  0.898463  0.344753  1
  F  F54  1  0.894417  0.382158  0.403023  1
  F  F55  1  0.847410  0.099132  0.344110  1
  F  F56  1  0.396637  0.387036  0.602485  1
  F  F57  1  0.748279  0.900868  0.844110  1
  F  F58  1  0.009600  0.612964  0.102485  1
  F  F59  1  0.303497  0.202024  0.999102  1
  F  F60  1  0.398082  0.796162  0.893842  1
  F  F61  1  0.105583  0.617842  0.596977  1
  F  F62  1  0.696503  0.797976  0.499102  1
  F  F63  1  0.156756  0.718145  0.250000  1
  F  F64  1  0.658072  0.898463  0.344753  1
  F  F65  1  0.396637  0.387036  0.897515  1
  F  F66  1  0.889647  0.779292  0.151383  1
  F  F67  1  0.889647  0.779292  0.348617  1
  F  F68  1  0.366932  0.733865  0.405506  1
  F  F69  1  0.438612  0.281855  0.750000  1
  F  F70  1  0.518751  0.037503  0.250000  1
  F  F71  1  0.990400  0.387036  0.897515  1
  F  F72  1  0.487741  0.382158  0.403023  1
  F  F73  1  0.862706  0.725413  0.640603  1
  F  F74  1  0.366932  0.733865  0.094494  1
  F  F75  1  0.017674  0.035347  0.750000  1
  F  F76  1  0.759609  0.101537  0.844753  1
  F  F77  1  0.512259  0.617842  0.903023  1
  F  F78  1  0.633068  0.266135  0.594494  1
  F  F79  1  0.341928  0.101537  0.844753  1
  F  F80  1  0.847410  0.099132  0.155890  1
  F  F81  1  0.341928  0.101537  0.655247  1
  F  F82  1  0.633068  0.266135  0.905506  1
  F  F83  1  0.512259  0.617842  0.596977  1
  F  F84  1  0.009600  0.612964  0.397515  1
  F  F85  1  0.759609  0.101537  0.655247  1
  F  F86  1  0.862706  0.725413  0.859397  1
  F  F87  1  0.835834  0.273842  0.250000  1
  F  F88  1  0.990400  0.387036  0.602485  1
  F  F89  1  0.487741  0.382158  0.096977  1
  F  F90  1  0.164166  0.726158  0.750000  1
  F  F91  1  0.110353  0.220708  0.848617  1
  F  F92  1  0.696503  0.797976  0.000898  1
  F  F93  1  0.105583  0.617842  0.903023  1
  F  F94  1  0.251721  0.099132  0.344110  1
  F  F95  1  0.398082  0.796162  0.606158  1
