# generated using pymatgen
data_La2Mg(PRh2)6
_symmetry_space_group_name_H-M   'P 1'
_cell_length_a   9.82844700
_cell_length_b   9.82844707
_cell_length_c   3.90429500
_cell_angle_alpha   90.00000000
_cell_angle_beta   90.00000000
_cell_angle_gamma   120.00000985
_symmetry_Int_Tables_number   1
_chemical_formula_structural   La2Mg(PRh2)6
_chemical_formula_sum   'La2 Mg1 P6 Rh12'
_cell_volume   326.62018204
_cell_formula_units_Z   1
loop_
 _symmetry_equiv_pos_site_id
 _symmetry_equiv_pos_as_xyz
  1  'x, y, z'
loop_
 _atom_site_type_symbol
 _atom_site_label
 _atom_site_symmetry_multiplicity
 _atom_site_fract_x
 _atom_site_fract_y
 _atom_site_fract_z
 _atom_site_occupancy
  La  La0  1  0.333333  0.666667  0.753785  1
  La  La1  1  0.666667  0.333333  0.246215  1
  Mg  Mg2  1  0.000000  0.000000  0.500000  1
  P  P3  1  0.889453  0.602783  0.746739  1
  P  P4  1  0.397217  0.286669  0.746739  1
  P  P5  1  0.713331  0.110547  0.746739  1
  P  P6  1  0.110547  0.397217  0.253261  1
  P  P7  1  0.602783  0.713331  0.253261  1
  P  P8  1  0.286669  0.889453  0.253261  1
  Rh  Rh9  1  0.613519  0.550961  0.748644  1
  Rh  Rh10  1  0.449039  0.062559  0.748644  1
  Rh  Rh11  1  0.937441  0.386481  0.748644  1
  Rh  Rh12  1  0.386481  0.449039  0.251356  1
  Rh  Rh13  1  0.550961  0.937441  0.251356  1
  Rh  Rh14  1  0.062559  0.613519  0.251356  1
  Rh  Rh15  1  0.127846  0.841249  0.754341  1
  Rh  Rh16  1  0.158751  0.286597  0.754341  1
  Rh  Rh17  1  0.713403  0.872154  0.754341  1
  Rh  Rh18  1  0.872154  0.158751  0.245659  1
  Rh  Rh19  1  0.841249  0.713403  0.245659  1
  Rh  Rh20  1  0.286597  0.127846  0.245659  1
