# generated using pymatgen
data_TbTm5TcRu
_symmetry_space_group_name_H-M   'P 1'
_cell_length_a   6.24540400
_cell_length_b   7.31036400
_cell_length_c   9.01268700
_cell_angle_alpha   90.00000000
_cell_angle_beta   90.00000000
_cell_angle_gamma   90.00000000
_symmetry_Int_Tables_number   1
_chemical_formula_structural   TbTm5TcRu
_chemical_formula_sum   'Tb2 Tm10 Tc2 Ru2'
_cell_volume   411.48482902
_cell_formula_units_Z   2
loop_
 _symmetry_equiv_pos_site_id
 _symmetry_equiv_pos_as_xyz
  1  'x, y, z'
loop_
 _atom_site_type_symbol
 _atom_site_label
 _atom_site_symmetry_multiplicity
 _atom_site_fract_x
 _atom_site_fract_y
 _atom_site_fract_z
 _atom_site_occupancy
  Tb  Tb0  1  0.875142  0.539560  0.250000  1
  Tb  Tb1  1  0.624858  0.039560  0.250000  1
  Tm  Tm2  1  0.334931  0.676233  0.061998  1
  Tm  Tm3  1  0.165069  0.176233  0.438002  1
  Tm  Tm4  1  0.664166  0.324556  0.564054  1
  Tm  Tm5  1  0.835834  0.824556  0.935946  1
  Tm  Tm6  1  0.664166  0.324556  0.935946  1
  Tm  Tm7  1  0.835834  0.824556  0.564054  1
  Tm  Tm8  1  0.334931  0.676233  0.438002  1
  Tm  Tm9  1  0.165069  0.176233  0.061998  1
  Tm  Tm10  1  0.133403  0.456169  0.750000  1
  Tm  Tm11  1  0.366597  0.956169  0.750000  1
  Tc  Tc12  1  0.039736  0.885789  0.250000  1
  Tc  Tc13  1  0.460264  0.385789  0.250000  1
  Ru  Ru14  1  0.961189  0.116902  0.750000  1
  Ru  Ru15  1  0.538811  0.616902  0.750000  1
