# generated using pymatgen
data_Nd3Mg3CdPb2
_symmetry_space_group_name_H-M   'P 1'
_cell_length_a   7.77771300
_cell_length_b   7.77771271
_cell_length_c   4.74968100
_cell_angle_alpha   90.00000000
_cell_angle_beta   90.00000000
_cell_angle_gamma   119.99999696
_symmetry_Int_Tables_number   1
_chemical_formula_structural   Nd3Mg3CdPb2
_chemical_formula_sum   'Nd3 Mg3 Cd1 Pb2'
_cell_volume   248.82779920
_cell_formula_units_Z   1
loop_
 _symmetry_equiv_pos_site_id
 _symmetry_equiv_pos_as_xyz
  1  'x, y, z'
loop_
 _atom_site_type_symbol
 _atom_site_label
 _atom_site_symmetry_multiplicity
 _atom_site_fract_x
 _atom_site_fract_y
 _atom_site_fract_z
 _atom_site_occupancy
  Nd  Nd0  1  0.584010  0.000000  0.000000  1
  Nd  Nd1  1  0.000000  0.584010  0.000000  1
  Nd  Nd2  1  0.415990  0.415990  0.000000  1
  Mg  Mg3  1  0.236478  0.000000  0.500000  1
  Mg  Mg4  1  0.000000  0.236478  0.500000  1
  Mg  Mg5  1  0.763522  0.763522  0.500000  1
  Cd  Cd6  1  0.000000  0.000000  0.000000  1
  Pb  Pb7  1  0.333333  0.666667  0.500000  1
  Pb  Pb8  1  0.666667  0.333333  0.500000  1
