# generated using pymatgen
data_U4ZnP5Ru7
_symmetry_space_group_name_H-M   'P 1'
_cell_length_a   7.06901854
_cell_length_b   7.06901771
_cell_length_c   7.06901843
_cell_angle_alpha   109.76461769
_cell_angle_beta   108.88601055
_cell_angle_gamma   109.76461022
_symmetry_Int_Tables_number   1
_chemical_formula_structural   U4ZnP5Ru7
_chemical_formula_sum   'U4 Zn1 P5 Ru7'
_cell_volume   271.90769218
_cell_formula_units_Z   1
loop_
 _symmetry_equiv_pos_site_id
 _symmetry_equiv_pos_as_xyz
  1  'x, y, z'
loop_
 _atom_site_type_symbol
 _atom_site_label
 _atom_site_symmetry_multiplicity
 _atom_site_fract_x
 _atom_site_fract_y
 _atom_site_fract_z
 _atom_site_occupancy
  U  U0  1  0.002807  0.000000  0.511377  1
  U  U1  1  0.511377  0.000000  0.002807  1
  U  U2  1  0.002807  0.491430  0.002807  1
  U  U3  1  0.511377  0.508570  0.511377  1
  Zn  Zn4  1  0.295419  0.000000  0.295419  1
  P  P5  1  0.004697  0.307414  0.312111  1
  P  P6  1  0.004697  0.692586  0.697284  1
  P  P7  1  0.312111  0.307414  0.004697  1
  P  P8  1  0.697284  0.692586  0.004697  1
  P  P9  1  0.671170  0.000000  0.671170  1
  Ru  Ru10  1  0.752011  0.500000  0.252011  1
  Ru  Ru11  1  0.502725  0.747027  0.249753  1
  Ru  Ru12  1  0.502725  0.252973  0.755697  1
  Ru  Ru13  1  0.755697  0.252973  0.502725  1
  Ru  Ru14  1  0.249753  0.747027  0.502725  1
  Ru  Ru15  1  0.252011  0.500000  0.752011  1
  Ru  Ru16  1  0.971332  0.000000  0.971332  1
