# generated using pymatgen
data_DyHo9(IrRu)2
_symmetry_space_group_name_H-M   'P 1'
_cell_length_a   6.37710374
_cell_length_b   7.26456080
_cell_length_c   8.46043033
_cell_angle_alpha   96.80773856
_cell_angle_beta   112.11238386
_cell_angle_gamma   90.00840854
_symmetry_Int_Tables_number   1
_chemical_formula_structural   DyHo9(IrRu)2
_chemical_formula_sum   'Dy1 Ho9 Ir2 Ru2'
_cell_volume   360.12917828
_cell_formula_units_Z   1
loop_
 _symmetry_equiv_pos_site_id
 _symmetry_equiv_pos_as_xyz
  1  'x, y, z'
loop_
 _atom_site_type_symbol
 _atom_site_label
 _atom_site_symmetry_multiplicity
 _atom_site_fract_x
 _atom_site_fract_y
 _atom_site_fract_z
 _atom_site_occupancy
  Dy  Dy0  1  0.978822  0.917627  0.186250  1
  Ho  Ho1  1  0.792713  0.582521  0.813855  1
  Ho  Ho2  1  0.023892  0.085035  0.814780  1
  Ho  Ho3  1  0.209031  0.414957  0.185015  1
  Ho  Ho4  1  0.642720  0.816278  0.435428  1
  Ho  Ho5  1  0.207306  0.683817  0.564640  1
  Ho  Ho6  1  0.355518  0.185907  0.563260  1
  Ho  Ho7  1  0.792396  0.314149  0.436979  1
  Ho  Ho8  1  0.422512  0.749862  0.999875  1
  Ho  Ho9  1  0.576190  0.250029  0.999897  1
  Ir  Ir10  1  0.823909  0.576466  0.221564  1
  Ir  Ir11  1  0.602673  0.923123  0.778669  1
  Ru  Ru12  1  0.175746  0.424996  0.779188  1
  Ru  Ru13  1  0.396570  0.075234  0.220597  1
