# generated using pymatgen
data_Li2FeSn3O8
_symmetry_space_group_name_H-M   'P 1'
_cell_length_a   8.85763200
_cell_length_b   8.85766100
_cell_length_c   8.85808700
_cell_angle_alpha   90.00023933
_cell_angle_beta   90.00012937
_cell_angle_gamma   89.99983182
_symmetry_Int_Tables_number   1
_chemical_formula_structural   Li2FeSn3O8
_chemical_formula_sum   'Li8 Fe4 Sn12 O32'
_cell_volume   694.98691749
_cell_formula_units_Z   4
loop_
 _symmetry_equiv_pos_site_id
 _symmetry_equiv_pos_as_xyz
  1  'x, y, z'
loop_
 _atom_site_type_symbol
 _atom_site_label
 _atom_site_symmetry_multiplicity
 _atom_site_fract_x
 _atom_site_fract_y
 _atom_site_fract_z
 _atom_site_occupancy
  Li  Li0  1  0.999410  0.999587  0.999505  1
  Li  Li1  1  0.250476  0.250349  0.250471  1
  Li  Li2  1  0.249675  0.749516  0.750503  1
  Li  Li3  1  0.500527  0.000434  0.499517  1
  Li  Li4  1  0.499387  0.500486  0.000459  1
  Li  Li5  1  0.750420  0.249553  0.749625  1
  Li  Li6  1  0.749635  0.750580  0.249580  1
  Li  Li7  1  0.000382  0.499378  0.500473  1
  Fe  Fe8  1  0.124865  0.875114  0.375132  1
  Fe  Fe9  1  0.375063  0.124970  0.874922  1
  Fe  Fe10  1  0.624883  0.624764  0.625191  1
  Fe  Fe11  1  0.875132  0.374885  0.124882  1
  Sn  Sn12  1  0.130081  0.119857  0.625008  1
  Sn  Sn13  1  0.124696  0.369758  0.880218  1
  Sn  Sn14  1  0.119408  0.624921  0.130221  1
  Sn  Sn15  1  0.380398  0.374911  0.630607  1
  Sn  Sn16  1  0.375086  0.630358  0.380422  1
  Sn  Sn17  1  0.369964  0.880507  0.124670  1
  Sn  Sn18  1  0.630489  0.380113  0.375100  1
  Sn  Sn19  1  0.625167  0.130048  0.119715  1
  Sn  Sn20  1  0.619614  0.875256  0.870049  1
  Sn  Sn21  1  0.880226  0.124850  0.369778  1
  Sn  Sn22  1  0.874868  0.869814  0.619543  1
  Sn  Sn23  1  0.869765  0.619769  0.874947  1
  O  O24  1  0.115338  0.120112  0.387617  1
  O  O25  1  0.112451  0.885160  0.619952  1
  O  O26  1  0.112393  0.612649  0.887796  1
  O  O27  1  0.129783  0.134823  0.862392  1
  O  O28  1  0.119777  0.387628  0.115128  1
  O  O29  1  0.137819  0.362572  0.637146  1
  O  O30  1  0.137640  0.629951  0.364896  1
  O  O31  1  0.135107  0.862441  0.130213  1
  O  O32  1  0.364890  0.137533  0.629959  1
  O  O33  1  0.362547  0.370214  0.864699  1
  O  O34  1  0.362182  0.637420  0.137718  1
  O  O35  1  0.379665  0.612233  0.614829  1
  O  O36  1  0.370412  0.864740  0.362470  1
  O  O37  1  0.387758  0.387606  0.387736  1
  O  O38  1  0.387737  0.115119  0.120000  1
  O  O39  1  0.385316  0.879726  0.887293  1
  O  O40  1  0.614742  0.379656  0.612116  1
  O  O41  1  0.612787  0.614808  0.380061  1
  O  O42  1  0.612317  0.887538  0.112550  1
  O  O43  1  0.630105  0.365051  0.137333  1
  O  O44  1  0.620161  0.112376  0.884975  1
  O  O45  1  0.636899  0.137768  0.362174  1
  O  O46  1  0.637377  0.870466  0.635033  1
  O  O47  1  0.635158  0.637253  0.869788  1
  O  O48  1  0.864784  0.363089  0.370554  1
  O  O49  1  0.862411  0.129838  0.134940  1
  O  O50  1  0.862455  0.862331  0.862499  1
  O  O51  1  0.879627  0.886889  0.385432  1
  O  O52  1  0.870320  0.635183  0.637427  1
  O  O53  1  0.887914  0.112290  0.613178  1
  O  O54  1  0.887422  0.385438  0.879568  1
  O  O55  1  0.885090  0.620462  0.112131  1
