# generated using pymatgen
data_Nd11In9NiIr2Pt
_symmetry_space_group_name_H-M   'P 1'
_cell_length_a   13.40459323
_cell_length_b   13.40777544
_cell_length_c   3.84584600
_cell_angle_alpha   90.00000000
_cell_angle_beta   90.00000000
_cell_angle_gamma   111.40409669
_symmetry_Int_Tables_number   1
_chemical_formula_structural   Nd11In9NiIr2Pt
_chemical_formula_sum   'Nd11 In9 Ni1 Ir2 Pt1'
_cell_volume   643.52556348
_cell_formula_units_Z   1
loop_
 _symmetry_equiv_pos_site_id
 _symmetry_equiv_pos_as_xyz
  1  'x, y, z'
loop_
 _atom_site_type_symbol
 _atom_site_label
 _atom_site_symmetry_multiplicity
 _atom_site_fract_x
 _atom_site_fract_y
 _atom_site_fract_z
 _atom_site_occupancy
  Nd  Nd0  1  0.074943  0.417370  0.000000  1
  Nd  Nd1  1  0.920948  0.580883  0.000000  1
  Nd  Nd2  1  0.419755  0.077403  0.000000  1
  Nd  Nd3  1  0.581828  0.919931  0.000000  1
  Nd  Nd4  1  0.625110  0.374245  0.000000  1
  Nd  Nd5  1  0.374762  0.629519  0.000000  1
  Nd  Nd6  1  0.840236  0.158239  0.000000  1
  Nd  Nd7  1  0.160044  0.840693  0.000000  1
  Nd  Nd8  1  0.998716  0.999934  0.000000  1
  Nd  Nd9  1  0.315351  0.310011  0.000000  1
  Nd  Nd10  1  0.688492  0.685880  0.000000  1
  In  In11  1  0.837037  0.364900  0.500000  1
  In  In12  1  0.161795  0.636114  0.500000  1
  In  In13  1  0.367314  0.837612  0.500000  1
  In  In14  1  0.634689  0.161546  0.500000  1
  In  In15  1  0.076303  0.218080  0.500000  1
  In  In16  1  0.921149  0.780639  0.500000  1
  In  In17  1  0.219277  0.077277  0.500000  1
  In  In18  1  0.779201  0.921907  0.500000  1
  In  In19  1  0.499825  0.502902  0.500000  1
  Ni  Ni20  1  0.548507  0.754844  0.500000  1
  Ir  Ir21  1  0.754370  0.551047  0.500000  1
  Ir  Ir22  1  0.451191  0.244449  0.500000  1
  Pt  Pt23  1  0.249158  0.454573  0.500000  1
