# generated using pymatgen
data_Yb3Al4SiGe
_symmetry_space_group_name_H-M   'P 1'
_cell_length_a   6.99278800
_cell_length_b   6.99278796
_cell_length_c   4.44258900
_cell_angle_alpha   90.00000000
_cell_angle_beta   90.00000000
_cell_angle_gamma   120.00000021
_symmetry_Int_Tables_number   1
_chemical_formula_structural   Yb3Al4SiGe
_chemical_formula_sum   'Yb3 Al4 Si1 Ge1'
_cell_volume   188.13408645
_cell_formula_units_Z   1
loop_
 _symmetry_equiv_pos_site_id
 _symmetry_equiv_pos_as_xyz
  1  'x, y, z'
loop_
 _atom_site_type_symbol
 _atom_site_label
 _atom_site_symmetry_multiplicity
 _atom_site_fract_x
 _atom_site_fract_y
 _atom_site_fract_z
 _atom_site_occupancy
  Yb  Yb0  1  0.423758  0.999421  0.000000  1
  Yb  Yb1  1  0.000579  0.424338  0.000000  1
  Yb  Yb2  1  0.575662  0.576243  0.000000  1
  Al  Al3  1  0.000000  0.000000  0.000000  1
  Al  Al4  1  0.759266  0.005308  0.500001  1
  Al  Al5  1  0.246041  0.240733  0.500001  1
  Al  Al6  1  0.994692  0.753958  0.500001  1
  Si  Si7  1  0.666666  0.333333  0.500001  1
  Ge  Ge8  1  0.333333  0.666667  0.500001  1
