# generated using pymatgen
data_YbPmCu4
_symmetry_space_group_name_H-M   'P 1'
_cell_length_a   5.59707514
_cell_length_b   5.59707608
_cell_length_c   5.59707526
_cell_angle_alpha   135.35624287
_cell_angle_beta   99.04231151
_cell_angle_gamma   97.54740790
_symmetry_Int_Tables_number   1
_chemical_formula_structural   YbPmCu4
_chemical_formula_sum   'Yb1 Pm1 Cu4'
_cell_volume   113.96568510
_cell_formula_units_Z   1
loop_
 _symmetry_equiv_pos_site_id
 _symmetry_equiv_pos_as_xyz
  1  'x, y, z'
loop_
 _atom_site_type_symbol
 _atom_site_label
 _atom_site_symmetry_multiplicity
 _atom_site_fract_x
 _atom_site_fract_y
 _atom_site_fract_z
 _atom_site_occupancy
  Yb  Yb0  1  0.000000  0.000000  0.000000  1
  Pm  Pm1  1  0.500000  0.500000  0.000000  1
  Cu  Cu2  1  0.581401  0.248710  0.332692  1
  Cu  Cu3  1  0.083983  0.751291  0.332693  1
  Cu  Cu4  1  0.916018  0.248710  0.667309  1
  Cu  Cu5  1  0.418599  0.751291  0.667308  1
