# generated using pymatgen
data_NaPr6CoI12
_symmetry_space_group_name_H-M   'P 1'
_cell_length_a   10.11585009
_cell_length_b   10.11585049
_cell_length_c   10.11585101
_cell_angle_alpha   107.09089282
_cell_angle_beta   107.09089603
_cell_angle_gamma   107.09089086
_symmetry_Int_Tables_number   1
_chemical_formula_structural   NaPr6CoI12
_chemical_formula_sum   'Na1 Pr6 Co1 I12'
_cell_volume   859.94414122
_cell_formula_units_Z   1
loop_
 _symmetry_equiv_pos_site_id
 _symmetry_equiv_pos_as_xyz
  1  'x, y, z'
loop_
 _atom_site_type_symbol
 _atom_site_label
 _atom_site_symmetry_multiplicity
 _atom_site_fract_x
 _atom_site_fract_y
 _atom_site_fract_z
 _atom_site_occupancy
  Na  Na0  1  0.500000  0.500000  0.500000  1
  Pr  Pr1  1  0.972098  0.899768  0.697030  1
  Pr  Pr2  1  0.027902  0.100232  0.302970  1
  Pr  Pr3  1  0.100232  0.302970  0.027902  1
  Pr  Pr4  1  0.302970  0.027902  0.100232  1
  Pr  Pr5  1  0.899768  0.697030  0.972098  1
  Pr  Pr6  1  0.697030  0.972098  0.899768  1
  Co  Co7  1  0.000000  0.000000  0.000000  1
  I  I8  1  0.547561  0.626024  0.852784  1
  I  I9  1  0.452439  0.373976  0.147216  1
  I  I10  1  0.315972  0.925365  0.774369  1
  I  I11  1  0.373976  0.147216  0.452439  1
  I  I12  1  0.925365  0.774369  0.315972  1
  I  I13  1  0.684028  0.074635  0.225631  1
  I  I14  1  0.074635  0.225631  0.684028  1
  I  I15  1  0.774369  0.315972  0.925365  1
  I  I16  1  0.225631  0.684028  0.074635  1
  I  I17  1  0.852784  0.547561  0.626024  1
  I  I18  1  0.147216  0.452439  0.373976  1
  I  I19  1  0.626024  0.852784  0.547561  1
