# generated using pymatgen
data_CeThCo4(SbAs)2
_symmetry_space_group_name_H-M   'P 1'
_cell_length_a   4.32251300
_cell_length_b   4.32251300
_cell_length_c   9.63321200
_cell_angle_alpha   90.00000000
_cell_angle_beta   90.00000000
_cell_angle_gamma   90.00000000
_symmetry_Int_Tables_number   1
_chemical_formula_structural   CeThCo4(SbAs)2
_chemical_formula_sum   'Ce1 Th1 Co4 Sb2 As2'
_cell_volume   179.98807585
_cell_formula_units_Z   1
loop_
 _symmetry_equiv_pos_site_id
 _symmetry_equiv_pos_as_xyz
  1  'x, y, z'
loop_
 _atom_site_type_symbol
 _atom_site_label
 _atom_site_symmetry_multiplicity
 _atom_site_fract_x
 _atom_site_fract_y
 _atom_site_fract_z
 _atom_site_occupancy
  Ce  Ce0  1  0.000000  0.500000  0.258943  1
  Th  Th1  1  0.500000  0.000000  0.740720  1
  Co  Co2  1  0.000000  0.000000  0.999937  1
  Co  Co3  1  0.500000  0.500000  0.999937  1
  Co  Co4  1  0.000000  0.500000  0.600683  1
  Co  Co5  1  0.500000  0.000000  0.400283  1
  Sb  Sb6  1  0.000000  0.500000  0.862959  1
  Sb  Sb7  1  0.500000  0.000000  0.139521  1
  As  As8  1  0.000000  0.000000  0.498508  1
  As  As9  1  0.500000  0.500000  0.498508  1
