# generated using pymatgen
data_Tb5CrSbO12
_symmetry_space_group_name_H-M   'P 1'
_cell_length_a   6.88217914
_cell_length_b   6.88218057
_cell_length_c   7.33593914
_cell_angle_alpha   74.43578369
_cell_angle_beta   74.43578149
_cell_angle_gamma   51.02894441
_symmetry_Int_Tables_number   1
_chemical_formula_structural   Tb5CrSbO12
_chemical_formula_sum   'Tb5 Cr1 Sb1 O12'
_cell_volume   257.92368587
_cell_formula_units_Z   1
loop_
 _symmetry_equiv_pos_site_id
 _symmetry_equiv_pos_as_xyz
  1  'x, y, z'
loop_
 _atom_site_type_symbol
 _atom_site_label
 _atom_site_symmetry_multiplicity
 _atom_site_fract_x
 _atom_site_fract_y
 _atom_site_fract_z
 _atom_site_occupancy
  Tb  Tb0  1  0.691559  0.696134  0.668995  1
  Tb  Tb1  1  0.690847  0.705859  0.138980  1
  Tb  Tb2  1  0.000520  0.999480  0.000000  1
  Tb  Tb3  1  0.294141  0.309153  0.861020  1
  Tb  Tb4  1  0.303866  0.308441  0.331005  1
  Cr  Cr5  1  0.252217  0.747783  0.500000  1
  Sb  Sb6  1  0.763856  0.236144  0.500000  1
  O  O7  1  0.399821  0.907830  0.924451  1
  O  O8  1  0.570210  0.098345  0.582832  1
  O  O9  1  0.901655  0.429790  0.417168  1
  O  O10  1  0.092170  0.600179  0.075549  1
  O  O11  1  0.010215  0.990254  0.315560  1
  O  O12  1  0.503272  0.497144  0.683863  1
  O  O13  1  0.899278  0.407034  0.924616  1
  O  O14  1  0.101211  0.580407  0.580687  1
  O  O15  1  0.419593  0.898789  0.419313  1
  O  O16  1  0.592966  0.100722  0.075384  1
  O  O17  1  0.502856  0.496728  0.316137  1
  O  O18  1  0.009746  0.989785  0.684440  1
