# generated using pymatgen
data_Pr8Sc12Ga5Sn11
_symmetry_space_group_name_H-M   'P 1'
_cell_length_a   7.68567700
_cell_length_b   8.06824767
_cell_length_c   15.14798800
_cell_angle_alpha   90.00000000
_cell_angle_beta   90.00000000
_cell_angle_gamma   89.75682635
_symmetry_Int_Tables_number   1
_chemical_formula_structural   Pr8Sc12Ga5Sn11
_chemical_formula_sum   'Pr8 Sc12 Ga5 Sn11'
_cell_volume   939.31745061
_cell_formula_units_Z   1
loop_
 _symmetry_equiv_pos_site_id
 _symmetry_equiv_pos_as_xyz
  1  'x, y, z'
loop_
 _atom_site_type_symbol
 _atom_site_label
 _atom_site_symmetry_multiplicity
 _atom_site_fract_x
 _atom_site_fract_y
 _atom_site_fract_z
 _atom_site_occupancy
  Pr  Pr0  1  0.998690  0.174428  0.095817  1
  Pr  Pr1  1  0.005689  0.826637  0.901885  1
  Pr  Pr2  1  0.495755  0.679920  0.899294  1
  Pr  Pr3  1  0.005689  0.826637  0.598115  1
  Pr  Pr4  1  0.499408  0.327696  0.094904  1
  Pr  Pr5  1  0.998690  0.174428  0.404183  1
  Pr  Pr6  1  0.499408  0.327696  0.405096  1
  Pr  Pr7  1  0.495755  0.679920  0.600706  1
  Sc  Sc8  1  0.182963  0.493784  0.750000  1
  Sc  Sc9  1  0.819902  0.512161  0.250000  1
  Sc  Sc10  1  0.320432  0.987171  0.250000  1
  Sc  Sc11  1  0.673396  0.011791  0.750000  1
  Sc  Sc12  1  0.333474  0.163533  0.633872  1
  Sc  Sc13  1  0.664338  0.829631  0.368727  1
  Sc  Sc14  1  0.164163  0.670257  0.368801  1
  Sc  Sc15  1  0.664338  0.829631  0.131273  1
  Sc  Sc16  1  0.837437  0.328093  0.632414  1
  Sc  Sc17  1  0.333474  0.163533  0.866128  1
  Sc  Sc18  1  0.837437  0.328093  0.867586  1
  Sc  Sc19  1  0.164163  0.670257  0.131199  1
  Ga  Ga20  1  0.035131  0.120690  0.750000  1
  Ga  Ga21  1  0.966389  0.870094  0.250000  1
  Ga  Ga22  1  0.466412  0.629950  0.250000  1
  Ga  Ga23  1  0.533782  0.369150  0.750000  1
  Ga  Ga24  1  0.299648  0.874767  0.750000  1
  Sn  Sn25  1  0.697726  0.132088  0.250000  1
  Sn  Sn26  1  0.198447  0.367852  0.250000  1
  Sn  Sn27  1  0.802181  0.631500  0.750000  1
  Sn  Sn28  1  0.173137  0.454274  0.542206  1
  Sn  Sn29  1  0.827266  0.545193  0.460586  1
  Sn  Sn30  1  0.328632  0.956413  0.458919  1
  Sn  Sn31  1  0.827266  0.545193  0.039414  1
  Sn  Sn32  1  0.673808  0.043429  0.541578  1
  Sn  Sn33  1  0.173137  0.454274  0.957794  1
  Sn  Sn34  1  0.673808  0.043429  0.958422  1
  Sn  Sn35  1  0.328632  0.956413  0.041081  1
