# generated using pymatgen
data_Hf2Ga4Mo3
_symmetry_space_group_name_H-M   'P 1'
_cell_length_a   6.75227400
_cell_length_b   6.87256441
_cell_length_c   13.08873700
_cell_angle_alpha   89.98012487
_cell_angle_beta   89.99997454
_cell_angle_gamma   90.00117549
_symmetry_Int_Tables_number   1
_chemical_formula_structural   Hf2Ga4Mo3
_chemical_formula_sum   'Hf8 Ga16 Mo12'
_cell_volume   607.38853684
_cell_formula_units_Z   4
loop_
 _symmetry_equiv_pos_site_id
 _symmetry_equiv_pos_as_xyz
  1  'x, y, z'
loop_
 _atom_site_type_symbol
 _atom_site_label
 _atom_site_symmetry_multiplicity
 _atom_site_fract_x
 _atom_site_fract_y
 _atom_site_fract_z
 _atom_site_occupancy
  Hf  Hf0  1  0.988863  0.172339  0.088541  1
  Hf  Hf1  1  0.011318  0.827547  0.911330  1
  Hf  Hf2  1  0.510963  0.672552  0.911386  1
  Hf  Hf3  1  0.011035  0.827463  0.588730  1
  Hf  Hf4  1  0.488877  0.327322  0.088597  1
  Hf  Hf5  1  0.988806  0.172701  0.411458  1
  Hf  Hf6  1  0.488829  0.327540  0.411476  1
  Hf  Hf7  1  0.510959  0.672400  0.588513  1
  Ga  Ga8  1  0.032334  0.106209  0.749881  1
  Ga  Ga9  1  0.967869  0.894111  0.250161  1
  Ga  Ga10  1  0.467789  0.605778  0.249928  1
  Ga  Ga11  1  0.532194  0.394126  0.750102  1
  Ga  Ga12  1  0.302370  0.842300  0.750021  1
  Ga  Ga13  1  0.697852  0.157895  0.249894  1
  Ga  Ga14  1  0.197930  0.341933  0.249916  1
  Ga  Ga15  1  0.802051  0.657762  0.750150  1
  Ga  Ga16  1  0.175085  0.459650  0.541498  1
  Ga  Ga17  1  0.824656  0.540481  0.458500  1
  Ga  Ga18  1  0.324528  0.959653  0.458632  1
  Ga  Ga19  1  0.824687  0.540321  0.041299  1
  Ga  Ga20  1  0.675333  0.040252  0.541435  1
  Ga  Ga21  1  0.175213  0.459629  0.958580  1
  Ga  Ga22  1  0.675379  0.040245  0.958536  1
  Ga  Ga23  1  0.324701  0.959440  0.041392  1
  Mo  Mo24  1  0.337015  0.163470  0.627496  1
  Mo  Mo25  1  0.662946  0.836887  0.372452  1
  Mo  Mo26  1  0.163456  0.663091  0.372562  1
  Mo  Mo27  1  0.153497  0.480478  0.749945  1
  Mo  Mo28  1  0.846580  0.519844  0.249993  1
  Mo  Mo29  1  0.346694  0.980152  0.250129  1
  Mo  Mo30  1  0.653679  0.019960  0.749909  1
  Mo  Mo31  1  0.663551  0.836687  0.127457  1
  Mo  Mo32  1  0.836434  0.336832  0.627485  1
  Mo  Mo33  1  0.336678  0.163150  0.872644  1
  Mo  Mo34  1  0.836802  0.336693  0.872486  1
  Mo  Mo35  1  0.163048  0.663103  0.127490  1
