# generated using pymatgen
data_Rb4Cr3Sn5Se16
_symmetry_space_group_name_H-M   'P 1'
_cell_length_a   6.72157039
_cell_length_b   7.74472837
_cell_length_c   16.89874327
_cell_angle_alpha   90.42394440
_cell_angle_beta   89.97139005
_cell_angle_gamma   90.00393377
_symmetry_Int_Tables_number   1
_chemical_formula_structural   Rb4Cr3Sn5Se16
_chemical_formula_sum   'Rb4 Cr3 Sn5 Se16'
_cell_volume   879.66923896
_cell_formula_units_Z   1
loop_
 _symmetry_equiv_pos_site_id
 _symmetry_equiv_pos_as_xyz
  1  'x, y, z'
loop_
 _atom_site_type_symbol
 _atom_site_label
 _atom_site_symmetry_multiplicity
 _atom_site_fract_x
 _atom_site_fract_y
 _atom_site_fract_z
 _atom_site_occupancy
  Rb  Rb0  1  0.349053  0.000125  0.993670  1
  Rb  Rb1  1  0.637364  0.498586  0.507130  1
  Rb  Rb2  1  0.032342  0.997974  0.504942  1
  Rb  Rb3  1  0.962251  0.500351  0.997104  1
  Cr  Cr4  1  0.999614  0.493618  0.749591  1
  Cr  Cr5  1  0.499826  0.750444  0.249996  1
  Cr  Cr6  1  0.501611  0.256343  0.749249  1
  Sn  Sn7  1  0.003957  0.994045  0.247379  1
  Sn  Sn8  1  0.005172  0.004553  0.751934  1
  Sn  Sn9  1  0.995237  0.506186  0.252760  1
  Sn  Sn10  1  0.499931  0.249840  0.250034  1
  Sn  Sn11  1  0.502392  0.745979  0.748580  1
  Se  Se12  1  0.843908  0.249602  0.346580  1
  Se  Se13  1  0.853440  0.731997  0.661646  1
  Se  Se14  1  0.195655  0.745635  0.159924  1
  Se  Se15  1  0.180072  0.266488  0.834853  1
  Se  Se16  1  0.155558  0.250593  0.153580  1
  Se  Se17  1  0.152563  0.733525  0.838456  1
  Se  Se18  1  0.803560  0.754326  0.340176  1
  Se  Se19  1  0.825876  0.261383  0.665651  1
  Se  Se20  1  0.655392  0.978408  0.162981  1
  Se  Se21  1  0.655855  0.019364  0.836218  1
  Se  Se22  1  0.343422  0.521708  0.336845  1
  Se  Se23  1  0.320603  0.484974  0.666125  1
  Se  Se24  1  0.346404  0.980613  0.336682  1
  Se  Se25  1  0.351215  0.017837  0.662437  1
  Se  Se26  1  0.652639  0.519573  0.163467  1
  Se  Se27  1  0.675088  0.485931  0.832012  1
