# generated using pymatgen
data_Ho3Lu2InSb2
_symmetry_space_group_name_H-M   'P 1'
_cell_length_a   8.88638800
_cell_length_b   8.88613244
_cell_length_c   6.35826000
_cell_angle_alpha   90.00000000
_cell_angle_beta   90.00000000
_cell_angle_gamma   119.99905125
_symmetry_Int_Tables_number   1
_chemical_formula_structural   Ho3Lu2InSb2
_chemical_formula_sum   'Ho6 Lu4 In2 Sb4'
_cell_volume   434.82161045
_cell_formula_units_Z   2
loop_
 _symmetry_equiv_pos_site_id
 _symmetry_equiv_pos_as_xyz
  1  'x, y, z'
loop_
 _atom_site_type_symbol
 _atom_site_label
 _atom_site_symmetry_multiplicity
 _atom_site_fract_x
 _atom_site_fract_y
 _atom_site_fract_z
 _atom_site_occupancy
  Ho  Ho0  1  0.758100  0.998567  0.750000  1
  Ho  Ho1  1  0.758100  0.759533  0.250000  1
  Ho  Ho2  1  0.002359  0.242402  0.250000  1
  Ho  Ho3  1  0.002359  0.759956  0.750000  1
  Ho  Ho4  1  0.240826  0.237090  0.750000  1
  Ho  Ho5  1  0.240826  0.003736  0.250000  1
  Lu  Lu6  1  0.334892  0.667446  0.000000  1
  Lu  Lu7  1  0.663309  0.331654  0.500000  1
  Lu  Lu8  1  0.663309  0.331654  0.000000  1
  Lu  Lu9  1  0.334892  0.667446  0.500000  1
  In  In10  1  0.395861  0.998164  0.750000  1
  In  In11  1  0.395861  0.397697  0.250000  1
  Sb  Sb12  1  0.999311  0.606449  0.250000  1
  Sb  Sb13  1  0.999311  0.392862  0.750000  1
  Sb  Sb14  1  0.605341  0.604937  0.750000  1
  Sb  Sb15  1  0.605341  0.000404  0.250000  1
