# generated using pymatgen
data_Hf3Si3MoRh2
_symmetry_space_group_name_H-M   'P 1'
_cell_length_a   7.63902101
_cell_length_b   7.63902035
_cell_length_c   7.63902099
_cell_angle_alpha   126.61388004
_cell_angle_beta   122.88438484
_cell_angle_gamma   81.98890337
_symmetry_Int_Tables_number   1
_chemical_formula_structural   Hf3Si3MoRh2
_chemical_formula_sum   'Hf6 Si6 Mo2 Rh4'
_cell_volume   289.00716213
_cell_formula_units_Z   2
loop_
 _symmetry_equiv_pos_site_id
 _symmetry_equiv_pos_as_xyz
  1  'x, y, z'
loop_
 _atom_site_type_symbol
 _atom_site_label
 _atom_site_symmetry_multiplicity
 _atom_site_fract_x
 _atom_site_fract_y
 _atom_site_fract_z
 _atom_site_occupancy
  Hf  Hf0  1  0.462855  0.692490  0.729635  1
  Hf  Hf1  1  0.537145  0.266780  0.229635  1
  Hf  Hf2  1  0.747831  0.832386  0.584555  1
  Hf  Hf3  1  0.252169  0.836723  0.084555  1
  Hf  Hf4  1  0.055059  0.265713  0.710653  1
  Hf  Hf5  1  0.944941  0.655594  0.210653  1
  Si  Si6  1  0.272353  0.257456  0.485103  1
  Si  Si7  1  0.727647  0.212748  0.985103  1
  Si  Si8  1  0.326664  0.589876  0.253725  1
  Si  Si9  1  0.673336  0.927062  0.263212  1
  Si  Si10  1  0.163850  0.927062  0.753725  1
  Si  Si11  1  0.836150  0.589876  0.763212  1
  Mo  Mo12  1  0.500000  0.497370  0.997370  1
  Mo  Mo13  1  0.000000  0.497370  0.497370  1
  Rh  Rh14  1  0.100597  0.252995  0.103151  1
  Rh  Rh15  1  0.899403  0.002553  0.152398  1
  Rh  Rh16  1  0.350155  0.002553  0.603151  1
  Rh  Rh17  1  0.649845  0.252995  0.652398  1
