# generated using pymatgen
data_CeDy2(Ni3P2)3
_symmetry_space_group_name_H-M   'P 1'
_cell_length_a   3.79537200
_cell_length_b   10.48426000
_cell_length_c   12.31526200
_cell_angle_alpha   90.00000000
_cell_angle_beta   90.00000000
_cell_angle_gamma   90.00000000
_symmetry_Int_Tables_number   1
_chemical_formula_structural   CeDy2(Ni3P2)3
_chemical_formula_sum   'Ce2 Dy4 Ni18 P12'
_cell_volume   490.04480261
_cell_formula_units_Z   2
loop_
 _symmetry_equiv_pos_site_id
 _symmetry_equiv_pos_as_xyz
  1  'x, y, z'
loop_
 _atom_site_type_symbol
 _atom_site_label
 _atom_site_symmetry_multiplicity
 _atom_site_fract_x
 _atom_site_fract_y
 _atom_site_fract_z
 _atom_site_occupancy
  Ce  Ce0  1  0.000000  0.500000  0.522018  1
  Ce  Ce1  1  0.500000  0.000000  0.477982  1
  Dy  Dy2  1  0.500000  0.815187  0.204945  1
  Dy  Dy3  1  0.500000  0.184813  0.204945  1
  Dy  Dy4  1  0.000000  0.684813  0.795055  1
  Dy  Dy5  1  0.000000  0.315187  0.795055  1
  Ni  Ni6  1  0.500000  0.500000  0.155441  1
  Ni  Ni7  1  0.000000  0.000000  0.844559  1
  Ni  Ni8  1  0.500000  0.500000  0.698185  1
  Ni  Ni9  1  0.000000  0.000000  0.301815  1
  Ni  Ni10  1  0.000000  0.500000  0.982678  1
  Ni  Ni11  1  0.500000  0.000000  0.017322  1
  Ni  Ni12  1  0.500000  0.333021  0.995182  1
  Ni  Ni13  1  0.500000  0.666979  0.995182  1
  Ni  Ni14  1  0.000000  0.166979  0.004818  1
  Ni  Ni15  1  0.000000  0.833021  0.004818  1
  Ni  Ni16  1  0.500000  0.302764  0.426639  1
  Ni  Ni17  1  0.500000  0.697236  0.426639  1
  Ni  Ni18  1  0.000000  0.197236  0.573361  1
  Ni  Ni19  1  0.000000  0.802764  0.573361  1
  Ni  Ni20  1  0.500000  0.879504  0.713453  1
  Ni  Ni21  1  0.500000  0.120496  0.713453  1
  Ni  Ni22  1  0.000000  0.620496  0.286547  1
  Ni  Ni23  1  0.000000  0.379504  0.286547  1
  P  P24  1  0.500000  0.500000  0.875728  1
  P  P25  1  0.000000  0.000000  0.124272  1
  P  P26  1  0.500000  0.500000  0.339478  1
  P  P27  1  0.000000  0.000000  0.660522  1
  P  P28  1  0.500000  0.309258  0.614415  1
  P  P29  1  0.500000  0.690742  0.614415  1
  P  P30  1  0.000000  0.190742  0.385585  1
  P  P31  1  0.000000  0.809258  0.385585  1
  P  P32  1  0.500000  0.847999  0.894320  1
  P  P33  1  0.500000  0.152001  0.894320  1
  P  P34  1  0.000000  0.652001  0.105680  1
  P  P35  1  0.000000  0.347999  0.105680  1
