# generated using pymatgen
data_Tm4Ga18(IrRh)3
_symmetry_space_group_name_H-M   'P 1'
_cell_length_a   7.56331241
_cell_length_b   7.56331189
_cell_length_c   9.47724328
_cell_angle_alpha   89.97024676
_cell_angle_beta   89.97024273
_cell_angle_gamma   119.95111425
_symmetry_Int_Tables_number   1
_chemical_formula_structural   Tm4Ga18(IrRh)3
_chemical_formula_sum   'Tm4 Ga18 Ir3 Rh3'
_cell_volume   469.73205896
_cell_formula_units_Z   1
loop_
 _symmetry_equiv_pos_site_id
 _symmetry_equiv_pos_as_xyz
  1  'x, y, z'
loop_
 _atom_site_type_symbol
 _atom_site_label
 _atom_site_symmetry_multiplicity
 _atom_site_fract_x
 _atom_site_fract_y
 _atom_site_fract_z
 _atom_site_occupancy
  Tm  Tm0  1  0.997097  0.667861  0.248557  1
  Tm  Tm1  1  0.002903  0.332139  0.751443  1
  Tm  Tm2  1  0.667861  0.997097  0.248557  1
  Tm  Tm3  1  0.332139  0.002903  0.751443  1
  Ga  Ga4  1  0.125470  0.125470  0.250841  1
  Ga  Ga5  1  0.874530  0.874530  0.749159  1
  Ga  Ga6  1  0.999109  0.333906  0.080414  1
  Ga  Ga7  1  0.000891  0.666094  0.919586  1
  Ga  Ga8  1  0.000727  0.665972  0.580114  1
  Ga  Ga9  1  0.334028  0.999273  0.419886  1
  Ga  Ga10  1  0.999273  0.334028  0.419886  1
  Ga  Ga11  1  0.665972  0.000727  0.580114  1
  Ga  Ga12  1  0.666094  0.000891  0.919586  1
  Ga  Ga13  1  0.333906  0.999109  0.080414  1
  Ga  Ga14  1  0.332456  0.332456  0.565003  1
  Ga  Ga15  1  0.667544  0.667544  0.434997  1
  Ga  Ga16  1  0.667187  0.667187  0.064933  1
  Ga  Ga17  1  0.332813  0.332813  0.935067  1
  Ga  Ga18  1  0.338371  0.547387  0.250750  1
  Ga  Ga19  1  0.661629  0.452613  0.749250  1
  Ga  Ga20  1  0.547387  0.338371  0.250750  1
  Ga  Ga21  1  0.452613  0.661629  0.749250  1
  Ir  Ir22  1  0.671942  0.328058  0.000000  1
  Ir  Ir23  1  0.328058  0.671942  0.000000  1
  Ir  Ir24  1  0.000000  0.000000  0.000000  1
  Rh  Rh25  1  0.328387  0.671613  0.500000  1
  Rh  Rh26  1  0.671613  0.328387  0.500000  1
  Rh  Rh27  1  0.000000  0.000000  0.500000  1
