# generated using pymatgen
data_Na5Cd13
_symmetry_space_group_name_H-M   'P 1'
_cell_length_a   15.89567310
_cell_length_b   15.89567273
_cell_length_c   6.71876695
_cell_angle_alpha   94.93977222
_cell_angle_beta   94.93977264
_cell_angle_gamma   14.70827040
_symmetry_Int_Tables_number   1
_chemical_formula_structural   Na5Cd13
_chemical_formula_sum   'Na5 Cd13'
_cell_volume   429.40079805
_cell_formula_units_Z   1
loop_
 _symmetry_equiv_pos_site_id
 _symmetry_equiv_pos_as_xyz
  1  'x, y, z'
loop_
 _atom_site_type_symbol
 _atom_site_label
 _atom_site_symmetry_multiplicity
 _atom_site_fract_x
 _atom_site_fract_y
 _atom_site_fract_z
 _atom_site_occupancy
  Na  Na0  1  0.000000  0.000000  0.000000  1
  Na  Na1  1  0.667387  0.667387  0.338188  1
  Na  Na2  1  0.890209  0.890209  0.431261  1
  Na  Na3  1  0.109791  0.109791  0.568740  1
  Na  Na4  1  0.332613  0.332613  0.661812  1
  Cd  Cd5  1  0.106940  0.106940  0.052431  1
  Cd  Cd6  1  0.222825  0.222825  0.112172  1
  Cd  Cd7  1  0.333154  0.333154  0.147785  1
  Cd  Cd8  1  0.448182  0.448182  0.227760  1
  Cd  Cd9  1  0.557002  0.557002  0.276219  1
  Cd  Cd10  1  0.775949  0.775949  0.376439  1
  Cd  Cd11  1  0.000000  0.000000  0.500000  1
  Cd  Cd12  1  0.224051  0.224051  0.623562  1
  Cd  Cd13  1  0.442998  0.442998  0.723781  1
  Cd  Cd14  1  0.551818  0.551818  0.772239  1
  Cd  Cd15  1  0.666845  0.666845  0.852215  1
  Cd  Cd16  1  0.777174  0.777174  0.887827  1
  Cd  Cd17  1  0.893061  0.893061  0.947570  1
