# generated using pymatgen
data_Cd2Hg2PdRu3O14
_symmetry_space_group_name_H-M   'P 1'
_cell_length_a   7.28736189
_cell_length_b   7.21322066
_cell_length_c   7.28736106
_cell_angle_alpha   60.23362814
_cell_angle_beta   60.48502580
_cell_angle_gamma   60.23362547
_symmetry_Int_Tables_number   1
_chemical_formula_structural   Cd2Hg2PdRu3O14
_chemical_formula_sum   'Cd2 Hg2 Pd1 Ru3 O14'
_cell_volume   272.80818893
_cell_formula_units_Z   1
loop_
 _symmetry_equiv_pos_site_id
 _symmetry_equiv_pos_as_xyz
  1  'x, y, z'
loop_
 _atom_site_type_symbol
 _atom_site_label
 _atom_site_symmetry_multiplicity
 _atom_site_fract_x
 _atom_site_fract_y
 _atom_site_fract_z
 _atom_site_occupancy
  Cd  Cd0  1  0.125000  0.125000  0.625000  1
  Cd  Cd1  1  0.625000  0.125000  0.125000  1
  Hg  Hg2  1  0.125000  0.625000  0.125000  1
  Hg  Hg3  1  0.125000  0.125000  0.125000  1
  Pd  Pd4  1  0.625000  0.125000  0.625000  1
  Ru  Ru5  1  0.625000  0.625000  0.125000  1
  Ru  Ru6  1  0.125000  0.625000  0.625000  1
  Ru  Ru7  1  0.625000  0.625000  0.625000  1
  O  O8  1  0.699743  0.664750  0.318632  1
  O  O9  1  0.931368  0.585250  0.550257  1
  O  O10  1  0.552583  0.950509  0.963422  1
  O  O11  1  0.963422  0.950509  0.552583  1
  O  O12  1  0.933437  0.575438  0.933437  1
  O  O13  1  0.537847  0.955816  0.537847  1
  O  O14  1  0.316563  0.674562  0.316563  1
  O  O15  1  0.318632  0.664750  0.699743  1
  O  O16  1  0.697417  0.299491  0.286578  1
  O  O17  1  0.712153  0.294184  0.712153  1
  O  O18  1  0.550257  0.585250  0.931368  1
  O  O19  1  0.286578  0.299491  0.697417  1
  O  O20  1  0.241815  0.262763  0.241815  1
  O  O21  1  0.008185  0.987237  0.008185  1
