# generated using pymatgen
data_Y6Er10MgHg3Pd3Pt
_symmetry_space_group_name_H-M   'P 1'
_cell_length_a   9.63678082
_cell_length_b   9.64756189
_cell_length_c   9.64756200
_cell_angle_alpha   60.00000648
_cell_angle_beta   59.96299191
_cell_angle_gamma   59.96298981
_symmetry_Int_Tables_number   1
_chemical_formula_structural   Y6Er10MgHg3Pd3Pt
_chemical_formula_sum   'Y6 Er10 Mg1 Hg3 Pd3 Pt1'
_cell_volume   633.88283048
_cell_formula_units_Z   1
loop_
 _symmetry_equiv_pos_site_id
 _symmetry_equiv_pos_as_xyz
  1  'x, y, z'
loop_
 _atom_site_type_symbol
 _atom_site_label
 _atom_site_symmetry_multiplicity
 _atom_site_fract_x
 _atom_site_fract_y
 _atom_site_fract_z
 _atom_site_occupancy
  Y  Y0  1  0.933769  0.565624  0.565624  1
  Y  Y1  1  0.563866  0.935502  0.935502  1
  Y  Y2  1  0.564687  0.935043  0.565225  1
  Y  Y3  1  0.934195  0.564802  0.935532  1
  Y  Y4  1  0.564687  0.565225  0.935043  1
  Y  Y5  1  0.934195  0.935532  0.564802  1
  Er  Er6  1  0.356429  0.352601  0.352601  1
  Er  Er7  1  0.355715  0.351814  0.938989  1
  Er  Er8  1  0.355715  0.938989  0.351814  1
  Er  Er9  1  0.926880  0.357099  0.357099  1
  Er  Er10  1  0.811580  0.188887  0.188887  1
  Er  Er11  1  0.184878  0.813677  0.813677  1
  Er  Er12  1  0.185055  0.814964  0.187550  1
  Er  Er13  1  0.810361  0.188759  0.811846  1
  Er  Er14  1  0.185055  0.187550  0.814964  1
  Er  Er15  1  0.810361  0.811846  0.188759  1
  Mg  Mg16  1  0.279893  0.573372  0.573372  1
  Hg  Hg17  1  0.582861  0.588760  0.588760  1
  Hg  Hg18  1  0.582829  0.588766  0.239567  1
  Hg  Hg19  1  0.582829  0.239567  0.588766  1
  Pd  Pd20  1  0.142769  0.146423  0.564531  1
  Pd  Pd21  1  0.142769  0.564531  0.146423  1
  Pd  Pd22  1  0.566278  0.144602  0.144602  1
  Pt  Pt23  1  0.142337  0.146064  0.146064  1
