# generated using pymatgen
data_PrTh3PdPt11
_symmetry_space_group_name_H-M   'P 1'
_cell_length_a   5.96456300
_cell_length_b   5.96456580
_cell_length_c   9.80496900
_cell_angle_alpha   90.00168105
_cell_angle_beta   89.99840540
_cell_angle_gamma   120.07201493
_symmetry_Int_Tables_number   1
_chemical_formula_structural   PrTh3PdPt11
_chemical_formula_sum   'Pr1 Th3 Pd1 Pt11'
_cell_volume   301.86913369
_cell_formula_units_Z   1
loop_
 _symmetry_equiv_pos_site_id
 _symmetry_equiv_pos_as_xyz
  1  'x, y, z'
loop_
 _atom_site_type_symbol
 _atom_site_label
 _atom_site_symmetry_multiplicity
 _atom_site_fract_x
 _atom_site_fract_y
 _atom_site_fract_z
 _atom_site_occupancy
  Pr  Pr0  1  0.000022  0.999978  0.500077  1
  Th  Th1  1  0.999866  0.000135  0.000050  1
  Th  Th2  1  0.333223  0.666775  0.252932  1
  Th  Th3  1  0.667215  0.332786  0.747024  1
  Pd  Pd4  1  0.175237  0.824763  0.751316  1
  Pt  Pt5  1  0.499959  0.500042  0.500970  1
  Pt  Pt6  1  0.500274  0.000026  0.500421  1
  Pt  Pt7  1  0.999973  0.499723  0.500421  1
  Pt  Pt8  1  0.499977  0.500022  0.999141  1
  Pt  Pt9  1  0.499890  0.000128  0.999512  1
  Pt  Pt10  1  0.999873  0.500111  0.999512  1
  Pt  Pt11  1  0.823764  0.647222  0.248453  1
  Pt  Pt12  1  0.352779  0.176237  0.248453  1
  Pt  Pt13  1  0.825054  0.174946  0.248386  1
  Pt  Pt14  1  0.176398  0.353503  0.751665  1
  Pt  Pt15  1  0.646497  0.823601  0.751666  1
