# generated using pymatgen
data_BaSc2H12IrRu
_symmetry_space_group_name_H-M   'P 1'
_cell_length_a   4.80785600
_cell_length_b   4.80785786
_cell_length_c   8.36768600
_cell_angle_alpha   90.00000000
_cell_angle_beta   90.00000000
_cell_angle_gamma   120.00000099
_symmetry_Int_Tables_number   1
_chemical_formula_structural   BaSc2H12IrRu
_chemical_formula_sum   'Ba1 Sc2 H12 Ir1 Ru1'
_cell_volume   167.50935762
_cell_formula_units_Z   1
loop_
 _symmetry_equiv_pos_site_id
 _symmetry_equiv_pos_as_xyz
  1  'x, y, z'
loop_
 _atom_site_type_symbol
 _atom_site_label
 _atom_site_symmetry_multiplicity
 _atom_site_fract_x
 _atom_site_fract_y
 _atom_site_fract_z
 _atom_site_occupancy
  Ba  Ba0  1  0.000000  0.000000  0.995690  1
  Sc  Sc1  1  0.666667  0.333333  0.378206  1
  Sc  Sc2  1  0.333333  0.666667  0.636540  1
  H  H3  1  0.161520  0.838480  0.393048  1
  H  H4  1  0.676960  0.838480  0.393048  1
  H  H5  1  0.161520  0.323040  0.393048  1
  H  H6  1  0.839741  0.160259  0.603048  1
  H  H7  1  0.320517  0.160259  0.603048  1
  H  H8  1  0.839741  0.679483  0.603048  1
  H  H9  1  0.498346  0.996692  0.831277  1
  H  H10  1  0.498346  0.501654  0.831277  1
  H  H11  1  0.003308  0.501654  0.831277  1
  H  H12  1  0.501696  0.003393  0.169797  1
  H  H13  1  0.501696  0.498304  0.169797  1
  H  H14  1  0.996607  0.498304  0.169797  1
  Ir  Ir15  1  0.333333  0.666667  0.288252  1
  Ru  Ru16  1  0.666667  0.333333  0.709804  1
