# generated using pymatgen
data_Ho12GaNi4Pd
_symmetry_space_group_name_H-M   'P 1'
_cell_length_a   8.24401701
_cell_length_b   8.24401690
_cell_length_c   8.24401810
_cell_angle_alpha   111.52654586
_cell_angle_beta   109.75417679
_cell_angle_gamma   107.16247847
_symmetry_Int_Tables_number   1
_chemical_formula_structural   Ho12GaNi4Pd
_chemical_formula_sum   'Ho12 Ga1 Ni4 Pd1'
_cell_volume   430.68501612
_cell_formula_units_Z   1
loop_
 _symmetry_equiv_pos_site_id
 _symmetry_equiv_pos_as_xyz
  1  'x, y, z'
loop_
 _atom_site_type_symbol
 _atom_site_label
 _atom_site_symmetry_multiplicity
 _atom_site_fract_x
 _atom_site_fract_y
 _atom_site_fract_z
 _atom_site_occupancy
  Ho  Ho0  1  0.418438  0.227489  0.190949  1
  Ho  Ho1  1  0.581562  0.772511  0.809051  1
  Ho  Ho2  1  0.036540  0.227489  0.809051  1
  Ho  Ho3  1  0.963460  0.772511  0.190949  1
  Ho  Ho4  1  0.180697  0.289136  0.469832  1
  Ho  Ho5  1  0.819303  0.710864  0.530168  1
  Ho  Ho6  1  0.180697  0.710864  0.891561  1
  Ho  Ho7  1  0.819303  0.289136  0.108439  1
  Ho  Ho8  1  0.325110  0.631235  0.306127  1
  Ho  Ho9  1  0.674890  0.368765  0.693873  1
  Ho  Ho10  1  0.325110  0.018983  0.693873  1
  Ho  Ho11  1  0.674890  0.981017  0.306127  1
  Ga  Ga12  1  0.500000  0.500000  0.000000  1
  Ni  Ni13  1  0.354401  0.000000  0.354401  1
  Ni  Ni14  1  0.645599  0.000000  0.645599  1
  Ni  Ni15  1  0.125146  0.625146  0.500000  1
  Ni  Ni16  1  0.874854  0.374854  0.500000  1
  Pd  Pd17  1  0.000000  0.000000  0.000000  1
