# generated using pymatgen
data_TbEr(SbO3)6
_symmetry_space_group_name_H-M   'P 1'
_cell_length_a   7.49888700
_cell_length_b   5.36805602
_cell_length_c   8.18926092
_cell_angle_alpha   86.15713453
_cell_angle_beta   90.00000000
_cell_angle_gamma   90.00000000
_symmetry_Int_Tables_number   1
_chemical_formula_structural   TbEr(SbO3)6
_chemical_formula_sum   'Tb1 Er1 Sb6 O18'
_cell_volume   328.91296514
_cell_formula_units_Z   1
loop_
 _symmetry_equiv_pos_site_id
 _symmetry_equiv_pos_as_xyz
  1  'x, y, z'
loop_
 _atom_site_type_symbol
 _atom_site_label
 _atom_site_symmetry_multiplicity
 _atom_site_fract_x
 _atom_site_fract_y
 _atom_site_fract_z
 _atom_site_occupancy
  Tb  Tb0  1  0.250000  0.967175  0.434916  1
  Er  Er1  1  0.750000  0.035046  0.566136  1
  Sb  Sb2  1  0.999822  0.000380  0.999656  1
  Sb  Sb3  1  0.500178  0.000380  0.999656  1
  Sb  Sb4  1  0.004412  0.529844  0.697810  1
  Sb  Sb5  1  0.495588  0.529844  0.697810  1
  Sb  Sb6  1  0.994067  0.470414  0.302294  1
  Sb  Sb7  1  0.505933  0.470414  0.302294  1
  O  O8  1  0.250000  0.879395  0.984208  1
  O  O9  1  0.936619  0.857951  0.777908  1
  O  O10  1  0.563381  0.857951  0.777908  1
  O  O11  1  0.957128  0.739006  0.472437  1
  O  O12  1  0.542872  0.739006  0.472437  1
  O  O13  1  0.250000  0.664285  0.655437  1
  O  O14  1  0.930953  0.675076  0.111798  1
  O  O15  1  0.569047  0.675076  0.111798  1
  O  O16  1  0.250000  0.593253  0.309594  1
  O  O17  1  0.750000  0.401734  0.690975  1
  O  O18  1  0.068925  0.325315  0.887897  1
  O  O19  1  0.431075  0.325315  0.887897  1
  O  O20  1  0.750000  0.331746  0.345975  1
  O  O21  1  0.039377  0.261686  0.528203  1
  O  O22  1  0.460623  0.261686  0.528203  1
  O  O23  1  0.061817  0.143672  0.220466  1
  O  O24  1  0.438183  0.143672  0.220466  1
  O  O25  1  0.750000  0.120677  0.015823  1
