# generated using pymatgen
data_Nd7PdRh2
_symmetry_space_group_name_H-M   'P 1'
_cell_length_a   6.46657131
_cell_length_b   10.14787011
_cell_length_c   10.14283565
_cell_angle_alpha   120.01458057
_cell_angle_beta   90.21655701
_cell_angle_gamma   90.00268146
_symmetry_Int_Tables_number   1
_chemical_formula_structural   Nd7PdRh2
_chemical_formula_sum   'Nd14 Pd2 Rh4'
_cell_volume   576.32966614
_cell_formula_units_Z   2
loop_
 _symmetry_equiv_pos_site_id
 _symmetry_equiv_pos_as_xyz
  1  'x, y, z'
loop_
 _atom_site_type_symbol
 _atom_site_label
 _atom_site_symmetry_multiplicity
 _atom_site_fract_x
 _atom_site_fract_y
 _atom_site_fract_z
 _atom_site_occupancy
  Nd  Nd0  1  0.466300  0.333191  0.666368  1
  Nd  Nd1  1  0.951760  0.668815  0.337609  1
  Nd  Nd2  1  0.251095  0.120724  0.869714  1
  Nd  Nd3  1  0.251107  0.748991  0.869719  1
  Nd  Nd4  1  0.249714  0.127302  0.254589  1
  Nd  Nd5  1  0.739966  0.876294  0.125438  1
  Nd  Nd6  1  0.739986  0.249139  0.125466  1
  Nd  Nd7  1  0.749588  0.876210  0.752399  1
  Nd  Nd8  1  0.442034  0.542389  0.464988  1
  Nd  Nd9  1  0.441981  0.922593  0.464987  1
  Nd  Nd10  1  0.446671  0.535237  0.070500  1
  Nd  Nd11  1  0.939152  0.461643  0.541535  1
  Nd  Nd12  1  0.939113  0.079886  0.541550  1
  Nd  Nd13  1  0.940910  0.460283  0.920557  1
  Pd  Pd14  1  0.188697  0.809399  0.187586  1
  Pd  Pd15  1  0.188728  0.378181  0.187592  1
  Rh  Rh16  1  0.186869  0.809244  0.618503  1
  Rh  Rh17  1  0.690746  0.189284  0.811601  1
  Rh  Rh18  1  0.690784  0.622328  0.811585  1
  Rh  Rh19  1  0.690798  0.188866  0.377714  1
