# generated using pymatgen
data_Ho2Pa2Ga20Ni11
_symmetry_space_group_name_H-M   'P 1'
_cell_length_a   4.06900023
_cell_length_b   10.51437694
_cell_length_c   12.93513001
_cell_angle_alpha   80.61301476
_cell_angle_beta   80.84109461
_cell_angle_gamma   78.67295804
_symmetry_Int_Tables_number   1
_chemical_formula_structural   Ho2Pa2Ga20Ni11
_chemical_formula_sum   'Ho2 Pa2 Ga20 Ni11'
_cell_volume   530.71481907
_cell_formula_units_Z   1
loop_
 _symmetry_equiv_pos_site_id
 _symmetry_equiv_pos_as_xyz
  1  'x, y, z'
loop_
 _atom_site_type_symbol
 _atom_site_label
 _atom_site_symmetry_multiplicity
 _atom_site_fract_x
 _atom_site_fract_y
 _atom_site_fract_z
 _atom_site_occupancy
  Ho  Ho0  1  0.774417  0.633632  0.821423  1
  Ho  Ho1  1  0.884250  0.904121  0.333870  1
  Pa  Pa2  1  0.121106  0.095243  0.665927  1
  Pa  Pa3  1  0.230859  0.366631  0.177420  1
  Ga  Ga4  1  0.068574  0.666672  0.202901  1
  Ga  Ga5  1  0.300355  0.902015  0.501901  1
  Ga  Ga6  1  0.608019  0.792996  0.002988  1
  Ga  Ga7  1  0.251378  0.795834  0.704264  1
  Ga  Ga8  1  0.890635  0.670875  0.548301  1
  Ga  Ga9  1  0.753256  0.203411  0.295439  1
  Ga  Ga10  1  0.633543  0.940122  0.802202  1
  Ga  Ga11  1  0.704234  0.097570  0.497055  1
  Ga  Ga12  1  0.398769  0.207554  0.996215  1
  Ga  Ga13  1  0.935595  0.334529  0.796009  1
  Ga  Ga14  1  0.462498  0.704347  0.377166  1
  Ga  Ga15  1  0.996468  0.921786  0.090333  1
  Ga  Ga16  1  0.802903  0.398382  0.002839  1
  Ga  Ga17  1  0.542436  0.295996  0.621922  1
  Ga  Ga18  1  0.009059  0.078831  0.909153  1
  Ga  Ga19  1  0.202211  0.602137  0.995898  1
  Ga  Ga20  1  0.111403  0.329336  0.450573  1
  Ga  Ga21  1  0.372847  0.059577  0.197634  1
  Ga  Ga22  1  0.613629  0.471485  0.307316  1
  Ga  Ga23  1  0.390873  0.529025  0.691771  1
  Ni  Ni24  1  0.139364  0.839289  0.894459  1
  Ni  Ni25  1  0.504612  0.182615  0.811032  1
  Ni  Ni26  1  0.867648  0.161388  0.104820  1
  Ni  Ni27  1  0.975770  0.436629  0.612307  1
  Ni  Ni28  1  0.503867  0.499445  0.499343  1
  Ni  Ni29  1  0.655518  0.578226  0.114538  1
  Ni  Ni30  1  0.029197  0.562976  0.386187  1
  Ni  Ni31  1  0.349242  0.421297  0.884876  1
  Ni  Ni32  1  0.249849  0.119180  0.386429  1
  Ni  Ni33  1  0.500439  0.817654  0.187784  1
  Ni  Ni34  1  0.753983  0.881121  0.613344  1
