# generated using pymatgen
data_La5CeMg2(AlSe7)2
_symmetry_space_group_name_H-M   'P 1'
_cell_length_a   10.67641739
_cell_length_b   10.67884291
_cell_length_c   6.42867658
_cell_angle_alpha   90.04887528
_cell_angle_beta   90.03099861
_cell_angle_gamma   120.00215485
_symmetry_Int_Tables_number   1
_chemical_formula_structural   La5CeMg2(AlSe7)2
_chemical_formula_sum   'La5 Ce1 Mg2 Al2 Se14'
_cell_volume   634.73448138
_cell_formula_units_Z   1
loop_
 _symmetry_equiv_pos_site_id
 _symmetry_equiv_pos_as_xyz
  1  'x, y, z'
loop_
 _atom_site_type_symbol
 _atom_site_label
 _atom_site_symmetry_multiplicity
 _atom_site_fract_x
 _atom_site_fract_y
 _atom_site_fract_z
 _atom_site_occupancy
  La  La0  1  0.232557  0.857529  0.228615  1
  La  La1  1  0.142470  0.375055  0.228424  1
  La  La2  1  0.767303  0.142225  0.728685  1
  La  La3  1  0.375190  0.232761  0.728613  1
  La  La4  1  0.857123  0.624876  0.728547  1
  Ce  Ce5  1  0.624759  0.766896  0.228245  1
  Mg  Mg6  1  0.000219  0.000270  0.017811  1
  Mg  Mg7  1  0.999325  0.999517  0.517803  1
  Al  Al8  1  0.666636  0.333613  0.144387  1
  Al  Al9  1  0.333625  0.666874  0.644601  1
  Se  Se10  1  0.903371  0.421173  0.997119  1
  Se  Se11  1  0.578752  0.482776  0.997737  1
  Se  Se12  1  0.517628  0.096750  0.997085  1
  Se  Se13  1  0.334723  0.667200  0.015376  1
  Se  Se14  1  0.240142  0.147142  0.276189  1
  Se  Se15  1  0.905599  0.759467  0.275935  1
  Se  Se16  1  0.851806  0.091848  0.275883  1
  Se  Se17  1  0.422330  0.518953  0.495855  1
  Se  Se18  1  0.096616  0.578936  0.497226  1
  Se  Se19  1  0.482954  0.902751  0.496041  1
  Se  Se20  1  0.666685  0.333233  0.514711  1
  Se  Se21  1  0.093229  0.240447  0.775752  1
  Se  Se22  1  0.759511  0.852685  0.777571  1
  Se  Se23  1  0.147444  0.907024  0.775787  1
