# generated using pymatgen
data_Lu3Sc3Al6NiAu5
_symmetry_space_group_name_H-M   'P 1'
_cell_length_a   7.16356700
_cell_length_b   7.16356625
_cell_length_c   7.70893800
_cell_angle_alpha   90.00000000
_cell_angle_beta   90.00000000
_cell_angle_gamma   119.99998962
_symmetry_Int_Tables_number   1
_chemical_formula_structural   Lu3Sc3Al6NiAu5
_chemical_formula_sum   'Lu3 Sc3 Al6 Ni1 Au5'
_cell_volume   342.59722315
_cell_formula_units_Z   1
loop_
 _symmetry_equiv_pos_site_id
 _symmetry_equiv_pos_as_xyz
  1  'x, y, z'
loop_
 _atom_site_type_symbol
 _atom_site_label
 _atom_site_symmetry_multiplicity
 _atom_site_fract_x
 _atom_site_fract_y
 _atom_site_fract_z
 _atom_site_occupancy
  Lu  Lu0  1  0.990749  0.579317  0.250000  1
  Lu  Lu1  1  0.588568  0.009251  0.250000  1
  Lu  Lu2  1  0.420683  0.411432  0.250000  1
  Sc  Sc3  1  0.593895  0.987993  0.750000  1
  Sc  Sc4  1  0.012007  0.605901  0.750000  1
  Sc  Sc5  1  0.394099  0.406105  0.750000  1
  Al  Al6  1  0.760478  0.758348  0.978843  1
  Al  Al7  1  0.241652  0.002130  0.978843  1
  Al  Al8  1  0.997870  0.239522  0.978843  1
  Al  Al9  1  0.760478  0.758348  0.521157  1
  Al  Al10  1  0.241652  0.002130  0.521157  1
  Al  Al11  1  0.997870  0.239522  0.521157  1
  Ni  Ni12  1  0.000000  0.000000  0.750000  1
  Au  Au13  1  0.000000  0.000000  0.250000  1
  Au  Au14  1  0.666667  0.333333  0.974796  1
  Au  Au15  1  0.666667  0.333333  0.525204  1
  Au  Au16  1  0.333333  0.666667  0.497871  1
  Au  Au17  1  0.333333  0.666667  0.002129  1
