# generated using pymatgen
data_Dy6Hf2Co15NiP12
_symmetry_space_group_name_H-M   'P 1'
_cell_length_a   3.72639200
_cell_length_b   10.68764700
_cell_length_c   12.41161400
_cell_angle_alpha   90.00000000
_cell_angle_beta   90.00000000
_cell_angle_gamma   90.00000000
_symmetry_Int_Tables_number   1
_chemical_formula_structural   Dy6Hf2Co15NiP12
_chemical_formula_sum   'Dy6 Hf2 Co15 Ni1 P12'
_cell_volume   494.30943564
_cell_formula_units_Z   1
loop_
 _symmetry_equiv_pos_site_id
 _symmetry_equiv_pos_as_xyz
  1  'x, y, z'
loop_
 _atom_site_type_symbol
 _atom_site_label
 _atom_site_symmetry_multiplicity
 _atom_site_fract_x
 _atom_site_fract_y
 _atom_site_fract_z
 _atom_site_occupancy
  Dy  Dy0  1  0.000000  0.500000  0.526854  1
  Dy  Dy1  1  0.500000  0.000000  0.471136  1
  Dy  Dy2  1  0.500000  0.821926  0.204946  1
  Dy  Dy3  1  0.500000  0.178074  0.204946  1
  Dy  Dy4  1  0.000000  0.679571  0.796049  1
  Dy  Dy5  1  0.000000  0.320429  0.796049  1
  Hf  Hf6  1  0.500000  0.500000  0.157151  1
  Hf  Hf7  1  0.000000  0.000000  0.842476  1
  Co  Co8  1  0.000000  0.000000  0.296808  1
  Co  Co9  1  0.000000  0.500000  0.987298  1
  Co  Co10  1  0.500000  0.000000  0.013066  1
  Co  Co11  1  0.500000  0.332265  0.993429  1
  Co  Co12  1  0.500000  0.667735  0.993429  1
  Co  Co13  1  0.000000  0.167890  0.006188  1
  Co  Co14  1  0.000000  0.832110  0.006188  1
  Co  Co15  1  0.500000  0.295796  0.433440  1
  Co  Co16  1  0.500000  0.704204  0.433440  1
  Co  Co17  1  0.000000  0.204242  0.566729  1
  Co  Co18  1  0.000000  0.795758  0.566729  1
  Co  Co19  1  0.500000  0.877676  0.703442  1
  Co  Co20  1  0.500000  0.122324  0.703442  1
  Co  Co21  1  0.000000  0.622189  0.296683  1
  Co  Co22  1  0.000000  0.377811  0.296683  1
  Ni  Ni23  1  0.500000  0.500000  0.703045  1
  P  P24  1  0.500000  0.500000  0.884555  1
  P  P25  1  0.000000  0.000000  0.116734  1
  P  P26  1  0.500000  0.500000  0.361414  1
  P  P27  1  0.000000  0.000000  0.638235  1
  P  P28  1  0.500000  0.308956  0.614967  1
  P  P29  1  0.500000  0.691044  0.614967  1
  P  P30  1  0.000000  0.189711  0.384099  1
  P  P31  1  0.000000  0.810289  0.384099  1
  P  P32  1  0.500000  0.838939  0.893571  1
  P  P33  1  0.500000  0.161061  0.893571  1
  P  P34  1  0.000000  0.661785  0.107072  1
  P  P35  1  0.000000  0.338215  0.107072  1
