# generated using pymatgen
data_TbTh3Co7Ni7B6
_symmetry_space_group_name_H-M   'P 1'
_cell_length_a   5.02768802
_cell_length_b   5.02819456
_cell_length_c   13.18085200
_cell_angle_alpha   90.00058809
_cell_angle_beta   90.00049703
_cell_angle_gamma   120.09887250
_symmetry_Int_Tables_number   1
_chemical_formula_structural   TbTh3Co7Ni7B6
_chemical_formula_sum   'Tb1 Th3 Co7 Ni7 B6'
_cell_volume   288.28427757
_cell_formula_units_Z   1
loop_
 _symmetry_equiv_pos_site_id
 _symmetry_equiv_pos_as_xyz
  1  'x, y, z'
loop_
 _atom_site_type_symbol
 _atom_site_label
 _atom_site_symmetry_multiplicity
 _atom_site_fract_x
 _atom_site_fract_y
 _atom_site_fract_z
 _atom_site_occupancy
  Tb  Tb0  1  0.000017  0.000039  0.500421  1
  Th  Th1  1  0.999918  0.999886  0.997388  1
  Th  Th2  1  0.999971  0.999969  0.264223  1
  Th  Th3  1  0.000026  0.000053  0.736348  1
  Co  Co4  1  0.500004  0.500028  0.840572  1
  Co  Co5  1  0.499999  0.000011  0.385714  1
  Co  Co6  1  0.500001  0.500012  0.384907  1
  Co  Co7  1  0.999999  0.500010  0.385272  1
  Co  Co8  1  0.500027  0.000055  0.614244  1
  Co  Co9  1  0.500026  0.500051  0.615321  1
  Co  Co10  1  0.000025  0.500049  0.614690  1
  Ni  Ni11  1  0.334979  0.662623  0.999823  1
  Ni  Ni12  1  0.664914  0.337222  0.999824  1
  Ni  Ni13  1  0.499957  0.999946  0.155945  1
  Ni  Ni14  1  0.499948  0.499937  0.156408  1
  Ni  Ni15  1  0.999953  0.499940  0.156550  1
  Ni  Ni16  1  0.500002  0.000020  0.844759  1
  Ni  Ni17  1  0.000003  0.500023  0.844253  1
  B  B18  1  0.332785  0.666403  0.500426  1
  B  B19  1  0.667244  0.333668  0.500425  1
  B  B20  1  0.333482  0.667735  0.271377  1
  B  B21  1  0.666472  0.332221  0.271375  1
  B  B22  1  0.665706  0.333090  0.729870  1
  B  B23  1  0.334338  0.667008  0.729870  1
