# generated using pymatgen
data_LiDy3Se4
_symmetry_space_group_name_H-M   'P 1'
_cell_length_a   4.04682804
_cell_length_b   8.08586790
_cell_length_c   8.08490500
_cell_angle_alpha   90.09664485
_cell_angle_beta   119.81682028
_cell_angle_gamma   60.13158537
_symmetry_Int_Tables_number   1
_chemical_formula_structural   LiDy3Se4
_chemical_formula_sum   'Li1 Dy3 Se4'
_cell_volume   188.11017956
_cell_formula_units_Z   1
loop_
 _symmetry_equiv_pos_site_id
 _symmetry_equiv_pos_as_xyz
  1  'x, y, z'
loop_
 _atom_site_type_symbol
 _atom_site_label
 _atom_site_symmetry_multiplicity
 _atom_site_fract_x
 _atom_site_fract_y
 _atom_site_fract_z
 _atom_site_occupancy
  Li  Li0  1  0.171585  0.704239  0.274212  1
  Dy  Dy1  1  0.185433  0.701498  0.776213  1
  Dy  Dy2  1  0.185760  0.201632  0.276565  1
  Dy  Dy3  1  0.182648  0.201381  0.776308  1
  Se  Se4  1  0.185676  0.945919  0.520729  1
  Se  Se5  1  0.172679  0.457570  0.520295  1
  Se  Se6  1  0.185268  0.456992  0.031566  1
  Se  Se7  1  0.193002  0.945306  0.032675  1
