# generated using pymatgen
data_Sm8Y11LuSn16
_symmetry_space_group_name_H-M   'P 1'
_cell_length_a   8.09365445
_cell_length_b   8.25267846
_cell_length_c   15.60405900
_cell_angle_alpha   90.00000000
_cell_angle_beta   90.00000000
_cell_angle_gamma   90.03836728
_symmetry_Int_Tables_number   1
_chemical_formula_structural   Sm8Y11LuSn16
_chemical_formula_sum   'Sm8 Y11 Lu1 Sn16'
_cell_volume   1042.26239807
_cell_formula_units_Z   1
loop_
 _symmetry_equiv_pos_site_id
 _symmetry_equiv_pos_as_xyz
  1  'x, y, z'
loop_
 _atom_site_type_symbol
 _atom_site_label
 _atom_site_symmetry_multiplicity
 _atom_site_fract_x
 _atom_site_fract_y
 _atom_site_fract_z
 _atom_site_occupancy
  Sm  Sm0  1  0.518194  0.321361  0.903014  1
  Sm  Sm1  1  0.018134  0.178669  0.596924  1
  Sm  Sm2  1  0.481613  0.678933  0.402947  1
  Sm  Sm3  1  0.982146  0.821596  0.097087  1
  Sm  Sm4  1  0.481613  0.678933  0.097053  1
  Sm  Sm5  1  0.982146  0.821596  0.402913  1
  Sm  Sm6  1  0.518194  0.321361  0.596986  1
  Sm  Sm7  1  0.018134  0.178669  0.903076  1
  Y  Y8  1  0.364098  0.836484  0.877452  1
  Y  Y9  1  0.864047  0.663532  0.622722  1
  Y  Y10  1  0.635405  0.163185  0.377177  1
  Y  Y11  1  0.136208  0.336187  0.122807  1
  Y  Y12  1  0.635405  0.163185  0.122823  1
  Y  Y13  1  0.136208  0.336187  0.377193  1
  Y  Y14  1  0.364098  0.836484  0.622548  1
  Y  Y15  1  0.864047  0.663532  0.877278  1
  Y  Y16  1  0.196802  0.503047  0.750000  1
  Y  Y17  1  0.696770  0.996903  0.750000  1
  Y  Y18  1  0.803356  0.497037  0.250000  1
  Lu  Lu19  1  0.302975  0.003499  0.250000  1
  Sn  Sn20  1  0.298325  0.038496  0.042341  1
  Sn  Sn21  1  0.798348  0.461341  0.458337  1
  Sn  Sn22  1  0.701628  0.961214  0.541572  1
  Sn  Sn23  1  0.201595  0.538615  0.958435  1
  Sn  Sn24  1  0.701628  0.961214  0.958428  1
  Sn  Sn25  1  0.201595  0.538615  0.541565  1
  Sn  Sn26  1  0.298325  0.038496  0.457659  1
  Sn  Sn27  1  0.798348  0.461341  0.041663  1
  Sn  Sn28  1  0.562747  0.620859  0.750000  1
  Sn  Sn29  1  0.062892  0.879205  0.750000  1
  Sn  Sn30  1  0.436741  0.378375  0.250000  1
  Sn  Sn31  1  0.938751  0.120179  0.250000  1
  Sn  Sn32  1  0.326565  0.145509  0.750000  1
  Sn  Sn33  1  0.826802  0.354238  0.750000  1
  Sn  Sn34  1  0.672618  0.854584  0.250000  1
  Sn  Sn35  1  0.173500  0.647340  0.250000  1
