# generated using pymatgen
data_La4(Al8Pd3)3
_symmetry_space_group_name_H-M   'P 1'
_cell_length_a   7.59259130
_cell_length_b   7.64443014
_cell_length_c   13.47023991
_cell_angle_alpha   84.91726342
_cell_angle_beta   100.52549905
_cell_angle_gamma   119.62553494
_symmetry_Int_Tables_number   1
_chemical_formula_structural   La4(Al8Pd3)3
_chemical_formula_sum   'La4 Al24 Pd9'
_cell_volume   668.18528074
_cell_formula_units_Z   1
loop_
 _symmetry_equiv_pos_site_id
 _symmetry_equiv_pos_as_xyz
  1  'x, y, z'
loop_
 _atom_site_type_symbol
 _atom_site_label
 _atom_site_symmetry_multiplicity
 _atom_site_fract_x
 _atom_site_fract_y
 _atom_site_fract_z
 _atom_site_occupancy
  La  La0  1  0.436788  0.830371  0.808274  1
  La  La1  1  0.563212  0.169629  0.191726  1
  La  La2  1  0.769443  0.502541  0.808452  1
  La  La3  1  0.230557  0.497459  0.191548  1
  Al  Al4  1  0.478441  0.166707  0.946856  1
  Al  Al5  1  0.521559  0.833293  0.053144  1
  Al  Al6  1  0.020826  0.166644  0.558057  1
  Al  Al7  1  0.979174  0.833356  0.441943  1
  Al  Al8  1  0.355055  0.833367  0.557079  1
  Al  Al9  1  0.644945  0.166633  0.442921  1
  Al  Al10  1  0.622590  0.834786  0.334022  1
  Al  Al11  1  0.377410  0.165214  0.665978  1
  Al  Al12  1  0.055547  0.490869  0.664589  1
  Al  Al13  1  0.944453  0.509131  0.335411  1
  Al  Al14  1  0.733862  0.842973  0.663684  1
  Al  Al15  1  0.266138  0.157027  0.336316  1
  Al  Al16  1  0.148196  0.495805  0.947806  1
  Al  Al17  1  0.851804  0.504195  0.052194  1
  Al  Al18  1  0.821147  0.835369  0.958153  1
  Al  Al19  1  0.178853  0.164631  0.041847  1
  Al  Al20  1  0.312938  0.500692  0.442064  1
  Al  Al21  1  0.687062  0.499308  0.557936  1
  Al  Al22  1  0.099612  0.836210  0.183466  1
  Al  Al23  1  0.900388  0.163790  0.816534  1
  Al  Al24  1  0.302763  0.365087  0.814900  1
  Al  Al25  1  0.697237  0.634913  0.185100  1
  Al  Al26  1  0.102333  0.963189  0.816085  1
  Al  Al27  1  0.897667  0.036811  0.183915  1
  Pd  Pd28  1  0.384822  0.503649  0.635156  1
  Pd  Pd29  1  0.615178  0.496351  0.364844  1
  Pd  Pd30  1  0.171694  0.829731  0.999469  1
  Pd  Pd31  1  0.828306  0.170269  0.000531  1
  Pd  Pd32  1  0.292897  0.834180  0.364184  1
  Pd  Pd33  1  0.707103  0.165820  0.635816  1
  Pd  Pd34  1  0.048748  0.828948  0.635187  1
  Pd  Pd35  1  0.951252  0.171052  0.364813  1
  Pd  Pd36  1  0.500000  0.500000  0.000000  1
