# generated using pymatgen
data_ErAl4Si2Pd
_symmetry_space_group_name_H-M   'P 1'
_cell_length_a   4.09179000
_cell_length_b   4.09178919
_cell_length_c   31.07291100
_cell_angle_alpha   90.00000000
_cell_angle_beta   90.00019604
_cell_angle_gamma   120.00003886
_symmetry_Int_Tables_number   1
_chemical_formula_structural   ErAl4Si2Pd
_chemical_formula_sum   'Er3 Al12 Si6 Pd3'
_cell_volume   450.54584644
_cell_formula_units_Z   3
loop_
 _symmetry_equiv_pos_site_id
 _symmetry_equiv_pos_as_xyz
  1  'x, y, z'
loop_
 _atom_site_type_symbol
 _atom_site_label
 _atom_site_symmetry_multiplicity
 _atom_site_fract_x
 _atom_site_fract_y
 _atom_site_fract_z
 _atom_site_occupancy
  Er  Er0  1  0.333334  0.666667  0.166651  1
  Er  Er1  1  0.999945  0.999972  0.500016  1
  Er  Er2  1  0.666591  0.333295  0.833468  1
  Al  Al3  1  0.666817  0.333409  0.028468  1
  Al  Al4  1  0.000011  0.000006  0.083235  1
  Al  Al5  1  0.666654  0.333327  0.249937  1
  Al  Al6  1  0.999951  0.999975  0.304622  1
  Al  Al7  1  0.333294  0.666646  0.361608  1
  Al  Al8  1  0.666631  0.333315  0.416378  1
  Al  Al9  1  0.333319  0.666660  0.583570  1
  Al  Al10  1  0.666656  0.333327  0.638350  1
  Al  Al11  1  0.999992  0.999997  0.695345  1
  Al  Al12  1  0.333329  0.666664  0.750061  1
  Al  Al13  1  0.000007  0.000003  0.916796  1
  Al  Al14  1  0.333476  0.666738  0.971576  1
  Si  Si15  1  0.666676  0.333338  0.111779  1
  Si  Si16  1  0.999994  0.999997  0.221349  1
  Si  Si17  1  0.333289  0.666645  0.445017  1
  Si  Si18  1  0.666641  0.333320  0.554961  1
  Si  Si19  1  0.999979  0.999989  0.778661  1
  Si  Si20  1  0.333320  0.666660  0.888262  1
  Pd  Pd21  1  0.000134  0.000066  0.000049  1
  Pd  Pd22  1  0.666628  0.333313  0.333077  1
  Pd  Pd23  1  0.333334  0.666667  0.666796  1
