# generated using pymatgen
data_Dy3Er13(In3Rh)2
_symmetry_space_group_name_H-M   'P 1'
_cell_length_a   10.35751500
_cell_length_b   10.35751329
_cell_length_c   6.97390400
_cell_angle_alpha   90.00000000
_cell_angle_beta   90.00000000
_cell_angle_gamma   119.99999588
_symmetry_Int_Tables_number   1
_chemical_formula_structural   Dy3Er13(In3Rh)2
_chemical_formula_sum   'Dy3 Er13 In6 Rh2'
_cell_volume   647.91447794
_cell_formula_units_Z   1
loop_
 _symmetry_equiv_pos_site_id
 _symmetry_equiv_pos_as_xyz
  1  'x, y, z'
loop_
 _atom_site_type_symbol
 _atom_site_label
 _atom_site_symmetry_multiplicity
 _atom_site_fract_x
 _atom_site_fract_y
 _atom_site_fract_z
 _atom_site_occupancy
  Dy  Dy0  1  0.532179  0.064359  0.793881  1
  Dy  Dy1  1  0.935641  0.467821  0.793881  1
  Dy  Dy2  1  0.532179  0.467821  0.793881  1
  Er  Er3  1  0.467406  0.934810  0.293857  1
  Er  Er4  1  0.065190  0.532594  0.293857  1
  Er  Er5  1  0.467406  0.532594  0.293857  1
  Er  Er6  1  0.823691  0.647383  0.499334  1
  Er  Er7  1  0.352617  0.176309  0.499334  1
  Er  Er8  1  0.823691  0.176309  0.499334  1
  Er  Er9  1  0.176302  0.352604  0.000280  1
  Er  Er10  1  0.647396  0.823698  0.000280  1
  Er  Er11  1  0.176302  0.823698  0.000280  1
  Er  Er12  1  0.666667  0.333333  0.173890  1
  Er  Er13  1  0.333333  0.666667  0.673062  1
  Er  Er14  1  0.000000  0.000000  0.778822  1
  Er  Er15  1  0.000000  0.000000  0.279196  1
  In  In16  1  0.837394  0.674790  0.039415  1
  In  In17  1  0.325210  0.162606  0.039415  1
  In  In18  1  0.837394  0.162606  0.039415  1
  In  In19  1  0.162791  0.325580  0.538757  1
  In  In20  1  0.674420  0.837209  0.538757  1
  In  In21  1  0.162791  0.837209  0.538757  1
  Rh  Rh22  1  0.666667  0.333333  0.566833  1
  Rh  Rh23  1  0.333333  0.666667  0.067536  1
