# generated using pymatgen
data_Ti3AlGa2(Co5B2)2
_symmetry_space_group_name_H-M   'P 1'
_cell_length_a   8.43889582
_cell_length_b   8.43889582
_cell_length_c   2.97180500
_cell_angle_alpha   90.00000000
_cell_angle_beta   90.00000000
_cell_angle_gamma   90.50151390
_symmetry_Int_Tables_number   1
_chemical_formula_structural   Ti3AlGa2(Co5B2)2
_chemical_formula_sum   'Ti3 Al1 Ga2 Co10 B4'
_cell_volume   211.62887472
_cell_formula_units_Z   1
loop_
 _symmetry_equiv_pos_site_id
 _symmetry_equiv_pos_as_xyz
  1  'x, y, z'
loop_
 _atom_site_type_symbol
 _atom_site_label
 _atom_site_symmetry_multiplicity
 _atom_site_fract_x
 _atom_site_fract_y
 _atom_site_fract_z
 _atom_site_occupancy
  Ti  Ti0  1  0.326453  0.177173  0.000000  1
  Ti  Ti1  1  0.677173  0.826453  0.000000  1
  Ti  Ti2  1  0.172674  0.672674  0.000000  1
  Al  Al3  1  0.824046  0.324046  0.000000  1
  Ga  Ga4  1  0.001806  0.996615  0.000000  1
  Ga  Ga5  1  0.496615  0.501806  0.000000  1
  Co  Co6  1  0.500826  0.000826  0.500000  1
  Co  Co7  1  0.997470  0.497470  0.500000  1
  Co  Co8  1  0.072877  0.217680  0.500000  1
  Co  Co9  1  0.220516  0.928792  0.500000  1
  Co  Co10  1  0.781841  0.070904  0.500000  1
  Co  Co11  1  0.929623  0.779155  0.500000  1
  Co  Co12  1  0.428792  0.720516  0.500000  1
  Co  Co13  1  0.570904  0.281841  0.500000  1
  Co  Co14  1  0.717680  0.572877  0.500000  1
  Co  Co15  1  0.279155  0.429623  0.500000  1
  B  B16  1  0.623976  0.123976  0.000000  1
  B  B17  1  0.120903  0.377823  0.000000  1
  B  B18  1  0.877823  0.620903  0.000000  1
  B  B19  1  0.378847  0.878847  0.000000  1
