# generated using pymatgen
data_Cd3HgPdRu3O14
_symmetry_space_group_name_H-M   'P 1'
_cell_length_a   7.29314625
_cell_length_b   7.22138550
_cell_length_c   7.29314500
_cell_angle_alpha   59.67073134
_cell_angle_beta   60.00000114
_cell_angle_gamma   59.67073096
_symmetry_Int_Tables_number   1
_chemical_formula_structural   Cd3HgPdRu3O14
_chemical_formula_sum   'Cd3 Hg1 Pd1 Ru3 O14'
_cell_volume   270.24386454
_cell_formula_units_Z   1
loop_
 _symmetry_equiv_pos_site_id
 _symmetry_equiv_pos_as_xyz
  1  'x, y, z'
loop_
 _atom_site_type_symbol
 _atom_site_label
 _atom_site_symmetry_multiplicity
 _atom_site_fract_x
 _atom_site_fract_y
 _atom_site_fract_z
 _atom_site_occupancy
  Cd  Cd0  1  0.125000  0.125000  0.625000  1
  Cd  Cd1  1  0.625000  0.125000  0.125000  1
  Cd  Cd2  1  0.125000  0.125000  0.125000  1
  Hg  Hg3  1  0.125000  0.625000  0.125000  1
  Pd  Pd4  1  0.625000  0.125000  0.625000  1
  Ru  Ru5  1  0.625000  0.625000  0.125000  1
  Ru  Ru6  1  0.125000  0.625000  0.625000  1
  Ru  Ru7  1  0.625000  0.625000  0.625000  1
  O  O8  1  0.697527  0.668697  0.316888  1
  O  O9  1  0.933112  0.581303  0.552473  1
  O  O10  1  0.539760  0.954955  0.965526  1
  O  O11  1  0.965526  0.954955  0.539760  1
  O  O12  1  0.933112  0.581303  0.933112  1
  O  O13  1  0.539760  0.954955  0.539760  1
  O  O14  1  0.316888  0.668697  0.316888  1
  O  O15  1  0.316888  0.668697  0.697527  1
  O  O16  1  0.710240  0.295045  0.284474  1
  O  O17  1  0.710240  0.295045  0.710240  1
  O  O18  1  0.552473  0.581303  0.933112  1
  O  O19  1  0.284474  0.295045  0.710240  1
  O  O20  1  0.244865  0.265405  0.244865  1
  O  O21  1  0.005135  0.984595  0.005135  1
