# generated using pymatgen
data_Ho7Lu3(Bi2Te)2
_symmetry_space_group_name_H-M   'P 1'
_cell_length_a   8.13240100
_cell_length_b   9.36320214
_cell_length_c   11.90339200
_cell_angle_alpha   89.98994607
_cell_angle_beta   90.00000000
_cell_angle_gamma   90.00000000
_symmetry_Int_Tables_number   1
_chemical_formula_structural   Ho7Lu3(Bi2Te)2
_chemical_formula_sum   'Ho14 Lu6 Bi8 Te4'
_cell_volume   906.38751327
_cell_formula_units_Z   2
loop_
 _symmetry_equiv_pos_site_id
 _symmetry_equiv_pos_as_xyz
  1  'x, y, z'
loop_
 _atom_site_type_symbol
 _atom_site_label
 _atom_site_symmetry_multiplicity
 _atom_site_fract_x
 _atom_site_fract_y
 _atom_site_fract_z
 _atom_site_occupancy
  Ho  Ho0  1  0.353582  0.750335  0.214149  1
  Ho  Ho1  1  0.853582  0.749665  0.285851  1
  Ho  Ho2  1  0.646711  0.249898  0.785575  1
  Ho  Ho3  1  0.146711  0.250102  0.714425  1
  Ho  Ho4  1  0.688183  0.937379  0.057582  1
  Ho  Ho5  1  0.188183  0.562621  0.442418  1
  Ho  Ho6  1  0.477197  0.249820  0.489310  1
  Ho  Ho7  1  0.977197  0.250180  0.010690  1
  Ho  Ho8  1  0.523250  0.750255  0.510972  1
  Ho  Ho9  1  0.023250  0.749745  0.989028  1
  Ho  Ho10  1  0.319801  0.249622  0.216157  1
  Ho  Ho11  1  0.819801  0.250378  0.283843  1
  Ho  Ho12  1  0.680654  0.749856  0.783492  1
  Ho  Ho13  1  0.180654  0.750144  0.716508  1
  Lu  Lu14  1  0.688689  0.566530  0.057805  1
  Lu  Lu15  1  0.188689  0.933470  0.442195  1
  Lu  Lu16  1  0.311631  0.066402  0.942250  1
  Lu  Lu17  1  0.811631  0.433598  0.557750  1
  Lu  Lu18  1  0.310919  0.434620  0.941915  1
  Lu  Lu19  1  0.810919  0.065380  0.558085  1
  Bi  Bi20  1  0.568455  0.996086  0.325312  1
  Bi  Bi21  1  0.068455  0.503914  0.174688  1
  Bi  Bi22  1  0.431603  0.495952  0.674965  1
  Bi  Bi23  1  0.931603  0.004048  0.825035  1
  Bi  Bi24  1  0.431459  0.004062  0.674717  1
  Bi  Bi25  1  0.931459  0.495938  0.825283  1
  Bi  Bi26  1  0.568820  0.504074  0.325375  1
  Bi  Bi27  1  0.068820  0.995926  0.174625  1
  Te  Te28  1  0.403072  0.749964  0.956934  1
  Te  Te29  1  0.903072  0.750036  0.543066  1
  Te  Te30  1  0.595973  0.253695  0.042043  1
  Te  Te31  1  0.095973  0.246305  0.457957  1
