# generated using pymatgen
data_Er16CdCo4Ag3
_symmetry_space_group_name_H-M   'P 1'
_cell_length_a   9.32975998
_cell_length_b   9.33950111
_cell_length_c   9.33950000
_cell_angle_alpha   60.00000392
_cell_angle_beta   59.96545962
_cell_angle_gamma   59.96546306
_symmetry_Int_Tables_number   1
_chemical_formula_structural   Er16CdCo4Ag3
_chemical_formula_sum   'Er16 Cd1 Co4 Ag3'
_cell_volume   575.14304010
_cell_formula_units_Z   1
loop_
 _symmetry_equiv_pos_site_id
 _symmetry_equiv_pos_as_xyz
  1  'x, y, z'
loop_
 _atom_site_type_symbol
 _atom_site_label
 _atom_site_symmetry_multiplicity
 _atom_site_fract_x
 _atom_site_fract_y
 _atom_site_fract_z
 _atom_site_occupancy
  Er  Er0  1  0.347015  0.347154  0.347154  1
  Er  Er1  1  0.347015  0.347154  0.958678  1
  Er  Er2  1  0.347015  0.958678  0.347154  1
  Er  Er3  1  0.956087  0.347971  0.347971  1
  Er  Er4  1  0.811577  0.188308  0.188308  1
  Er  Er5  1  0.187788  0.812167  0.812167  1
  Er  Er6  1  0.187788  0.812167  0.187878  1
  Er  Er7  1  0.811577  0.188308  0.811806  1
  Er  Er8  1  0.187788  0.187878  0.812167  1
  Er  Er9  1  0.811577  0.811806  0.188308  1
  Er  Er10  1  0.934666  0.563204  0.563204  1
  Er  Er11  1  0.561878  0.937679  0.937679  1
  Er  Er12  1  0.561878  0.937679  0.562763  1
  Er  Er13  1  0.934666  0.563204  0.938926  1
  Er  Er14  1  0.561878  0.562763  0.937679  1
  Er  Er15  1  0.934666  0.938926  0.563204  1
  Cd  Cd16  1  0.265530  0.578157  0.578157  1
  Co  Co17  1  0.141100  0.141409  0.141409  1
  Co  Co18  1  0.141100  0.141409  0.576084  1
  Co  Co19  1  0.141100  0.576084  0.141409  1
  Co  Co20  1  0.576751  0.141083  0.141083  1
  Ag  Ag21  1  0.583189  0.582063  0.582063  1
  Ag  Ag22  1  0.583189  0.582063  0.252687  1
  Ag  Ag23  1  0.583189  0.252687  0.582063  1
