# generated using pymatgen
data_GaSnSbO6
_symmetry_space_group_name_H-M   'P 1'
_cell_length_a   4.73021400
_cell_length_b   4.73021400
_cell_length_c   9.40816100
_cell_angle_alpha   90.00000000
_cell_angle_beta   90.00000000
_cell_angle_gamma   90.00000000
_symmetry_Int_Tables_number   1
_chemical_formula_structural   GaSnSbO6
_chemical_formula_sum   'Ga2 Sn2 Sb2 O12'
_cell_volume   210.50689193
_cell_formula_units_Z   2
loop_
 _symmetry_equiv_pos_site_id
 _symmetry_equiv_pos_as_xyz
  1  'x, y, z'
loop_
 _atom_site_type_symbol
 _atom_site_label
 _atom_site_symmetry_multiplicity
 _atom_site_fract_x
 _atom_site_fract_y
 _atom_site_fract_z
 _atom_site_occupancy
  Ga  Ga0  1  0.500000  0.500000  0.167018  1
  Ga  Ga1  1  0.000000  0.000000  0.667018  1
  Sn  Sn2  1  0.500000  0.500000  0.499109  1
  Sn  Sn3  1  0.000000  0.000000  0.999109  1
  Sb  Sb4  1  0.500000  0.500000  0.833422  1
  Sb  Sb5  1  0.000000  0.000000  0.333422  1
  O  O6  1  0.197246  0.802754  0.171456  1
  O  O7  1  0.187966  0.812034  0.499994  1
  O  O8  1  0.197093  0.802907  0.828774  1
  O  O9  1  0.802754  0.197246  0.171456  1
  O  O10  1  0.812034  0.187966  0.499994  1
  O  O11  1  0.802907  0.197093  0.828774  1
  O  O12  1  0.312034  0.312034  0.999994  1
  O  O13  1  0.302907  0.302907  0.328774  1
  O  O14  1  0.302754  0.302754  0.671456  1
  O  O15  1  0.687966  0.687966  0.999994  1
  O  O16  1  0.697093  0.697093  0.328774  1
  O  O17  1  0.697246  0.697246  0.671456  1
