# generated using pymatgen
data_PrSeClO3
_symmetry_space_group_name_H-M   'P 1'
_cell_length_a   7.36291400
_cell_length_b   5.63486421
_cell_length_c   6.78721002
_cell_angle_alpha   83.17326692
_cell_angle_beta   90.00000000
_cell_angle_gamma   90.00000000
_symmetry_Int_Tables_number   1
_chemical_formula_structural   PrSeClO3
_chemical_formula_sum   'Pr2 Se2 Cl2 O6'
_cell_volume   279.59823345
_cell_formula_units_Z   2
loop_
 _symmetry_equiv_pos_site_id
 _symmetry_equiv_pos_as_xyz
  1  'x, y, z'
loop_
 _atom_site_type_symbol
 _atom_site_label
 _atom_site_symmetry_multiplicity
 _atom_site_fract_x
 _atom_site_fract_y
 _atom_site_fract_z
 _atom_site_occupancy
  Pr  Pr0  1  0.250000  0.543040  0.359622  1
  Pr  Pr1  1  0.750000  0.456960  0.640378  1
  Se  Se2  1  0.750000  0.658016  0.152858  1
  Se  Se3  1  0.250000  0.341984  0.847142  1
  Cl  Cl4  1  0.250000  0.041247  0.342111  1
  Cl  Cl5  1  0.750000  0.958753  0.657889  1
  O  O6  1  0.250000  0.547653  0.010134  1
  O  O7  1  0.750000  0.452347  0.989866  1
  O  O8  1  0.577094  0.559377  0.320000  1
  O  O9  1  0.077094  0.440623  0.680000  1
  O  O10  1  0.422906  0.440623  0.680000  1
  O  O11  1  0.922906  0.559377  0.320000  1
