# generated using pymatgen
data_PrSe23
_symmetry_space_group_name_H-M   'P 1'
_cell_length_a   5.61582105
_cell_length_b   10.45683034
_cell_length_c   16.12436635
_cell_angle_alpha   99.61148246
_cell_angle_beta   84.98250730
_cell_angle_gamma   92.94703708
_symmetry_Int_Tables_number   1
_chemical_formula_structural   PrSe23
_chemical_formula_sum   'Pr1 Se23'
_cell_volume   929.35964410
_cell_formula_units_Z   1
loop_
 _symmetry_equiv_pos_site_id
 _symmetry_equiv_pos_as_xyz
  1  'x, y, z'
loop_
 _atom_site_type_symbol
 _atom_site_label
 _atom_site_symmetry_multiplicity
 _atom_site_fract_x
 _atom_site_fract_y
 _atom_site_fract_z
 _atom_site_occupancy
  Pr  Pr0  1  0.407864  0.220497  0.352365  1
  Se  Se1  1  0.467216  0.812256  0.390270  1
  Se  Se2  1  0.923917  0.322425  0.157385  1
  Se  Se3  1  0.854430  0.247616  0.436979  1
  Se  Se4  1  0.263477  0.774074  0.520273  1
  Se  Se5  1  0.173207  0.263246  0.032113  1
  Se  Se6  1  0.804683  0.734739  0.027018  1
  Se  Se7  1  0.124415  0.449656  0.374539  1
  Se  Se8  1  0.701784  0.626174  0.347827  1
  Se  Se9  1  0.731182  0.129249  0.191282  1
  Se  Se10  1  0.304319  0.892803  0.156432  1
  Se  Se11  1  0.748257  0.617812  0.614784  1
  Se  Se12  1  0.308315  0.331951  0.585564  1
  Se  Se13  1  0.222298  0.874520  0.865469  1
  Se  Se14  1  0.756023  0.126351  0.862947  1
  Se  Se15  1  0.090726  0.693583  0.117370  1
  Se  Se16  1  0.534359  0.810365  0.626155  1
  Se  Se17  1  0.541109  0.147750  0.524843  1
  Se  Se18  1  0.992216  0.686625  0.888833  1
  Se  Se19  1  0.983891  0.313215  0.917024  1
  Se  Se20  1  0.435081  0.475448  0.267087  1
  Se  Se21  1  0.082416  0.998297  0.278833  1
  Se  Se22  1  0.523886  0.467025  0.688015  1
  Se  Se23  1  0.024929  0.984323  0.776594  1
