# generated using pymatgen
data_Ti6Be15Pd8
_symmetry_space_group_name_H-M   'P 1'
_cell_length_a   7.85058298
_cell_length_b   7.85058307
_cell_length_c   7.85058300
_cell_angle_alpha   59.99999610
_cell_angle_beta   59.99999570
_cell_angle_gamma   59.99999753
_symmetry_Int_Tables_number   1
_chemical_formula_structural   Ti6Be15Pd8
_chemical_formula_sum   'Ti6 Be15 Pd8'
_cell_volume   342.12963867
_cell_formula_units_Z   1
loop_
 _symmetry_equiv_pos_site_id
 _symmetry_equiv_pos_as_xyz
  1  'x, y, z'
loop_
 _atom_site_type_symbol
 _atom_site_label
 _atom_site_symmetry_multiplicity
 _atom_site_fract_x
 _atom_site_fract_y
 _atom_site_fract_z
 _atom_site_occupancy
  Ti  Ti0  1  0.689659  0.310341  0.310341  1
  Ti  Ti1  1  0.310341  0.689659  0.689659  1
  Ti  Ti2  1  0.310341  0.689659  0.310341  1
  Ti  Ti3  1  0.689659  0.310341  0.689659  1
  Ti  Ti4  1  0.310341  0.310341  0.689659  1
  Ti  Ti5  1  0.689659  0.689659  0.310341  1
  Be  Be6  1  0.329505  0.329505  0.329505  1
  Be  Be7  1  0.670495  0.670495  0.670495  1
  Be  Be8  1  0.329505  0.329505  0.011485  1
  Be  Be9  1  0.329505  0.011485  0.329505  1
  Be  Be10  1  0.670495  0.670495  0.988515  1
  Be  Be11  1  0.670495  0.988515  0.670495  1
  Be  Be12  1  0.011485  0.329505  0.329505  1
  Be  Be13  1  0.988515  0.670495  0.670495  1
  Be  Be14  1  0.500000  0.000000  0.000000  1
  Be  Be15  1  0.000000  0.500000  0.500000  1
  Be  Be16  1  0.000000  0.500000  0.000000  1
  Be  Be17  1  0.500000  0.000000  0.500000  1
  Be  Be18  1  0.000000  0.000000  0.500000  1
  Be  Be19  1  0.500000  0.500000  0.000000  1
  Be  Be20  1  0.000000  0.000000  0.000000  1
  Pd  Pd21  1  0.125088  0.125088  0.125088  1
  Pd  Pd22  1  0.874912  0.874912  0.874912  1
  Pd  Pd23  1  0.125088  0.125088  0.624736  1
  Pd  Pd24  1  0.125088  0.624736  0.125088  1
  Pd  Pd25  1  0.874912  0.874912  0.375264  1
  Pd  Pd26  1  0.874912  0.375264  0.874912  1
  Pd  Pd27  1  0.624736  0.125088  0.125088  1
  Pd  Pd28  1  0.375264  0.874912  0.874912  1
