# generated using pymatgen
data_Hf9TaTcNiW2
_symmetry_space_group_name_H-M   'P 1'
_cell_length_a   8.71870653
_cell_length_b   8.69012722
_cell_length_c   8.48143000
_cell_angle_alpha   90.00000000
_cell_angle_beta   90.00000000
_cell_angle_gamma   119.89163188
_symmetry_Int_Tables_number   1
_chemical_formula_structural   Hf9TaTcNiW2
_chemical_formula_sum   'Hf18 Ta2 Tc2 Ni2 W4'
_cell_volume   557.12303802
_cell_formula_units_Z   2
loop_
 _symmetry_equiv_pos_site_id
 _symmetry_equiv_pos_as_xyz
  1  'x, y, z'
loop_
 _atom_site_type_symbol
 _atom_site_label
 _atom_site_symmetry_multiplicity
 _atom_site_fract_x
 _atom_site_fract_y
 _atom_site_fract_z
 _atom_site_occupancy
  Hf  Hf0  1  0.201474  0.799924  0.441910  1
  Hf  Hf1  1  0.201474  0.401552  0.441910  1
  Hf  Hf2  1  0.598085  0.799043  0.441959  1
  Hf  Hf3  1  0.800254  0.200462  0.558250  1
  Hf  Hf4  1  0.800254  0.599790  0.558250  1
  Hf  Hf5  1  0.400826  0.200411  0.557804  1
  Hf  Hf6  1  0.800254  0.200462  0.941750  1
  Hf  Hf7  1  0.800254  0.599790  0.941750  1
  Hf  Hf8  1  0.400826  0.200411  0.942196  1
  Hf  Hf9  1  0.201474  0.799924  0.058090  1
  Hf  Hf10  1  0.201474  0.401552  0.058090  1
  Hf  Hf11  1  0.598085  0.799043  0.058041  1
  Hf  Hf12  1  0.542532  0.456350  0.250000  1
  Hf  Hf13  1  0.542532  0.086180  0.250000  1
  Hf  Hf14  1  0.913619  0.456810  0.250000  1
  Hf  Hf15  1  0.457195  0.542532  0.750000  1
  Hf  Hf16  1  0.457195  0.914665  0.750000  1
  Hf  Hf17  1  0.084656  0.542329  0.750000  1
  Ta  Ta18  1  0.997920  0.998960  0.495350  1
  Ta  Ta19  1  0.997920  0.998960  0.004650  1
  Tc  Tc20  1  0.886429  0.115362  0.250000  1
  Tc  Tc21  1  0.886429  0.771067  0.250000  1
  Ni  Ni22  1  0.334184  0.667093  0.250000  1
  Ni  Ni23  1  0.666684  0.333342  0.750000  1
  W  W24  1  0.230786  0.115393  0.250000  1
  W  W25  1  0.112385  0.885735  0.750000  1
  W  W26  1  0.112385  0.226649  0.750000  1
  W  W27  1  0.772417  0.886209  0.750000  1
