# generated using pymatgen
data_Na2Ni9Mo3As7
_symmetry_space_group_name_H-M   'P 1'
_cell_length_a   9.53666900
_cell_length_b   9.53666958
_cell_length_c   3.81182000
_cell_angle_alpha   90.00000000
_cell_angle_beta   90.00000000
_cell_angle_gamma   120.00000146
_symmetry_Int_Tables_number   1
_chemical_formula_structural   Na2Ni9Mo3As7
_chemical_formula_sum   'Na2 Ni9 Mo3 As7'
_cell_volume   300.23163731
_cell_formula_units_Z   1
loop_
 _symmetry_equiv_pos_site_id
 _symmetry_equiv_pos_as_xyz
  1  'x, y, z'
loop_
 _atom_site_type_symbol
 _atom_site_label
 _atom_site_symmetry_multiplicity
 _atom_site_fract_x
 _atom_site_fract_y
 _atom_site_fract_z
 _atom_site_occupancy
  Na  Na0  1  0.333333  0.666667  0.000000  1
  Na  Na1  1  0.666667  0.333333  0.500000  1
  Ni  Ni2  1  0.123926  0.283518  0.000000  1
  Ni  Ni3  1  0.716482  0.840409  0.000000  1
  Ni  Ni4  1  0.159591  0.876074  0.000000  1
  Ni  Ni5  1  0.427690  0.370356  0.000000  1
  Ni  Ni6  1  0.629644  0.057335  0.000000  1
  Ni  Ni7  1  0.942665  0.572310  0.000000  1
  Ni  Ni8  1  0.052215  0.435619  0.500000  1
  Ni  Ni9  1  0.564381  0.616595  0.500000  1
  Ni  Ni10  1  0.383405  0.947785  0.500000  1
  Mo  Mo11  1  0.217925  0.118471  0.500000  1
  Mo  Mo12  1  0.881529  0.099455  0.500000  1
  Mo  Mo13  1  0.900545  0.782075  0.500000  1
  As  As14  1  0.292090  0.412548  0.500000  1
  As  As15  1  0.587452  0.879542  0.500000  1
  As  As16  1  0.120458  0.707910  0.500000  1
  As  As17  1  0.415549  0.117370  0.000000  1
  As  As18  1  0.882630  0.298180  0.000000  1
  As  As19  1  0.701820  0.584451  0.000000  1
  As  As20  1  0.000000  0.000000  0.000000  1
