# generated using pymatgen
data_Ba7CdHg30
_symmetry_space_group_name_H-M   'P 1'
_cell_length_a   11.02492896
_cell_length_b   11.00480786
_cell_length_c   10.86988400
_cell_angle_alpha   90.00000000
_cell_angle_beta   90.00000000
_cell_angle_gamma   121.48654686
_symmetry_Int_Tables_number   1
_chemical_formula_structural   Ba7CdHg30
_chemical_formula_sum   'Ba7 Cd1 Hg30'
_cell_volume   1124.63458016
_cell_formula_units_Z   1
loop_
 _symmetry_equiv_pos_site_id
 _symmetry_equiv_pos_as_xyz
  1  'x, y, z'
loop_
 _atom_site_type_symbol
 _atom_site_label
 _atom_site_symmetry_multiplicity
 _atom_site_fract_x
 _atom_site_fract_y
 _atom_site_fract_z
 _atom_site_occupancy
  Ba  Ba0  1  0.661210  0.328925  0.000000  1
  Ba  Ba1  1  0.998188  0.006001  0.000000  1
  Ba  Ba2  1  0.834122  0.666430  0.500000  1
  Ba  Ba3  1  0.336161  0.164153  0.500000  1
  Ba  Ba4  1  0.837356  0.170642  0.500000  1
  Ba  Ba5  1  0.336018  0.665586  0.788345  1
  Ba  Ba6  1  0.336018  0.665586  0.211655  1
  Cd  Cd7  1  0.047591  0.662385  0.000000  1
  Hg  Hg8  1  0.325402  0.387447  0.000000  1
  Hg  Hg9  1  0.601513  0.937880  0.000000  1
  Hg  Hg10  1  0.608252  0.671620  0.000000  1
  Hg  Hg11  1  0.323939  0.931684  0.000000  1
  Hg  Hg12  1  0.062132  0.399175  0.000000  1
  Hg  Hg13  1  0.835669  0.675524  0.832284  1
  Hg  Hg14  1  0.325341  0.161485  0.831352  1
  Hg  Hg15  1  0.836352  0.162642  0.830499  1
  Hg  Hg16  1  0.835669  0.675524  0.167716  1
  Hg  Hg17  1  0.325341  0.161485  0.168648  1
  Hg  Hg18  1  0.836352  0.162642  0.169501  1
  Hg  Hg19  1  0.670075  0.335100  0.642980  1
  Hg  Hg20  1  0.004148  0.998103  0.647471  1
  Hg  Hg21  1  0.004148  0.998103  0.352529  1
  Hg  Hg22  1  0.670075  0.335100  0.357020  1
  Hg  Hg23  1  0.962236  0.485257  0.740312  1
  Hg  Hg24  1  0.522046  0.478937  0.737050  1
  Hg  Hg25  1  0.518163  0.040653  0.736087  1
  Hg  Hg26  1  0.154064  0.843586  0.708871  1
  Hg  Hg27  1  0.693601  0.847601  0.695634  1
  Hg  Hg28  1  0.155461  0.308815  0.695631  1
  Hg  Hg29  1  0.693601  0.847601  0.304366  1
  Hg  Hg30  1  0.154064  0.843586  0.291129  1
  Hg  Hg31  1  0.155461  0.308815  0.304369  1
  Hg  Hg32  1  0.522046  0.478937  0.262950  1
  Hg  Hg33  1  0.962236  0.485257  0.259688  1
  Hg  Hg34  1  0.518163  0.040653  0.263913  1
  Hg  Hg35  1  0.135009  0.570259  0.500000  1
  Hg  Hg36  1  0.433791  0.564955  0.500000  1
  Hg  Hg37  1  0.435655  0.865195  0.500000  1
