# generated using pymatgen
data_Zr4AlCo6W
_symmetry_space_group_name_H-M   'P 1'
_cell_length_a   5.08506200
_cell_length_b   5.08506038
_cell_length_c   7.81843300
_cell_angle_alpha   90.00000000
_cell_angle_beta   90.00000000
_cell_angle_gamma   120.00001055
_symmetry_Int_Tables_number   1
_chemical_formula_structural   Zr4AlCo6W
_chemical_formula_sum   'Zr4 Al1 Co6 W1'
_cell_volume   175.08247242
_cell_formula_units_Z   1
loop_
 _symmetry_equiv_pos_site_id
 _symmetry_equiv_pos_as_xyz
  1  'x, y, z'
loop_
 _atom_site_type_symbol
 _atom_site_label
 _atom_site_symmetry_multiplicity
 _atom_site_fract_x
 _atom_site_fract_y
 _atom_site_fract_z
 _atom_site_occupancy
  Zr  Zr0  1  0.333333  0.666667  0.434833  1
  Zr  Zr1  1  0.666667  0.333333  0.565167  1
  Zr  Zr2  1  0.666667  0.333333  0.940751  1
  Zr  Zr3  1  0.333333  0.666667  0.059249  1
  Al  Al4  1  0.000000  0.000000  0.500000  1
  Co  Co5  1  0.828385  0.171615  0.250489  1
  Co  Co6  1  0.828385  0.656770  0.250489  1
  Co  Co7  1  0.343230  0.171615  0.250489  1
  Co  Co8  1  0.171615  0.828385  0.749511  1
  Co  Co9  1  0.171615  0.343230  0.749511  1
  Co  Co10  1  0.656770  0.828385  0.749511  1
  W  W11  1  0.000000  0.000000  0.000000  1
