# generated using pymatgen
data_CdIr2F12
_symmetry_space_group_name_H-M   'P 1'
_cell_length_a   7.23952360
_cell_length_b   7.23952407
_cell_length_c   10.29067364
_cell_angle_alpha   68.49662003
_cell_angle_beta   68.49661610
_cell_angle_gamma   76.66208906
_symmetry_Int_Tables_number   1
_chemical_formula_structural   CdIr2F12
_chemical_formula_sum   'Cd2 Ir4 F24'
_cell_volume   463.97386726
_cell_formula_units_Z   2
loop_
 _symmetry_equiv_pos_site_id
 _symmetry_equiv_pos_as_xyz
  1  'x, y, z'
loop_
 _atom_site_type_symbol
 _atom_site_label
 _atom_site_symmetry_multiplicity
 _atom_site_fract_x
 _atom_site_fract_y
 _atom_site_fract_z
 _atom_site_occupancy
  Cd  Cd0  1  0.174551  0.825449  0.750000  1
  Cd  Cd1  1  0.825449  0.174551  0.250000  1
  Ir  Ir2  1  0.247029  0.255683  0.371292  1
  Ir  Ir3  1  0.255683  0.247029  0.871292  1
  Ir  Ir4  1  0.752971  0.744317  0.628708  1
  Ir  Ir5  1  0.744317  0.752971  0.128708  1
  F  F6  1  0.860324  0.868453  0.222771  1
  F  F7  1  0.139676  0.131547  0.777229  1
  F  F8  1  0.294194  0.987590  0.500898  1
  F  F9  1  0.989003  0.281239  0.506656  1
  F  F10  1  0.281239  0.989003  0.006656  1
  F  F11  1  0.366628  0.357154  0.462543  1
  F  F12  1  0.357154  0.366628  0.962543  1
  F  F13  1  0.868453  0.860324  0.722771  1
  F  F14  1  0.784235  0.486122  0.266727  1
  F  F15  1  0.012410  0.705806  0.999102  1
  F  F16  1  0.705806  0.012410  0.499102  1
  F  F17  1  0.987590  0.294194  0.000898  1
  F  F18  1  0.509978  0.205732  0.741828  1
  F  F19  1  0.633372  0.642846  0.537457  1
  F  F20  1  0.215765  0.513878  0.733273  1
  F  F21  1  0.642846  0.633372  0.037457  1
  F  F22  1  0.486122  0.784235  0.766727  1
  F  F23  1  0.794268  0.490022  0.758172  1
  F  F24  1  0.513878  0.215765  0.233273  1
  F  F25  1  0.490022  0.794268  0.258172  1
  F  F26  1  0.205732  0.509978  0.241828  1
  F  F27  1  0.718761  0.010997  0.993344  1
  F  F28  1  0.131547  0.139676  0.277229  1
  F  F29  1  0.010997  0.718761  0.493344  1
