# generated using pymatgen
data_TbNd7Sb20
_symmetry_space_group_name_H-M   'P 1'
_cell_length_a   4.26751900
_cell_length_b   13.52455925
_cell_length_c   15.21819079
_cell_angle_alpha   77.68353053
_cell_angle_beta   90.00000000
_cell_angle_gamma   90.00000000
_symmetry_Int_Tables_number   1
_chemical_formula_structural   TbNd7Sb20
_chemical_formula_sum   'Tb1 Nd7 Sb20'
_cell_volume   858.12230998
_cell_formula_units_Z   1
loop_
 _symmetry_equiv_pos_site_id
 _symmetry_equiv_pos_as_xyz
  1  'x, y, z'
loop_
 _atom_site_type_symbol
 _atom_site_label
 _atom_site_symmetry_multiplicity
 _atom_site_fract_x
 _atom_site_fract_y
 _atom_site_fract_z
 _atom_site_occupancy
  Tb  Tb0  1  0.750000  0.604743  0.227370  1
  Nd  Nd1  1  0.750000  0.335895  0.145169  1
  Nd  Nd2  1  0.250000  0.949454  0.360993  1
  Nd  Nd3  1  0.250000  0.664571  0.857967  1
  Nd  Nd4  1  0.250000  0.668930  0.575295  1
  Nd  Nd5  1  0.750000  0.049078  0.637853  1
  Nd  Nd6  1  0.750000  0.331547  0.422173  1
  Nd  Nd7  1  0.250000  0.395224  0.773387  1
  Sb  Sb8  1  0.750000  0.850424  0.819663  1
  Sb  Sb9  1  0.250000  0.860991  0.675174  1
  Sb  Sb10  1  0.250000  0.142100  0.477221  1
  Sb  Sb11  1  0.750000  0.284421  0.941079  1
  Sb  Sb12  1  0.250000  0.143596  0.779502  1
  Sb  Sb13  1  0.750000  0.574310  0.441298  1
  Sb  Sb14  1  0.750000  0.137339  0.324767  1
  Sb  Sb15  1  0.250000  0.706841  0.350252  1
  Sb  Sb16  1  0.750000  0.292386  0.646694  1
  Sb  Sb17  1  0.750000  0.853974  0.219002  1
  Sb  Sb18  1  0.250000  0.420977  0.976547  1
  Sb  Sb19  1  0.250000  0.425396  0.555755  1
  Sb  Sb20  1  0.750000  0.578036  0.735062  1
  Sb  Sb21  1  0.250000  0.428214  0.263831  1
  Sb  Sb22  1  0.750000  0.857808  0.521772  1
  Sb  Sb23  1  0.750000  0.029346  0.890225  1
  Sb  Sb24  1  0.250000  0.715561  0.065051  1
  Sb  Sb25  1  0.250000  0.970015  0.108864  1
  Sb  Sb26  1  0.250000  0.148879  0.180230  1
  Sb  Sb27  1  0.750000  0.579942  0.027803  1
