# generated using pymatgen
data_Ho2Ga3Cu4Si
_symmetry_space_group_name_H-M   'P 1'
_cell_length_a   4.05598000
_cell_length_b   4.05598000
_cell_length_c   10.12642600
_cell_angle_alpha   90.00000000
_cell_angle_beta   90.00000000
_cell_angle_gamma   90.00000000
_symmetry_Int_Tables_number   1
_chemical_formula_structural   Ho2Ga3Cu4Si
_chemical_formula_sum   'Ho2 Ga3 Cu4 Si1'
_cell_volume   166.58956841
_cell_formula_units_Z   1
loop_
 _symmetry_equiv_pos_site_id
 _symmetry_equiv_pos_as_xyz
  1  'x, y, z'
loop_
 _atom_site_type_symbol
 _atom_site_label
 _atom_site_symmetry_multiplicity
 _atom_site_fract_x
 _atom_site_fract_y
 _atom_site_fract_z
 _atom_site_occupancy
  Ho  Ho0  1  0.000000  0.500000  0.241448  1
  Ho  Ho1  1  0.500000  0.000000  0.757639  1
  Ga  Ga2  1  0.000000  0.000000  0.497835  1
  Ga  Ga3  1  0.500000  0.500000  0.497835  1
  Ga  Ga4  1  0.000000  0.500000  0.868458  1
  Cu  Cu5  1  0.000000  0.000000  0.007427  1
  Cu  Cu6  1  0.500000  0.500000  0.007427  1
  Cu  Cu7  1  0.000000  0.500000  0.636123  1
  Cu  Cu8  1  0.500000  0.000000  0.356010  1
  Si  Si9  1  0.500000  0.000000  0.129796  1
