# generated using pymatgen
data_K2Cd5(MoO4)6
_symmetry_space_group_name_H-M   'P 1'
_cell_length_a   7.44584425
_cell_length_b   9.44482221
_cell_length_c   11.06498497
_cell_angle_alpha   106.40240320
_cell_angle_beta   106.81866195
_cell_angle_gamma   102.95298695
_symmetry_Int_Tables_number   1
_chemical_formula_structural   K2Cd5(MoO4)6
_chemical_formula_sum   'K2 Cd5 Mo6 O24'
_cell_volume   673.74121951
_cell_formula_units_Z   1
loop_
 _symmetry_equiv_pos_site_id
 _symmetry_equiv_pos_as_xyz
  1  'x, y, z'
loop_
 _atom_site_type_symbol
 _atom_site_label
 _atom_site_symmetry_multiplicity
 _atom_site_fract_x
 _atom_site_fract_y
 _atom_site_fract_z
 _atom_site_occupancy
  K  K0  1  0.999464  0.498055  0.996555  1
  K  K1  1  0.293860  0.307453  0.297615  1
  Cd  Cd2  1  0.379631  0.949542  0.106746  1
  Cd  Cd3  1  0.634723  0.049431  0.897272  1
  Cd  Cd4  1  0.950431  0.785186  0.467285  1
  Cd  Cd5  1  0.030395  0.200355  0.523058  1
  Cd  Cd6  1  0.713013  0.708277  0.692974  1
  Mo  Mo7  1  0.405161  0.750498  0.376821  1
  Mo  Mo8  1  0.599397  0.278546  0.640697  1
  Mo  Mo9  1  0.882953  0.899911  0.165604  1
  Mo  Mo10  1  0.106732  0.074229  0.824185  1
  Mo  Mo11  1  0.784923  0.332163  0.239079  1
  Mo  Mo12  1  0.223953  0.668392  0.758131  1
  O  O13  1  0.264396  0.819968  0.471637  1
  O  O14  1  0.737925  0.206727  0.545301  1
  O  O15  1  0.682307  0.961692  0.078839  1
  O  O16  1  0.317361  0.019126  0.904630  1
  O  O17  1  0.821263  0.698565  0.085750  1
  O  O18  1  0.153739  0.271044  0.912317  1
  O  O19  1  0.108742  0.993089  0.148662  1
  O  O20  1  0.876471  0.964900  0.833799  1
  O  O21  1  0.452540  0.864516  0.278344  1
  O  O22  1  0.607340  0.194850  0.768007  1
  O  O23  1  0.256469  0.559041  0.260561  1
  O  O24  1  0.714617  0.490440  0.725582  1
  O  O25  1  0.806673  0.288995  0.075480  1
  O  O26  1  0.232666  0.707529  0.928344  1
  O  O27  1  0.813768  0.533629  0.316766  1
  O  O28  1  0.168800  0.465396  0.679109  1
  O  O29  1  0.919357  0.943599  0.344871  1
  O  O30  1  0.069281  0.045896  0.648505  1
  O  O31  1  0.971123  0.281831  0.347828  1
  O  O32  1  0.023669  0.726081  0.665380  1
  O  O33  1  0.638723  0.743842  0.493197  1
  O  O34  1  0.349823  0.234847  0.526750  1
  O  O35  1  0.543873  0.213498  0.216387  1
  O  O36  1  0.464442  0.768858  0.757932  1
