# generated using pymatgen
data_Na4ScOsO6
_symmetry_space_group_name_H-M   'P 1'
_cell_length_a   5.52449464
_cell_length_b   5.52454888
_cell_length_c   5.77694554
_cell_angle_alpha   99.34544339
_cell_angle_beta   99.34639796
_cell_angle_gamma   119.94728304
_symmetry_Int_Tables_number   1
_chemical_formula_structural   Na4ScOsO6
_chemical_formula_sum   'Na4 Sc1 Os1 O6'
_cell_volume   144.50488804
_cell_formula_units_Z   1
loop_
 _symmetry_equiv_pos_site_id
 _symmetry_equiv_pos_as_xyz
  1  'x, y, z'
loop_
 _atom_site_type_symbol
 _atom_site_label
 _atom_site_symmetry_multiplicity
 _atom_site_fract_x
 _atom_site_fract_y
 _atom_site_fract_z
 _atom_site_occupancy
  Na  Na0  1  0.499625  0.500376  0.000000  1
  Na  Na1  1  0.003916  0.996080  0.499999  1
  Na  Na2  1  0.658439  0.341564  0.499998  1
  Na  Na3  1  0.340087  0.659918  0.500005  1
  Sc  Sc4  1  0.832580  0.167405  0.999996  1
  Os  Os5  1  0.167088  0.832909  0.000003  1
  O  O6  1  0.947974  0.587041  0.205951  1
  O  O7  1  0.552354  0.930987  0.208806  1
  O  O8  1  0.209218  0.193256  0.209167  1
  O  O9  1  0.806749  0.790787  0.790836  1
  O  O10  1  0.069014  0.447648  0.791192  1
  O  O11  1  0.412961  0.052034  0.794050  1
