# generated using pymatgen
data_Nd12Al3PbI12
_symmetry_space_group_name_H-M   'P 1'
_cell_length_a   11.02880922
_cell_length_b   11.02880886
_cell_length_c   11.02880900
_cell_angle_alpha   109.82185144
_cell_angle_beta   109.82185076
_cell_angle_gamma   109.82184852
_symmetry_Int_Tables_number   1
_chemical_formula_structural   Nd12Al3PbI12
_chemical_formula_sum   'Nd12 Al3 Pb1 I12'
_cell_volume   1019.04943849
_cell_formula_units_Z   1
loop_
 _symmetry_equiv_pos_site_id
 _symmetry_equiv_pos_as_xyz
  1  'x, y, z'
loop_
 _atom_site_type_symbol
 _atom_site_label
 _atom_site_symmetry_multiplicity
 _atom_site_fract_x
 _atom_site_fract_y
 _atom_site_fract_z
 _atom_site_occupancy
  Nd  Nd0  1  0.750000  0.236654  0.263346  1
  Nd  Nd1  1  0.488329  0.750000  0.011671  1
  Nd  Nd2  1  0.019983  0.264943  0.000903  1
  Nd  Nd3  1  0.264943  0.000903  0.019983  1
  Nd  Nd4  1  0.236654  0.263346  0.750000  1
  Nd  Nd5  1  0.263346  0.750000  0.236654  1
  Nd  Nd6  1  0.235057  0.480017  0.499097  1
  Nd  Nd7  1  0.480017  0.499097  0.235057  1
  Nd  Nd8  1  0.750000  0.011671  0.488329  1
  Nd  Nd9  1  0.499097  0.235057  0.480017  1
  Nd  Nd10  1  0.000903  0.019983  0.264943  1
  Nd  Nd11  1  0.011671  0.488329  0.750000  1
  Al  Al12  1  0.998853  0.250000  0.501147  1
  Al  Al13  1  0.250000  0.501147  0.998853  1
  Al  Al14  1  0.501147  0.998853  0.250000  1
  Pb  Pb15  1  0.250000  0.250000  0.250000  1
  I  I16  1  0.757600  0.742400  0.250000  1
  I  I17  1  0.504923  0.250000  0.995077  1
  I  I18  1  0.250000  0.995077  0.504923  1
  I  I19  1  0.514048  0.506616  0.756933  1
  I  I20  1  0.506616  0.756933  0.514048  1
  I  I21  1  0.756933  0.514048  0.506616  1
  I  I22  1  0.742400  0.250000  0.757600  1
  I  I23  1  0.250000  0.757600  0.742400  1
  I  I24  1  0.985952  0.743067  0.993384  1
  I  I25  1  0.995077  0.504923  0.250000  1
  I  I26  1  0.993384  0.985952  0.743067  1
  I  I27  1  0.743067  0.993384  0.985952  1
