# generated using pymatgen
data_Hf18Mo8RhSe
_symmetry_space_group_name_H-M   'P 1'
_cell_length_a   8.71832900
_cell_length_b   8.71832841
_cell_length_c   8.60541800
_cell_angle_alpha   90.00000000
_cell_angle_beta   90.00000000
_cell_angle_gamma   119.99999844
_symmetry_Int_Tables_number   1
_chemical_formula_structural   Hf18Mo8RhSe
_chemical_formula_sum   'Hf18 Mo8 Rh1 Se1'
_cell_volume   566.45979037
_cell_formula_units_Z   1
loop_
 _symmetry_equiv_pos_site_id
 _symmetry_equiv_pos_as_xyz
  1  'x, y, z'
loop_
 _atom_site_type_symbol
 _atom_site_label
 _atom_site_symmetry_multiplicity
 _atom_site_fract_x
 _atom_site_fract_y
 _atom_site_fract_z
 _atom_site_occupancy
  Hf  Hf0  1  0.542584  0.085169  0.250000  1
  Hf  Hf1  1  0.456468  0.912936  0.750000  1
  Hf  Hf2  1  0.914831  0.457416  0.250000  1
  Hf  Hf3  1  0.087064  0.543532  0.750000  1
  Hf  Hf4  1  0.542584  0.457416  0.250000  1
  Hf  Hf5  1  0.456468  0.543532  0.750000  1
  Hf  Hf6  1  0.198887  0.397773  0.051933  1
  Hf  Hf7  1  0.805952  0.611904  0.954183  1
  Hf  Hf8  1  0.602227  0.801113  0.051933  1
  Hf  Hf9  1  0.805952  0.611904  0.545817  1
  Hf  Hf10  1  0.388096  0.194048  0.954183  1
  Hf  Hf11  1  0.198887  0.397773  0.448067  1
  Hf  Hf12  1  0.198887  0.801113  0.051933  1
  Hf  Hf13  1  0.388096  0.194048  0.545817  1
  Hf  Hf14  1  0.805952  0.194048  0.954183  1
  Hf  Hf15  1  0.602227  0.801113  0.448067  1
  Hf  Hf16  1  0.805952  0.194048  0.545817  1
  Hf  Hf17  1  0.198887  0.801113  0.448067  1
  Mo  Mo18  1  0.000000  0.000000  0.002477  1
  Mo  Mo19  1  0.000000  0.000000  0.497523  1
  Mo  Mo20  1  0.888262  0.776525  0.250000  1
  Mo  Mo21  1  0.110700  0.221399  0.750000  1
  Mo  Mo22  1  0.223475  0.111738  0.250000  1
  Mo  Mo23  1  0.778601  0.889300  0.750000  1
  Mo  Mo24  1  0.888262  0.111738  0.250000  1
  Mo  Mo25  1  0.110700  0.889300  0.750000  1
  Rh  Rh26  1  0.333333  0.666667  0.250000  1
  Se  Se27  1  0.666667  0.333333  0.750000  1
