# generated using pymatgen
data_TbDyY2(CuPt)2
_symmetry_space_group_name_H-M   'P 1'
_cell_length_a   4.46461700
_cell_length_b   5.53972294
_cell_length_c   7.17560652
_cell_angle_alpha   89.98855739
_cell_angle_beta   90.00000000
_cell_angle_gamma   90.00000000
_symmetry_Int_Tables_number   1
_chemical_formula_structural   TbDyY2(CuPt)2
_chemical_formula_sum   'Tb1 Dy1 Y2 Cu2 Pt2'
_cell_volume   177.47241561
_cell_formula_units_Z   1
loop_
 _symmetry_equiv_pos_site_id
 _symmetry_equiv_pos_as_xyz
  1  'x, y, z'
loop_
 _atom_site_type_symbol
 _atom_site_label
 _atom_site_symmetry_multiplicity
 _atom_site_fract_x
 _atom_site_fract_y
 _atom_site_fract_z
 _atom_site_occupancy
  Tb  Tb0  1  0.500000  0.606113  0.816163  1
  Dy  Dy1  1  0.500000  0.393791  0.316120  1
  Y  Y2  1  0.000000  0.115713  0.683707  1
  Y  Y3  1  0.000000  0.884554  0.184090  1
  Cu  Cu4  1  0.500000  0.891389  0.464003  1
  Cu  Cu5  1  0.500000  0.108538  0.963955  1
  Pt  Pt6  1  0.000000  0.615667  0.535800  1
  Pt  Pt7  1  0.000000  0.384234  0.036163  1
