# generated using pymatgen
data_Tb3TmLu12(Ga3Co)2
_symmetry_space_group_name_H-M   'P 1'
_cell_length_a   9.81247330
_cell_length_b   9.80571554
_cell_length_c   6.89314802
_cell_angle_alpha   90.00772712
_cell_angle_beta   90.00824515
_cell_angle_gamma   120.04991773
_symmetry_Int_Tables_number   1
_chemical_formula_structural   Tb3TmLu12(Ga3Co)2
_chemical_formula_sum   'Tb3 Tm1 Lu12 Ga6 Co2'
_cell_volume   574.09970794
_cell_formula_units_Z   1
loop_
 _symmetry_equiv_pos_site_id
 _symmetry_equiv_pos_as_xyz
  1  'x, y, z'
loop_
 _atom_site_type_symbol
 _atom_site_label
 _atom_site_symmetry_multiplicity
 _atom_site_fract_x
 _atom_site_fract_y
 _atom_site_fract_z
 _atom_site_occupancy
  Tb  Tb0  1  0.464709  0.535720  0.291079  1
  Tb  Tb1  1  0.000044  0.000269  0.768977  1
  Tb  Tb2  1  0.000085  0.000170  0.268952  1
  Tm  Tm3  1  0.071377  0.536076  0.291416  1
  Lu  Lu4  1  0.825803  0.650935  0.490063  1
  Lu  Lu5  1  0.349807  0.173639  0.489095  1
  Lu  Lu6  1  0.824110  0.174057  0.488783  1
  Lu  Lu7  1  0.174464  0.349427  0.984556  1
  Lu  Lu8  1  0.650854  0.826364  0.985752  1
  Lu  Lu9  1  0.175487  0.825891  0.986133  1
  Lu  Lu10  1  0.666295  0.332055  0.172548  1
  Lu  Lu11  1  0.333578  0.667731  0.673129  1
  Lu  Lu12  1  0.536992  0.074022  0.793147  1
  Lu  Lu13  1  0.925109  0.462559  0.792736  1
  Lu  Lu14  1  0.537558  0.462388  0.792738  1
  Lu  Lu15  1  0.463379  0.927048  0.292489  1
  Ga  Ga16  1  0.835841  0.671571  0.041292  1
  Ga  Ga17  1  0.328382  0.164380  0.042304  1
  Ga  Ga18  1  0.836056  0.164433  0.042533  1
  Ga  Ga19  1  0.163018  0.326484  0.543574  1
  Ga  Ga20  1  0.672303  0.836648  0.542984  1
  Ga  Ga21  1  0.164258  0.836274  0.542601  1
  Co  Co22  1  0.666596  0.333094  0.555501  1
  Co  Co23  1  0.333895  0.668763  0.053692  1
