# generated using pymatgen
data_NdTh3(PPt)4
_symmetry_space_group_name_H-M   'P 1'
_cell_length_a   4.19821800
_cell_length_b   4.19821712
_cell_length_c   16.15162400
_cell_angle_alpha   90.00000000
_cell_angle_beta   90.00000000
_cell_angle_gamma   119.99999117
_symmetry_Int_Tables_number   1
_chemical_formula_structural   NdTh3(PPt)4
_chemical_formula_sum   'Nd1 Th3 P4 Pt4'
_cell_volume   246.53395787
_cell_formula_units_Z   1
loop_
 _symmetry_equiv_pos_site_id
 _symmetry_equiv_pos_as_xyz
  1  'x, y, z'
loop_
 _atom_site_type_symbol
 _atom_site_label
 _atom_site_symmetry_multiplicity
 _atom_site_fract_x
 _atom_site_fract_y
 _atom_site_fract_z
 _atom_site_occupancy
  Nd  Nd0  1  0.000000  0.000000  0.500000  1
  Th  Th1  1  0.000000  0.000000  0.000000  1
  Th  Th2  1  0.000000  0.000000  0.251571  1
  Th  Th3  1  0.000000  0.000000  0.748429  1
  P  P4  1  0.333333  0.666667  0.866211  1
  P  P5  1  0.666667  0.333333  0.378128  1
  P  P6  1  0.666667  0.333333  0.133789  1
  P  P7  1  0.333333  0.666667  0.621872  1
  Pt  Pt8  1  0.333333  0.666667  0.369064  1
  Pt  Pt9  1  0.666667  0.333333  0.880393  1
  Pt  Pt10  1  0.666667  0.333333  0.630936  1
  Pt  Pt11  1  0.333333  0.666667  0.119607  1
