# generated using pymatgen
data_Dy3Ho(LuSb)6
_symmetry_space_group_name_H-M   'P 1'
_cell_length_a   8.07280000
_cell_length_b   9.13928700
_cell_length_c   11.73825500
_cell_angle_alpha   90.00000000
_cell_angle_beta   90.00000000
_cell_angle_gamma   90.00000000
_symmetry_Int_Tables_number   1
_chemical_formula_structural   Dy3Ho(LuSb)6
_chemical_formula_sum   'Dy6 Ho2 Lu12 Sb12'
_cell_volume   866.04418227
_cell_formula_units_Z   2
loop_
 _symmetry_equiv_pos_site_id
 _symmetry_equiv_pos_as_xyz
  1  'x, y, z'
loop_
 _atom_site_type_symbol
 _atom_site_label
 _atom_site_symmetry_multiplicity
 _atom_site_fract_x
 _atom_site_fract_y
 _atom_site_fract_z
 _atom_site_occupancy
  Dy  Dy0  1  0.175937  0.750000  0.228594  1
  Dy  Dy1  1  0.675937  0.250000  0.271406  1
  Dy  Dy2  1  0.823626  0.250000  0.771116  1
  Dy  Dy3  1  0.323626  0.750000  0.728884  1
  Dy  Dy4  1  0.659230  0.750000  0.290888  1
  Dy  Dy5  1  0.159230  0.250000  0.209112  1
  Ho  Ho6  1  0.340405  0.250000  0.709416  1
  Ho  Ho7  1  0.840405  0.750000  0.790584  1
  Lu  Lu8  1  0.809635  0.938894  0.065113  1
  Lu  Lu9  1  0.309635  0.061106  0.434887  1
  Lu  Lu10  1  0.190594  0.438484  0.933887  1
  Lu  Lu11  1  0.690594  0.561516  0.566113  1
  Lu  Lu12  1  0.190594  0.061516  0.933887  1
  Lu  Lu13  1  0.690594  0.938484  0.566113  1
  Lu  Lu14  1  0.809635  0.561106  0.065113  1
  Lu  Lu15  1  0.309635  0.438894  0.434887  1
  Lu  Lu16  1  0.524711  0.250000  0.994801  1
  Lu  Lu17  1  0.024711  0.750000  0.505199  1
  Lu  Lu18  1  0.475088  0.750000  0.003819  1
  Lu  Lu19  1  0.975088  0.250000  0.496181  1
  Sb  Sb20  1  0.937611  0.991391  0.327327  1
  Sb  Sb21  1  0.437611  0.008609  0.172673  1
  Sb  Sb22  1  0.062983  0.491181  0.673260  1
  Sb  Sb23  1  0.562983  0.508819  0.826740  1
  Sb  Sb24  1  0.062983  0.008819  0.673260  1
  Sb  Sb25  1  0.562983  0.991181  0.826740  1
  Sb  Sb26  1  0.937611  0.508609  0.327327  1
  Sb  Sb27  1  0.437611  0.491391  0.172673  1
  Sb  Sb28  1  0.901527  0.250000  0.025016  1
  Sb  Sb29  1  0.401527  0.750000  0.474984  1
  Sb  Sb30  1  0.097829  0.750000  0.973722  1
  Sb  Sb31  1  0.597829  0.250000  0.526278  1
