# generated using pymatgen
data_TbMgCu3Rh
_symmetry_space_group_name_H-M   'P 1'
_cell_length_a   5.02513524
_cell_length_b   5.02513570
_cell_length_c   5.23755893
_cell_angle_alpha   61.33280819
_cell_angle_beta   61.33281815
_cell_angle_gamma   60.00000248
_symmetry_Int_Tables_number   1
_chemical_formula_structural   TbMgCu3Rh
_chemical_formula_sum   'Tb1 Mg1 Cu3 Rh1'
_cell_volume   95.36102065
_cell_formula_units_Z   1
loop_
 _symmetry_equiv_pos_site_id
 _symmetry_equiv_pos_as_xyz
  1  'x, y, z'
loop_
 _atom_site_type_symbol
 _atom_site_label
 _atom_site_symmetry_multiplicity
 _atom_site_fract_x
 _atom_site_fract_y
 _atom_site_fract_z
 _atom_site_occupancy
  Tb  Tb0  1  0.998766  0.998766  0.003701  1
  Mg  Mg1  1  0.246442  0.246442  0.260676  1
  Cu  Cu2  1  0.626053  0.127681  0.620213  1
  Cu  Cu3  1  0.127681  0.626053  0.620213  1
  Cu  Cu4  1  0.626053  0.626053  0.620213  1
  Rh  Rh5  1  0.625005  0.625005  0.124984  1
