# generated using pymatgen
data_PrThAl4GaAu3
_symmetry_space_group_name_H-M   'P 1'
_cell_length_a   4.40532000
_cell_length_b   4.41354900
_cell_length_c   10.56893600
_cell_angle_alpha   90.00000000
_cell_angle_beta   90.00000000
_cell_angle_gamma   90.00000000
_symmetry_Int_Tables_number   1
_chemical_formula_structural   PrThAl4GaAu3
_chemical_formula_sum   'Pr1 Th1 Al4 Ga1 Au3'
_cell_volume   205.49283389
_cell_formula_units_Z   1
loop_
 _symmetry_equiv_pos_site_id
 _symmetry_equiv_pos_as_xyz
  1  'x, y, z'
loop_
 _atom_site_type_symbol
 _atom_site_label
 _atom_site_symmetry_multiplicity
 _atom_site_fract_x
 _atom_site_fract_y
 _atom_site_fract_z
 _atom_site_occupancy
  Pr  Pr0  1  0.500000  0.000000  0.745031  1
  Th  Th1  1  0.000000  0.500000  0.255156  1
  Al  Al2  1  0.500000  0.500000  0.000757  1
  Al  Al3  1  0.000000  0.000000  0.999920  1
  Al  Al4  1  0.000000  0.500000  0.633618  1
  Al  Al5  1  0.500000  0.000000  0.366466  1
  Ga  Ga6  1  0.000000  0.000000  0.499540  1
  Au  Au7  1  0.000000  0.500000  0.870649  1
  Au  Au8  1  0.500000  0.000000  0.131397  1
  Au  Au9  1  0.500000  0.500000  0.497468  1
