# generated using pymatgen
data_Dy4Mg4Ir3Pd
_symmetry_space_group_name_H-M   'P 1'
_cell_length_a   4.12876600
_cell_length_b   7.07656182
_cell_length_c   8.53674200
_cell_angle_alpha   91.13229610
_cell_angle_beta   90.00000000
_cell_angle_gamma   90.00000000
_symmetry_Int_Tables_number   1
_chemical_formula_structural   Dy4Mg4Ir3Pd
_chemical_formula_sum   'Dy4 Mg4 Ir3 Pd1'
_cell_volume   249.37328092
_cell_formula_units_Z   1
loop_
 _symmetry_equiv_pos_site_id
 _symmetry_equiv_pos_as_xyz
  1  'x, y, z'
loop_
 _atom_site_type_symbol
 _atom_site_label
 _atom_site_symmetry_multiplicity
 _atom_site_fract_x
 _atom_site_fract_y
 _atom_site_fract_z
 _atom_site_occupancy
  Dy  Dy0  1  0.250000  0.030230  0.332817  1
  Dy  Dy1  1  0.250000  0.552359  0.177848  1
  Dy  Dy2  1  0.750000  0.960706  0.677752  1
  Dy  Dy3  1  0.750000  0.466665  0.815678  1
  Mg  Mg4  1  0.250000  0.635502  0.560985  1
  Mg  Mg5  1  0.250000  0.136190  0.936347  1
  Mg  Mg6  1  0.750000  0.362616  0.439352  1
  Mg  Mg7  1  0.750000  0.863264  0.061303  1
  Ir  Ir8  1  0.250000  0.248372  0.627012  1
  Ir  Ir9  1  0.250000  0.749306  0.875843  1
  Ir  Ir10  1  0.750000  0.746403  0.370643  1
  Pd  Pd11  1  0.750000  0.248386  0.124419  1
