# generated using pymatgen
data_DyY4Mn2P12Ir17
_symmetry_space_group_name_H-M   'P 1'
_cell_length_a   12.64288200
_cell_length_b   12.73043176
_cell_length_c   3.97493400
_cell_angle_alpha   90.00000000
_cell_angle_beta   90.00000000
_cell_angle_gamma   119.77263786
_symmetry_Int_Tables_number   1
_chemical_formula_structural   DyY4Mn2P12Ir17
_chemical_formula_sum   'Dy1 Y4 Mn2 P12 Ir17'
_cell_volume   555.31603027
_cell_formula_units_Z   1
loop_
 _symmetry_equiv_pos_site_id
 _symmetry_equiv_pos_as_xyz
  1  'x, y, z'
loop_
 _atom_site_type_symbol
 _atom_site_label
 _atom_site_symmetry_multiplicity
 _atom_site_fract_x
 _atom_site_fract_y
 _atom_site_fract_z
 _atom_site_occupancy
  Dy  Dy0  1  0.668776  0.336258  0.500000  1
  Y  Y1  1  0.332493  0.663713  0.500000  1
  Y  Y2  1  0.999966  0.811341  0.000000  1
  Y  Y3  1  0.188628  0.188658  0.000000  1
  Y  Y4  1  0.813511  0.999999  0.000000  1
  Mn  Mn5  1  0.999684  0.457891  0.500000  1
  Mn  Mn6  1  0.541901  0.542175  0.500000  1
  P  P7  1  0.999829  0.634977  0.500000  1
  P  P8  1  0.364849  0.365038  0.500000  1
  P  P9  1  0.643391  0.999994  0.500000  1
  P  P10  1  0.515702  0.683989  0.000000  1
  P  P11  1  0.309169  0.824827  0.000000  1
  P  P12  1  0.166703  0.481132  0.000000  1
  P  P13  1  0.484399  0.175230  0.000000  1
  P  P14  1  0.685566  0.518802  0.000000  1
  P  P15  1  0.831647  0.315995  0.000000  1
  P  P16  1  0.999815  0.178015  0.500000  1
  P  P17  1  0.821799  0.821990  0.500000  1
  P  P18  1  0.179060  0.999992  0.500000  1
  Ir  Ir19  1  0.505934  0.866205  0.000000  1
  Ir  Ir20  1  0.129398  0.638361  0.000000  1
  Ir  Ir21  1  0.358554  0.491650  0.000000  1
  Ir  Ir22  1  0.491120  0.361620  0.000000  1
  Ir  Ir23  1  0.866779  0.508235  0.000000  1
  Ir  Ir24  1  0.639746  0.133888  0.000000  1
  Ir  Ir25  1  0.462403  0.000035  0.500000  1
  Ir  Ir26  1  0.998151  0.282782  0.000000  1
  Ir  Ir27  1  0.715377  0.717210  0.000000  1
  Ir  Ir28  1  0.287234  0.000008  0.000000  1
  Ir  Ir29  1  0.622116  0.804008  0.500000  1
  Ir  Ir30  1  0.198361  0.821574  0.500000  1
  Ir  Ir31  1  0.178052  0.373520  0.500000  1
  Ir  Ir32  1  0.376844  0.178445  0.500000  1
  Ir  Ir33  1  0.804502  0.626414  0.500000  1
  Ir  Ir34  1  0.818076  0.196031  0.500000  1
  Ir  Ir35  1  0.000463  0.000000  0.500000  1
