# generated using pymatgen
data_LaDy2Mn2W3O14
_symmetry_space_group_name_H-M   'P 1'
_cell_length_a   7.22819641
_cell_length_b   7.27503980
_cell_length_c   7.27499342
_cell_angle_alpha   117.61743277
_cell_angle_beta   62.76068870
_cell_angle_gamma   117.23914177
_symmetry_Int_Tables_number   1
_chemical_formula_structural   LaDy2Mn2W3O14
_chemical_formula_sum   'La1 Dy2 Mn2 W3 O14'
_cell_volume   286.36897795
_cell_formula_units_Z   1
loop_
 _symmetry_equiv_pos_site_id
 _symmetry_equiv_pos_as_xyz
  1  'x, y, z'
loop_
 _atom_site_type_symbol
 _atom_site_label
 _atom_site_symmetry_multiplicity
 _atom_site_fract_x
 _atom_site_fract_y
 _atom_site_fract_z
 _atom_site_occupancy
  La  La0  1  0.999994  0.499999  0.000003  1
  Dy  Dy1  1  0.500002  0.999998  0.999992  1
  Dy  Dy2  1  0.500006  0.500009  0.499998  1
  Mn  Mn3  1  0.499998  0.499975  0.999984  1
  Mn  Mn4  1  0.999997  0.999990  0.500014  1
  W  W5  1  0.500005  0.000023  0.499999  1
  W  W6  1  0.999978  0.499993  0.500017  1
  W  W7  1  0.999989  0.999994  0.999993  1
  O  O8  1  0.606300  0.372916  0.127075  1
  O  O9  1  0.393686  0.627081  0.872919  1
  O  O10  1  0.083696  0.322666  0.177328  1
  O  O11  1  0.677251  0.916442  0.177375  1
  O  O12  1  0.677246  0.322630  0.583572  1
  O  O13  1  0.916308  0.677331  0.822677  1
  O  O14  1  0.322746  0.083544  0.822620  1
  O  O15  1  0.322755  0.677374  0.416438  1
  O  O16  1  0.643135  0.904524  0.595494  1
  O  O17  1  0.100587  0.354335  0.586801  1
  O  O18  1  0.100583  0.913194  0.145671  1
  O  O19  1  0.356898  0.095500  0.404494  1
  O  O20  1  0.899420  0.645675  0.413203  1
  O  O21  1  0.899420  0.086808  0.854333  1
