# generated using pymatgen
data_CsNb10SiO19
_symmetry_space_group_name_H-M   'P 1'
_cell_length_a   7.86315900
_cell_length_b   7.86315873
_cell_length_c   14.72364300
_cell_angle_alpha   90.00000000
_cell_angle_beta   90.00000000
_cell_angle_gamma   119.99998852
_symmetry_Int_Tables_number   1
_chemical_formula_structural   CsNb10SiO19
_chemical_formula_sum   'Cs2 Nb20 Si2 O38'
_cell_volume   788.38810064
_cell_formula_units_Z   2
loop_
 _symmetry_equiv_pos_site_id
 _symmetry_equiv_pos_as_xyz
  1  'x, y, z'
loop_
 _atom_site_type_symbol
 _atom_site_label
 _atom_site_symmetry_multiplicity
 _atom_site_fract_x
 _atom_site_fract_y
 _atom_site_fract_z
 _atom_site_occupancy
  Cs  Cs0  1  0.666667  0.333333  0.590368  1
  Cs  Cs1  1  0.333333  0.666667  0.090368  1
  Nb  Nb2  1  0.315997  0.448934  0.500109  1
  Nb  Nb3  1  0.666667  0.333333  0.333653  1
  Nb  Nb4  1  0.524676  0.638945  0.338513  1
  Nb  Nb5  1  0.551066  0.867064  0.500109  1
  Nb  Nb6  1  0.046698  0.232953  0.672948  1
  Nb  Nb7  1  0.885731  0.524676  0.838513  1
  Nb  Nb8  1  0.132936  0.684003  0.500109  1
  Nb  Nb9  1  0.232953  0.186255  0.172948  1
  Nb  Nb10  1  0.361055  0.885731  0.338513  1
  Nb  Nb11  1  0.638945  0.114269  0.838513  1
  Nb  Nb12  1  0.475324  0.361055  0.838513  1
  Nb  Nb13  1  0.813745  0.046698  0.172948  1
  Nb  Nb14  1  0.448934  0.132936  0.000109  1
  Nb  Nb15  1  0.333333  0.666667  0.833653  1
  Nb  Nb16  1  0.114269  0.475324  0.338513  1
  Nb  Nb17  1  0.684003  0.551066  0.000109  1
  Nb  Nb18  1  0.186255  0.953302  0.672948  1
  Nb  Nb19  1  0.767047  0.813745  0.672948  1
  Nb  Nb20  1  0.953302  0.767047  0.172948  1
  Nb  Nb21  1  0.867064  0.315997  0.000109  1
  Si  Si22  1  0.000000  0.000000  0.889268  1
  Si  Si23  1  0.000000  0.000000  0.389268  1
  O  O24  1  0.000000  0.000000  0.275221  1
  O  O25  1  0.920246  0.772236  0.919475  1
  O  O26  1  0.871238  0.302018  0.755793  1
  O  O27  1  0.772236  0.851990  0.419475  1
  O  O28  1  0.128762  0.697982  0.255793  1
  O  O29  1  0.697982  0.569220  0.755793  1
  O  O30  1  0.544794  0.644838  0.581829  1
  O  O31  1  0.593585  0.097851  0.417797  1
  O  O32  1  0.851990  0.079754  0.919475  1
  O  O33  1  0.495734  0.593585  0.917797  1
  O  O34  1  0.406415  0.902149  0.917797  1
  O  O35  1  0.899956  0.544794  0.081829  1
  O  O36  1  0.249911  0.203795  0.599843  1
  O  O37  1  0.576826  0.842675  0.761423  1
  O  O38  1  0.046116  0.249911  0.099843  1
  O  O39  1  0.100044  0.455206  0.581829  1
  O  O40  1  0.302018  0.430780  0.255793  1
  O  O41  1  0.430780  0.128762  0.755793  1
  O  O42  1  0.902149  0.495734  0.417797  1
  O  O43  1  0.455206  0.355162  0.081829  1
  O  O44  1  0.000000  0.000000  0.775221  1
  O  O45  1  0.953884  0.750089  0.599843  1
  O  O46  1  0.423174  0.157325  0.261423  1
  O  O47  1  0.734151  0.576826  0.261423  1
  O  O48  1  0.796205  0.046116  0.599843  1
  O  O49  1  0.750089  0.796205  0.099843  1
  O  O50  1  0.644838  0.100044  0.081829  1
  O  O51  1  0.355162  0.899956  0.581829  1
  O  O52  1  0.842675  0.265849  0.261423  1
  O  O53  1  0.569220  0.871238  0.255793  1
  O  O54  1  0.157325  0.734151  0.761423  1
  O  O55  1  0.227764  0.148010  0.919475  1
  O  O56  1  0.265849  0.423174  0.761423  1
  O  O57  1  0.097851  0.504266  0.917797  1
  O  O58  1  0.203795  0.953884  0.099843  1
  O  O59  1  0.148010  0.920246  0.419475  1
  O  O60  1  0.079754  0.227764  0.419475  1
  O  O61  1  0.504266  0.406415  0.417797  1
