# generated using pymatgen
data_HoTm11(GaCo2)2
_symmetry_space_group_name_H-M   'P 1'
_cell_length_a   8.18115472
_cell_length_b   8.16210241
_cell_length_c   8.16210286
_cell_angle_alpha   111.98007594
_cell_angle_beta   109.52376776
_cell_angle_gamma   106.86159532
_symmetry_Int_Tables_number   1
_chemical_formula_structural   HoTm11(GaCo2)2
_chemical_formula_sum   'Ho1 Tm11 Ga2 Co4'
_cell_volume   419.18398325
_cell_formula_units_Z   1
loop_
 _symmetry_equiv_pos_site_id
 _symmetry_equiv_pos_as_xyz
  1  'x, y, z'
loop_
 _atom_site_type_symbol
 _atom_site_label
 _atom_site_symmetry_multiplicity
 _atom_site_fract_x
 _atom_site_fract_y
 _atom_site_fract_z
 _atom_site_occupancy
  Ho  Ho0  1  0.566069  0.262072  0.303997  1
  Tm  Tm1  1  0.180500  0.219759  0.399914  1
  Tm  Tm2  1  0.180500  0.780586  0.960742  1
  Tm  Tm3  1  0.673206  0.484205  0.811984  1
  Tm  Tm4  1  0.673206  0.861223  0.189001  1
  Tm  Tm5  1  0.957765  0.260064  0.697701  1
  Tm  Tm6  1  0.042728  0.739961  0.302766  1
  Tm  Tm7  1  0.326015  0.137491  0.810774  1
  Tm  Tm8  1  0.326015  0.515242  0.188525  1
  Tm  Tm9  1  0.819070  0.219668  0.038934  1
  Tm  Tm10  1  0.819070  0.780135  0.599401  1
  Tm  Tm11  1  0.437885  0.739366  0.698519  1
  Ga  Ga12  1  0.003839  0.501790  0.502050  1
  Ga  Ga13  1  0.500702  0.999402  0.501301  1
  Co  Co14  1  0.885428  0.883598  0.001831  1
  Co  Co15  1  0.335612  0.499521  0.836092  1
  Co  Co16  1  0.661605  0.500408  0.161196  1
  Co  Co17  1  0.110781  0.115509  0.995272  1
