# generated using pymatgen
data_As2N7
_symmetry_space_group_name_H-M   'P 1'
_cell_length_a   4.66085693
_cell_length_b   3.90165316
_cell_length_c   15.33669644
_cell_angle_alpha   90.90440896
_cell_angle_beta   87.07789334
_cell_angle_gamma   65.27032975
_symmetry_Int_Tables_number   1
_chemical_formula_structural   As2N7
_chemical_formula_sum   'As2 N7'
_cell_volume   252.78004767
_cell_formula_units_Z   1
loop_
 _symmetry_equiv_pos_site_id
 _symmetry_equiv_pos_as_xyz
  1  'x, y, z'
loop_
 _atom_site_type_symbol
 _atom_site_label
 _atom_site_symmetry_multiplicity
 _atom_site_fract_x
 _atom_site_fract_y
 _atom_site_fract_z
 _atom_site_occupancy
  As  As0  1  0.713142  0.127943  0.516379  1
  As  As1  1  0.955742  0.511892  0.603868  1
  N  N2  1  0.713868  0.854488  0.882075  1
  N  N3  1  0.410037  0.380087  0.076275  1
  N  N4  1  0.334759  0.444657  0.560398  1
  N  N5  1  0.519274  0.768691  0.869838  1
  N  N6  1  0.207903  0.051816  0.280997  1
  N  N7  1  0.148223  0.501404  0.072946  1
  N  N8  1  0.374245  0.172147  0.301003  1
