# generated using pymatgen
data_Hf8InFeCu7Hg3
_symmetry_space_group_name_H-M   'P 1'
_cell_length_a   7.20020866
_cell_length_b   7.20281593
_cell_length_c   6.73592327
_cell_angle_alpha   90.27216871
_cell_angle_beta   90.21636820
_cell_angle_gamma   90.37567584
_symmetry_Int_Tables_number   1
_chemical_formula_structural   Hf8InFeCu7Hg3
_chemical_formula_sum   'Hf8 In1 Fe1 Cu7 Hg3'
_cell_volume   349.32297212
_cell_formula_units_Z   1
loop_
 _symmetry_equiv_pos_site_id
 _symmetry_equiv_pos_as_xyz
  1  'x, y, z'
loop_
 _atom_site_type_symbol
 _atom_site_label
 _atom_site_symmetry_multiplicity
 _atom_site_fract_x
 _atom_site_fract_y
 _atom_site_fract_z
 _atom_site_occupancy
  Hf  Hf0  1  0.161826  0.163908  0.010884  1
  Hf  Hf1  1  0.856135  0.854202  0.994902  1
  Hf  Hf2  1  0.642735  0.344855  0.487825  1
  Hf  Hf3  1  0.344271  0.641870  0.487746  1
  Hf  Hf4  1  0.674889  0.308810  0.007989  1
  Hf  Hf5  1  0.309091  0.675689  0.008499  1
  Hf  Hf6  1  0.808943  0.809083  0.500780  1
  Hf  Hf7  1  0.197178  0.197164  0.491646  1
  In  In8  1  0.995336  0.498344  0.750152  1
  Fe  Fe9  1  0.380364  0.377721  0.229061  1
  Cu  Cu10  1  0.623442  0.624032  0.790383  1
  Cu  Cu11  1  0.629721  0.630751  0.200242  1
  Cu  Cu12  1  0.878360  0.126742  0.708138  1
  Cu  Cu13  1  0.877334  0.121552  0.292660  1
  Cu  Cu14  1  0.376561  0.377031  0.789919  1
  Cu  Cu15  1  0.122492  0.878088  0.293693  1
  Cu  Cu16  1  0.127206  0.878903  0.707790  1
  Hg  Hg17  1  0.499901  0.994986  0.250152  1
  Hg  Hg18  1  0.498583  0.996362  0.748336  1
  Hg  Hg19  1  0.995633  0.499907  0.249203  1
