# generated using pymatgen
data_NdLu5(ThSb10)2
_symmetry_space_group_name_H-M   'P 1'
_cell_length_a   4.24034200
_cell_length_b   13.21380952
_cell_length_c   14.52406200
_cell_angle_alpha   78.66475201
_cell_angle_beta   90.00000000
_cell_angle_gamma   90.00000000
_symmetry_Int_Tables_number   1
_chemical_formula_structural   NdLu5(ThSb10)2
_chemical_formula_sum   'Nd1 Lu5 Th2 Sb20'
_cell_volume   797.92473907
_cell_formula_units_Z   1
loop_
 _symmetry_equiv_pos_site_id
 _symmetry_equiv_pos_as_xyz
  1  'x, y, z'
loop_
 _atom_site_type_symbol
 _atom_site_label
 _atom_site_symmetry_multiplicity
 _atom_site_fract_x
 _atom_site_fract_y
 _atom_site_fract_z
 _atom_site_occupancy
  Nd  Nd0  1  0.250000  0.952804  0.356804  1
  Lu  Lu1  1  0.250000  0.397110  0.773096  1
  Lu  Lu2  1  0.750000  0.607168  0.227267  1
  Lu  Lu3  1  0.250000  0.658778  0.857729  1
  Lu  Lu4  1  0.750000  0.342463  0.140365  1
  Lu  Lu5  1  0.250000  0.667714  0.574943  1
  Th  Th6  1  0.750000  0.331729  0.427426  1
  Th  Th7  1  0.750000  0.045328  0.646880  1
  Sb  Sb8  1  0.250000  0.146722  0.780634  1
  Sb  Sb9  1  0.750000  0.852244  0.220591  1
  Sb  Sb10  1  0.250000  0.141907  0.484092  1
  Sb  Sb11  1  0.750000  0.852338  0.523089  1
  Sb  Sb12  1  0.250000  0.156733  0.157961  1
  Sb  Sb13  1  0.750000  0.842103  0.836932  1
  Sb  Sb14  1  0.250000  0.421625  0.976742  1
  Sb  Sb15  1  0.750000  0.579392  0.022839  1
  Sb  Sb16  1  0.750000  0.029167  0.909500  1
  Sb  Sb17  1  0.250000  0.964855  0.089505  1
  Sb  Sb18  1  0.750000  0.145042  0.305523  1
  Sb  Sb19  1  0.250000  0.850477  0.685317  1
  Sb  Sb20  1  0.750000  0.280030  0.937403  1
  Sb  Sb21  1  0.250000  0.720478  0.063163  1
  Sb  Sb22  1  0.750000  0.290198  0.659297  1
  Sb  Sb23  1  0.250000  0.711786  0.343110  1
  Sb  Sb24  1  0.750000  0.577423  0.734937  1
  Sb  Sb25  1  0.250000  0.425986  0.262265  1
  Sb  Sb26  1  0.750000  0.574970  0.447008  1
  Sb  Sb27  1  0.250000  0.433429  0.555580  1
