# generated using pymatgen
data_DyLu2(Ni3P2)3
_symmetry_space_group_name_H-M   'P 1'
_cell_length_a   3.73804800
_cell_length_b   10.40114700
_cell_length_c   12.26767300
_cell_angle_alpha   90.00000000
_cell_angle_beta   90.00000000
_cell_angle_gamma   90.00000000
_symmetry_Int_Tables_number   1
_chemical_formula_structural   DyLu2(Ni3P2)3
_chemical_formula_sum   'Dy2 Lu4 Ni18 P12'
_cell_volume   476.96696358
_cell_formula_units_Z   2
loop_
 _symmetry_equiv_pos_site_id
 _symmetry_equiv_pos_as_xyz
  1  'x, y, z'
loop_
 _atom_site_type_symbol
 _atom_site_label
 _atom_site_symmetry_multiplicity
 _atom_site_fract_x
 _atom_site_fract_y
 _atom_site_fract_z
 _atom_site_occupancy
  Dy  Dy0  1  0.752002  0.000000  0.477897  1
  Dy  Dy1  1  0.252002  0.500000  0.522103  1
  Lu  Lu2  1  0.251801  0.682337  0.794227  1
  Lu  Lu3  1  0.251801  0.317663  0.794227  1
  Lu  Lu4  1  0.751801  0.817663  0.205773  1
  Lu  Lu5  1  0.751801  0.182337  0.205773  1
  Ni  Ni6  1  0.751799  0.000000  0.016590  1
  Ni  Ni7  1  0.251799  0.500000  0.983410  1
  Ni  Ni8  1  0.252116  0.199541  0.571682  1
  Ni  Ni9  1  0.252116  0.800459  0.571682  1
  Ni  Ni10  1  0.752116  0.300459  0.428318  1
  Ni  Ni11  1  0.752116  0.699541  0.428318  1
  Ni  Ni12  1  0.251906  0.622075  0.288414  1
  Ni  Ni13  1  0.251906  0.377925  0.288414  1
  Ni  Ni14  1  0.751906  0.877925  0.711586  1
  Ni  Ni15  1  0.751906  0.122075  0.711586  1
  Ni  Ni16  1  0.251773  0.167568  0.004333  1
  Ni  Ni17  1  0.251773  0.832432  0.004333  1
  Ni  Ni18  1  0.751773  0.332432  0.995667  1
  Ni  Ni19  1  0.751773  0.667568  0.995667  1
  Ni  Ni20  1  0.250984  0.000000  0.841678  1
  Ni  Ni21  1  0.750984  0.500000  0.158322  1
  Ni  Ni22  1  0.252029  0.000000  0.299077  1
  Ni  Ni23  1  0.752029  0.500000  0.700923  1
  P  P24  1  0.252006  0.186673  0.384550  1
  P  P25  1  0.252006  0.813327  0.384550  1
  P  P26  1  0.752006  0.313327  0.615450  1
  P  P27  1  0.752006  0.686673  0.615450  1
  P  P28  1  0.251759  0.000000  0.124009  1
  P  P29  1  0.751759  0.500000  0.875991  1
  P  P30  1  0.251552  0.653075  0.108455  1
  P  P31  1  0.251552  0.346925  0.108455  1
  P  P32  1  0.751552  0.846925  0.891545  1
  P  P33  1  0.751552  0.153075  0.891545  1
  P  P34  1  0.251925  0.000000  0.655890  1
  P  P35  1  0.751925  0.500000  0.344110  1
