# generated using pymatgen
data_TbY9(In2Rh)4
_symmetry_space_group_name_H-M   'P 1'
_cell_length_a   3.63586200
_cell_length_b   8.06989427
_cell_length_c   18.39650762
_cell_angle_alpha   90.02979765
_cell_angle_beta   90.00000000
_cell_angle_gamma   90.00000000
_symmetry_Int_Tables_number   1
_chemical_formula_structural   TbY9(In2Rh)4
_chemical_formula_sum   'Tb1 Y9 In8 Rh4'
_cell_volume   539.77226059
_cell_formula_units_Z   1
loop_
 _symmetry_equiv_pos_site_id
 _symmetry_equiv_pos_as_xyz
  1  'x, y, z'
loop_
 _atom_site_type_symbol
 _atom_site_label
 _atom_site_symmetry_multiplicity
 _atom_site_fract_x
 _atom_site_fract_y
 _atom_site_fract_z
 _atom_site_occupancy
  Tb  Tb0  1  0.000000  0.117648  0.411294  1
  Y  Y1  1  0.000000  0.499343  0.499831  1
  Y  Y2  1  0.000000  0.999962  0.999987  1
  Y  Y3  1  0.000000  0.746821  0.278312  1
  Y  Y4  1  0.000000  0.252892  0.721671  1
  Y  Y5  1  0.000000  0.752862  0.778385  1
  Y  Y6  1  0.000000  0.247575  0.221521  1
  Y  Y7  1  0.000000  0.617998  0.087930  1
  Y  Y8  1  0.000000  0.382154  0.911999  1
  Y  Y9  1  0.000000  0.882339  0.587889  1
  In  In10  1  0.500000  0.706775  0.931212  1
  In  In11  1  0.500000  0.293327  0.068814  1
  In  In12  1  0.500000  0.792559  0.431242  1
  In  In13  1  0.500000  0.206801  0.569017  1
  In  In14  1  0.500000  0.569067  0.650429  1
  In  In15  1  0.500000  0.431584  0.349530  1
  In  In16  1  0.500000  0.930704  0.150331  1
  In  In17  1  0.500000  0.069202  0.849595  1
  Rh  Rh18  1  0.500000  0.522572  0.195036  1
  Rh  Rh19  1  0.500000  0.477532  0.804992  1
  Rh  Rh20  1  0.500000  0.977481  0.695207  1
  Rh  Rh21  1  0.500000  0.022800  0.305775  1
