# generated using pymatgen
data_Sm4Al13Au9
_symmetry_space_group_name_H-M   'P 1'
_cell_length_a   11.74928200
_cell_length_b   11.74928090
_cell_length_c   4.21774300
_cell_angle_alpha   90.00000000
_cell_angle_beta   90.00000000
_cell_angle_gamma   119.99999745
_symmetry_Int_Tables_number   1
_chemical_formula_structural   Sm4Al13Au9
_chemical_formula_sum   'Sm4 Al13 Au9'
_cell_volume   504.23544495
_cell_formula_units_Z   1
loop_
 _symmetry_equiv_pos_site_id
 _symmetry_equiv_pos_as_xyz
  1  'x, y, z'
loop_
 _atom_site_type_symbol
 _atom_site_label
 _atom_site_symmetry_multiplicity
 _atom_site_fract_x
 _atom_site_fract_y
 _atom_site_fract_z
 _atom_site_occupancy
  Sm  Sm0  1  0.205735  0.794265  0.500000  1
  Sm  Sm1  1  0.588528  0.794265  0.500000  1
  Sm  Sm2  1  0.205735  0.411472  0.500000  1
  Sm  Sm3  1  0.666667  0.333333  0.000000  1
  Al  Al4  1  0.948852  0.293091  0.000000  1
  Al  Al5  1  0.706909  0.655761  0.000000  1
  Al  Al6  1  0.948852  0.655761  0.000000  1
  Al  Al7  1  0.344239  0.051148  0.000000  1
  Al  Al8  1  0.168586  0.084293  0.500000  1
  Al  Al9  1  0.915707  0.831414  0.500000  1
  Al  Al10  1  0.706909  0.051148  0.000000  1
  Al  Al11  1  0.531574  0.063146  0.500000  1
  Al  Al12  1  0.915707  0.084293  0.500000  1
  Al  Al13  1  0.344239  0.293091  0.000000  1
  Al  Al14  1  0.531574  0.468426  0.500000  1
  Al  Al15  1  0.936854  0.468426  0.500000  1
  Al  Al16  1  0.333333  0.666667  0.000000  1
  Au  Au17  1  0.456169  0.543831  0.000000  1
  Au  Au18  1  0.825543  0.912772  0.000000  1
  Au  Au19  1  0.456169  0.912338  0.000000  1
  Au  Au20  1  0.087228  0.174457  0.000000  1
  Au  Au21  1  0.087228  0.912772  0.000000  1
  Au  Au22  1  0.787609  0.575217  0.500000  1
  Au  Au23  1  0.087662  0.543831  0.000000  1
  Au  Au24  1  0.787609  0.212391  0.500000  1
  Au  Au25  1  0.424783  0.212391  0.500000  1
