# generated using pymatgen
data_Sm6Al24Os3Ru3Pt2
_symmetry_space_group_name_H-M   'P 1'
_cell_length_a   8.81965006
_cell_length_b   8.83141909
_cell_length_c   9.56596300
_cell_angle_alpha   90.16927136
_cell_angle_beta   90.13383850
_cell_angle_gamma   119.76156222
_symmetry_Int_Tables_number   1
_chemical_formula_structural   Sm6Al24Os3Ru3Pt2
_chemical_formula_sum   'Sm6 Al24 Os3 Ru3 Pt2'
_cell_volume   646.80530005
_cell_formula_units_Z   1
loop_
 _symmetry_equiv_pos_site_id
 _symmetry_equiv_pos_as_xyz
  1  'x, y, z'
loop_
 _atom_site_type_symbol
 _atom_site_label
 _atom_site_symmetry_multiplicity
 _atom_site_fract_x
 _atom_site_fract_y
 _atom_site_fract_z
 _atom_site_occupancy
  Sm  Sm0  1  0.193725  0.384026  0.251168  1
  Sm  Sm1  1  0.806275  0.615974  0.748832  1
  Sm  Sm2  1  0.615365  0.807339  0.249976  1
  Sm  Sm3  1  0.384635  0.192661  0.750024  1
  Sm  Sm4  1  0.192045  0.810121  0.250591  1
  Sm  Sm5  1  0.807955  0.189879  0.749409  1
  Al  Al6  1  0.329629  0.661629  0.020942  1
  Al  Al7  1  0.670371  0.338371  0.979058  1
  Al  Al8  1  0.662348  0.330708  0.520469  1
  Al  Al9  1  0.337652  0.669292  0.479531  1
  Al  Al10  1  0.167307  0.325114  0.577366  1
  Al  Al11  1  0.832693  0.674886  0.422634  1
  Al  Al12  1  0.673240  0.836193  0.576258  1
  Al  Al13  1  0.836690  0.674093  0.076742  1
  Al  Al14  1  0.326760  0.163807  0.423742  1
  Al  Al15  1  0.163310  0.325907  0.923258  1
  Al  Al16  1  0.166772  0.842257  0.577819  1
  Al  Al17  1  0.325634  0.167829  0.077017  1
  Al  Al18  1  0.833228  0.157743  0.422181  1
  Al  Al19  1  0.674366  0.832171  0.922983  1
  Al  Al20  1  0.842900  0.167418  0.077774  1
  Al  Al21  1  0.157100  0.832582  0.922226  1
  Al  Al22  1  0.562646  0.126922  0.253051  1
  Al  Al23  1  0.437354  0.873078  0.746949  1
  Al  Al24  1  0.875165  0.438666  0.246150  1
  Al  Al25  1  0.124835  0.561334  0.753850  1
  Al  Al26  1  0.562463  0.438203  0.249945  1
  Al  Al27  1  0.437537  0.561797  0.750055  1
  Al  Al28  1  0.999361  0.000895  0.250038  1
  Al  Al29  1  0.000639  0.999105  0.749962  1
  Os  Os30  1  0.500000  0.000000  0.500000  1
  Os  Os31  1  0.500000  0.500000  0.000000  1
  Os  Os32  1  0.500000  0.500000  0.500000  1
  Ru  Ru33  1  0.000000  0.500000  0.000000  1
  Ru  Ru34  1  0.000000  0.000000  0.000000  1
  Ru  Ru35  1  0.000000  0.000000  0.500000  1
  Pt  Pt36  1  0.500000  0.000000  0.000000  1
  Pt  Pt37  1  0.000000  0.500000  0.500000  1
