# generated using pymatgen
data_Ho4TaRh3F28
_symmetry_space_group_name_H-M   'P 1'
_cell_length_a   5.57728603
_cell_length_b   8.84435968
_cell_length_c   11.95088058
_cell_angle_alpha   62.77122365
_cell_angle_beta   90.37099839
_cell_angle_gamma   89.76750418
_symmetry_Int_Tables_number   1
_chemical_formula_structural   Ho4TaRh3F28
_chemical_formula_sum   'Ho4 Ta1 Rh3 F28'
_cell_volume   524.15475580
_cell_formula_units_Z   1
loop_
 _symmetry_equiv_pos_site_id
 _symmetry_equiv_pos_as_xyz
  1  'x, y, z'
loop_
 _atom_site_type_symbol
 _atom_site_label
 _atom_site_symmetry_multiplicity
 _atom_site_fract_x
 _atom_site_fract_y
 _atom_site_fract_z
 _atom_site_occupancy
  Ho  Ho0  1  0.758558  0.821967  0.760262  1
  Ho  Ho1  1  0.256847  0.187337  0.723354  1
  Ho  Ho2  1  0.237060  0.182514  0.250285  1
  Ho  Ho3  1  0.738319  0.802445  0.273476  1
  Ta  Ta4  1  0.759726  0.273791  0.956064  1
  Rh  Rh5  1  0.255424  0.723527  0.547088  1
  Rh  Rh6  1  0.240165  0.728613  0.042341  1
  Rh  Rh7  1  0.740594  0.271471  0.457820  1
  F  F8  1  0.449086  0.707815  0.918374  1
  F  F9  1  0.933556  0.293529  0.588316  1
  F  F10  1  0.561889  0.298480  0.076031  1
  F  F11  1  0.051133  0.703587  0.420157  1
  F  F12  1  0.437528  0.277847  0.540563  1
  F  F13  1  0.950476  0.721705  0.948030  1
  F  F14  1  0.546506  0.717261  0.456575  1
  F  F15  1  0.053478  0.276580  0.042654  1
  F  F16  1  0.774617  0.516903  0.860551  1
  F  F17  1  0.270875  0.474317  0.646592  1
  F  F18  1  0.226476  0.477155  0.140382  1
  F  F19  1  0.728332  0.517704  0.359744  1
  F  F20  1  0.754706  0.032108  0.046952  1
  F  F21  1  0.252041  0.972029  0.452693  1
  F  F22  1  0.240955  0.978263  0.942931  1
  F  F23  1  0.739335  0.024346  0.551593  1
  F  F24  1  0.971877  0.723370  0.644153  1
  F  F25  1  0.480466  0.271650  0.861069  1
  F  F26  1  0.033466  0.270970  0.367825  1
  F  F27  1  0.521393  0.732318  0.141793  1
  F  F28  1  0.036349  0.749963  0.168761  1
  F  F29  1  0.556653  0.251116  0.323864  1
  F  F30  1  0.955057  0.256253  0.828781  1
  F  F31  1  0.457390  0.741041  0.676823  1
  F  F32  1  0.431919  0.982318  0.231297  1
  F  F33  1  0.921646  0.029882  0.260979  1
  F  F34  1  0.589161  0.038722  0.766501  1
  F  F35  1  0.086939  0.971101  0.725325  1
