# generated using pymatgen
data_Tb4Tm12MgAg3Rh4
_symmetry_space_group_name_H-M   'P 1'
_cell_length_a   9.47504976
_cell_length_b   9.47249068
_cell_length_c   9.47249065
_cell_angle_alpha   60.20297190
_cell_angle_beta   60.12073084
_cell_angle_gamma   60.12072348
_symmetry_Int_Tables_number   1
_chemical_formula_structural   Tb4Tm12MgAg3Rh4
_chemical_formula_sum   'Tb4 Tm12 Mg1 Ag3 Rh4'
_cell_volume   603.18309113
_cell_formula_units_Z   1
loop_
 _symmetry_equiv_pos_site_id
 _symmetry_equiv_pos_as_xyz
  1  'x, y, z'
loop_
 _atom_site_type_symbol
 _atom_site_label
 _atom_site_symmetry_multiplicity
 _atom_site_fract_x
 _atom_site_fract_y
 _atom_site_fract_z
 _atom_site_occupancy
  Tb  Tb0  1  0.563276  0.936361  0.564637  1
  Tb  Tb1  1  0.935243  0.563951  0.936154  1
  Tb  Tb2  1  0.563276  0.564637  0.936361  1
  Tb  Tb3  1  0.935243  0.936154  0.563951  1
  Tm  Tm4  1  0.351070  0.349373  0.349373  1
  Tm  Tm5  1  0.351641  0.348519  0.951377  1
  Tm  Tm6  1  0.351641  0.951377  0.348519  1
  Tm  Tm7  1  0.937508  0.354786  0.354786  1
  Tm  Tm8  1  0.811742  0.187026  0.187026  1
  Tm  Tm9  1  0.184441  0.814346  0.814346  1
  Tm  Tm10  1  0.185065  0.813592  0.185960  1
  Tm  Tm11  1  0.811059  0.187374  0.812517  1
  Tm  Tm12  1  0.185065  0.185960  0.813592  1
  Tm  Tm13  1  0.811059  0.812517  0.187374  1
  Tm  Tm14  1  0.934005  0.562733  0.562733  1
  Tm  Tm15  1  0.562901  0.937232  0.937232  1
  Mg  Mg16  1  0.285077  0.571830  0.571830  1
  Ag  Ag17  1  0.583704  0.583298  0.583298  1
  Ag  Ag18  1  0.582027  0.585464  0.249881  1
  Ag  Ag19  1  0.582027  0.249881  0.585464  1
  Rh  Rh20  1  0.140843  0.143845  0.143845  1
  Rh  Rh21  1  0.140511  0.146607  0.570165  1
  Rh  Rh22  1  0.140511  0.570165  0.146607  1
  Rh  Rh23  1  0.571064  0.142972  0.142972  1
