# generated using pymatgen
data_Zr6Co20GeAs12
_symmetry_space_group_name_H-M   'P 1'
_cell_length_a   12.89300000
_cell_length_b   12.89300041
_cell_length_c   3.72182800
_cell_angle_alpha   90.00000000
_cell_angle_beta   90.00000000
_cell_angle_gamma   119.99999896
_symmetry_Int_Tables_number   1
_chemical_formula_structural   Zr6Co20GeAs12
_chemical_formula_sum   'Zr6 Co20 Ge1 As12'
_cell_volume   535.79038299
_cell_formula_units_Z   1
loop_
 _symmetry_equiv_pos_site_id
 _symmetry_equiv_pos_as_xyz
  1  'x, y, z'
loop_
 _atom_site_type_symbol
 _atom_site_label
 _atom_site_symmetry_multiplicity
 _atom_site_fract_x
 _atom_site_fract_y
 _atom_site_fract_z
 _atom_site_occupancy
  Zr  Zr0  1  0.806799  0.284007  0.500000  1
  Zr  Zr1  1  0.715993  0.522792  0.500000  1
  Zr  Zr2  1  0.477208  0.193201  0.500000  1
  Zr  Zr3  1  0.193979  0.717536  0.000000  1
  Zr  Zr4  1  0.282464  0.476444  0.000000  1
  Zr  Zr5  1  0.523556  0.806021  0.000000  1
  Co  Co6  1  0.419432  0.981891  0.000000  1
  Co  Co7  1  0.018109  0.437542  0.000000  1
  Co  Co8  1  0.582471  0.018404  0.500000  1
  Co  Co9  1  0.562458  0.580568  0.000000  1
  Co  Co10  1  0.981596  0.564069  0.500000  1
  Co  Co11  1  0.923920  0.082505  0.500000  1
  Co  Co12  1  0.158585  0.076080  0.500000  1
  Co  Co13  1  0.917495  0.841415  0.500000  1
  Co  Co14  1  0.098369  0.894027  0.000000  1
  Co  Co15  1  0.795658  0.901631  0.000000  1
  Co  Co16  1  0.105973  0.204342  0.000000  1
  Co  Co17  1  0.333333  0.666667  0.500000  1
  Co  Co18  1  0.666667  0.333333  0.000000  1
  Co  Co19  1  0.676953  0.745269  0.500000  1
  Co  Co20  1  0.254731  0.931683  0.500000  1
  Co  Co21  1  0.925077  0.677236  0.000000  1
  Co  Co22  1  0.322764  0.247841  0.000000  1
  Co  Co23  1  0.752159  0.074923  0.000000  1
  Co  Co24  1  0.435931  0.417529  0.500000  1
  Co  Co25  1  0.068317  0.323047  0.500000  1
  Ge  Ge26  1  0.000000  0.000000  0.000000  1
  As  As27  1  0.230600  0.286586  0.500000  1
  As  As28  1  0.713414  0.944013  0.500000  1
  As  As29  1  0.055987  0.769400  0.500000  1
  As  As30  1  0.768627  0.712097  0.000000  1
  As  As31  1  0.287903  0.056531  0.000000  1
  As  As32  1  0.473382  0.613487  0.500000  1
  As  As33  1  0.386513  0.859894  0.500000  1
  As  As34  1  0.859191  0.474422  0.000000  1
  As  As35  1  0.525578  0.384769  0.000000  1
  As  As36  1  0.615231  0.140809  0.000000  1
  As  As37  1  0.943469  0.231373  0.000000  1
  As  As38  1  0.140106  0.526618  0.500000  1
