# generated using pymatgen
data_Y3Er4Th(ReB6)4
_symmetry_space_group_name_H-M   'P 1'
_cell_length_a   3.69624500
_cell_length_b   9.17844540
_cell_length_c   11.58142901
_cell_angle_alpha   90.03403473
_cell_angle_beta   90.00000000
_cell_angle_gamma   90.00000000
_symmetry_Int_Tables_number   1
_chemical_formula_structural   Y3Er4Th(ReB6)4
_chemical_formula_sum   'Y3 Er4 Th1 Re4 B24'
_cell_volume   392.90897710
_cell_formula_units_Z   1
loop_
 _symmetry_equiv_pos_site_id
 _symmetry_equiv_pos_as_xyz
  1  'x, y, z'
loop_
 _atom_site_type_symbol
 _atom_site_label
 _atom_site_symmetry_multiplicity
 _atom_site_fract_x
 _atom_site_fract_y
 _atom_site_fract_z
 _atom_site_occupancy
  Y  Y0  1  0.000000  0.678110  0.587331  1
  Y  Y1  1  0.000000  0.822926  0.085106  1
  Y  Y2  1  0.000000  0.176263  0.913973  1
  Er  Er3  1  0.000000  0.942119  0.369491  1
  Er  Er4  1  0.000000  0.055941  0.631354  1
  Er  Er5  1  0.000000  0.443562  0.128262  1
  Er  Er6  1  0.000000  0.557362  0.870660  1
  Th  Th7  1  0.000000  0.322189  0.414072  1
  Re  Re8  1  0.000000  0.639324  0.320034  1
  Re  Re9  1  0.000000  0.361458  0.680708  1
  Re  Re10  1  0.000000  0.138684  0.178661  1
  Re  Re11  1  0.000000  0.861099  0.820634  1
  B  B12  1  0.500000  0.555908  0.431962  1
  B  B13  1  0.500000  0.446710  0.569838  1
  B  B14  1  0.500000  0.053226  0.066549  1
  B  B15  1  0.500000  0.946289  0.932577  1
  B  B16  1  0.500000  0.750579  0.417958  1
  B  B17  1  0.500000  0.250419  0.585188  1
  B  B18  1  0.500000  0.249202  0.080398  1
  B  B19  1  0.500000  0.750402  0.918114  1
  B  B20  1  0.500000  0.792296  0.265161  1
  B  B21  1  0.500000  0.207960  0.735992  1
  B  B22  1  0.500000  0.290648  0.232011  1
  B  B23  1  0.500000  0.707979  0.765921  1
  B  B24  1  0.500000  0.631625  0.184387  1
  B  B25  1  0.500000  0.370046  0.815380  1
  B  B26  1  0.500000  0.128954  0.312310  1
  B  B27  1  0.500000  0.869323  0.686077  1
  B  B28  1  0.500000  0.982095  0.211196  1
  B  B29  1  0.500000  0.016952  0.788261  1
  B  B30  1  0.500000  0.485433  0.285963  1
  B  B31  1  0.500000  0.518027  0.713898  1
  B  B32  1  0.500000  0.600500  0.027418  1
  B  B33  1  0.500000  0.400255  0.971762  1
  B  B34  1  0.500000  0.096535  0.473147  1
  B  B35  1  0.500000  0.899601  0.528245  1
