# generated using pymatgen
data_Dy3AlIn2SnPt2
_symmetry_space_group_name_H-M   'P 1'
_cell_length_a   7.54633364
_cell_length_b   7.50997047
_cell_length_c   4.14950500
_cell_angle_alpha   90.00000000
_cell_angle_beta   90.00000000
_cell_angle_gamma   120.78862171
_symmetry_Int_Tables_number   1
_chemical_formula_structural   Dy3AlIn2SnPt2
_chemical_formula_sum   'Dy3 Al1 In2 Sn1 Pt2'
_cell_volume   202.02020753
_cell_formula_units_Z   1
loop_
 _symmetry_equiv_pos_site_id
 _symmetry_equiv_pos_as_xyz
  1  'x, y, z'
loop_
 _atom_site_type_symbol
 _atom_site_label
 _atom_site_symmetry_multiplicity
 _atom_site_fract_x
 _atom_site_fract_y
 _atom_site_fract_z
 _atom_site_occupancy
  Dy  Dy0  1  0.603455  0.018071  0.500000  1
  Dy  Dy1  1  0.421742  0.401840  0.500000  1
  Dy  Dy2  1  0.980513  0.586596  0.500000  1
  Al  Al3  1  0.768600  0.750785  0.000000  1
  In  In4  1  0.985436  0.239695  0.000000  1
  In  In5  1  0.251908  0.010238  0.000000  1
  Sn  Sn6  1  0.344045  0.668132  0.000000  1
  Pt  Pt7  1  0.670569  0.351303  0.000000  1
  Pt  Pt8  1  0.973732  0.973342  0.500000  1
