# generated using pymatgen
data_YThP7Ru12
_symmetry_space_group_name_H-M   'P 1'
_cell_length_a   9.46667300
_cell_length_b   9.46667335
_cell_length_c   3.96059600
_cell_angle_alpha   90.00000000
_cell_angle_beta   90.00000000
_cell_angle_gamma   119.99999528
_symmetry_Int_Tables_number   1
_chemical_formula_structural   YThP7Ru12
_chemical_formula_sum   'Y1 Th1 P7 Ru12'
_cell_volume   307.38733144
_cell_formula_units_Z   1
loop_
 _symmetry_equiv_pos_site_id
 _symmetry_equiv_pos_as_xyz
  1  'x, y, z'
loop_
 _atom_site_type_symbol
 _atom_site_label
 _atom_site_symmetry_multiplicity
 _atom_site_fract_x
 _atom_site_fract_y
 _atom_site_fract_z
 _atom_site_occupancy
  Y  Y0  1  0.666667  0.333333  0.500000  1
  Th  Th1  1  0.333333  0.666667  0.000000  1
  P  P2  1  0.606192  0.717074  0.500000  1
  P  P3  1  0.000000  0.000000  0.000000  1
  P  P4  1  0.282926  0.889118  0.500000  1
  P  P5  1  0.110882  0.393808  0.500000  1
  P  P6  1  0.886482  0.573327  0.000000  1
  P  P7  1  0.426673  0.313155  0.000000  1
  P  P8  1  0.686845  0.113518  0.000000  1
  Ru  Ru9  1  0.556816  0.949187  0.500000  1
  Ru  Ru10  1  0.392372  0.443184  0.500000  1
  Ru  Ru11  1  0.913310  0.119651  0.500000  1
  Ru  Ru12  1  0.206341  0.086690  0.500000  1
  Ru  Ru13  1  0.880349  0.793659  0.500000  1
  Ru  Ru14  1  0.728125  0.891655  0.000000  1
  Ru  Ru15  1  0.108345  0.836469  0.000000  1
  Ru  Ru16  1  0.163531  0.271875  0.000000  1
  Ru  Ru17  1  0.424130  0.069269  0.000000  1
  Ru  Ru18  1  0.930731  0.354861  0.000000  1
  Ru  Ru19  1  0.645139  0.575870  0.000000  1
  Ru  Ru20  1  0.050813  0.607628  0.500000  1
