# generated using pymatgen
data_Lu12Ni4SnRh
_symmetry_space_group_name_H-M   'P 1'
_cell_length_a   8.12424928
_cell_length_b   8.12425005
_cell_length_c   8.12424972
_cell_angle_alpha   111.55237265
_cell_angle_beta   110.51794569
_cell_angle_gamma   106.38842878
_symmetry_Int_Tables_number   1
_chemical_formula_structural   Lu12Ni4SnRh
_chemical_formula_sum   'Lu12 Ni4 Sn1 Rh1'
_cell_volume   411.86310050
_cell_formula_units_Z   1
loop_
 _symmetry_equiv_pos_site_id
 _symmetry_equiv_pos_as_xyz
  1  'x, y, z'
loop_
 _atom_site_type_symbol
 _atom_site_label
 _atom_site_symmetry_multiplicity
 _atom_site_fract_x
 _atom_site_fract_y
 _atom_site_fract_z
 _atom_site_occupancy
  Lu  Lu0  1  0.678913  0.872927  0.194014  1
  Lu  Lu1  1  0.321087  0.515101  0.194014  1
  Lu  Lu2  1  0.817159  0.789080  0.606239  1
  Lu  Lu3  1  0.182841  0.789080  0.971921  1
  Lu  Lu4  1  0.817159  0.210920  0.028079  1
  Lu  Lu5  1  0.182841  0.210920  0.393761  1
  Lu  Lu6  1  0.678913  0.484899  0.805986  1
  Lu  Lu7  1  0.321087  0.127073  0.805986  1
  Lu  Lu8  1  0.588466  0.281342  0.307123  1
  Lu  Lu9  1  0.411534  0.718658  0.692877  1
  Lu  Lu10  1  0.025782  0.718658  0.307123  1
  Lu  Lu11  1  0.974218  0.281342  0.692877  1
  Ni  Ni12  1  0.359620  0.500000  0.859620  1
  Ni  Ni13  1  0.640380  0.500000  0.140380  1
  Ni  Ni14  1  0.876310  0.876310  0.000000  1
  Ni  Ni15  1  0.123690  0.123690  0.000000  1
  Sn  Sn16  1  0.500000  0.000000  0.500000  1
  Rh  Rh17  1  0.000000  0.500000  0.500000  1
