# generated using pymatgen
data_Pr3P2Se
_symmetry_space_group_name_H-M   'P 1'
_cell_length_a   7.36041931
_cell_length_b   7.36041908
_cell_length_c   7.36041995
_cell_angle_alpha   146.82108858
_cell_angle_beta   132.14805968
_cell_angle_gamma   59.46832925
_symmetry_Int_Tables_number   1
_chemical_formula_structural   Pr3P2Se
_chemical_formula_sum   'Pr3 P2 Se1'
_cell_volume   160.37275511
_cell_formula_units_Z   1
loop_
 _symmetry_equiv_pos_site_id
 _symmetry_equiv_pos_as_xyz
  1  'x, y, z'
loop_
 _atom_site_type_symbol
 _atom_site_label
 _atom_site_symmetry_multiplicity
 _atom_site_fract_x
 _atom_site_fract_y
 _atom_site_fract_z
 _atom_site_occupancy
  Pr  Pr0  1  0.500000  0.000000  0.500000  1
  Pr  Pr1  1  0.176427  0.676427  0.500000  1
  Pr  Pr2  1  0.823573  0.323573  0.500000  1
  P  P3  1  0.664886  0.664886  0.000000  1
  P  P4  1  0.335114  0.335114  0.000000  1
  Se  Se5  1  0.000000  0.000000  0.000000  1
