# generated using pymatgen
data_HoLu7(Sc3Sn4)4
_symmetry_space_group_name_H-M   'P 1'
_cell_length_a   7.67140006
_cell_length_b   7.92338701
_cell_length_c   14.80663400
_cell_angle_alpha   89.99872007
_cell_angle_beta   89.99282253
_cell_angle_gamma   90.00245846
_symmetry_Int_Tables_number   1
_chemical_formula_structural   HoLu7(Sc3Sn4)4
_chemical_formula_sum   'Ho1 Lu7 Sc12 Sn16'
_cell_volume   899.99860882
_cell_formula_units_Z   1
loop_
 _symmetry_equiv_pos_site_id
 _symmetry_equiv_pos_as_xyz
  1  'x, y, z'
loop_
 _atom_site_type_symbol
 _atom_site_label
 _atom_site_symmetry_multiplicity
 _atom_site_fract_x
 _atom_site_fract_y
 _atom_site_fract_z
 _atom_site_occupancy
  Ho  Ho0  1  0.991770  0.177895  0.093560  1
  Lu  Lu1  1  0.008700  0.821585  0.906128  1
  Lu  Lu2  1  0.509172  0.678120  0.906148  1
  Lu  Lu3  1  0.009106  0.821750  0.593777  1
  Lu  Lu4  1  0.490952  0.321930  0.093523  1
  Lu  Lu5  1  0.990708  0.178262  0.406073  1
  Lu  Lu6  1  0.491144  0.321813  0.406693  1
  Lu  Lu7  1  0.508795  0.678379  0.593732  1
  Sc  Sc8  1  0.169737  0.495589  0.749938  1
  Sc  Sc9  1  0.830076  0.504448  0.250129  1
  Sc  Sc10  1  0.330052  0.995418  0.250101  1
  Sc  Sc11  1  0.669739  0.004444  0.749930  1
  Sc  Sc12  1  0.341108  0.160068  0.627316  1
  Sc  Sc13  1  0.658725  0.839874  0.372767  1
  Sc  Sc14  1  0.158804  0.660425  0.372799  1
  Sc  Sc15  1  0.659023  0.839597  0.127342  1
  Sc  Sc16  1  0.841260  0.339762  0.627306  1
  Sc  Sc17  1  0.340939  0.160230  0.872683  1
  Sc  Sc18  1  0.840834  0.340127  0.872669  1
  Sc  Sc19  1  0.158886  0.660222  0.127297  1
  Sn  Sn20  1  0.032627  0.122417  0.750065  1
  Sn  Sn21  1  0.967119  0.877066  0.249994  1
  Sn  Sn22  1  0.467355  0.622024  0.249976  1
  Sn  Sn23  1  0.532503  0.377787  0.749910  1
  Sn  Sn24  1  0.313194  0.846267  0.750052  1
  Sn  Sn25  1  0.686027  0.153579  0.250340  1
  Sn  Sn26  1  0.187697  0.347285  0.250881  1
  Sn  Sn27  1  0.813217  0.653688  0.749970  1
  Sn  Sn28  1  0.186676  0.457567  0.542167  1
  Sn  Sn29  1  0.813447  0.542412  0.457926  1
  Sn  Sn30  1  0.313013  0.957893  0.457833  1
  Sn  Sn31  1  0.812868  0.543035  0.041923  1
  Sn  Sn32  1  0.686740  0.042298  0.542239  1
  Sn  Sn33  1  0.187031  0.458371  0.957661  1
  Sn  Sn34  1  0.685924  0.041921  0.957381  1
  Sn  Sn35  1  0.315036  0.956452  0.041778  1
