# generated using pymatgen
data_Cs2KTaO4
_symmetry_space_group_name_H-M   'P 1'
_cell_length_a   6.71275100
_cell_length_b   6.91732460
_cell_length_c   8.51286113
_cell_angle_alpha   87.21155087
_cell_angle_beta   90.00000000
_cell_angle_gamma   90.00000000
_symmetry_Int_Tables_number   1
_chemical_formula_structural   Cs2KTaO4
_chemical_formula_sum   'Cs4 K2 Ta2 O8'
_cell_volume   394.82052160
_cell_formula_units_Z   2
loop_
 _symmetry_equiv_pos_site_id
 _symmetry_equiv_pos_as_xyz
  1  'x, y, z'
loop_
 _atom_site_type_symbol
 _atom_site_label
 _atom_site_symmetry_multiplicity
 _atom_site_fract_x
 _atom_site_fract_y
 _atom_site_fract_z
 _atom_site_occupancy
  Cs  Cs0  1  0.750000  0.169649  0.516329  1
  Cs  Cs1  1  0.250000  0.830351  0.483671  1
  Cs  Cs2  1  0.250000  0.410837  0.179181  1
  Cs  Cs3  1  0.750000  0.589163  0.820819  1
  K  K4  1  0.250000  0.886306  0.965460  1
  K  K5  1  0.750000  0.113694  0.034540  1
  Ta  Ta6  1  0.750000  0.681532  0.270698  1
  Ta  Ta7  1  0.250000  0.318468  0.729302  1
  O  O8  1  0.974965  0.808970  0.185108  1
  O  O9  1  0.474965  0.191030  0.814892  1
  O  O10  1  0.025035  0.191030  0.814892  1
  O  O11  1  0.525035  0.808970  0.185108  1
  O  O12  1  0.250000  0.577633  0.787095  1
  O  O13  1  0.250000  0.298281  0.510877  1
  O  O14  1  0.750000  0.422367  0.212905  1
  O  O15  1  0.750000  0.701719  0.489123  1
