# generated using pymatgen
data_Th14Tc3PtRh2
_symmetry_space_group_name_H-M   'P 1'
_cell_length_a   10.02638400
_cell_length_b   10.02884777
_cell_length_c   6.30401422
_cell_angle_alpha   89.91675780
_cell_angle_beta   90.00000000
_cell_angle_gamma   119.99187369
_symmetry_Int_Tables_number   1
_chemical_formula_structural   Th14Tc3PtRh2
_chemical_formula_sum   'Th14 Tc3 Pt1 Rh2'
_cell_volume   549.00731916
_cell_formula_units_Z   1
loop_
 _symmetry_equiv_pos_site_id
 _symmetry_equiv_pos_as_xyz
  1  'x, y, z'
loop_
 _atom_site_type_symbol
 _atom_site_label
 _atom_site_symmetry_multiplicity
 _atom_site_fract_x
 _atom_site_fract_y
 _atom_site_fract_z
 _atom_site_occupancy
  Th  Th0  1  0.665858  0.331715  0.581277  1
  Th  Th1  1  0.333500  0.667002  0.032747  1
  Th  Th2  1  0.876006  0.752012  0.758488  1
  Th  Th3  1  0.249208  0.124393  0.754087  1
  Th  Th4  1  0.875185  0.124393  0.754087  1
  Th  Th5  1  0.126589  0.253178  0.252231  1
  Th  Th6  1  0.744983  0.875928  0.251230  1
  Th  Th7  1  0.130945  0.875928  0.251230  1
  Th  Th8  1  0.457847  0.915695  0.543535  1
  Th  Th9  1  0.084813  0.542365  0.543329  1
  Th  Th10  1  0.457551  0.542365  0.543329  1
  Th  Th11  1  0.538755  0.077509  0.040668  1
  Th  Th12  1  0.924674  0.458817  0.037964  1
  Th  Th13  1  0.534145  0.458817  0.037964  1
  Tc  Tc14  1  0.183454  0.366907  0.796400  1
  Tc  Tc15  1  0.633117  0.816472  0.797553  1
  Tc  Tc16  1  0.183356  0.816472  0.797553  1
  Pt  Pt17  1  0.810627  0.621253  0.305604  1
  Rh  Rh18  1  0.377552  0.189388  0.301615  1
  Rh  Rh19  1  0.811837  0.189388  0.301615  1
