# generated using pymatgen
data_ScPa3(Tc5B4)2
_symmetry_space_group_name_H-M   'P 1'
_cell_length_a   3.14445400
_cell_length_b   8.78397107
_cell_length_c   10.26425871
_cell_angle_alpha   90.25381725
_cell_angle_beta   90.00000000
_cell_angle_gamma   90.00000000
_symmetry_Int_Tables_number   1
_chemical_formula_structural   ScPa3(Tc5B4)2
_chemical_formula_sum   'Sc1 Pa3 Tc10 B8'
_cell_volume   283.50418271
_cell_formula_units_Z   1
loop_
 _symmetry_equiv_pos_site_id
 _symmetry_equiv_pos_as_xyz
  1  'x, y, z'
loop_
 _atom_site_type_symbol
 _atom_site_label
 _atom_site_symmetry_multiplicity
 _atom_site_fract_x
 _atom_site_fract_y
 _atom_site_fract_z
 _atom_site_occupancy
  Sc  Sc0  1  0.500000  0.340559  0.316034  1
  Pa  Pa1  1  0.500000  0.841212  0.183923  1
  Pa  Pa2  1  0.500000  0.159696  0.820002  1
  Pa  Pa3  1  0.500000  0.656747  0.675881  1
  Tc  Tc4  1  0.000000  0.657699  0.953782  1
  Tc  Tc5  1  0.000000  0.342845  0.047496  1
  Tc  Tc6  1  0.000000  0.842491  0.454014  1
  Tc  Tc7  1  0.000000  0.157877  0.545729  1
  Tc  Tc8  1  0.000000  0.000585  0.000907  1
  Tc  Tc9  1  0.000000  0.404598  0.760403  1
  Tc  Tc10  1  0.000000  0.593996  0.240731  1
  Tc  Tc11  1  0.000000  0.497024  0.496131  1
  Tc  Tc12  1  0.000000  0.904601  0.739273  1
  Tc  Tc13  1  0.000000  0.097617  0.262666  1
  B  B14  1  0.500000  0.969651  0.583428  1
  B  B15  1  0.500000  0.037972  0.414348  1
  B  B16  1  0.500000  0.845348  0.901679  1
  B  B17  1  0.500000  0.157710  0.106166  1
  B  B18  1  0.500000  0.649390  0.399719  1
  B  B19  1  0.500000  0.345933  0.592396  1
  B  B20  1  0.500000  0.466533  0.917016  1
  B  B21  1  0.500000  0.529913  0.088274  1
