# generated using pymatgen
data_Pr2Be2SiO7
_symmetry_space_group_name_H-M   'P 1'
_cell_length_a   7.55805600
_cell_length_b   7.55805600
_cell_length_c   4.92896300
_cell_angle_alpha   90.00000000
_cell_angle_beta   90.00000000
_cell_angle_gamma   90.00000000
_symmetry_Int_Tables_number   1
_chemical_formula_structural   Pr2Be2SiO7
_chemical_formula_sum   'Pr4 Be4 Si2 O14'
_cell_volume   281.56311995
_cell_formula_units_Z   2
loop_
 _symmetry_equiv_pos_site_id
 _symmetry_equiv_pos_as_xyz
  1  'x, y, z'
loop_
 _atom_site_type_symbol
 _atom_site_label
 _atom_site_symmetry_multiplicity
 _atom_site_fract_x
 _atom_site_fract_y
 _atom_site_fract_z
 _atom_site_occupancy
  Pr  Pr0  1  0.160876  0.339124  0.506317  1
  Pr  Pr1  1  0.660876  0.160876  0.493683  1
  Pr  Pr2  1  0.339124  0.839124  0.493683  1
  Pr  Pr3  1  0.839124  0.660876  0.506317  1
  Be  Be4  1  0.134330  0.634330  0.035059  1
  Be  Be5  1  0.634330  0.865670  0.964941  1
  Be  Be6  1  0.365670  0.134330  0.964941  1
  Be  Be7  1  0.865670  0.365670  0.035059  1
  Si  Si8  1  0.500000  0.500000  0.000000  1
  Si  Si9  1  0.000000  0.000000  0.000000  1
  O  O10  1  0.923318  0.164471  0.188431  1
  O  O11  1  0.835529  0.923318  0.811569  1
  O  O12  1  0.164471  0.076682  0.811569  1
  O  O13  1  0.076682  0.835529  0.188431  1
  O  O14  1  0.423318  0.335529  0.811569  1
  O  O15  1  0.576682  0.664471  0.811569  1
  O  O16  1  0.664471  0.423318  0.188431  1
  O  O17  1  0.335529  0.576682  0.188431  1
  O  O18  1  0.640525  0.859475  0.286412  1
  O  O19  1  0.140525  0.640525  0.713588  1
  O  O20  1  0.859475  0.359475  0.713588  1
  O  O21  1  0.359475  0.140525  0.286412  1
  O  O22  1  0.500000  0.000000  0.831380  1
  O  O23  1  0.000000  0.500000  0.168620  1
