# generated using pymatgen
data_Cs4K8Bi(SbSe4)3
_symmetry_space_group_name_H-M   'P 1'
_cell_length_a   10.25188809
_cell_length_b   10.25188809
_cell_length_c   10.25188809
_cell_angle_alpha   89.66840662
_cell_angle_beta   89.66840662
_cell_angle_gamma   90.33159338
_symmetry_Int_Tables_number   1
_chemical_formula_structural   Cs4K8Bi(SbSe4)3
_chemical_formula_sum   'Cs4 K8 Bi1 Sb3 Se12'
_cell_volume   1077.43149481
_cell_formula_units_Z   1
loop_
 _symmetry_equiv_pos_site_id
 _symmetry_equiv_pos_as_xyz
  1  'x, y, z'
loop_
 _atom_site_type_symbol
 _atom_site_label
 _atom_site_symmetry_multiplicity
 _atom_site_fract_x
 _atom_site_fract_y
 _atom_site_fract_z
 _atom_site_occupancy
  Cs  Cs0  1  0.925391  0.425391  0.074609  1
  Cs  Cs1  1  0.425963  0.079652  0.933035  1
  Cs  Cs2  1  0.066965  0.925963  0.420348  1
  Cs  Cs3  1  0.579652  0.566965  0.574037  1
  K  K4  1  0.186164  0.686164  0.813836  1
  K  K5  1  0.686853  0.813306  0.188317  1
  K  K6  1  0.811683  0.186853  0.686694  1
  K  K7  1  0.313306  0.311683  0.313147  1
  K  K8  1  0.689613  0.189613  0.310387  1
  K  K9  1  0.190933  0.311928  0.691972  1
  K  K10  1  0.308028  0.690933  0.188072  1
  K  K11  1  0.811928  0.808028  0.809067  1
  Bi  Bi12  1  0.473051  0.973051  0.526949  1
  Sb  Sb13  1  0.980266  0.524159  0.478797  1
  Sb  Sb14  1  0.521203  0.480266  0.975841  1
  Sb  Sb15  1  0.024159  0.021203  0.019734  1
  Se  Se16  1  0.003113  0.777475  0.086917  1
  Se  Se17  1  0.913083  0.503113  0.722525  1
  Se  Se18  1  0.277475  0.413083  0.996887  1
  Se  Se19  1  0.503744  0.723931  0.908208  1
  Se  Se20  1  0.406738  0.995385  0.274824  1
  Se  Se21  1  0.780763  0.087268  0.003626  1
  Se  Se22  1  0.996374  0.280763  0.412732  1
  Se  Se23  1  0.091792  0.003744  0.776069  1
  Se  Se24  1  0.725176  0.906738  0.504615  1
  Se  Se25  1  0.495385  0.225176  0.593262  1
  Se  Se26  1  0.587268  0.496374  0.219237  1
  Se  Se27  1  0.223931  0.591792  0.496256  1
