# generated using pymatgen
data_YbLu3Al15(SiIr2)3
_symmetry_space_group_name_H-M   'P 1'
_cell_length_a   7.51708602
_cell_length_b   7.52298511
_cell_length_c   9.24475400
_cell_angle_alpha   90.00000000
_cell_angle_beta   90.00000000
_cell_angle_gamma   119.74077622
_symmetry_Int_Tables_number   1
_chemical_formula_structural   YbLu3Al15(SiIr2)3
_chemical_formula_sum   'Yb1 Lu3 Al15 Si3 Ir6'
_cell_volume   453.93557750
_cell_formula_units_Z   1
loop_
 _symmetry_equiv_pos_site_id
 _symmetry_equiv_pos_as_xyz
  1  'x, y, z'
loop_
 _atom_site_type_symbol
 _atom_site_label
 _atom_site_symmetry_multiplicity
 _atom_site_fract_x
 _atom_site_fract_y
 _atom_site_fract_z
 _atom_site_occupancy
  Yb  Yb0  1  0.999196  0.673798  0.250000  1
  Lu  Lu1  1  0.003851  0.324569  0.750000  1
  Lu  Lu2  1  0.668835  0.991058  0.250000  1
  Lu  Lu3  1  0.325631  0.004146  0.750000  1
  Al  Al4  1  0.998814  0.334096  0.078587  1
  Al  Al5  1  0.001617  0.664519  0.923192  1
  Al  Al6  1  0.001617  0.664519  0.576808  1
  Al  Al7  1  0.336293  0.003259  0.422510  1
  Al  Al8  1  0.998814  0.334096  0.421413  1
  Al  Al9  1  0.663366  0.999626  0.576815  1
  Al  Al10  1  0.663366  0.999626  0.923185  1
  Al  Al11  1  0.336293  0.003259  0.077490  1
  Al  Al12  1  0.335384  0.334897  0.562465  1
  Al  Al13  1  0.667446  0.664709  0.440603  1
  Al  Al14  1  0.667446  0.664709  0.059397  1
  Al  Al15  1  0.335384  0.334897  0.937535  1
  Al  Al16  1  0.665890  0.452626  0.750000  1
  Al  Al17  1  0.548602  0.339656  0.250000  1
  Al  Al18  1  0.448376  0.665392  0.750000  1
  Si  Si19  1  0.122388  0.126247  0.250000  1
  Si  Si20  1  0.871642  0.872025  0.750000  1
  Si  Si21  1  0.335574  0.545794  0.250000  1
  Ir  Ir22  1  0.671881  0.328285  0.999877  1
  Ir  Ir23  1  0.329646  0.670922  0.006913  1
  Ir  Ir24  1  0.329646  0.670922  0.493087  1
  Ir  Ir25  1  0.671881  0.328285  0.500123  1
  Ir  Ir26  1  0.000561  0.002032  0.999910  1
  Ir  Ir27  1  0.000561  0.002032  0.500090  1
