# generated using pymatgen
data_Er6InHg9
_symmetry_space_group_name_H-M   'P 1'
_cell_length_a   6.30729051
_cell_length_b   6.30729075
_cell_length_c   10.20134300
_cell_angle_alpha   90.00000000
_cell_angle_beta   90.00000000
_cell_angle_gamma   104.94624104
_symmetry_Int_Tables_number   1
_chemical_formula_structural   Er6InHg9
_chemical_formula_sum   'Er6 In1 Hg9'
_cell_volume   392.09905424
_cell_formula_units_Z   1
loop_
 _symmetry_equiv_pos_site_id
 _symmetry_equiv_pos_as_xyz
  1  'x, y, z'
loop_
 _atom_site_type_symbol
 _atom_site_label
 _atom_site_symmetry_multiplicity
 _atom_site_fract_x
 _atom_site_fract_y
 _atom_site_fract_z
 _atom_site_occupancy
  Er  Er0  1  0.578152  0.578152  0.250000  1
  Er  Er1  1  0.416886  0.416886  0.750000  1
  Er  Er2  1  0.210912  0.784495  0.503371  1
  Er  Er3  1  0.210912  0.784495  0.996629  1
  Er  Er4  1  0.784495  0.210912  0.503371  1
  Er  Er5  1  0.784495  0.210912  0.996629  1
  In  In6  1  0.002290  0.002290  0.250000  1
  Hg  Hg7  1  0.017656  0.017656  0.750000  1
  Hg  Hg8  1  0.293153  0.293153  0.031087  1
  Hg  Hg9  1  0.699486  0.699486  0.969606  1
  Hg  Hg10  1  0.293153  0.293153  0.468913  1
  Hg  Hg11  1  0.699486  0.699486  0.530394  1
  Hg  Hg12  1  0.500168  0.045968  0.250000  1
  Hg  Hg13  1  0.951576  0.511213  0.750000  1
  Hg  Hg14  1  0.511213  0.951576  0.750000  1
  Hg  Hg15  1  0.045968  0.500168  0.250000  1
