# generated using pymatgen
data_GdYErTaO7
_symmetry_space_group_name_H-M   'P 1'
_cell_length_a   6.48898563
_cell_length_b   6.48898521
_cell_length_c   7.51456045
_cell_angle_alpha   89.96572532
_cell_angle_beta   89.96572564
_cell_angle_gamma   108.84465820
_symmetry_Int_Tables_number   1
_chemical_formula_structural   GdYErTaO7
_chemical_formula_sum   'Gd2 Y2 Er2 Ta2 O14'
_cell_volume   299.45437777
_cell_formula_units_Z   2
loop_
 _symmetry_equiv_pos_site_id
 _symmetry_equiv_pos_as_xyz
  1  'x, y, z'
loop_
 _atom_site_type_symbol
 _atom_site_label
 _atom_site_symmetry_multiplicity
 _atom_site_fract_x
 _atom_site_fract_y
 _atom_site_fract_z
 _atom_site_occupancy
  Gd  Gd0  1  0.527307  0.526436  0.498667  1
  Gd  Gd1  1  0.473564  0.472693  0.001333  1
  Y  Y2  1  0.999926  0.466449  0.744595  1
  Y  Y3  1  0.533551  0.000074  0.755405  1
  Er  Er4  1  0.464996  0.999340  0.255848  1
  Er  Er5  1  0.000660  0.535004  0.244152  1
  Ta  Ta6  1  0.002632  0.003083  0.498401  1
  Ta  Ta7  1  0.996917  0.997368  0.001599  1
  O  O8  1  0.069233  0.930767  0.250000  1
  O  O9  1  0.053430  0.311453  0.457067  1
  O  O10  1  0.076900  0.325102  0.029680  1
  O  O11  1  0.357727  0.642273  0.250000  1
  O  O12  1  0.368621  0.631379  0.750000  1
  O  O13  1  0.326317  0.079000  0.975325  1
  O  O14  1  0.313566  0.058282  0.536863  1
  O  O15  1  0.688547  0.946570  0.042933  1
  O  O16  1  0.674898  0.923100  0.470320  1
  O  O17  1  0.632616  0.367384  0.250000  1
  O  O18  1  0.639886  0.360114  0.750000  1
  O  O19  1  0.921000  0.673683  0.524675  1
  O  O20  1  0.941718  0.686434  0.963137  1
  O  O21  1  0.935989  0.064011  0.750000  1
