# generated using pymatgen
data_V7Ga(TcOs)4
_symmetry_space_group_name_H-M   'P 1'
_cell_length_a   6.05130900
_cell_length_b   4.27167900
_cell_length_c   8.57082600
_cell_angle_alpha   90.00000000
_cell_angle_beta   89.99952263
_cell_angle_gamma   90.00000000
_symmetry_Int_Tables_number   1
_chemical_formula_structural   V7Ga(TcOs)4
_chemical_formula_sum   'V7 Ga1 Tc4 Os4'
_cell_volume   221.54942036
_cell_formula_units_Z   1
loop_
 _symmetry_equiv_pos_site_id
 _symmetry_equiv_pos_as_xyz
  1  'x, y, z'
loop_
 _atom_site_type_symbol
 _atom_site_label
 _atom_site_symmetry_multiplicity
 _atom_site_fract_x
 _atom_site_fract_y
 _atom_site_fract_z
 _atom_site_occupancy
  V  V0  1  0.500449  0.750001  0.125015  1
  V  V1  1  0.000297  0.250001  0.373277  1
  V  V2  1  0.500026  0.250001  0.376415  1
  V  V3  1  0.500891  0.750001  0.625014  1
  V  V4  1  0.002123  0.750001  0.625021  1
  V  V5  1  0.500019  0.250001  0.873599  1
  V  V6  1  0.000283  0.250001  0.876713  1
  Ga  Ga7  1  0.999555  0.750001  0.124959  1
  Tc  Tc8  1  0.744646  0.250001  0.124996  1
  Tc  Tc9  1  0.251574  0.750001  0.378091  1
  Tc  Tc10  1  0.750043  0.250001  0.625014  1
  Tc  Tc11  1  0.251596  0.750001  0.871899  1
  Os  Os12  1  0.252493  0.250001  0.125001  1
  Os  Os13  1  0.748126  0.750001  0.377989  1
  Os  Os14  1  0.249809  0.250001  0.625005  1
  Os  Os15  1  0.748069  0.750001  0.871989  1
