# generated using pymatgen
data_Cs2Mn3(SeO3)4
_symmetry_space_group_name_H-M   'P 1'
_cell_length_a   5.77995938
_cell_length_b   7.66150632
_cell_length_c   9.49850948
_cell_angle_alpha   90.17976560
_cell_angle_beta   107.75172778
_cell_angle_gamma   90.23679409
_symmetry_Int_Tables_number   1
_chemical_formula_structural   Cs2Mn3(SeO3)4
_chemical_formula_sum   'Cs2 Mn3 Se4 O12'
_cell_volume   400.58930575
_cell_formula_units_Z   1
loop_
 _symmetry_equiv_pos_site_id
 _symmetry_equiv_pos_as_xyz
  1  'x, y, z'
loop_
 _atom_site_type_symbol
 _atom_site_label
 _atom_site_symmetry_multiplicity
 _atom_site_fract_x
 _atom_site_fract_y
 _atom_site_fract_z
 _atom_site_occupancy
  Cs  Cs0  1  0.825241  0.378413  0.651424  1
  Cs  Cs1  1  0.174759  0.621587  0.348576  1
  Mn  Mn2  1  0.596793  0.306503  0.194912  1
  Mn  Mn3  1  0.403207  0.693497  0.805088  1
  Mn  Mn4  1  0.000000  0.000000  0.000000  1
  Se  Se5  1  0.437468  0.207671  0.875969  1
  Se  Se6  1  0.189934  0.130931  0.381430  1
  Se  Se7  1  0.810066  0.869069  0.618570  1
  Se  Se8  1  0.562532  0.792329  0.124031  1
  O  O9  1  0.587957  0.733429  0.646964  1
  O  O10  1  0.725098  0.216245  0.005923  1
  O  O11  1  0.940104  0.266000  0.352184  1
  O  O12  1  0.397467  0.411595  0.795839  1
  O  O13  1  0.883671  0.011489  0.765401  1
  O  O14  1  0.602533  0.588405  0.204161  1
  O  O15  1  0.059896  0.734000  0.647816  1
  O  O16  1  0.274902  0.783755  0.994077  1
  O  O17  1  0.719805  0.784204  0.993842  1
  O  O18  1  0.280195  0.215796  0.006158  1
  O  O19  1  0.412043  0.266571  0.353036  1
  O  O20  1  0.116329  0.988511  0.234599  1
