# generated using pymatgen
data_KZn4BiO7
_symmetry_space_group_name_H-M   'P 1'
_cell_length_a   6.36426800
_cell_length_b   6.36448657
_cell_length_c   10.33687900
_cell_angle_alpha   90.00000000
_cell_angle_beta   90.00000000
_cell_angle_gamma   120.00021700
_symmetry_Int_Tables_number   1
_chemical_formula_structural   KZn4BiO7
_chemical_formula_sum   'K2 Zn8 Bi2 O14'
_cell_volume   362.60262902
_cell_formula_units_Z   2
loop_
 _symmetry_equiv_pos_site_id
 _symmetry_equiv_pos_as_xyz
  1  'x, y, z'
loop_
 _atom_site_type_symbol
 _atom_site_label
 _atom_site_symmetry_multiplicity
 _atom_site_fract_x
 _atom_site_fract_y
 _atom_site_fract_z
 _atom_site_occupancy
  K  K0  1  0.666686  0.333371  0.177628  1
  K  K1  1  0.333312  0.666628  0.677627  1
  Zn  Zn2  1  0.000003  0.000001  0.248516  1
  Zn  Zn3  1  0.829639  0.659277  0.493053  1
  Zn  Zn4  1  0.340726  0.170356  0.493052  1
  Zn  Zn5  1  0.829634  0.170356  0.493054  1
  Zn  Zn6  1  0.999997  0.999999  0.748517  1
  Zn  Zn7  1  0.170361  0.340722  0.993052  1
  Zn  Zn8  1  0.170366  0.829645  0.993053  1
  Zn  Zn9  1  0.659274  0.829643  0.993051  1
  Bi  Bi10  1  0.333330  0.666661  0.304789  1
  Bi  Bi11  1  0.666669  0.333340  0.804789  1
  O  O12  1  0.170789  0.341499  0.184415  1
  O  O13  1  0.170704  0.829201  0.184414  1
  O  O14  1  0.658502  0.829281  0.184411  1
  O  O15  1  0.495398  0.990798  0.425637  1
  O  O16  1  0.495400  0.504585  0.425638  1
  O  O17  1  0.009177  0.504585  0.425641  1
  O  O18  1  0.999995  0.999994  0.439424  1
  O  O19  1  0.829211  0.658500  0.684415  1
  O  O20  1  0.341498  0.170718  0.684411  1
  O  O21  1  0.829297  0.170800  0.684414  1
  O  O22  1  0.504603  0.009203  0.925636  1
  O  O23  1  0.990822  0.495415  0.925641  1
  O  O24  1  0.504598  0.495413  0.925638  1
  O  O25  1  0.000005  0.000006  0.939425  1
