# generated using pymatgen
data_CaLa2(SnPd)2
_symmetry_space_group_name_H-M   'P 1'
_cell_length_a   5.92846900
_cell_length_b   8.73651800
_cell_length_c   14.19921500
_cell_angle_alpha   90.00000000
_cell_angle_beta   90.00000000
_cell_angle_gamma   90.00000000
_symmetry_Int_Tables_number   1
_chemical_formula_structural   CaLa2(SnPd)2
_chemical_formula_sum   'Ca4 La8 Sn8 Pd8'
_cell_volume   735.43664263
_cell_formula_units_Z   4
loop_
 _symmetry_equiv_pos_site_id
 _symmetry_equiv_pos_as_xyz
  1  'x, y, z'
loop_
 _atom_site_type_symbol
 _atom_site_label
 _atom_site_symmetry_multiplicity
 _atom_site_fract_x
 _atom_site_fract_y
 _atom_site_fract_z
 _atom_site_occupancy
  Ca  Ca0  1  0.645828  0.254571  0.750000  1
  Ca  Ca1  1  0.354172  0.745429  0.250000  1
  Ca  Ca2  1  0.645828  0.245429  0.250000  1
  Ca  Ca3  1  0.354172  0.754571  0.750000  1
  La  La4  1  0.158457  0.395083  0.597292  1
  La  La5  1  0.841543  0.604917  0.097292  1
  La  La6  1  0.158457  0.104917  0.402708  1
  La  La7  1  0.841543  0.895083  0.902708  1
  La  La8  1  0.841543  0.604917  0.402708  1
  La  La9  1  0.158457  0.395083  0.902708  1
  La  La10  1  0.841543  0.895083  0.597292  1
  La  La11  1  0.158457  0.104917  0.097292  1
  Sn  Sn12  1  0.682067  0.250000  0.500000  1
  Sn  Sn13  1  0.317933  0.750000  0.000000  1
  Sn  Sn14  1  0.317933  0.750000  0.500000  1
  Sn  Sn15  1  0.682067  0.250000  0.000000  1
  Sn  Sn16  1  0.148146  0.105355  0.750000  1
  Sn  Sn17  1  0.851854  0.894645  0.250000  1
  Sn  Sn18  1  0.148146  0.394645  0.250000  1
  Sn  Sn19  1  0.851854  0.605355  0.750000  1
  Pd  Pd20  1  0.383621  0.041592  0.590324  1
  Pd  Pd21  1  0.616379  0.958408  0.090324  1
  Pd  Pd22  1  0.383621  0.458408  0.409676  1
  Pd  Pd23  1  0.616379  0.541592  0.909676  1
  Pd  Pd24  1  0.616379  0.958408  0.409676  1
  Pd  Pd25  1  0.383621  0.041592  0.909676  1
  Pd  Pd26  1  0.616379  0.541592  0.590324  1
  Pd  Pd27  1  0.383621  0.458408  0.090324  1
