# generated using pymatgen
data_Ti5Nb5(GaSn3)2
_symmetry_space_group_name_H-M   'P 1'
_cell_length_a   8.28476000
_cell_length_b   8.29378855
_cell_length_c   5.63562200
_cell_angle_alpha   90.00000000
_cell_angle_beta   90.00000000
_cell_angle_gamma   119.96399622
_symmetry_Int_Tables_number   1
_chemical_formula_structural   Ti5Nb5(GaSn3)2
_chemical_formula_sum   'Ti5 Nb5 Ga2 Sn6'
_cell_volume   335.47705734
_cell_formula_units_Z   1
loop_
 _symmetry_equiv_pos_site_id
 _symmetry_equiv_pos_as_xyz
  1  'x, y, z'
loop_
 _atom_site_type_symbol
 _atom_site_label
 _atom_site_symmetry_multiplicity
 _atom_site_fract_x
 _atom_site_fract_y
 _atom_site_fract_z
 _atom_site_occupancy
  Ti  Ti0  1  0.728763  0.000000  0.250000  1
  Ti  Ti1  1  0.001302  0.272134  0.750000  1
  Ti  Ti2  1  0.999449  0.727969  0.250000  1
  Ti  Ti3  1  0.729168  0.727866  0.750000  1
  Ti  Ti4  1  0.271480  0.272031  0.250000  1
  Nb  Nb5  1  0.270786  0.000000  0.750000  1
  Nb  Nb6  1  0.333757  0.667710  0.499674  1
  Nb  Nb7  1  0.666048  0.332290  0.499674  1
  Nb  Nb8  1  0.666048  0.332290  0.000326  1
  Nb  Nb9  1  0.333757  0.667710  0.000326  1
  Ga  Ga10  1  0.998032  0.000000  0.497766  1
  Ga  Ga11  1  0.998032  0.000000  0.002234  1
  Sn  Sn12  1  0.619106  0.000000  0.750000  1
  Sn  Sn13  1  0.384950  0.000000  0.250000  1
  Sn  Sn14  1  0.997674  0.612286  0.750000  1
  Sn  Sn15  1  0.000206  0.384151  0.250000  1
  Sn  Sn16  1  0.385388  0.387714  0.750000  1
  Sn  Sn17  1  0.616053  0.615849  0.250000  1
