# generated using pymatgen
data_Tb2NdY2Sb3
_symmetry_space_group_name_H-M   'P 1'
_cell_length_a   9.12177374
_cell_length_b   9.00461086
_cell_length_c   6.37138100
_cell_angle_alpha   90.00000000
_cell_angle_beta   90.00000000
_cell_angle_gamma   119.57601757
_symmetry_Int_Tables_number   1
_chemical_formula_structural   Tb2NdY2Sb3
_chemical_formula_sum   'Tb4 Nd2 Y4 Sb6'
_cell_volume   455.14323480
_cell_formula_units_Z   2
loop_
 _symmetry_equiv_pos_site_id
 _symmetry_equiv_pos_as_xyz
  1  'x, y, z'
loop_
 _atom_site_type_symbol
 _atom_site_label
 _atom_site_symmetry_multiplicity
 _atom_site_fract_x
 _atom_site_fract_y
 _atom_site_fract_z
 _atom_site_occupancy
  Tb  Tb0  1  0.328819  0.664410  0.500000  1
  Tb  Tb1  1  0.671181  0.335590  0.000000  1
  Tb  Tb2  1  0.671181  0.335590  0.500000  1
  Tb  Tb3  1  0.328819  0.664410  0.000000  1
  Nd  Nd4  1  0.000000  0.758440  0.750000  1
  Nd  Nd5  1  0.000000  0.241560  0.250000  1
  Y  Y6  1  0.747490  0.749090  0.250000  1
  Y  Y7  1  0.747490  0.998400  0.750000  1
  Y  Y8  1  0.252510  0.250910  0.750000  1
  Y  Y9  1  0.252510  0.001600  0.250000  1
  Sb  Sb10  1  0.393346  0.004122  0.750000  1
  Sb  Sb11  1  0.393346  0.389224  0.250000  1
  Sb  Sb12  1  0.000000  0.616133  0.250000  1
  Sb  Sb13  1  0.000000  0.383867  0.750000  1
  Sb  Sb14  1  0.606654  0.610776  0.750000  1
  Sb  Sb15  1  0.606654  0.995878  0.250000  1
