# generated using pymatgen
data_Pr4LuRu2
_symmetry_space_group_name_H-M   'P 1'
_cell_length_a   6.59968447
_cell_length_b   7.32402692
_cell_length_c   8.85567222
_cell_angle_alpha   95.90973725
_cell_angle_beta   111.87758305
_cell_angle_gamma   89.99999604
_symmetry_Int_Tables_number   1
_chemical_formula_structural   Pr4LuRu2
_chemical_formula_sum   'Pr8 Lu2 Ru4'
_cell_volume   394.77031817
_cell_formula_units_Z   2
loop_
 _symmetry_equiv_pos_site_id
 _symmetry_equiv_pos_as_xyz
  1  'x, y, z'
loop_
 _atom_site_type_symbol
 _atom_site_label
 _atom_site_symmetry_multiplicity
 _atom_site_fract_x
 _atom_site_fract_y
 _atom_site_fract_z
 _atom_site_occupancy
  Pr  Pr0  1  0.524259  0.082983  0.817988  1
  Pr  Pr1  1  0.475741  0.917017  0.182012  1
  Pr  Pr2  1  0.706271  0.417017  0.182012  1
  Pr  Pr3  1  0.293729  0.582983  0.817988  1
  Pr  Pr4  1  0.294014  0.311142  0.428244  1
  Pr  Pr5  1  0.705986  0.688858  0.571756  1
  Pr  Pr6  1  0.865771  0.188858  0.571756  1
  Pr  Pr7  1  0.134229  0.811142  0.428244  1
  Lu  Lu8  1  0.069543  0.250000  0.000000  1
  Lu  Lu9  1  0.930457  0.750000  0.000000  1
  Ru  Ru10  1  0.309076  0.571934  0.210797  1
  Ru  Ru11  1  0.690924  0.428066  0.789203  1
  Ru  Ru12  1  0.098280  0.928066  0.789203  1
  Ru  Ru13  1  0.901720  0.071934  0.210797  1
