# generated using pymatgen
data_YTm15MgCo4Ag3
_symmetry_space_group_name_H-M   'P 1'
_cell_length_a   9.31080631
_cell_length_b   9.31906368
_cell_length_c   9.32397300
_cell_angle_alpha   59.98257548
_cell_angle_beta   59.95321349
_cell_angle_gamma   59.90595487
_symmetry_Int_Tables_number   1
_chemical_formula_structural   YTm15MgCo4Ag3
_chemical_formula_sum   'Y1 Tm15 Mg1 Co4 Ag3'
_cell_volume   571.38031844
_cell_formula_units_Z   1
loop_
 _symmetry_equiv_pos_site_id
 _symmetry_equiv_pos_as_xyz
  1  'x, y, z'
loop_
 _atom_site_type_symbol
 _atom_site_label
 _atom_site_symmetry_multiplicity
 _atom_site_fract_x
 _atom_site_fract_y
 _atom_site_fract_z
 _atom_site_occupancy
  Y  Y0  1  0.935068  0.938534  0.563199  1
  Tm  Tm1  1  0.346927  0.345751  0.345494  1
  Tm  Tm2  1  0.346927  0.345751  0.961828  1
  Tm  Tm3  1  0.347590  0.961976  0.345217  1
  Tm  Tm4  1  0.951453  0.350201  0.349173  1
  Tm  Tm5  1  0.809990  0.189157  0.188069  1
  Tm  Tm6  1  0.186441  0.813519  0.814258  1
  Tm  Tm7  1  0.186441  0.813519  0.185782  1
  Tm  Tm8  1  0.809990  0.189157  0.812784  1
  Tm  Tm9  1  0.186077  0.186599  0.813662  1
  Tm  Tm10  1  0.810370  0.812457  0.188586  1
  Tm  Tm11  1  0.934978  0.561870  0.562778  1
  Tm  Tm12  1  0.561289  0.937260  0.937796  1
  Tm  Tm13  1  0.561289  0.937260  0.563654  1
  Tm  Tm14  1  0.934978  0.561870  0.940374  1
  Tm  Tm15  1  0.562353  0.563623  0.937012  1
  Mg  Mg16  1  0.287084  0.570733  0.571091  1
  Co  Co17  1  0.139224  0.142879  0.142049  1
  Co  Co18  1  0.139224  0.142879  0.575848  1
  Co  Co19  1  0.139029  0.575718  0.142627  1
  Co  Co20  1  0.575219  0.141617  0.141582  1
  Ag  Ag21  1  0.583062  0.582761  0.582800  1
  Ag  Ag22  1  0.583062  0.582761  0.251377  1
  Ag  Ag23  1  0.581935  0.252147  0.582959  1
