# generated using pymatgen
data_Er16Zn3InRh4
_symmetry_space_group_name_H-M   'P 1'
_cell_length_a   9.47358942
_cell_length_b   9.47358893
_cell_length_c   9.47358850
_cell_angle_alpha   59.76249337
_cell_angle_beta   59.76249625
_cell_angle_gamma   59.76249615
_symmetry_Int_Tables_number   1
_chemical_formula_structural   Er16Zn3InRh4
_chemical_formula_sum   'Er16 Zn3 In1 Rh4'
_cell_volume   597.97111577
_cell_formula_units_Z   1
loop_
 _symmetry_equiv_pos_site_id
 _symmetry_equiv_pos_as_xyz
  1  'x, y, z'
loop_
 _atom_site_type_symbol
 _atom_site_label
 _atom_site_symmetry_multiplicity
 _atom_site_fract_x
 _atom_site_fract_y
 _atom_site_fract_z
 _atom_site_occupancy
  Er  Er0  1  0.190883  0.190883  0.810072  1
  Er  Er1  1  0.436356  0.063239  0.063239  1
  Er  Er2  1  0.434509  0.059895  0.434509  1
  Er  Er3  1  0.063239  0.436356  0.063239  1
  Er  Er4  1  0.647262  0.057009  0.647262  1
  Er  Er5  1  0.192005  0.808941  0.808941  1
  Er  Er6  1  0.063239  0.063239  0.436356  1
  Er  Er7  1  0.810072  0.190883  0.190883  1
  Er  Er8  1  0.808941  0.808941  0.192005  1
  Er  Er9  1  0.647262  0.647262  0.057009  1
  Er  Er10  1  0.647887  0.647887  0.647887  1
  Er  Er11  1  0.059895  0.434509  0.434509  1
  Er  Er12  1  0.057009  0.647262  0.647262  1
  Er  Er13  1  0.808941  0.192005  0.808941  1
  Er  Er14  1  0.434509  0.434509  0.059895  1
  Er  Er15  1  0.190883  0.810072  0.190883  1
  Zn  Zn16  1  0.420395  0.744480  0.420395  1
  Zn  Zn17  1  0.420395  0.420395  0.744480  1
  Zn  Zn18  1  0.744480  0.420395  0.420395  1
  In  In19  1  0.421805  0.421805  0.421805  1
  Rh  Rh20  1  0.856779  0.429408  0.856779  1
  Rh  Rh21  1  0.856779  0.856779  0.429408  1
  Rh  Rh22  1  0.429408  0.856779  0.856779  1
  Rh  Rh23  1  0.857067  0.857067  0.857067  1
