# generated using pymatgen
data_Dy5Y5In6
_symmetry_space_group_name_H-M   'P 1'
_cell_length_a   9.18185476
_cell_length_b   9.18185493
_cell_length_c   9.18012090
_cell_angle_alpha   96.33433509
_cell_angle_beta   96.32726306
_cell_angle_gamma   141.21523584
_symmetry_Int_Tables_number   1
_chemical_formula_structural   Dy5Y5In6
_chemical_formula_sum   'Dy5 Y5 In6'
_cell_volume   457.28080067
_cell_formula_units_Z   1
loop_
 _symmetry_equiv_pos_site_id
 _symmetry_equiv_pos_as_xyz
  1  'x, y, z'
loop_
 _atom_site_type_symbol
 _atom_site_label
 _atom_site_symmetry_multiplicity
 _atom_site_fract_x
 _atom_site_fract_y
 _atom_site_fract_z
 _atom_site_occupancy
  Dy  Dy0  1  0.750043  0.250071  0.500142  1
  Dy  Dy1  1  0.250071  0.750099  0.500142  1
  Dy  Dy2  1  0.782556  0.917706  0.700263  1
  Dy  Dy3  1  0.417781  0.282530  0.700312  1
  Dy  Dy4  1  0.082165  0.782414  0.864579  1
  Y  Y5  1  0.717229  0.417748  0.134977  1
  Y  Y6  1  0.282479  0.582329  0.864808  1
  Y  Y7  1  0.582455  0.717414  0.299868  1
  Y  Y8  1  0.217444  0.082499  0.299942  1
  Y  Y9  1  0.917818  0.217233  0.135052  1
  In  In10  1  0.838583  0.661478  0.500061  1
  In  In11  1  0.338489  0.838605  0.177094  1
  In  In12  1  0.750029  0.750019  0.999948  1
  In  In13  1  0.661428  0.161393  0.822821  1
  In  In14  1  0.161502  0.338544  0.500046  1
  In  In15  1  0.249929  0.249919  0.999948  1
