# generated using pymatgen
data_Ni8Bi8PBr2
_symmetry_space_group_name_H-M   'P 1'
_cell_length_a   4.18448500
_cell_length_b   9.96256300
_cell_length_c   21.03977700
_cell_angle_alpha   90.00000000
_cell_angle_beta   90.00000000
_cell_angle_gamma   90.00000000
_symmetry_Int_Tables_number   1
_chemical_formula_structural   Ni8Bi8PBr2
_chemical_formula_sum   'Ni16 Bi16 P2 Br4'
_cell_volume   877.11033549
_cell_formula_units_Z   2
loop_
 _symmetry_equiv_pos_site_id
 _symmetry_equiv_pos_as_xyz
  1  'x, y, z'
loop_
 _atom_site_type_symbol
 _atom_site_label
 _atom_site_symmetry_multiplicity
 _atom_site_fract_x
 _atom_site_fract_y
 _atom_site_fract_z
 _atom_site_occupancy
  Ni  Ni0  1  0.750102  0.312646  0.970870  1
  Ni  Ni1  1  0.750102  0.687354  0.029130  1
  Ni  Ni2  1  0.249898  0.812646  0.529130  1
  Ni  Ni3  1  0.249898  0.187354  0.470870  1
  Ni  Ni4  1  0.250898  0.587749  0.085637  1
  Ni  Ni5  1  0.250898  0.412251  0.914363  1
  Ni  Ni6  1  0.749102  0.087749  0.414363  1
  Ni  Ni7  1  0.749102  0.912251  0.585637  1
  Ni  Ni8  1  0.248152  0.324371  0.041614  1
  Ni  Ni9  1  0.248152  0.675629  0.958386  1
  Ni  Ni10  1  0.751848  0.824371  0.458386  1
  Ni  Ni11  1  0.751848  0.175629  0.541614  1
  Ni  Ni12  1  0.749398  0.437912  0.088434  1
  Ni  Ni13  1  0.749398  0.562088  0.911566  1
  Ni  Ni14  1  0.250602  0.937912  0.411566  1
  Ni  Ni15  1  0.250602  0.062088  0.588434  1
  Bi  Bi16  1  0.248079  0.381690  0.169838  1
  Bi  Bi17  1  0.248079  0.618310  0.830162  1
  Bi  Bi18  1  0.751921  0.881690  0.330162  1
  Bi  Bi19  1  0.751921  0.118310  0.669838  1
  Bi  Bi20  1  0.749366  0.166832  0.082745  1
  Bi  Bi21  1  0.749366  0.833168  0.917255  1
  Bi  Bi22  1  0.250634  0.666832  0.417255  1
  Bi  Bi23  1  0.250634  0.333168  0.582745  1
  Bi  Bi24  1  0.248680  0.144522  0.943936  1
  Bi  Bi25  1  0.248680  0.855478  0.056064  1
  Bi  Bi26  1  0.751320  0.644522  0.556064  1
  Bi  Bi27  1  0.751320  0.355478  0.443936  1
  Bi  Bi28  1  0.752408  0.669161  0.159505  1
  Bi  Bi29  1  0.752408  0.330839  0.840495  1
  Bi  Bi30  1  0.247592  0.169161  0.340495  1
  Bi  Bi31  1  0.247592  0.830839  0.659505  1
  P  P32  1  0.496392  0.500000  0.000000  1
  P  P33  1  0.503608  0.000000  0.500000  1
  Br  Br34  1  0.251513  0.007237  0.796065  1
  Br  Br35  1  0.251513  0.992763  0.203935  1
  Br  Br36  1  0.748487  0.507237  0.703935  1
  Br  Br37  1  0.748487  0.492763  0.296065  1
