# generated using pymatgen
data_Dy3Y5Ti11Si16Ag
_symmetry_space_group_name_H-M   'P 1'
_cell_length_a   7.07815849
_cell_length_b   7.07865786
_cell_length_c   12.92781617
_cell_angle_alpha   89.93549137
_cell_angle_beta   90.07931566
_cell_angle_gamma   89.60405885
_symmetry_Int_Tables_number   1
_chemical_formula_structural   Dy3Y5Ti11Si16Ag
_chemical_formula_sum   'Dy3 Y5 Ti11 Si16 Ag1'
_cell_volume   647.71701559
_cell_formula_units_Z   1
loop_
 _symmetry_equiv_pos_site_id
 _symmetry_equiv_pos_as_xyz
  1  'x, y, z'
loop_
 _atom_site_type_symbol
 _atom_site_label
 _atom_site_symmetry_multiplicity
 _atom_site_fract_x
 _atom_site_fract_y
 _atom_site_fract_z
 _atom_site_occupancy
  Dy  Dy0  1  0.502309  0.159586  0.216714  1
  Dy  Dy1  1  0.498903  0.841874  0.714440  1
  Dy  Dy2  1  0.343831  0.999060  0.468240  1
  Y  Y3  1  0.997708  0.659283  0.033422  1
  Y  Y4  1  0.999231  0.343614  0.531697  1
  Y  Y5  1  0.659267  0.997667  0.966570  1
  Y  Y6  1  0.159739  0.502478  0.783292  1
  Y  Y7  1  0.841755  0.498647  0.285389  1
  Ti  Ti8  1  0.349292  0.505256  0.376226  1
  Ti  Ti9  1  0.851805  0.991483  0.377075  1
  Ti  Ti10  1  0.008450  0.150534  0.125398  1
  Ti  Ti11  1  0.991599  0.851949  0.622790  1
  Ti  Ti12  1  0.505378  0.349125  0.623657  1
  Ti  Ti13  1  0.150614  0.008464  0.874580  1
  Ti  Ti14  1  0.825942  0.173449  0.750011  1
  Ti  Ti15  1  0.173612  0.826187  0.250049  1
  Ti  Ti16  1  0.327236  0.327212  0.000121  1
  Ti  Ti17  1  0.491350  0.650005  0.125510  1
  Ti  Ti18  1  0.649952  0.491550  0.874427  1
  Si  Si19  1  0.062064  0.714420  0.433818  1
  Si  Si20  1  0.952307  0.290535  0.935744  1
  Si  Si21  1  0.713915  0.061880  0.566203  1
  Si  Si22  1  0.209294  0.453073  0.185699  1
  Si  Si23  1  0.791753  0.544668  0.691280  1
  Si  Si24  1  0.453229  0.208939  0.814279  1
  Si  Si25  1  0.544391  0.792243  0.308827  1
  Si  Si26  1  0.290653  0.952430  0.064437  1
  Si  Si27  1  0.798101  0.868603  0.184933  1
  Si  Si28  1  0.281591  0.626207  0.570264  1
  Si  Si29  1  0.705054  0.369365  0.066903  1
  Si  Si30  1  0.625665  0.281270  0.429701  1
  Si  Si31  1  0.369654  0.705210  0.933137  1
  Si  Si32  1  0.131993  0.201990  0.316930  1
  Si  Si33  1  0.202428  0.131518  0.683102  1
  Si  Si34  1  0.868191  0.798220  0.815094  1
  Ag  Ag35  1  0.671745  0.672007  0.500037  1
