# generated using pymatgen
data_La3In3AgIrPd
_symmetry_space_group_name_H-M   'P 1'
_cell_length_a   7.85191200
_cell_length_b   7.85191214
_cell_length_c   4.17936300
_cell_angle_alpha   90.00000000
_cell_angle_beta   90.00000000
_cell_angle_gamma   119.99999098
_symmetry_Int_Tables_number   1
_chemical_formula_structural   La3In3AgIrPd
_chemical_formula_sum   'La3 In3 Ag1 Ir1 Pd1'
_cell_volume   223.14729144
_cell_formula_units_Z   1
loop_
 _symmetry_equiv_pos_site_id
 _symmetry_equiv_pos_as_xyz
  1  'x, y, z'
loop_
 _atom_site_type_symbol
 _atom_site_label
 _atom_site_symmetry_multiplicity
 _atom_site_fract_x
 _atom_site_fract_y
 _atom_site_fract_z
 _atom_site_occupancy
  La  La0  1  0.013534  0.588888  0.000000  1
  La  La1  1  0.411112  0.424646  0.000000  1
  La  La2  1  0.575354  0.986466  0.000000  1
  In  In3  1  0.746507  0.744234  0.500000  1
  In  In4  1  0.997728  0.253493  0.500000  1
  In  In5  1  0.255766  0.002272  0.500000  1
  Ag  Ag6  1  0.000000  0.000000  0.000000  1
  Ir  Ir7  1  0.333333  0.666667  0.500000  1
  Pd  Pd8  1  0.666667  0.333333  0.500000  1
