# generated using pymatgen
data_Ba11InBi9
_symmetry_space_group_name_H-M   'P 1'
_cell_length_a   13.67157093
_cell_length_b   13.67157095
_cell_length_c   13.67157100
_cell_angle_alpha   120.90198949
_cell_angle_beta   117.15435198
_cell_angle_gamma   91.72141223
_symmetry_Int_Tables_number   1
_chemical_formula_structural   Ba11InBi9
_chemical_formula_sum   'Ba22 In2 Bi18'
_cell_volume   1830.21021894
_cell_formula_units_Z   2
loop_
 _symmetry_equiv_pos_site_id
 _symmetry_equiv_pos_as_xyz
  1  'x, y, z'
loop_
 _atom_site_type_symbol
 _atom_site_label
 _atom_site_symmetry_multiplicity
 _atom_site_fract_x
 _atom_site_fract_y
 _atom_site_fract_z
 _atom_site_occupancy
  Ba  Ba0  1  0.317474  0.317474  0.000000  1
  Ba  Ba1  1  0.830247  0.845440  0.674513  1
  Ba  Ba2  1  0.426452  0.067702  0.179010  1
  Ba  Ba3  1  0.817474  0.817474  0.000000  1
  Ba  Ba4  1  0.686598  0.944115  0.370547  1
  Ba  Ba5  1  0.427353  0.691002  0.371798  1
  Ba  Ba6  1  0.330247  0.655734  0.984807  1
  Ba  Ba7  1  0.819204  0.191002  0.263649  1
  Ba  Ba8  1  0.620557  0.416484  0.351807  1
  Ba  Ba9  1  0.888691  0.247441  0.820990  1
  Ba  Ba10  1  0.120557  0.768750  0.204073  1
  Ba  Ba11  1  0.186598  0.816051  0.742482  1
  Ba  Ba12  1  0.927353  0.555556  0.736351  1
  Ba  Ba13  1  0.388691  0.567702  0.641251  1
  Ba  Ba14  1  0.064677  0.268750  0.648193  1
  Ba  Ba15  1  0.564677  0.916484  0.795927  1
  Ba  Ba16  1  0.926452  0.747441  0.358749  1
  Ba  Ba17  1  0.670927  0.345440  0.015193  1
  Ba  Ba18  1  0.573569  0.316051  0.629453  1
  Ba  Ba19  1  0.170927  0.155734  0.325487  1
  Ba  Ba20  1  0.073569  0.444115  0.257518  1
  Ba  Ba21  1  0.319204  0.055556  0.628202  1
  In  In22  1  0.606874  0.606874  0.000000  1
  In  In23  1  0.106874  0.106874  0.000000  1
  Bi  Bi24  1  0.637641  0.639508  0.642456  1
  Bi  Bi25  1  0.399995  0.969862  0.362906  1
  Bi  Bi26  1  0.997051  0.995185  0.357544  1
  Bi  Bi27  1  0.613227  0.621357  0.238861  1
  Bi  Bi28  1  0.052415  0.043159  0.717184  1
  Bi  Bi29  1  0.248961  0.748961  0.500000  1
  Bi  Bi30  1  0.552415  0.835231  0.009256  1
  Bi  Bi31  1  0.748961  0.248961  0.500000  1
  Bi  Bi32  1  0.882496  0.121357  0.008131  1
  Bi  Bi33  1  0.497051  0.139508  0.001867  1
  Bi  Bi34  1  0.137641  0.495185  0.998133  1
  Bi  Bi35  1  0.382496  0.374365  0.761139  1
  Bi  Bi36  1  0.325975  0.335231  0.282816  1
  Bi  Bi37  1  0.899995  0.537090  0.430134  1
  Bi  Bi38  1  0.106956  0.469862  0.569866  1
  Bi  Bi39  1  0.825975  0.543159  0.990744  1
  Bi  Bi40  1  0.606956  0.037090  0.637094  1
  Bi  Bi41  1  0.113227  0.874365  0.991869  1
