# generated using pymatgen
data_Dy5YTm14(Cd3Ru)2
_symmetry_space_group_name_H-M   'P 1'
_cell_length_a   9.49853300
_cell_length_b   9.49808261
_cell_length_c   9.74369900
_cell_angle_alpha   90.00000000
_cell_angle_beta   90.00000000
_cell_angle_gamma   119.99842955
_symmetry_Int_Tables_number   1
_chemical_formula_structural   Dy5YTm14(Cd3Ru)2
_chemical_formula_sum   'Dy5 Y1 Tm14 Cd6 Ru2'
_cell_volume   761.29651549
_cell_formula_units_Z   1
loop_
 _symmetry_equiv_pos_site_id
 _symmetry_equiv_pos_as_xyz
  1  'x, y, z'
loop_
 _atom_site_type_symbol
 _atom_site_label
 _atom_site_symmetry_multiplicity
 _atom_site_fract_x
 _atom_site_fract_y
 _atom_site_fract_z
 _atom_site_occupancy
  Dy  Dy0  1  0.540260  0.459775  0.250000  1
  Dy  Dy1  1  0.540260  0.080485  0.250000  1
  Dy  Dy2  1  0.919490  0.459746  0.250000  1
  Dy  Dy3  1  0.459968  0.540165  0.750000  1
  Dy  Dy4  1  0.459968  0.919802  0.750000  1
  Y  Y5  1  0.080735  0.540367  0.750000  1
  Tm  Tm6  1  0.999962  0.999981  0.500062  1
  Tm  Tm7  1  0.999962  0.999981  0.999938  1
  Tm  Tm8  1  0.210260  0.790011  0.439883  1
  Tm  Tm9  1  0.210260  0.420250  0.439883  1
  Tm  Tm10  1  0.579646  0.789824  0.440117  1
  Tm  Tm11  1  0.789560  0.209913  0.559873  1
  Tm  Tm12  1  0.789560  0.579646  0.559873  1
  Tm  Tm13  1  0.420326  0.210162  0.560002  1
  Tm  Tm14  1  0.789560  0.209913  0.940127  1
  Tm  Tm15  1  0.789560  0.579646  0.940127  1
  Tm  Tm16  1  0.420326  0.210162  0.939998  1
  Tm  Tm17  1  0.210260  0.790011  0.060117  1
  Tm  Tm18  1  0.210260  0.420250  0.060117  1
  Tm  Tm19  1  0.579646  0.789824  0.059883  1
  Cd  Cd20  1  0.886171  0.113855  0.250000  1
  Cd  Cd21  1  0.886171  0.772316  0.250000  1
  Cd  Cd22  1  0.227762  0.113881  0.250000  1
  Cd  Cd23  1  0.113958  0.886391  0.750000  1
  Cd  Cd24  1  0.113958  0.227566  0.750000  1
  Cd  Cd25  1  0.772237  0.886118  0.750000  1
  Ru  Ru26  1  0.333401  0.666701  0.250000  1
  Ru  Ru27  1  0.666516  0.333258  0.750000  1
