# generated using pymatgen
data_Sr10TaFe5(Mo2O15)2
_symmetry_space_group_name_H-M   'P 1'
_cell_length_a   5.66927683
_cell_length_b   8.00595044
_cell_length_c   14.92338707
_cell_angle_alpha   105.66827638
_cell_angle_beta   99.37409079
_cell_angle_gamma   89.90210879
_symmetry_Int_Tables_number   1
_chemical_formula_structural   Sr10TaFe5(Mo2O15)2
_chemical_formula_sum   'Sr10 Ta1 Fe5 Mo4 O30'
_cell_volume   642.82610642
_cell_formula_units_Z   1
loop_
 _symmetry_equiv_pos_site_id
 _symmetry_equiv_pos_as_xyz
  1  'x, y, z'
loop_
 _atom_site_type_symbol
 _atom_site_label
 _atom_site_symmetry_multiplicity
 _atom_site_fract_x
 _atom_site_fract_y
 _atom_site_fract_z
 _atom_site_occupancy
  Sr  Sr0  1  0.093832  0.349757  0.201028  1
  Sr  Sr1  1  0.696515  0.949018  0.399435  1
  Sr  Sr2  1  0.298862  0.549303  0.599108  1
  Sr  Sr3  1  0.902718  0.149482  0.797951  1
  Sr  Sr4  1  0.498239  0.750894  0.999167  1
  Sr  Sr5  1  0.501761  0.249106  0.000833  1
  Sr  Sr6  1  0.097282  0.850518  0.202049  1
  Sr  Sr7  1  0.701138  0.450697  0.400892  1
  Sr  Sr8  1  0.303485  0.050982  0.600565  1
  Sr  Sr9  1  0.906168  0.650243  0.798972  1
  Ta  Ta10  1  0.000000  0.500000  0.000000  1
  Fe  Fe11  1  0.000000  0.000000  0.000000  1
  Fe  Fe12  1  0.599042  0.600133  0.199106  1
  Fe  Fe13  1  0.198731  0.200056  0.400180  1
  Fe  Fe14  1  0.801269  0.799944  0.599820  1
  Fe  Fe15  1  0.400958  0.399867  0.800894  1
  Mo  Mo16  1  0.597035  0.099846  0.200015  1
  Mo  Mo17  1  0.199458  0.699912  0.400115  1
  Mo  Mo18  1  0.800542  0.300088  0.599885  1
  Mo  Mo19  1  0.402965  0.900154  0.799985  1
  O  O20  1  0.296646  0.049218  0.099228  1
  O  O21  1  0.895890  0.650866  0.301176  1
  O  O22  1  0.498124  0.250622  0.499898  1
  O  O23  1  0.100749  0.850295  0.700334  1
  O  O24  1  0.709148  0.449185  0.899399  1
  O  O25  1  0.290852  0.550815  0.100601  1
  O  O26  1  0.899251  0.149705  0.299666  1
  O  O27  1  0.501876  0.749378  0.500102  1
  O  O28  1  0.104110  0.349134  0.698824  1
  O  O29  1  0.703354  0.950782  0.900772  1
  O  O30  1  0.562525  0.858106  0.216492  1
  O  O31  1  0.166122  0.456868  0.415878  1
  O  O32  1  0.768427  0.056758  0.615562  1
  O  O33  1  0.372444  0.657472  0.816358  1
  O  O34  1  0.969417  0.260088  0.015857  1
  O  O35  1  0.627556  0.342528  0.183642  1
  O  O36  1  0.231573  0.943242  0.384438  1
  O  O37  1  0.833878  0.543132  0.584122  1
  O  O38  1  0.437475  0.141894  0.783508  1
  O  O39  1  0.030583  0.739912  0.984143  1
  O  O40  1  0.204514  0.411187  0.902163  1
  O  O41  1  0.792347  0.013447  0.102879  1
  O  O42  1  0.390916  0.612465  0.302873  1
  O  O43  1  0.992141  0.212145  0.501952  1
  O  O44  1  0.596236  0.811977  0.702934  1
  O  O45  1  0.403764  0.188023  0.297066  1
  O  O46  1  0.007859  0.787855  0.498048  1
  O  O47  1  0.609084  0.387535  0.697127  1
  O  O48  1  0.207653  0.986553  0.897121  1
  O  O49  1  0.795486  0.588813  0.097837  1
