# generated using pymatgen
data_Sc3FeSn3Pt2
_symmetry_space_group_name_H-M   'P 1'
_cell_length_a   7.56455800
_cell_length_b   7.56455816
_cell_length_c   6.84308200
_cell_angle_alpha   90.00000000
_cell_angle_beta   90.00000000
_cell_angle_gamma   120.00000806
_symmetry_Int_Tables_number   1
_chemical_formula_structural   Sc3FeSn3Pt2
_chemical_formula_sum   'Sc6 Fe2 Sn6 Pt4'
_cell_volume   339.11692362
_cell_formula_units_Z   2
loop_
 _symmetry_equiv_pos_site_id
 _symmetry_equiv_pos_as_xyz
  1  'x, y, z'
loop_
 _atom_site_type_symbol
 _atom_site_label
 _atom_site_symmetry_multiplicity
 _atom_site_fract_x
 _atom_site_fract_y
 _atom_site_fract_z
 _atom_site_occupancy
  Sc  Sc0  1  0.393447  0.002440  0.250000  1
  Sc  Sc1  1  0.608993  0.606553  0.250000  1
  Sc  Sc2  1  0.997560  0.391007  0.250000  1
  Sc  Sc3  1  0.391007  0.997560  0.750000  1
  Sc  Sc4  1  0.606553  0.608993  0.750000  1
  Sc  Sc5  1  0.002440  0.393447  0.750000  1
  Fe  Fe6  1  0.000000  0.000000  0.750000  1
  Fe  Fe7  1  0.000000  0.000000  0.250000  1
  Sn  Sn8  1  0.266802  0.266802  0.000000  1
  Sn  Sn9  1  0.000000  0.733198  0.000000  1
  Sn  Sn10  1  0.000000  0.733198  0.500000  1
  Sn  Sn11  1  0.733198  0.000000  0.500000  1
  Sn  Sn12  1  0.266802  0.266802  0.500000  1
  Sn  Sn13  1  0.733198  0.000000  0.000000  1
  Pt  Pt14  1  0.666667  0.333333  0.995583  1
  Pt  Pt15  1  0.333333  0.666667  0.495583  1
  Pt  Pt16  1  0.333333  0.666667  0.004417  1
  Pt  Pt17  1  0.666667  0.333333  0.504417  1
