# generated using pymatgen
data_Ta3BeGa
_symmetry_space_group_name_H-M   'P 1'
_cell_length_a   6.71888300
_cell_length_b   6.74465600
_cell_length_c   3.43171100
_cell_angle_alpha   90.00000000
_cell_angle_beta   90.00000000
_cell_angle_gamma   90.00000000
_symmetry_Int_Tables_number   1
_chemical_formula_structural   Ta3BeGa
_chemical_formula_sum   'Ta6 Be2 Ga2'
_cell_volume   155.51331869
_cell_formula_units_Z   2
loop_
 _symmetry_equiv_pos_site_id
 _symmetry_equiv_pos_as_xyz
  1  'x, y, z'
loop_
 _atom_site_type_symbol
 _atom_site_label
 _atom_site_symmetry_multiplicity
 _atom_site_fract_x
 _atom_site_fract_y
 _atom_site_fract_z
 _atom_site_occupancy
  Ta  Ta0  1  0.820640  0.691581  0.500000  1
  Ta  Ta1  1  0.320640  0.808419  0.500000  1
  Ta  Ta2  1  0.182735  0.337327  0.500000  1
  Ta  Ta3  1  0.682735  0.162673  0.500000  1
  Ta  Ta4  1  0.495311  0.508729  0.000000  1
  Ta  Ta5  1  0.995311  0.991271  0.000000  1
  Be  Be6  1  0.120084  0.623255  0.000000  1
  Be  Be7  1  0.620084  0.876745  0.000000  1
  Ga  Ga8  1  0.381230  0.114126  0.000000  1
  Ga  Ga9  1  0.881230  0.385874  0.000000  1
