# generated using pymatgen
data_Th8Cr(CoSi4)3
_symmetry_space_group_name_H-M   'P 1'
_cell_length_a   8.11800300
_cell_length_b   8.11800290
_cell_length_c   8.42869300
_cell_angle_alpha   90.00000000
_cell_angle_beta   90.00000000
_cell_angle_gamma   119.99999633
_symmetry_Int_Tables_number   1
_chemical_formula_structural   Th8Cr(CoSi4)3
_chemical_formula_sum   'Th8 Cr1 Co3 Si12'
_cell_volume   481.04897446
_cell_formula_units_Z   1
loop_
 _symmetry_equiv_pos_site_id
 _symmetry_equiv_pos_as_xyz
  1  'x, y, z'
loop_
 _atom_site_type_symbol
 _atom_site_label
 _atom_site_symmetry_multiplicity
 _atom_site_fract_x
 _atom_site_fract_y
 _atom_site_fract_z
 _atom_site_occupancy
  Th  Th0  1  0.000000  0.000000  0.748834  1
  Th  Th1  1  0.000000  0.000000  0.251298  1
  Th  Th2  1  0.500704  0.499296  0.750692  1
  Th  Th3  1  0.500704  0.001409  0.750692  1
  Th  Th4  1  0.998591  0.499296  0.750692  1
  Th  Th5  1  0.501289  0.498711  0.249491  1
  Th  Th6  1  0.997423  0.498711  0.249491  1
  Th  Th7  1  0.501289  0.002577  0.249491  1
  Cr  Cr8  1  0.333333  0.666667  0.001377  1
  Co  Co9  1  0.666667  0.333333  0.998034  1
  Co  Co10  1  0.666667  0.333333  0.501798  1
  Co  Co11  1  0.333333  0.666667  0.497881  1
  Si  Si12  1  0.827745  0.172255  0.999598  1
  Si  Si13  1  0.827745  0.655491  0.999598  1
  Si  Si14  1  0.344509  0.172255  0.999598  1
  Si  Si15  1  0.829659  0.170341  0.500469  1
  Si  Si16  1  0.829659  0.659320  0.500469  1
  Si  Si17  1  0.340680  0.170341  0.500469  1
  Si  Si18  1  0.171296  0.828704  0.499667  1
  Si  Si19  1  0.657407  0.828704  0.499667  1
  Si  Si20  1  0.171296  0.342593  0.499667  1
  Si  Si21  1  0.166230  0.833770  0.000344  1
  Si  Si22  1  0.667540  0.833770  0.000344  1
  Si  Si23  1  0.166230  0.332460  0.000344  1
