# generated using pymatgen
data_ErTh5PtBr15
_symmetry_space_group_name_H-M   'P 1'
_cell_length_a   10.19308171
_cell_length_b   10.19308111
_cell_length_c   10.19308134
_cell_angle_alpha   110.12042671
_cell_angle_beta   109.14759908
_cell_angle_gamma   109.14759346
_symmetry_Int_Tables_number   1
_chemical_formula_structural   ErTh5PtBr15
_chemical_formula_sum   'Er1 Th5 Pt1 Br15'
_cell_volume   815.17848383
_cell_formula_units_Z   1
loop_
 _symmetry_equiv_pos_site_id
 _symmetry_equiv_pos_as_xyz
  1  'x, y, z'
loop_
 _atom_site_type_symbol
 _atom_site_label
 _atom_site_symmetry_multiplicity
 _atom_site_fract_x
 _atom_site_fract_y
 _atom_site_fract_z
 _atom_site_occupancy
  Er  Er0  1  0.000000  0.240224  0.240224  1
  Th  Th1  1  0.000000  0.749679  0.749679  1
  Th  Th2  1  0.242030  0.004199  0.246229  1
  Th  Th3  1  0.757970  0.004199  0.762168  1
  Th  Th4  1  0.242030  0.246229  0.004199  1
  Th  Th5  1  0.757970  0.762168  0.004199  1
  Pt  Pt6  1  0.000000  0.995183  0.995183  1
  Br  Br7  1  0.496760  0.248538  0.248538  1
  Br  Br8  1  0.503240  0.751778  0.751778  1
  Br  Br9  1  0.000000  0.248538  0.751778  1
  Br  Br10  1  0.000000  0.751778  0.248538  1
  Br  Br11  1  0.240716  0.492880  0.252164  1
  Br  Br12  1  0.759284  0.011446  0.252164  1
  Br  Br13  1  0.751448  0.502236  0.750788  1
  Br  Br14  1  0.248552  0.999339  0.750788  1
  Br  Br15  1  0.240716  0.252164  0.492880  1
  Br  Br16  1  0.751448  0.750788  0.502236  1
  Br  Br17  1  0.759284  0.252164  0.011446  1
  Br  Br18  1  0.248552  0.750788  0.999339  1
  Br  Br19  1  0.000000  0.493020  0.493020  1
  Br  Br20  1  0.500000  0.996332  0.496332  1
  Br  Br21  1  0.500000  0.496332  0.996332  1
