# generated using pymatgen
data_Dy3Tm8ThCo4
_symmetry_space_group_name_H-M   'P 1'
_cell_length_a   6.17963412
_cell_length_b   6.87431231
_cell_length_c   9.34307400
_cell_angle_alpha   90.00000000
_cell_angle_beta   90.00000000
_cell_angle_gamma   91.06995036
_symmetry_Int_Tables_number   1
_chemical_formula_structural   Dy3Tm8ThCo4
_chemical_formula_sum   'Dy3 Tm8 Th1 Co4'
_cell_volume   396.83144772
_cell_formula_units_Z   1
loop_
 _symmetry_equiv_pos_site_id
 _symmetry_equiv_pos_as_xyz
  1  'x, y, z'
loop_
 _atom_site_type_symbol
 _atom_site_label
 _atom_site_symmetry_multiplicity
 _atom_site_fract_x
 _atom_site_fract_y
 _atom_site_fract_z
 _atom_site_occupancy
  Dy  Dy0  1  0.361468  0.957893  0.750000  1
  Dy  Dy1  1  0.857406  0.544255  0.250000  1
  Dy  Dy2  1  0.640827  0.042972  0.250000  1
  Tm  Tm3  1  0.672727  0.324786  0.933315  1
  Tm  Tm4  1  0.175801  0.172902  0.430305  1
  Tm  Tm5  1  0.826581  0.824447  0.568526  1
  Tm  Tm6  1  0.175801  0.172902  0.069695  1
  Tm  Tm7  1  0.826581  0.824447  0.931474  1
  Tm  Tm8  1  0.672727  0.324786  0.566685  1
  Tm  Tm9  1  0.324036  0.675757  0.068843  1
  Tm  Tm10  1  0.324036  0.675757  0.431157  1
  Th  Th11  1  0.150623  0.446672  0.750000  1
  Co  Co12  1  0.535492  0.610498  0.750000  1
  Co  Co13  1  0.954716  0.128184  0.750000  1
  Co  Co14  1  0.049295  0.886104  0.250000  1
  Co  Co15  1  0.451886  0.387636  0.250000  1
