# generated using pymatgen
data_Ho3Si6(Pd4Pt)4
_symmetry_space_group_name_H-M   'P 1'
_cell_length_a   8.72109324
_cell_length_b   8.72750818
_cell_length_c   8.72750790
_cell_angle_alpha   59.83344458
_cell_angle_beta   59.83537771
_cell_angle_gamma   59.83537560
_symmetry_Int_Tables_number   1
_chemical_formula_structural   Ho3Si6(Pd4Pt)4
_chemical_formula_sum   'Ho3 Si6 Pd16 Pt4'
_cell_volume   467.95531908
_cell_formula_units_Z   1
loop_
 _symmetry_equiv_pos_site_id
 _symmetry_equiv_pos_as_xyz
  1  'x, y, z'
loop_
 _atom_site_type_symbol
 _atom_site_label
 _atom_site_symmetry_multiplicity
 _atom_site_fract_x
 _atom_site_fract_y
 _atom_site_fract_z
 _atom_site_occupancy
  Ho  Ho0  1  0.251248  0.249911  0.249911  1
  Ho  Ho1  1  0.748532  0.749854  0.749854  1
  Ho  Ho2  1  0.000012  0.000031  0.000031  1
  Si  Si3  1  0.730997  0.267551  0.267551  1
  Si  Si4  1  0.270035  0.730927  0.730927  1
  Si  Si5  1  0.269188  0.730712  0.268245  1
  Si  Si6  1  0.730976  0.269144  0.732205  1
  Si  Si7  1  0.269188  0.268245  0.730712  1
  Si  Si8  1  0.730976  0.732205  0.269144  1
  Pd  Pd9  1  0.619605  0.616296  0.148392  1
  Pd  Pd10  1  0.619605  0.148392  0.616296  1
  Pd  Pd11  1  0.851674  0.381612  0.381612  1
  Pd  Pd12  1  0.146508  0.618077  0.618077  1
  Pd  Pd13  1  0.344093  0.000509  0.000509  1
  Pd  Pd14  1  0.655438  0.999945  0.999945  1
  Pd  Pd15  1  0.999271  0.345456  0.656275  1
  Pd  Pd16  1  0.999271  0.656275  0.345456  1
  Pd  Pd17  1  0.999535  0.345036  0.000227  1
  Pd  Pd18  1  0.655542  0.999677  0.345623  1
  Pd  Pd19  1  0.998987  0.656037  0.000289  1
  Pd  Pd20  1  0.344438  0.000280  0.656177  1
  Pd  Pd21  1  0.999535  0.000227  0.345036  1
  Pd  Pd22  1  0.998987  0.000289  0.656037  1
  Pd  Pd23  1  0.655542  0.345623  0.999677  1
  Pd  Pd24  1  0.344438  0.656177  0.000280  1
  Pt  Pt25  1  0.383669  0.383933  0.383933  1
  Pt  Pt26  1  0.618348  0.615521  0.615521  1
  Pt  Pt27  1  0.382181  0.382615  0.849442  1
  Pt  Pt28  1  0.382181  0.849442  0.382615  1
