# generated using pymatgen
data_ThZnF36
_symmetry_space_group_name_H-M   'P 1'
_cell_length_a   6.09025861
_cell_length_b   10.70321445
_cell_length_c   10.78022275
_cell_angle_alpha   91.44882121
_cell_angle_beta   99.85638571
_cell_angle_gamma   75.14373076
_symmetry_Int_Tables_number   1
_chemical_formula_structural   ThZnF36
_chemical_formula_sum   'Th1 Zn1 F36'
_cell_volume   669.06918128
_cell_formula_units_Z   1
loop_
 _symmetry_equiv_pos_site_id
 _symmetry_equiv_pos_as_xyz
  1  'x, y, z'
loop_
 _atom_site_type_symbol
 _atom_site_label
 _atom_site_symmetry_multiplicity
 _atom_site_fract_x
 _atom_site_fract_y
 _atom_site_fract_z
 _atom_site_occupancy
  Th  Th0  1  0.741712  0.838592  0.880296  1
  Zn  Zn1  1  0.249547  0.179237  0.147702  1
  F  F2  1  0.320119  0.386800  0.884139  1
  F  F3  1  0.633504  0.617197  0.121390  1
  F  F4  1  0.328583  0.288109  0.593927  1
  F  F5  1  0.668523  0.753936  0.422898  1
  F  F6  1  0.861153  0.225366  0.807988  1
  F  F7  1  0.176075  0.759117  0.189654  1
  F  F8  1  0.685311  0.832459  0.067055  1
  F  F9  1  0.298716  0.096537  0.989011  1
  F  F10  1  0.778869  0.613842  0.867643  1
  F  F11  1  0.255074  0.363694  0.118426  1
  F  F12  1  0.450328  0.464975  0.841220  1
  F  F13  1  0.585705  0.495429  0.138730  1
  F  F14  1  0.724658  0.707725  0.703073  1
  F  F15  1  0.233709  0.298113  0.287003  1
  F  F16  1  0.744118  0.969345  0.553085  1
  F  F17  1  0.242895  0.009030  0.462010  1
  F  F18  1  0.291630  0.177988  0.651178  1
  F  F19  1  0.675675  0.820675  0.311303  1
  F  F20  1  0.803026  0.088397  0.583708  1
  F  F21  1  0.164172  0.927388  0.366997  1
  F  F22  1  0.805205  0.018755  0.851002  1
  F  F23  1  0.193286  0.000666  0.116820  1
  F  F24  1  0.901851  0.349486  0.791649  1
  F  F25  1  0.120895  0.641259  0.213778  1
  F  F26  1  0.150831  0.752765  0.910677  1
  F  F27  1  0.890454  0.246776  0.100179  1
  F  F28  1  0.382846  0.948665  0.750207  1
  F  F29  1  0.568342  0.091980  0.237795  1
  F  F30  1  0.121911  0.749580  0.575107  1
  F  F31  1  0.897520  0.251428  0.432288  1
  F  F32  1  0.199264  0.634518  0.651377  1
  F  F33  1  0.815838  0.371985  0.365726  1
  F  F34  1  0.270894  0.850814  0.829680  1
  F  F35  1  0.739649  0.168282  0.167876  1
  F  F36  1  0.543540  0.451929  0.552721  1
  F  F37  1  0.484577  0.557158  0.464688  1
