# generated using pymatgen
data_Nb6VCo4ReN2
_symmetry_space_group_name_H-M   'P 1'
_cell_length_a   8.04494238
_cell_length_b   8.10103615
_cell_length_c   8.10103553
_cell_angle_alpha   60.44131621
_cell_angle_beta   60.22878501
_cell_angle_gamma   60.22878624
_symmetry_Int_Tables_number   1
_chemical_formula_structural   Nb6VCo4ReN2
_chemical_formula_sum   'Nb12 V2 Co8 Re2 N4'
_cell_volume   375.85457564
_cell_formula_units_Z   2
loop_
 _symmetry_equiv_pos_site_id
 _symmetry_equiv_pos_as_xyz
  1  'x, y, z'
loop_
 _atom_site_type_symbol
 _atom_site_label
 _atom_site_symmetry_multiplicity
 _atom_site_fract_x
 _atom_site_fract_y
 _atom_site_fract_z
 _atom_site_occupancy
  Nb  Nb0  1  0.806191  0.807043  0.192831  1
  Nb  Nb1  1  0.193935  0.192831  0.807043  1
  Nb  Nb2  1  0.806191  0.192831  0.807043  1
  Nb  Nb3  1  0.193935  0.807043  0.192831  1
  Nb  Nb4  1  0.190810  0.809190  0.809190  1
  Nb  Nb5  1  0.803983  0.196017  0.196017  1
  Nb  Nb6  1  0.443809  0.442957  0.057169  1
  Nb  Nb7  1  0.056065  0.057169  0.442957  1
  Nb  Nb8  1  0.443809  0.057169  0.442957  1
  Nb  Nb9  1  0.056065  0.442957  0.057169  1
  Nb  Nb10  1  0.059190  0.440810  0.440810  1
  Nb  Nb11  1  0.446017  0.053983  0.053983  1
  V  V12  1  0.125000  0.625000  0.625000  1
  V  V13  1  0.625000  0.625000  0.625000  1
  Co  Co14  1  0.728256  0.427625  0.427625  1
  Co  Co15  1  0.420186  0.729825  0.429806  1
  Co  Co16  1  0.420186  0.429806  0.729825  1
  Co  Co17  1  0.416496  0.427625  0.427625  1
  Co  Co18  1  0.521744  0.822375  0.822375  1
  Co  Co19  1  0.829814  0.520175  0.820194  1
  Co  Co20  1  0.829814  0.820194  0.520175  1
  Co  Co21  1  0.833504  0.822375  0.822375  1
  Re  Re22  1  0.625000  0.125000  0.625000  1
  Re  Re23  1  0.625000  0.625000  0.125000  1
  N  N24  1  0.625000  0.125000  0.125000  1
  N  N25  1  0.125000  0.625000  0.125000  1
  N  N26  1  0.125000  0.125000  0.625000  1
  N  N27  1  0.125000  0.125000  0.125000  1
