# generated using pymatgen
data_Tb11SmFe2I17
_symmetry_space_group_name_H-M   'P 1'
_cell_length_a   9.76331190
_cell_length_b   11.74516961
_cell_length_c   11.74086950
_cell_angle_alpha   93.56523312
_cell_angle_beta   104.76101883
_cell_angle_gamma   114.23520071
_symmetry_Int_Tables_number   1
_chemical_formula_structural   Tb11SmFe2I17
_chemical_formula_sum   'Tb11 Sm1 Fe2 I17'
_cell_volume   1165.74620926
_cell_formula_units_Z   1
loop_
 _symmetry_equiv_pos_site_id
 _symmetry_equiv_pos_as_xyz
  1  'x, y, z'
loop_
 _atom_site_type_symbol
 _atom_site_label
 _atom_site_symmetry_multiplicity
 _atom_site_fract_x
 _atom_site_fract_y
 _atom_site_fract_z
 _atom_site_occupancy
  Tb  Tb0  1  0.051607  0.501218  0.320125  1
  Tb  Tb1  1  0.990348  0.809296  0.585449  1
  Tb  Tb2  1  0.653856  0.241535  0.281624  1
  Tb  Tb3  1  0.007973  0.192741  0.410299  1
  Tb  Tb4  1  0.219742  0.671229  0.985418  1
  Tb  Tb5  1  0.255889  0.980371  0.889466  1
  Tb  Tb6  1  0.339151  0.757914  0.720302  1
  Tb  Tb7  1  0.946091  0.494089  0.678939  1
  Tb  Tb8  1  0.747121  0.023798  0.111817  1
  Tb  Tb9  1  0.144442  0.287587  0.153724  1
  Tb  Tb10  1  0.782313  0.327373  0.018747  1
  Sm  Sm11  1  0.857178  0.712951  0.845833  1
  Fe  Fe12  1  0.101606  0.737635  0.785958  1
  Fe  Fe13  1  0.896731  0.262141  0.214442  1
  I  I14  1  0.783700  0.528409  0.418346  1
  I  I15  1  0.645026  0.414685  0.760772  1
  I  I16  1  0.845252  0.897221  0.326205  1
  I  I17  1  0.328320  0.214192  0.368920  1
  I  I18  1  0.156398  0.103214  0.673188  1
  I  I19  1  0.584889  0.050992  0.843136  1
  I  I20  1  0.758555  0.187577  0.538815  1
  I  I21  1  0.548049  0.711621  0.953574  1
  I  I22  1  0.356583  0.581419  0.238590  1
  I  I23  1  0.216337  0.472604  0.583706  1
  I  I24  1  0.058019  0.368979  0.896980  1
  I  I25  1  0.449800  0.289424  0.045599  1
  I  I26  1  0.001866  0.001544  0.000108  1
  I  I27  1  0.241581  0.811473  0.462652  1
  I  I28  1  0.412955  0.946978  0.156121  1
  I  I29  1  0.672931  0.788120  0.626871  1
  I  I30  1  0.945689  0.631668  0.104277  1
