# generated using pymatgen
data_Dy7Sn22Os6Au
_symmetry_space_group_name_H-M   'P 1'
_cell_length_a   9.84424700
_cell_length_b   9.84424713
_cell_length_c   10.10525300
_cell_angle_alpha   90.00000000
_cell_angle_beta   90.00000000
_cell_angle_gamma   119.99998948
_symmetry_Int_Tables_number   1
_chemical_formula_structural   Dy7Sn22Os6Au
_chemical_formula_sum   'Dy7 Sn22 Os6 Au1'
_cell_volume   848.09182827
_cell_formula_units_Z   1
loop_
 _symmetry_equiv_pos_site_id
 _symmetry_equiv_pos_as_xyz
  1  'x, y, z'
loop_
 _atom_site_type_symbol
 _atom_site_label
 _atom_site_symmetry_multiplicity
 _atom_site_fract_x
 _atom_site_fract_y
 _atom_site_fract_z
 _atom_site_occupancy
  Dy  Dy0  1  0.000000  0.000000  0.000000  1
  Dy  Dy1  1  0.483589  0.516411  0.304514  1
  Dy  Dy2  1  0.516411  0.483589  0.695486  1
  Dy  Dy3  1  0.483589  0.967178  0.304514  1
  Dy  Dy4  1  0.516411  0.032822  0.695486  1
  Dy  Dy5  1  0.032822  0.516411  0.304514  1
  Dy  Dy6  1  0.967178  0.483589  0.695486  1
  Sn  Sn7  1  0.349669  0.000000  0.000000  1
  Sn  Sn8  1  0.650331  0.000000  0.000000  1
  Sn  Sn9  1  0.000000  0.349669  0.000000  1
  Sn  Sn10  1  0.000000  0.650331  0.000000  1
  Sn  Sn11  1  0.650331  0.650331  0.000000  1
  Sn  Sn12  1  0.349669  0.349669  0.000000  1
  Sn  Sn13  1  0.333333  0.666667  0.825070  1
  Sn  Sn14  1  0.666667  0.333333  0.174930  1
  Sn  Sn15  1  0.779684  0.220316  0.462415  1
  Sn  Sn16  1  0.220316  0.779684  0.537585  1
  Sn  Sn17  1  0.779684  0.559368  0.462415  1
  Sn  Sn18  1  0.220316  0.440632  0.537585  1
  Sn  Sn19  1  0.440632  0.220316  0.462415  1
  Sn  Sn20  1  0.559368  0.779684  0.537585  1
  Sn  Sn21  1  0.333333  0.666667  0.126895  1
  Sn  Sn22  1  0.666667  0.333333  0.873105  1
  Sn  Sn23  1  0.118175  0.881825  0.278472  1
  Sn  Sn24  1  0.881825  0.118175  0.721528  1
  Sn  Sn25  1  0.118175  0.236348  0.278472  1
  Sn  Sn26  1  0.881825  0.763652  0.721528  1
  Sn  Sn27  1  0.763652  0.881825  0.278472  1
  Sn  Sn28  1  0.236348  0.118175  0.721528  1
  Os  Os29  1  0.831484  0.168516  0.204732  1
  Os  Os30  1  0.168516  0.831484  0.795268  1
  Os  Os31  1  0.831484  0.662967  0.204732  1
  Os  Os32  1  0.168516  0.337033  0.795268  1
  Os  Os33  1  0.337033  0.168516  0.204732  1
  Os  Os34  1  0.662967  0.831484  0.795268  1
  Au  Au35  1  0.000000  0.000000  0.500000  1
