# generated using pymatgen
data_Li2YTmSi4
_symmetry_space_group_name_H-M   'P 1'
_cell_length_a   3.77888100
_cell_length_b   7.57436289
_cell_length_c   10.12178037
_cell_angle_alpha   89.92038322
_cell_angle_beta   90.00000000
_cell_angle_gamma   90.00000000
_symmetry_Int_Tables_number   1
_chemical_formula_structural   Li2YTmSi4
_chemical_formula_sum   'Li4 Y2 Tm2 Si8'
_cell_volume   289.71155295
_cell_formula_units_Z   2
loop_
 _symmetry_equiv_pos_site_id
 _symmetry_equiv_pos_as_xyz
  1  'x, y, z'
loop_
 _atom_site_type_symbol
 _atom_site_label
 _atom_site_symmetry_multiplicity
 _atom_site_fract_x
 _atom_site_fract_y
 _atom_site_fract_z
 _atom_site_occupancy
  Li  Li0  1  0.250000  0.990977  0.390901  1
  Li  Li1  1  0.750000  0.009023  0.609099  1
  Li  Li2  1  0.250000  0.489490  0.107818  1
  Li  Li3  1  0.750000  0.510510  0.892182  1
  Y  Y4  1  0.250000  0.640616  0.636328  1
  Y  Y5  1  0.750000  0.359384  0.363672  1
  Tm  Tm6  1  0.250000  0.138335  0.863972  1
  Tm  Tm7  1  0.750000  0.861665  0.136028  1
  Si  Si8  1  0.750000  0.265708  0.065137  1
  Si  Si9  1  0.250000  0.734292  0.934863  1
  Si  Si10  1  0.750000  0.770346  0.430558  1
  Si  Si11  1  0.250000  0.229654  0.569442  1
  Si  Si12  1  0.750000  0.846939  0.822139  1
  Si  Si13  1  0.250000  0.153061  0.177861  1
  Si  Si14  1  0.750000  0.342569  0.681845  1
  Si  Si15  1  0.250000  0.657431  0.318155  1
