# generated using pymatgen
data_Li7Nd8CdSn8
_symmetry_space_group_name_H-M   'P 1'
_cell_length_a   9.61050500
_cell_length_b   9.59852809
_cell_length_c   7.64982789
_cell_angle_alpha   90.13346339
_cell_angle_beta   90.00000000
_cell_angle_gamma   120.04128847
_symmetry_Int_Tables_number   1
_chemical_formula_structural   Li7Nd8CdSn8
_chemical_formula_sum   'Li7 Nd8 Cd1 Sn8'
_cell_volume   610.87272404
_cell_formula_units_Z   1
loop_
 _symmetry_equiv_pos_site_id
 _symmetry_equiv_pos_as_xyz
  1  'x, y, z'
loop_
 _atom_site_type_symbol
 _atom_site_label
 _atom_site_symmetry_multiplicity
 _atom_site_fract_x
 _atom_site_fract_y
 _atom_site_fract_z
 _atom_site_occupancy
  Li  Li0  1  0.164610  0.832289  0.288993  1
  Li  Li1  1  0.667678  0.832289  0.288993  1
  Li  Li2  1  0.833131  0.666262  0.788926  1
  Li  Li3  1  0.832448  0.166304  0.788664  1
  Li  Li4  1  0.333855  0.166304  0.788664  1
  Li  Li5  1  0.333710  0.667421  0.668009  1
  Li  Li6  1  0.668006  0.336011  0.166467  1
  Nd  Nd7  1  0.512260  0.024521  0.498749  1
  Nd  Nd8  1  0.516563  0.489727  0.496184  1
  Nd  Nd9  1  0.973163  0.489727  0.496184  1
  Nd  Nd10  1  0.487945  0.975889  0.989799  1
  Nd  Nd11  1  0.489311  0.513222  0.993606  1
  Nd  Nd12  1  0.023912  0.513222  0.993606  1
  Nd  Nd13  1  0.996698  0.993397  0.502214  1
  Nd  Nd14  1  0.999874  0.999749  0.999353  1
  Cd  Cd15  1  0.166678  0.333357  0.291816  1
  Sn  Sn16  1  0.166487  0.332975  0.730499  1
  Sn  Sn17  1  0.166356  0.832758  0.729678  1
  Sn  Sn18  1  0.666401  0.832758  0.729678  1
  Sn  Sn19  1  0.833421  0.666841  0.229555  1
  Sn  Sn20  1  0.824146  0.162194  0.225878  1
  Sn  Sn21  1  0.338048  0.162194  0.225878  1
  Sn  Sn22  1  0.338432  0.676864  0.263837  1
  Sn  Sn23  1  0.666865  0.333729  0.766744  1
