# generated using pymatgen
data_Tb12Y4MgAg3Rh4
_symmetry_space_group_name_H-M   'P 1'
_cell_length_a   9.56843724
_cell_length_b   9.60085539
_cell_length_c   9.60083852
_cell_angle_alpha   60.29034547
_cell_angle_beta   60.36032492
_cell_angle_gamma   60.36010446
_symmetry_Int_Tables_number   1
_chemical_formula_structural   Tb12Y4MgAg3Rh4
_chemical_formula_sum   'Tb12 Y4 Mg1 Ag3 Rh4'
_cell_volume   628.40922751
_cell_formula_units_Z   1
loop_
 _symmetry_equiv_pos_site_id
 _symmetry_equiv_pos_as_xyz
  1  'x, y, z'
loop_
 _atom_site_type_symbol
 _atom_site_label
 _atom_site_symmetry_multiplicity
 _atom_site_fract_x
 _atom_site_fract_y
 _atom_site_fract_z
 _atom_site_occupancy
  Tb  Tb0  1  0.601188  0.598245  0.598291  1
  Tb  Tb1  1  0.599359  0.597899  0.203934  1
  Tb  Tb2  1  0.599323  0.203973  0.597913  1
  Tb  Tb3  1  0.186146  0.604526  0.604526  1
  Tb  Tb4  1  0.059475  0.438852  0.438849  1
  Tb  Tb5  1  0.436853  0.062261  0.062271  1
  Tb  Tb6  1  0.436084  0.062983  0.436447  1
  Tb  Tb7  1  0.059248  0.439342  0.060244  1
  Tb  Tb8  1  0.436079  0.436463  0.062976  1
  Tb  Tb9  1  0.059265  0.060234  0.439336  1
  Tb  Tb10  1  0.184658  0.813846  0.813839  1
  Tb  Tb11  1  0.815394  0.185496  0.185515  1
  Y  Y12  1  0.814006  0.186187  0.815322  1
  Y  Y13  1  0.184266  0.814572  0.186246  1
  Y  Y14  1  0.813984  0.815325  0.186194  1
  Y  Y15  1  0.184254  0.186263  0.814579  1
  Mg  Mg16  1  0.540265  0.820713  0.820677  1
  Ag  Ag17  1  0.832521  0.834990  0.834978  1
  Ag  Ag18  1  0.832649  0.835122  0.498957  1
  Ag  Ag19  1  0.832653  0.498965  0.835111  1
  Rh  Rh20  1  0.387054  0.394296  0.394285  1
  Rh  Rh21  1  0.390932  0.395184  0.821809  1
  Rh  Rh22  1  0.390978  0.821774  0.395187  1
  Rh  Rh23  1  0.823368  0.392492  0.392514  1
