# generated using pymatgen
data_Dy3Y4Co6Sn23
_symmetry_space_group_name_H-M   'P 1'
_cell_length_a   9.71087500
_cell_length_b   9.71087437
_cell_length_c   9.96572400
_cell_angle_alpha   90.00000000
_cell_angle_beta   90.00000000
_cell_angle_gamma   119.99999875
_symmetry_Int_Tables_number   1
_chemical_formula_structural   Dy3Y4Co6Sn23
_chemical_formula_sum   'Dy3 Y4 Co6 Sn23'
_cell_volume   813.87215789
_cell_formula_units_Z   1
loop_
 _symmetry_equiv_pos_site_id
 _symmetry_equiv_pos_as_xyz
  1  'x, y, z'
loop_
 _atom_site_type_symbol
 _atom_site_label
 _atom_site_symmetry_multiplicity
 _atom_site_fract_x
 _atom_site_fract_y
 _atom_site_fract_z
 _atom_site_occupancy
  Dy  Dy0  1  0.043015  0.521508  0.306276  1
  Dy  Dy1  1  0.478492  0.956985  0.306276  1
  Dy  Dy2  1  0.478492  0.521508  0.306276  1
  Y  Y3  1  0.000000  0.000000  0.000065  1
  Y  Y4  1  0.521741  0.478259  0.693459  1
  Y  Y5  1  0.521741  0.043481  0.693459  1
  Y  Y6  1  0.956519  0.478259  0.693459  1
  Co  Co7  1  0.167445  0.832555  0.803130  1
  Co  Co8  1  0.167445  0.334891  0.803130  1
  Co  Co9  1  0.665109  0.832555  0.803130  1
  Co  Co10  1  0.335130  0.167565  0.197044  1
  Co  Co11  1  0.832435  0.664870  0.197044  1
  Co  Co12  1  0.832435  0.167565  0.197044  1
  Sn  Sn13  1  0.666667  0.333333  0.181452  1
  Sn  Sn14  1  0.666667  0.333333  0.883247  1
  Sn  Sn15  1  0.333333  0.666667  0.117601  1
  Sn  Sn16  1  0.346056  0.346124  0.000112  1
  Sn  Sn17  1  0.000069  0.653944  0.000112  1
  Sn  Sn18  1  0.653876  0.999931  0.000112  1
  Sn  Sn19  1  0.653876  0.653944  0.000112  1
  Sn  Sn20  1  0.333333  0.666667  0.818656  1
  Sn  Sn21  1  0.437075  0.218539  0.451279  1
  Sn  Sn22  1  0.218586  0.781414  0.548155  1
  Sn  Sn23  1  0.218586  0.437170  0.548155  1
  Sn  Sn24  1  0.562830  0.781414  0.548155  1
  Sn  Sn25  1  0.117939  0.882061  0.274265  1
  Sn  Sn26  1  0.781461  0.562925  0.451279  1
  Sn  Sn27  1  0.781461  0.218539  0.451279  1
  Sn  Sn28  1  0.346056  0.999931  0.000112  1
  Sn  Sn29  1  0.117939  0.235879  0.274265  1
  Sn  Sn30  1  0.764121  0.882061  0.274265  1
  Sn  Sn31  1  0.235382  0.117690  0.725865  1
  Sn  Sn32  1  0.882310  0.764618  0.725865  1
  Sn  Sn33  1  0.882310  0.117690  0.725865  1
  Sn  Sn34  1  0.000000  0.000000  0.499887  1
  Sn  Sn35  1  0.000069  0.346124  0.000112  1
