# generated using pymatgen
data_PaI2Br3
_symmetry_space_group_name_H-M   'P 1'
_cell_length_a   12.86475000
_cell_length_b   9.36504894
_cell_length_c   13.50127131
_cell_angle_alpha   47.57264745
_cell_angle_beta   90.00000000
_cell_angle_gamma   90.00000000
_symmetry_Int_Tables_number   1
_chemical_formula_structural   PaI2Br3
_chemical_formula_sum   'Pa4 I8 Br12'
_cell_volume   1200.66235629
_cell_formula_units_Z   4
loop_
 _symmetry_equiv_pos_site_id
 _symmetry_equiv_pos_as_xyz
  1  'x, y, z'
loop_
 _atom_site_type_symbol
 _atom_site_label
 _atom_site_symmetry_multiplicity
 _atom_site_fract_x
 _atom_site_fract_y
 _atom_site_fract_z
 _atom_site_occupancy
  Pa  Pa0  1  0.369084  0.790733  0.659309  1
  Pa  Pa1  1  0.869084  0.209267  0.840691  1
  Pa  Pa2  1  0.630916  0.209267  0.340691  1
  Pa  Pa3  1  0.130916  0.790733  0.159309  1
  I  I4  1  0.145724  0.823383  0.632393  1
  I  I5  1  0.645724  0.176617  0.867607  1
  I  I6  1  0.854276  0.176617  0.367607  1
  I  I7  1  0.354276  0.823383  0.132393  1
  I  I8  1  0.111327  0.179719  0.860072  1
  I  I9  1  0.611327  0.820281  0.639928  1
  I  I10  1  0.888673  0.820281  0.139928  1
  I  I11  1  0.388673  0.179719  0.360072  1
  Br  Br12  1  0.122221  0.459069  0.413425  1
  Br  Br13  1  0.622221  0.540931  0.086575  1
  Br  Br14  1  0.877779  0.540931  0.586575  1
  Br  Br15  1  0.377779  0.459069  0.913425  1
  Br  Br16  1  0.125602  0.999332  0.227610  1
  Br  Br17  1  0.625602  0.000668  0.272390  1
  Br  Br18  1  0.874398  0.000668  0.772390  1
  Br  Br19  1  0.374398  0.999332  0.727610  1
  Br  Br20  1  0.121399  0.608453  0.070831  1
  Br  Br21  1  0.621399  0.391547  0.429169  1
  Br  Br22  1  0.878601  0.391547  0.929169  1
  Br  Br23  1  0.378601  0.608453  0.570831  1
