# generated using pymatgen
data_Ho4Mg4Pt3Rh
_symmetry_space_group_name_H-M   'P 1'
_cell_length_a   4.16129500
_cell_length_b   7.05644062
_cell_length_c   8.61705356
_cell_angle_alpha   89.88708745
_cell_angle_beta   90.00000000
_cell_angle_gamma   90.00000000
_symmetry_Int_Tables_number   1
_chemical_formula_structural   Ho4Mg4Pt3Rh
_chemical_formula_sum   'Ho4 Mg4 Pt3 Rh1'
_cell_volume   253.03007536
_cell_formula_units_Z   1
loop_
 _symmetry_equiv_pos_site_id
 _symmetry_equiv_pos_as_xyz
  1  'x, y, z'
loop_
 _atom_site_type_symbol
 _atom_site_label
 _atom_site_symmetry_multiplicity
 _atom_site_fract_x
 _atom_site_fract_y
 _atom_site_fract_z
 _atom_site_occupancy
  Ho  Ho0  1  0.250000  0.541152  0.172483  1
  Ho  Ho1  1  0.750000  0.466588  0.826737  1
  Ho  Ho2  1  0.250000  0.038523  0.324495  1
  Ho  Ho3  1  0.750000  0.958909  0.677433  1
  Mg  Mg4  1  0.250000  0.134399  0.938074  1
  Mg  Mg5  1  0.750000  0.863260  0.058898  1
  Mg  Mg6  1  0.250000  0.636446  0.562666  1
  Mg  Mg7  1  0.750000  0.364636  0.438344  1
  Pt  Pt8  1  0.750000  0.752608  0.374247  1
  Pt  Pt9  1  0.250000  0.248279  0.624668  1
  Pt  Pt10  1  0.750000  0.251514  0.126838  1
  Rh  Rh11  1  0.250000  0.743685  0.875115  1
