# generated using pymatgen
data_Cs5Li(TcH9)3
_symmetry_space_group_name_H-M   'P 1'
_cell_length_a   10.00487048
_cell_length_b   10.00486972
_cell_length_c   6.37666800
_cell_angle_alpha   90.00000000
_cell_angle_beta   90.00000000
_cell_angle_gamma   121.79484251
_symmetry_Int_Tables_number   1
_chemical_formula_structural   Cs5Li(TcH9)3
_chemical_formula_sum   'Cs5 Li1 Tc3 H27'
_cell_volume   542.50662524
_cell_formula_units_Z   1
loop_
 _symmetry_equiv_pos_site_id
 _symmetry_equiv_pos_as_xyz
  1  'x, y, z'
loop_
 _atom_site_type_symbol
 _atom_site_label
 _atom_site_symmetry_multiplicity
 _atom_site_fract_x
 _atom_site_fract_y
 _atom_site_fract_z
 _atom_site_occupancy
  Cs  Cs0  1  0.233797  0.982610  0.500000  1
  Cs  Cs1  1  0.982610  0.233797  0.500000  1
  Cs  Cs2  1  0.591497  0.995980  0.000000  1
  Cs  Cs3  1  0.995980  0.591497  0.000000  1
  Cs  Cs4  1  0.416820  0.416820  0.000000  1
  Li  Li5  1  0.631936  0.631936  0.500000  1
  Tc  Tc6  1  0.975044  0.975044  0.000000  1
  Tc  Tc7  1  0.372574  0.673082  0.500000  1
  Tc  Tc8  1  0.673082  0.372574  0.500000  1
  H  H9  1  0.851842  0.962032  0.189858  1
  H  H10  1  0.962032  0.851842  0.189858  1
  H  H11  1  0.851842  0.962032  0.810142  1
  H  H12  1  0.962032  0.851842  0.810142  1
  H  H13  1  0.103320  0.103320  0.182559  1
  H  H14  1  0.103320  0.103320  0.817441  1
  H  H15  1  0.136717  0.963828  0.000000  1
  H  H16  1  0.963828  0.136717  0.000000  1
  H  H17  1  0.804617  0.804617  0.000000  1
  H  H18  1  0.268118  0.548413  0.303977  1
  H  H19  1  0.512833  0.705564  0.318790  1
  H  H20  1  0.268118  0.548413  0.696023  1
  H  H21  1  0.548413  0.268118  0.696023  1
  H  H22  1  0.342154  0.773465  0.312619  1
  H  H23  1  0.512833  0.705564  0.681210  1
  H  H24  1  0.705564  0.512833  0.681210  1
  H  H25  1  0.548413  0.268118  0.303977  1
  H  H26  1  0.342154  0.773465  0.687381  1
  H  H27  1  0.705564  0.512833  0.318790  1
  H  H28  1  0.773465  0.342154  0.687381  1
  H  H29  1  0.773465  0.342154  0.312619  1
  H  H30  1  0.386011  0.513448  0.500000  1
  H  H31  1  0.514060  0.862105  0.500000  1
  H  H32  1  0.513448  0.386011  0.500000  1
  H  H33  1  0.185440  0.624946  0.500000  1
  H  H34  1  0.862105  0.514060  0.500000  1
  H  H35  1  0.624946  0.185440  0.500000  1
