# generated using pymatgen
data_CaNd6TcBr12
_symmetry_space_group_name_H-M   'P 1'
_cell_length_a   9.58915512
_cell_length_b   9.58820531
_cell_length_c   9.58987320
_cell_angle_alpha   107.04962340
_cell_angle_beta   107.04529859
_cell_angle_gamma   107.02934295
_symmetry_Int_Tables_number   1
_chemical_formula_structural   CaNd6TcBr12
_chemical_formula_sum   'Ca1 Nd6 Tc1 Br12'
_cell_volume   733.47327019
_cell_formula_units_Z   1
loop_
 _symmetry_equiv_pos_site_id
 _symmetry_equiv_pos_as_xyz
  1  'x, y, z'
loop_
 _atom_site_type_symbol
 _atom_site_label
 _atom_site_symmetry_multiplicity
 _atom_site_fract_x
 _atom_site_fract_y
 _atom_site_fract_z
 _atom_site_occupancy
  Ca  Ca0  1  0.500000  0.500000  0.500000  1
  Nd  Nd1  1  0.314515  0.104306  0.027239  1
  Nd  Nd2  1  0.027235  0.314662  0.104442  1
  Nd  Nd3  1  0.104333  0.027205  0.314501  1
  Nd  Nd4  1  0.895667  0.972795  0.685500  1
  Nd  Nd5  1  0.972765  0.685339  0.895559  1
  Nd  Nd6  1  0.685486  0.895694  0.972762  1
  Tc  Tc7  1  0.000000  0.000000  0.000000  1
  Br  Br8  1  0.684100  0.220867  0.068989  1
  Br  Br9  1  0.380882  0.456350  0.165919  1
  Br  Br10  1  0.069025  0.684099  0.220729  1
  Br  Br11  1  0.779182  0.930982  0.315813  1
  Br  Br12  1  0.456374  0.165861  0.380796  1
  Br  Br13  1  0.165836  0.380815  0.456297  1
  Br  Br14  1  0.834164  0.619186  0.543703  1
  Br  Br15  1  0.543626  0.834140  0.619204  1
  Br  Br16  1  0.220819  0.069019  0.684187  1
  Br  Br17  1  0.930975  0.315901  0.779272  1
  Br  Br18  1  0.619119  0.543650  0.834081  1
  Br  Br19  1  0.315901  0.779133  0.931011  1
