# generated using pymatgen
data_Nd2ErTaO7
_symmetry_space_group_name_H-M   'P 1'
_cell_length_a   6.60408504
_cell_length_b   6.56269860
_cell_length_c   7.65711100
_cell_angle_alpha   90.00000000
_cell_angle_beta   90.00000000
_cell_angle_gamma   109.33926631
_symmetry_Int_Tables_number   1
_chemical_formula_structural   Nd2ErTaO7
_chemical_formula_sum   'Nd4 Er2 Ta2 O14'
_cell_volume   313.13825407
_cell_formula_units_Z   2
loop_
 _symmetry_equiv_pos_site_id
 _symmetry_equiv_pos_as_xyz
  1  'x, y, z'
loop_
 _atom_site_type_symbol
 _atom_site_label
 _atom_site_symmetry_multiplicity
 _atom_site_fract_x
 _atom_site_fract_y
 _atom_site_fract_z
 _atom_site_occupancy
  Nd  Nd0  1  0.500000  0.500000  0.500000  1
  Nd  Nd1  1  0.500000  0.500000  0.000000  1
  Nd  Nd2  1  0.534093  0.998864  0.750000  1
  Nd  Nd3  1  0.465907  0.001136  0.250000  1
  Er  Er4  1  0.001305  0.531490  0.250000  1
  Er  Er5  1  0.998695  0.468510  0.750000  1
  Ta  Ta6  1  0.000000  0.000000  0.500000  1
  Ta  Ta7  1  0.000000  0.000000  0.000000  1
  O  O8  1  0.944583  0.067631  0.750000  1
  O  O9  1  0.055417  0.932369  0.250000  1
  O  O10  1  0.351029  0.630554  0.250000  1
  O  O11  1  0.648971  0.369446  0.750000  1
  O  O12  1  0.354499  0.620158  0.750000  1
  O  O13  1  0.645501  0.379842  0.250000  1
  O  O14  1  0.319583  0.085376  0.972844  1
  O  O15  1  0.680417  0.914624  0.472844  1
  O  O16  1  0.319583  0.085376  0.527156  1
  O  O17  1  0.680417  0.914624  0.027156  1
  O  O18  1  0.049765  0.312730  0.463633  1
  O  O19  1  0.950235  0.687270  0.963633  1
  O  O20  1  0.950235  0.687270  0.536367  1
  O  O21  1  0.049765  0.312730  0.036367  1
