# generated using pymatgen
data_Pr2Sm3Pb3Cl
_symmetry_space_group_name_H-M   'P 1'
_cell_length_a   9.49569306
_cell_length_b   9.49569166
_cell_length_c   6.80006100
_cell_angle_alpha   90.00000000
_cell_angle_beta   90.00000000
_cell_angle_gamma   119.98731258
_symmetry_Int_Tables_number   1
_chemical_formula_structural   Pr2Sm3Pb3Cl
_chemical_formula_sum   'Pr4 Sm6 Pb6 Cl2'
_cell_volume   531.07055269
_cell_formula_units_Z   2
loop_
 _symmetry_equiv_pos_site_id
 _symmetry_equiv_pos_as_xyz
  1  'x, y, z'
loop_
 _atom_site_type_symbol
 _atom_site_label
 _atom_site_symmetry_multiplicity
 _atom_site_fract_x
 _atom_site_fract_y
 _atom_site_fract_z
 _atom_site_occupancy
  Pr  Pr0  1  0.259675  0.000344  0.250000  1
  Pr  Pr1  1  0.740325  0.999656  0.750000  1
  Pr  Pr2  1  0.000344  0.259675  0.250000  1
  Pr  Pr3  1  0.999656  0.740325  0.750000  1
  Sm  Sm4  1  0.333653  0.666347  0.000000  1
  Sm  Sm5  1  0.666347  0.333653  0.000000  1
  Sm  Sm6  1  0.666347  0.333653  0.500000  1
  Sm  Sm7  1  0.333653  0.666347  0.500000  1
  Sm  Sm8  1  0.740804  0.740804  0.250000  1
  Sm  Sm9  1  0.259196  0.259196  0.750000  1
  Pb  Pb10  1  0.610271  0.998696  0.250000  1
  Pb  Pb11  1  0.389729  0.001304  0.750000  1
  Pb  Pb12  1  0.998696  0.610271  0.250000  1
  Pb  Pb13  1  0.001304  0.389729  0.750000  1
  Pb  Pb14  1  0.391979  0.391979  0.250000  1
  Pb  Pb15  1  0.608021  0.608021  0.750000  1
  Cl  Cl16  1  0.000000  0.000000  0.000000  1
  Cl  Cl17  1  0.000000  0.000000  0.500000  1
