# generated using pymatgen
data_Sc19Ga3Si13Tc
_symmetry_space_group_name_H-M   'P 1'
_cell_length_a   6.88101447
_cell_length_b   7.18447916
_cell_length_c   13.72320772
_cell_angle_alpha   90.04047276
_cell_angle_beta   89.57245882
_cell_angle_gamma   89.84436764
_symmetry_Int_Tables_number   1
_chemical_formula_structural   Sc19Ga3Si13Tc
_chemical_formula_sum   'Sc19 Ga3 Si13 Tc1'
_cell_volume   678.40585767
_cell_formula_units_Z   1
loop_
 _symmetry_equiv_pos_site_id
 _symmetry_equiv_pos_as_xyz
  1  'x, y, z'
loop_
 _atom_site_type_symbol
 _atom_site_label
 _atom_site_symmetry_multiplicity
 _atom_site_fract_x
 _atom_site_fract_y
 _atom_site_fract_z
 _atom_site_occupancy
  Sc  Sc0  1  0.841799  0.005261  0.248028  1
  Sc  Sc1  1  0.342528  0.494952  0.248252  1
  Sc  Sc2  1  0.655538  0.508851  0.750083  1
  Sc  Sc3  1  0.990964  0.681011  0.602792  1
  Sc  Sc4  1  0.009237  0.322772  0.403596  1
  Sc  Sc5  1  0.512617  0.178283  0.403002  1
  Sc  Sc6  1  0.014501  0.317814  0.092271  1
  Sc  Sc7  1  0.490136  0.822073  0.600542  1
  Sc  Sc8  1  0.990192  0.686907  0.900716  1
  Sc  Sc9  1  0.486850  0.823436  0.903904  1
  Sc  Sc10  1  0.514677  0.180351  0.093927  1
  Sc  Sc11  1  0.329716  0.325947  0.629718  1
  Sc  Sc12  1  0.671272  0.672432  0.373644  1
  Sc  Sc13  1  0.171050  0.828923  0.375058  1
  Sc  Sc14  1  0.673585  0.674199  0.123954  1
  Sc  Sc15  1  0.828636  0.169401  0.630041  1
  Sc  Sc16  1  0.325356  0.322342  0.873669  1
  Sc  Sc17  1  0.825697  0.170098  0.872300  1
  Sc  Sc18  1  0.174387  0.826417  0.120853  1
  Ga  Ga19  1  0.166653  0.028342  0.546926  1
  Ga  Ga20  1  0.833511  0.966192  0.462549  1
  Ga  Ga21  1  0.335802  0.534282  0.462736  1
  Si  Si22  1  0.027951  0.391922  0.751908  1
  Si  Si23  1  0.972557  0.606110  0.248166  1
  Si  Si24  1  0.469635  0.893512  0.248058  1
  Si  Si25  1  0.515394  0.091969  0.751274  1
  Si  Si26  1  0.280134  0.652495  0.751764  1
  Si  Si27  1  0.719933  0.364381  0.248170  1
  Si  Si28  1  0.218016  0.135520  0.247956  1
  Si  Si29  1  0.793145  0.862999  0.751824  1
  Si  Si30  1  0.839478  0.967164  0.036266  1
  Si  Si31  1  0.666138  0.466731  0.539776  1
  Si  Si32  1  0.156912  0.028295  0.952118  1
  Si  Si33  1  0.661554  0.467872  0.960246  1
  Si  Si34  1  0.343693  0.530691  0.037317  1
  Tc  Tc35  1  0.150755  0.000046  0.756596  1
