# generated using pymatgen
data_LaCd3Pd8
_symmetry_space_group_name_H-M   'P 1'
_cell_length_a   4.25030524
_cell_length_b   5.79789337
_cell_length_c   17.34103227
_cell_angle_alpha   90.06706147
_cell_angle_beta   89.87567140
_cell_angle_gamma   89.73984257
_symmetry_Int_Tables_number   1
_chemical_formula_structural   LaCd3Pd8
_chemical_formula_sum   'La2 Cd6 Pd16'
_cell_volume   427.32616819
_cell_formula_units_Z   2
loop_
 _symmetry_equiv_pos_site_id
 _symmetry_equiv_pos_as_xyz
  1  'x, y, z'
loop_
 _atom_site_type_symbol
 _atom_site_label
 _atom_site_symmetry_multiplicity
 _atom_site_fract_x
 _atom_site_fract_y
 _atom_site_fract_z
 _atom_site_occupancy
  La  La0  1  0.524928  0.841359  0.206213  1
  La  La1  1  0.527020  0.237200  0.706071  1
  Cd  Cd2  1  0.525176  0.338248  0.043800  1
  Cd  Cd3  1  0.525958  0.338390  0.368506  1
  Cd  Cd4  1  0.026390  0.039869  0.456200  1
  Cd  Cd5  1  0.526805  0.741867  0.543897  1
  Cd  Cd6  1  0.526206  0.739927  0.868348  1
  Cd  Cd7  1  0.025471  0.038734  0.956082  1
  Pd  Pd8  1  0.525201  0.827716  0.033007  1
  Pd  Pd9  1  0.024906  0.101630  0.119400  1
  Pd  Pd10  1  0.024968  0.589357  0.120030  1
  Pd  Pd11  1  0.525113  0.341882  0.206131  1
  Pd  Pd12  1  0.025525  0.589352  0.292393  1
  Pd  Pd13  1  0.025554  0.101530  0.292904  1
  Pd  Pd14  1  0.526376  0.827879  0.379416  1
  Pd  Pd15  1  0.026527  0.539776  0.456327  1
  Pd  Pd16  1  0.526544  0.252144  0.532887  1
  Pd  Pd17  1  0.026977  0.977615  0.619292  1
  Pd  Pd18  1  0.027134  0.490315  0.620052  1
  Pd  Pd19  1  0.527024  0.736547  0.706119  1
  Pd  Pd20  1  0.026581  0.488804  0.792255  1
  Pd  Pd21  1  0.026650  0.976021  0.792858  1
  Pd  Pd22  1  0.525799  0.250082  0.879276  1
  Pd  Pd23  1  0.025501  0.538719  0.956074  1
