# generated using pymatgen
data_Co(AuF4)2
_symmetry_space_group_name_H-M   'P 1'
_cell_length_a   5.71607800
_cell_length_b   5.62129536
_cell_length_c   11.07113210
_cell_angle_alpha   70.24684873
_cell_angle_beta   90.00000000
_cell_angle_gamma   90.00000000
_symmetry_Int_Tables_number   1
_chemical_formula_structural   Co(AuF4)2
_chemical_formula_sum   'Co2 Au4 F16'
_cell_volume   334.80262831
_cell_formula_units_Z   2
loop_
 _symmetry_equiv_pos_site_id
 _symmetry_equiv_pos_as_xyz
  1  'x, y, z'
loop_
 _atom_site_type_symbol
 _atom_site_label
 _atom_site_symmetry_multiplicity
 _atom_site_fract_x
 _atom_site_fract_y
 _atom_site_fract_z
 _atom_site_occupancy
  Co  Co0  1  0.500000  0.500000  0.000000  1
  Co  Co1  1  0.000000  0.500000  0.500000  1
  Au  Au2  1  0.721232  0.866813  0.669750  1
  Au  Au3  1  0.221232  0.133187  0.830250  1
  Au  Au4  1  0.278768  0.133187  0.330250  1
  Au  Au5  1  0.778768  0.866813  0.169750  1
  F  F6  1  0.624284  0.565601  0.815378  1
  F  F7  1  0.124284  0.434399  0.684622  1
  F  F8  1  0.375716  0.434399  0.184622  1
  F  F9  1  0.875716  0.565601  0.315378  1
  F  F10  1  0.687880  0.171104  0.024417  1
  F  F11  1  0.187880  0.828896  0.475583  1
  F  F12  1  0.780294  0.660674  0.053120  1
  F  F13  1  0.280294  0.339326  0.446880  1
  F  F14  1  0.219706  0.339326  0.946880  1
  F  F15  1  0.719706  0.660674  0.553120  1
  F  F16  1  0.784971  0.067636  0.282145  1
  F  F17  1  0.284971  0.932364  0.217855  1
  F  F18  1  0.215029  0.932364  0.717855  1
  F  F19  1  0.715029  0.067636  0.782145  1
  F  F20  1  0.812120  0.171104  0.524417  1
  F  F21  1  0.312120  0.828896  0.975583  1
