# generated using pymatgen
data_Pa6Mn3Cu3Sb8
_symmetry_space_group_name_H-M   'P 1'
_cell_length_a   8.13861394
_cell_length_b   8.13861337
_cell_length_c   8.17987500
_cell_angle_alpha   109.98643509
_cell_angle_beta   109.08414573
_cell_angle_gamma   109.13866400
_symmetry_Int_Tables_number   1
_chemical_formula_structural   Pa6Mn3Cu3Sb8
_chemical_formula_sum   'Pa6 Mn3 Cu3 Sb8'
_cell_volume   418.11040381
_cell_formula_units_Z   1
loop_
 _symmetry_equiv_pos_site_id
 _symmetry_equiv_pos_as_xyz
  1  'x, y, z'
loop_
 _atom_site_type_symbol
 _atom_site_label
 _atom_site_symmetry_multiplicity
 _atom_site_fract_x
 _atom_site_fract_y
 _atom_site_fract_z
 _atom_site_occupancy
  Pa  Pa0  1  0.633748  0.383748  0.250000  1
  Pa  Pa1  1  0.375340  0.267773  0.630712  1
  Pa  Pa2  1  0.137062  0.744628  0.869288  1
  Pa  Pa3  1  0.737840  0.872699  0.120050  1
  Pa  Pa4  1  0.252650  0.617790  0.379950  1
  Pa  Pa5  1  0.866810  0.116810  0.750000  1
  Mn  Mn6  1  0.871820  0.252831  0.123342  1
  Mn  Mn7  1  0.368296  0.618296  0.750000  1
  Mn  Mn8  1  0.629490  0.748480  0.376658  1
  Cu  Cu9  1  0.749515  0.375767  0.624103  1
  Cu  Cu10  1  0.251665  0.125413  0.875897  1
  Cu  Cu11  1  0.126620  0.876620  0.250000  1
  Sb  Sb12  1  0.503953  0.998810  0.832232  1
  Sb  Sb13  1  0.160102  0.164679  0.164743  1
  Sb  Sb14  1  0.835978  0.498724  0.000291  1
  Sb  Sb15  1  0.998432  0.835686  0.499709  1
  Sb  Sb16  1  0.334279  0.504512  0.004624  1
  Sb  Sb17  1  0.999887  0.329655  0.495376  1
  Sb  Sb18  1  0.499936  0.995360  0.335257  1
  Sb  Sb19  1  0.666577  0.671721  0.667768  1
