# generated using pymatgen
data_La2ThSb3
_symmetry_space_group_name_H-M   'P 1'
_cell_length_a   7.96144790
_cell_length_b   7.96144811
_cell_length_c   7.96144853
_cell_angle_alpha   146.55113289
_cell_angle_beta   132.05231302
_cell_angle_gamma   59.72261147
_symmetry_Int_Tables_number   1
_chemical_formula_structural   La2ThSb3
_chemical_formula_sum   'La2 Th1 Sb3'
_cell_volume   204.68393740
_cell_formula_units_Z   1
loop_
 _symmetry_equiv_pos_site_id
 _symmetry_equiv_pos_as_xyz
  1  'x, y, z'
loop_
 _atom_site_type_symbol
 _atom_site_label
 _atom_site_symmetry_multiplicity
 _atom_site_fract_x
 _atom_site_fract_y
 _atom_site_fract_z
 _atom_site_occupancy
  La  La0  1  0.668177  0.668177  0.000000  1
  La  La1  1  0.331823  0.331823  0.000000  1
  Th  Th2  1  0.000000  0.000000  0.000000  1
  Sb  Sb3  1  0.500000  0.000000  0.500000  1
  Sb  Sb4  1  0.162241  0.662241  0.500000  1
  Sb  Sb5  1  0.837759  0.337759  0.500000  1
