# generated using pymatgen
data_Y3Tm2In2Bi
_symmetry_space_group_name_H-M   'P 1'
_cell_length_a   6.58388406
_cell_length_b   9.01915577
_cell_length_c   8.98708600
_cell_angle_alpha   119.81542182
_cell_angle_beta   90.00804104
_cell_angle_gamma   89.99037346
_symmetry_Int_Tables_number   1
_chemical_formula_structural   Y3Tm2In2Bi
_chemical_formula_sum   'Y6 Tm4 In4 Bi2'
_cell_volume   463.02276255
_cell_formula_units_Z   2
loop_
 _symmetry_equiv_pos_site_id
 _symmetry_equiv_pos_as_xyz
  1  'x, y, z'
loop_
 _atom_site_type_symbol
 _atom_site_label
 _atom_site_symmetry_multiplicity
 _atom_site_fract_x
 _atom_site_fract_y
 _atom_site_fract_z
 _atom_site_occupancy
  Y  Y0  1  0.749960  0.229912  0.991246  1
  Y  Y1  1  0.750027  0.769894  0.760813  1
  Y  Y2  1  0.749919  0.000084  0.239581  1
  Y  Y3  1  0.250039  0.763792  0.000405  1
  Y  Y4  1  0.250032  0.236277  0.236633  1
  Y  Y5  1  0.249992  0.000021  0.762211  1
  Tm  Tm6  1  0.492860  0.328907  0.667459  1
  Tm  Tm7  1  0.492833  0.671082  0.338568  1
  Tm  Tm8  1  0.007119  0.671123  0.338481  1
  Tm  Tm9  1  0.007113  0.328912  0.667442  1
  In  In10  1  0.750080  0.000069  0.594569  1
  In  In11  1  0.250029  0.398287  0.003005  1
  In  In12  1  0.249978  0.601512  0.604599  1
  In  In13  1  0.250075  0.000032  0.399408  1
  Bi  Bi14  1  0.749981  0.603447  0.999481  1
  Bi  Bi15  1  0.749960  0.396648  0.396101  1
