# generated using pymatgen
data_NpTa(AlI8)2
_symmetry_space_group_name_H-M   'P 1'
_cell_length_a   11.47376914
_cell_length_b   11.47376851
_cell_length_c   10.19594700
_cell_angle_alpha   90.00000000
_cell_angle_beta   90.00000000
_cell_angle_gamma   127.67146552
_symmetry_Int_Tables_number   1
_chemical_formula_structural   NpTa(AlI8)2
_chemical_formula_sum   'Np1 Ta1 Al2 I16'
_cell_volume   1062.44396988
_cell_formula_units_Z   1
loop_
 _symmetry_equiv_pos_site_id
 _symmetry_equiv_pos_as_xyz
  1  'x, y, z'
loop_
 _atom_site_type_symbol
 _atom_site_label
 _atom_site_symmetry_multiplicity
 _atom_site_fract_x
 _atom_site_fract_y
 _atom_site_fract_z
 _atom_site_occupancy
  Np  Np0  1  0.619565  0.380435  0.250000  1
  Ta  Ta1  1  0.385435  0.614565  0.750000  1
  Al  Al2  1  0.816597  0.183403  0.250000  1
  Al  Al3  1  0.188290  0.811710  0.750000  1
  I  I4  1  0.533359  0.064899  0.250000  1
  I  I5  1  0.077854  0.532087  0.750000  1
  I  I6  1  0.467913  0.922146  0.750000  1
  I  I7  1  0.935101  0.466641  0.250000  1
  I  I8  1  0.623886  0.376114  0.968011  1
  I  I9  1  0.367884  0.632116  0.012937  1
  I  I10  1  0.623886  0.376114  0.531989  1
  I  I11  1  0.367884  0.632116  0.487063  1
  I  I12  1  0.315899  0.260756  0.250000  1
  I  I13  1  0.262985  0.331119  0.750000  1
  I  I14  1  0.668881  0.737015  0.750000  1
  I  I15  1  0.739244  0.684101  0.250000  1
  I  I16  1  0.879864  0.120136  0.460058  1
  I  I17  1  0.122804  0.877196  0.542102  1
  I  I18  1  0.879864  0.120136  0.039942  1
  I  I19  1  0.122804  0.877196  0.957898  1
