# generated using pymatgen
data_Mg4Ni2As6Ir5
_symmetry_space_group_name_H-M   'P 1'
_cell_length_a   7.04277716
_cell_length_b   7.00367248
_cell_length_c   7.00367258
_cell_angle_alpha   108.77955005
_cell_angle_beta   109.70355346
_cell_angle_gamma   109.70354522
_symmetry_Int_Tables_number   1
_chemical_formula_structural   Mg4Ni2As6Ir5
_chemical_formula_sum   'Mg4 Ni2 As6 Ir5'
_cell_volume   266.65904996
_cell_formula_units_Z   1
loop_
 _symmetry_equiv_pos_site_id
 _symmetry_equiv_pos_as_xyz
  1  'x, y, z'
loop_
 _atom_site_type_symbol
 _atom_site_label
 _atom_site_symmetry_multiplicity
 _atom_site_fract_x
 _atom_site_fract_y
 _atom_site_fract_z
 _atom_site_occupancy
  Mg  Mg0  1  0.000000  0.993213  0.500218  1
  Mg  Mg1  1  0.500000  0.002783  0.997217  1
  Mg  Mg2  1  0.000000  0.499782  0.006787  1
  Mg  Mg3  1  0.500000  0.502783  0.497217  1
  Ni  Ni4  1  0.242456  0.493630  0.748825  1
  Ni  Ni5  1  0.757544  0.251175  0.506370  1
  As  As6  1  0.684362  0.687757  0.996605  1
  As  As7  1  0.310595  0.315846  0.994748  1
  As  As8  1  0.000000  0.675865  0.689566  1
  As  As9  1  0.000000  0.310434  0.324135  1
  As  As10  1  0.689405  0.005252  0.684154  1
  As  As11  1  0.315638  0.003395  0.312243  1
  Ir  Ir12  1  0.000000  0.002067  0.997933  1
  Ir  Ir13  1  0.500000  0.256894  0.743106  1
  Ir  Ir14  1  0.500000  0.756894  0.243106  1
  Ir  Ir15  1  0.744764  0.493497  0.251267  1
  Ir  Ir16  1  0.255236  0.748733  0.506503  1
