# generated using pymatgen
data_La10SnBi5Cl2
_symmetry_space_group_name_H-M   'P 1'
_cell_length_a   9.76613723
_cell_length_b   9.76613761
_cell_length_c   6.80387900
_cell_angle_alpha   90.00000000
_cell_angle_beta   90.00000000
_cell_angle_gamma   119.83416849
_symmetry_Int_Tables_number   1
_chemical_formula_structural   La10SnBi5Cl2
_chemical_formula_sum   'La10 Sn1 Bi5 Cl2'
_cell_volume   562.93230297
_cell_formula_units_Z   1
loop_
 _symmetry_equiv_pos_site_id
 _symmetry_equiv_pos_as_xyz
  1  'x, y, z'
loop_
 _atom_site_type_symbol
 _atom_site_label
 _atom_site_symmetry_multiplicity
 _atom_site_fract_x
 _atom_site_fract_y
 _atom_site_fract_z
 _atom_site_occupancy
  La  La0  1  0.665254  0.333582  0.000472  1
  La  La1  1  0.333582  0.665254  0.499528  1
  La  La2  1  0.665254  0.333582  0.499528  1
  La  La3  1  0.333582  0.665254  0.000472  1
  La  La4  1  0.735970  0.999893  0.750000  1
  La  La5  1  0.733787  0.733787  0.250000  1
  La  La6  1  0.003643  0.264976  0.250000  1
  La  La7  1  0.999893  0.735970  0.750000  1
  La  La8  1  0.265015  0.265015  0.750000  1
  La  La9  1  0.264976  0.003643  0.250000  1
  Sn  Sn10  1  0.386200  0.386200  0.250000  1
  Bi  Bi11  1  0.613809  0.613809  0.750000  1
  Bi  Bi12  1  0.000717  0.614800  0.250000  1
  Bi  Bi13  1  0.614800  0.000717  0.250000  1
  Bi  Bi14  1  0.385806  0.999828  0.750000  1
  Bi  Bi15  1  0.999828  0.385806  0.750000  1
  Cl  Cl16  1  0.998942  0.998942  0.500546  1
  Cl  Cl17  1  0.998942  0.998942  0.999454  1
