# generated using pymatgen
data_Tb4Tc3B16Mo
_symmetry_space_group_name_H-M   'P 1'
_cell_length_a   3.62011500
_cell_length_b   5.99969671
_cell_length_c   11.60980737
_cell_angle_alpha   89.94429967
_cell_angle_beta   90.00000000
_cell_angle_gamma   90.00000000
_symmetry_Int_Tables_number   1
_chemical_formula_structural   Tb4Tc3B16Mo
_chemical_formula_sum   'Tb4 Tc3 B16 Mo1'
_cell_volume   252.16016074
_cell_formula_units_Z   1
loop_
 _symmetry_equiv_pos_site_id
 _symmetry_equiv_pos_as_xyz
  1  'x, y, z'
loop_
 _atom_site_type_symbol
 _atom_site_label
 _atom_site_symmetry_multiplicity
 _atom_site_fract_x
 _atom_site_fract_y
 _atom_site_fract_z
 _atom_site_occupancy
  Tb  Tb0  1  0.000000  0.626058  0.347980  1
  Tb  Tb1  1  0.000000  0.372289  0.652165  1
  Tb  Tb2  1  0.000000  0.127080  0.148926  1
  Tb  Tb3  1  0.000000  0.872835  0.851537  1
  Tc  Tc4  1  0.000000  0.634424  0.087889  1
  Tc  Tc5  1  0.000000  0.366271  0.913300  1
  Tc  Tc6  1  0.000000  0.129265  0.414458  1
  B  B7  1  0.500000  0.785958  0.184755  1
  B  B8  1  0.500000  0.215127  0.815790  1
  B  B9  1  0.500000  0.286241  0.315020  1
  B  B10  1  0.500000  0.711742  0.686297  1
  B  B11  1  0.500000  0.863288  0.031441  1
  B  B12  1  0.500000  0.136942  0.968883  1
  B  B13  1  0.500000  0.364078  0.467102  1
  B  B14  1  0.500000  0.633684  0.531131  1
  B  B15  1  0.500000  0.887348  0.451429  1
  B  B16  1  0.500000  0.115983  0.546053  1
  B  B17  1  0.500000  0.387068  0.047069  1
  B  B18  1  0.500000  0.613063  0.953466  1
  B  B19  1  0.500000  0.977515  0.306992  1
  B  B20  1  0.500000  0.024880  0.693269  1
  B  B21  1  0.500000  0.475413  0.191673  1
  B  B22  1  0.500000  0.523384  0.808819  1
  Mo  Mo23  1  0.000000  0.870063  0.584557  1
