# generated using pymatgen
data_PrHoZn5Sn
_symmetry_space_group_name_H-M   'P 1'
_cell_length_a   8.48476774
_cell_length_b   8.48476865
_cell_length_c   9.05198000
_cell_angle_alpha   90.00000000
_cell_angle_beta   90.00000000
_cell_angle_gamma   149.82358849
_symmetry_Int_Tables_number   1
_chemical_formula_structural   PrHoZn5Sn
_chemical_formula_sum   'Pr2 Ho2 Zn10 Sn2'
_cell_volume   327.56795183
_cell_formula_units_Z   2
loop_
 _symmetry_equiv_pos_site_id
 _symmetry_equiv_pos_as_xyz
  1  'x, y, z'
loop_
 _atom_site_type_symbol
 _atom_site_label
 _atom_site_symmetry_multiplicity
 _atom_site_fract_x
 _atom_site_fract_y
 _atom_site_fract_z
 _atom_site_occupancy
  Pr  Pr0  1  0.000000  0.000000  0.500000  1
  Pr  Pr1  1  0.000000  0.000000  0.000000  1
  Ho  Ho2  1  0.205377  0.794623  0.250000  1
  Ho  Ho3  1  0.794623  0.205377  0.750000  1
  Zn  Zn4  1  0.811988  0.188012  0.390301  1
  Zn  Zn5  1  0.188012  0.811988  0.609699  1
  Zn  Zn6  1  0.811988  0.188012  0.109699  1
  Zn  Zn7  1  0.188012  0.811988  0.890301  1
  Zn  Zn8  1  0.658360  0.341640  0.482113  1
  Zn  Zn9  1  0.341640  0.658360  0.517887  1
  Zn  Zn10  1  0.658360  0.341640  0.017887  1
  Zn  Zn11  1  0.341640  0.658360  0.982113  1
  Zn  Zn12  1  0.393817  0.606183  0.250000  1
  Zn  Zn13  1  0.606183  0.393817  0.750000  1
  Sn  Sn14  1  0.557001  0.442999  0.250000  1
  Sn  Sn15  1  0.442999  0.557001  0.750000  1
