# generated using pymatgen
data_Er4FeI4
_symmetry_space_group_name_H-M   'P 1'
_cell_length_a   10.98029750
_cell_length_b   10.98029758
_cell_length_c   6.02663816
_cell_angle_alpha   90.37372849
_cell_angle_beta   90.37372283
_cell_angle_gamma   90.01325421
_symmetry_Int_Tables_number   1
_chemical_formula_structural   Er4FeI4
_chemical_formula_sum   'Er8 Fe2 I8'
_cell_volume   726.58234471
_cell_formula_units_Z   2
loop_
 _symmetry_equiv_pos_site_id
 _symmetry_equiv_pos_as_xyz
  1  'x, y, z'
loop_
 _atom_site_type_symbol
 _atom_site_label
 _atom_site_symmetry_multiplicity
 _atom_site_fract_x
 _atom_site_fract_y
 _atom_site_fract_z
 _atom_site_occupancy
  Er  Er0  1  0.196308  0.919784  0.002343  1
  Er  Er1  1  0.803692  0.080216  0.997657  1
  Er  Er2  1  0.080216  0.803692  0.497657  1
  Er  Er3  1  0.919784  0.196308  0.502343  1
  Er  Er4  1  0.803638  0.919743  0.496580  1
  Er  Er5  1  0.196362  0.080257  0.503420  1
  Er  Er6  1  0.080257  0.196362  0.003420  1
  Er  Er7  1  0.919743  0.803638  0.996580  1
  Fe  Fe8  1  0.999892  0.000108  0.250000  1
  Fe  Fe9  1  0.000108  0.999892  0.750000  1
  I  I10  1  0.360908  0.847411  0.495810  1
  I  I11  1  0.639092  0.152589  0.504190  1
  I  I12  1  0.152589  0.639092  0.004190  1
  I  I13  1  0.847411  0.360908  0.995810  1
  I  I14  1  0.360853  0.152856  0.012139  1
  I  I15  1  0.639147  0.847144  0.987861  1
  I  I16  1  0.847144  0.639147  0.487861  1
  I  I17  1  0.152856  0.360853  0.512139  1
