# generated using pymatgen
data_Mg(In4Ir)2
_symmetry_space_group_name_H-M   'P 1'
_cell_length_a   7.06628352
_cell_length_b   7.00939900
_cell_length_c   9.94506338
_cell_angle_alpha   90.00000000
_cell_angle_beta   94.08228241
_cell_angle_gamma   90.00000000
_symmetry_Int_Tables_number   1
_chemical_formula_structural   Mg(In4Ir)2
_chemical_formula_sum   'Mg2 In16 Ir4'
_cell_volume   491.33321377
_cell_formula_units_Z   2
loop_
 _symmetry_equiv_pos_site_id
 _symmetry_equiv_pos_as_xyz
  1  'x, y, z'
loop_
 _atom_site_type_symbol
 _atom_site_label
 _atom_site_symmetry_multiplicity
 _atom_site_fract_x
 _atom_site_fract_y
 _atom_site_fract_z
 _atom_site_occupancy
  Mg  Mg0  1  0.500000  0.000000  0.000000  1
  Mg  Mg1  1  0.500001  0.499999  0.500000  1
  In  In2  1  0.116818  0.805598  0.000111  1
  In  In3  1  0.712802  0.618250  0.044726  1
  In  In4  1  0.587401  0.287794  0.229359  1
  In  In5  1  0.092229  0.468472  0.235048  1
  In  In6  1  0.907772  0.968473  0.264953  1
  In  In7  1  0.412600  0.787795  0.270642  1
  In  In8  1  0.287198  0.118250  0.455273  1
  In  In9  1  0.883182  0.305599  0.499889  1
  In  In10  1  0.116817  0.694402  0.500110  1
  In  In11  1  0.712803  0.881750  0.544727  1
  In  In12  1  0.587400  0.212205  0.729359  1
  In  In13  1  0.092229  0.031527  0.735048  1
  In  In14  1  0.907771  0.531526  0.764953  1
  In  In15  1  0.412600  0.712205  0.770642  1
  In  In16  1  0.287198  0.381750  0.955273  1
  In  In17  1  0.883183  0.194402  0.999889  1
  Ir  Ir18  1  0.238649  0.119700  0.167160  1
  Ir  Ir19  1  0.761349  0.619701  0.332841  1
  Ir  Ir20  1  0.238650  0.380299  0.667160  1
  Ir  Ir21  1  0.761350  0.880298  0.832841  1
