# generated using pymatgen
data_Y3TlCr6O24
_symmetry_space_group_name_H-M   'P 1'
_cell_length_a   9.35843223
_cell_length_b   9.35843228
_cell_length_c   10.02436300
_cell_angle_alpha   117.82575834
_cell_angle_beta   62.17422767
_cell_angle_gamma   120.00000422
_symmetry_Int_Tables_number   1
_chemical_formula_structural   Y3TlCr6O24
_chemical_formula_sum   'Y3 Tl1 Cr6 O24'
_cell_volume   640.41963389
_cell_formula_units_Z   1
loop_
 _symmetry_equiv_pos_site_id
 _symmetry_equiv_pos_as_xyz
  1  'x, y, z'
loop_
 _atom_site_type_symbol
 _atom_site_label
 _atom_site_symmetry_multiplicity
 _atom_site_fract_x
 _atom_site_fract_y
 _atom_site_fract_z
 _atom_site_occupancy
  Y  Y0  1  0.646841  0.353160  0.059479  1
  Y  Y1  1  0.856985  0.143016  0.429048  1
  Y  Y2  1  0.140549  0.859452  0.578354  1
  Tl  Tl3  1  0.350727  0.649274  0.947818  1
  Cr  Cr4  1  0.247527  0.030629  0.247201  1
  Cr  Cr5  1  0.969370  0.464099  0.247201  1
  Cr  Cr6  1  0.535901  0.752472  0.247201  1
  Cr  Cr7  1  0.464849  0.257606  0.752541  1
  Cr  Cr8  1  0.040216  0.535151  0.752541  1
  Cr  Cr9  1  0.742394  0.959784  0.752541  1
  O  O10  1  0.157988  0.479587  0.103654  1
  O  O11  1  0.520412  0.782054  0.103654  1
  O  O12  1  0.217946  0.842011  0.103654  1
  O  O13  1  0.450196  0.167699  0.199678  1
  O  O14  1  0.832301  0.482174  0.199678  1
  O  O15  1  0.517826  0.549804  0.199678  1
  O  O16  1  0.112699  0.112209  0.271172  1
  O  O17  1  0.887790  0.271661  0.271172  1
  O  O18  1  0.728339  0.887301  0.271172  1
  O  O19  1  0.202411  0.999822  0.414752  1
  O  O20  1  0.000179  0.617342  0.414752  1
  O  O21  1  0.382658  0.797589  0.414752  1
  O  O22  1  0.619229  0.213681  0.585109  1
  O  O23  1  0.009343  0.380771  0.585109  1
  O  O24  1  0.786318  0.990656  0.585109  1
  O  O25  1  0.272432  0.121489  0.728021  1
  O  O26  1  0.121034  0.727568  0.728021  1
  O  O27  1  0.878513  0.878966  0.728021  1
  O  O28  1  0.487248  0.461706  0.798350  1
  O  O29  1  0.176107  0.512752  0.798350  1
  O  O30  1  0.538293  0.823891  0.798350  1
  O  O31  1  0.768524  0.148559  0.894621  1
  O  O32  1  0.485415  0.231476  0.894621  1
  O  O33  1  0.851441  0.514586  0.894621  1
