# generated using pymatgen
data_Ti2Fe(SnIr)2
_symmetry_space_group_name_H-M   'P 1'
_cell_length_a   7.48901468
_cell_length_b   7.48901468
_cell_length_c   7.48901500
_cell_angle_alpha   34.07305906
_cell_angle_beta   34.07306116
_cell_angle_gamma   34.07306017
_symmetry_Int_Tables_number   1
_chemical_formula_structural   Ti2Fe(SnIr)2
_chemical_formula_sum   'Ti2 Fe1 Sn2 Ir2'
_cell_volume   117.53061641
_cell_formula_units_Z   1
loop_
 _symmetry_equiv_pos_site_id
 _symmetry_equiv_pos_as_xyz
  1  'x, y, z'
loop_
 _atom_site_type_symbol
 _atom_site_label
 _atom_site_symmetry_multiplicity
 _atom_site_fract_x
 _atom_site_fract_y
 _atom_site_fract_z
 _atom_site_occupancy
  Ti  Ti0  1  0.248601  0.248601  0.248601  1
  Ti  Ti1  1  0.752662  0.752662  0.752662  1
  Fe  Fe2  1  0.630829  0.630829  0.630829  1
  Sn  Sn3  1  0.509407  0.509407  0.509407  1
  Sn  Sn4  1  0.986434  0.986434  0.986434  1
  Ir  Ir5  1  0.122423  0.122423  0.122423  1
  Ir  Ir6  1  0.374644  0.374644  0.374644  1
