# generated using pymatgen
data_Ti13Al9Tc2(Ir2Pt)2
_symmetry_space_group_name_H-M   'P 1'
_cell_length_a   8.77291660
_cell_length_b   8.78396232
_cell_length_c   8.77291696
_cell_angle_alpha   59.60063801
_cell_angle_beta   59.62847420
_cell_angle_gamma   59.60064622
_symmetry_Int_Tables_number   1
_chemical_formula_structural   Ti13Al9Tc2(Ir2Pt)2
_chemical_formula_sum   'Ti13 Al9 Tc2 Ir4 Pt2'
_cell_volume   473.80102165
_cell_formula_units_Z   1
loop_
 _symmetry_equiv_pos_site_id
 _symmetry_equiv_pos_as_xyz
  1  'x, y, z'
loop_
 _atom_site_type_symbol
 _atom_site_label
 _atom_site_symmetry_multiplicity
 _atom_site_fract_x
 _atom_site_fract_y
 _atom_site_fract_z
 _atom_site_occupancy
  Ti  Ti0  1  0.212215  0.214004  0.786996  1
  Ti  Ti1  1  0.786996  0.214004  0.212215  1
  Ti  Ti2  1  0.213736  0.785731  0.213736  1
  Ti  Ti3  1  0.798259  0.796273  0.189622  1
  Ti  Ti4  1  0.189622  0.796273  0.798259  1
  Ti  Ti5  1  0.796532  0.192885  0.796532  1
  Ti  Ti6  1  0.378731  0.379223  0.378731  1
  Ti  Ti7  1  0.382196  0.862751  0.382196  1
  Ti  Ti8  1  0.864420  0.383552  0.377949  1
  Ti  Ti9  1  0.377949  0.383552  0.864420  1
  Ti  Ti10  1  0.846075  0.463882  0.846075  1
  Ti  Ti11  1  0.462524  0.844791  0.845085  1
  Ti  Ti12  1  0.845085  0.844791  0.462524  1
  Al  Al13  1  0.150009  0.151928  0.150009  1
  Al  Al14  1  0.156973  0.534856  0.156973  1
  Al  Al15  1  0.536507  0.157525  0.157299  1
  Al  Al16  1  0.157299  0.157525  0.536507  1
  Al  Al17  1  0.619784  0.617746  0.619784  1
  Al  Al18  1  0.617679  0.144856  0.617679  1
  Al  Al19  1  0.143864  0.616269  0.620687  1
  Al  Al20  1  0.620687  0.616269  0.143864  1
  Al  Al21  1  0.831502  0.830470  0.831502  1
  Tc  Tc22  1  0.500339  0.500668  0.500339  1
  Tc  Tc23  1  0.003770  0.004007  0.003770  1
  Ir  Ir24  1  0.003682  0.498175  0.003682  1
  Ir  Ir25  1  0.499735  0.500439  0.000552  1
  Ir  Ir26  1  0.000552  0.500439  0.499735  1
  Ir  Ir27  1  0.500551  0.999293  0.500551  1
  Pt  Pt28  1  0.004417  0.003912  0.498307  1
  Pt  Pt29  1  0.498307  0.003912  0.004417  1
