# generated using pymatgen
data_PaH11Br3
_symmetry_space_group_name_H-M   'P 1'
_cell_length_a   4.24767500
_cell_length_b   8.68853165
_cell_length_c   9.45563363
_cell_angle_alpha   72.84272405
_cell_angle_beta   94.79656520
_cell_angle_gamma   112.61877348
_symmetry_Int_Tables_number   1
_chemical_formula_structural   PaH11Br3
_chemical_formula_sum   'Pa1 H11 Br3'
_cell_volume   307.61752057
_cell_formula_units_Z   1
loop_
 _symmetry_equiv_pos_site_id
 _symmetry_equiv_pos_as_xyz
  1  'x, y, z'
loop_
 _atom_site_type_symbol
 _atom_site_label
 _atom_site_symmetry_multiplicity
 _atom_site_fract_x
 _atom_site_fract_y
 _atom_site_fract_z
 _atom_site_occupancy
  Pa  Pa0  1  0.765371  0.832480  0.152637  1
  H  H1  1  0.222240  0.477905  0.701340  1
  H  H2  1  0.757952  0.417482  0.874941  1
  H  H3  1  0.862671  0.506127  0.882356  1
  H  H4  1  0.261371  0.818720  0.063143  1
  H  H5  1  0.040373  0.163790  0.473736  1
  H  H6  1  0.622602  0.431994  0.497754  1
  H  H7  1  0.236349  0.551639  0.633028  1
  H  H8  1  0.587754  0.441635  0.570116  1
  H  H9  1  0.222201  0.844093  0.697778  1
  H  H10  1  0.239746  0.869871  0.768129  1
  H  H11  1  0.973352  0.073793  0.526335  1
  Br  Br12  1  0.509632  0.497022  0.158333  1
  Br  Br13  1  0.332237  0.875154  0.354822  1
  Br  Br14  1  0.999532  0.123207  0.928963  1
