# generated using pymatgen
data_YbSm6OsBr12
_symmetry_space_group_name_H-M   'P 1'
_cell_length_a   9.43360649
_cell_length_b   9.61227543
_cell_length_c   9.47812087
_cell_angle_alpha   107.54242336
_cell_angle_beta   107.14265615
_cell_angle_gamma   106.84407087
_symmetry_Int_Tables_number   1
_chemical_formula_structural   YbSm6OsBr12
_chemical_formula_sum   'Yb1 Sm6 Os1 Br12'
_cell_volume   712.27481705
_cell_formula_units_Z   1
loop_
 _symmetry_equiv_pos_site_id
 _symmetry_equiv_pos_as_xyz
  1  'x, y, z'
loop_
 _atom_site_type_symbol
 _atom_site_label
 _atom_site_symmetry_multiplicity
 _atom_site_fract_x
 _atom_site_fract_y
 _atom_site_fract_z
 _atom_site_occupancy
  Yb  Yb0  1  0.500000  0.500000  0.500000  1
  Sm  Sm1  1  0.310394  0.105542  0.025835  1
  Sm  Sm2  1  0.023317  0.318293  0.110306  1
  Sm  Sm3  1  0.108638  0.025590  0.309927  1
  Sm  Sm4  1  0.891362  0.974410  0.690074  1
  Sm  Sm5  1  0.976683  0.681708  0.889695  1
  Sm  Sm6  1  0.689607  0.894458  0.974166  1
  Os  Os7  1  0.000000  0.000000  0.000000  1
  Br  Br8  1  0.679795  0.214747  0.067788  1
  Br  Br9  1  0.375237  0.455562  0.165760  1
  Br  Br10  1  0.070698  0.683592  0.215913  1
  Br  Br11  1  0.785915  0.931812  0.316907  1
  Br  Br12  1  0.461840  0.168860  0.379327  1
  Br  Br13  1  0.165054  0.376568  0.459656  1
  Br  Br14  1  0.834946  0.623433  0.540344  1
  Br  Br15  1  0.538160  0.831141  0.620673  1
  Br  Br16  1  0.214086  0.068189  0.683093  1
  Br  Br17  1  0.929302  0.316408  0.784088  1
  Br  Br18  1  0.624764  0.544438  0.834240  1
  Br  Br19  1  0.320206  0.785253  0.932212  1
