# generated using pymatgen
data_TmNb8VSe16
_symmetry_space_group_name_H-M   'P 1'
_cell_length_a   7.00333500
_cell_length_b   7.00333610
_cell_length_c   13.55144500
_cell_angle_alpha   90.00000000
_cell_angle_beta   90.00000000
_cell_angle_gamma   119.99999954
_symmetry_Int_Tables_number   1
_chemical_formula_structural   TmNb8VSe16
_chemical_formula_sum   'Tm1 Nb8 V1 Se16'
_cell_volume   575.60705816
_cell_formula_units_Z   1
loop_
 _symmetry_equiv_pos_site_id
 _symmetry_equiv_pos_as_xyz
  1  'x, y, z'
loop_
 _atom_site_type_symbol
 _atom_site_label
 _atom_site_symmetry_multiplicity
 _atom_site_fract_x
 _atom_site_fract_y
 _atom_site_fract_z
 _atom_site_occupancy
  Tm  Tm0  1  0.000000  0.000000  0.000000  1
  Nb  Nb1  1  0.000000  0.000000  0.261555  1
  Nb  Nb2  1  0.000000  0.000000  0.738445  1
  Nb  Nb3  1  0.506484  0.012967  0.262213  1
  Nb  Nb4  1  0.493516  0.987033  0.737787  1
  Nb  Nb5  1  0.987033  0.493516  0.262213  1
  Nb  Nb6  1  0.012967  0.506484  0.737787  1
  Nb  Nb7  1  0.506484  0.493516  0.262213  1
  Nb  Nb8  1  0.493516  0.506484  0.737787  1
  V  V9  1  0.000000  0.000000  0.500000  1
  Se  Se10  1  0.333333  0.666667  0.611577  1
  Se  Se11  1  0.666667  0.333333  0.388423  1
  Se  Se12  1  0.666667  0.333333  0.134307  1
  Se  Se13  1  0.333333  0.666667  0.865693  1
  Se  Se14  1  0.169545  0.339091  0.138659  1
  Se  Se15  1  0.830455  0.660909  0.861341  1
  Se  Se16  1  0.660909  0.830455  0.138659  1
  Se  Se17  1  0.833006  0.666012  0.615589  1
  Se  Se18  1  0.339091  0.169545  0.861341  1
  Se  Se19  1  0.166994  0.333988  0.384411  1
  Se  Se20  1  0.169545  0.830455  0.138659  1
  Se  Se21  1  0.333988  0.166994  0.615589  1
  Se  Se22  1  0.830455  0.169545  0.861341  1
  Se  Se23  1  0.666012  0.833006  0.384411  1
  Se  Se24  1  0.833006  0.166994  0.615589  1
  Se  Se25  1  0.166994  0.833006  0.384411  1
