# generated using pymatgen
data_Lu12AlZnCo4
_symmetry_space_group_name_H-M   'P 1'
_cell_length_a   8.10880387
_cell_length_b   8.10880421
_cell_length_c   8.10880492
_cell_angle_alpha   111.58831174
_cell_angle_beta   110.54875686
_cell_angle_gamma   106.32352129
_symmetry_Int_Tables_number   1
_chemical_formula_structural   Lu12AlZnCo4
_chemical_formula_sum   'Lu12 Al1 Zn1 Co4'
_cell_volume   409.48065022
_cell_formula_units_Z   1
loop_
 _symmetry_equiv_pos_site_id
 _symmetry_equiv_pos_as_xyz
  1  'x, y, z'
loop_
 _atom_site_type_symbol
 _atom_site_label
 _atom_site_symmetry_multiplicity
 _atom_site_fract_x
 _atom_site_fract_y
 _atom_site_fract_z
 _atom_site_occupancy
  Lu  Lu0  1  0.566171  0.266956  0.299215  1
  Lu  Lu1  1  0.184085  0.217313  0.401398  1
  Lu  Lu2  1  0.184085  0.782687  0.966773  1
  Lu  Lu3  1  0.680912  0.485159  0.804247  1
  Lu  Lu4  1  0.680912  0.876666  0.195753  1
  Lu  Lu5  1  0.967740  0.266956  0.700785  1
  Lu  Lu6  1  0.032260  0.733044  0.299215  1
  Lu  Lu7  1  0.319088  0.123334  0.804247  1
  Lu  Lu8  1  0.319088  0.514841  0.195753  1
  Lu  Lu9  1  0.815915  0.217313  0.033227  1
  Lu  Lu10  1  0.815915  0.782687  0.598602  1
  Lu  Lu11  1  0.433829  0.733044  0.700785  1
  Al  Al12  1  0.500000  0.000000  0.500000  1
  Zn  Zn13  1  0.000000  0.500000  0.500000  1
  Co  Co14  1  0.884625  0.884625  0.000000  1
  Co  Co15  1  0.364656  0.500000  0.864656  1
  Co  Co16  1  0.635344  0.500000  0.135344  1
  Co  Co17  1  0.115375  0.115375  0.000000  1
