# generated using pymatgen
data_Er3Lu(Si3Ir)2
_symmetry_space_group_name_H-M   'P 1'
_cell_length_a   8.13072300
_cell_length_b   8.13662361
_cell_length_c   7.79462900
_cell_angle_alpha   90.00000000
_cell_angle_beta   90.00000000
_cell_angle_gamma   119.97601780
_symmetry_Int_Tables_number   1
_chemical_formula_structural   Er3Lu(Si3Ir)2
_chemical_formula_sum   'Er6 Lu2 Si12 Ir4'
_cell_volume   446.68809113
_cell_formula_units_Z   2
loop_
 _symmetry_equiv_pos_site_id
 _symmetry_equiv_pos_as_xyz
  1  'x, y, z'
loop_
 _atom_site_type_symbol
 _atom_site_label
 _atom_site_symmetry_multiplicity
 _atom_site_fract_x
 _atom_site_fract_y
 _atom_site_fract_z
 _atom_site_occupancy
  Er  Er0  1  0.489973  0.979944  0.750000  1
  Er  Er1  1  0.020017  0.510003  0.750000  1
  Er  Er2  1  0.489989  0.510003  0.750000  1
  Er  Er3  1  0.510504  0.021010  0.250000  1
  Er  Er4  1  0.000087  0.000175  0.750000  1
  Er  Er5  1  0.999899  0.999799  0.250000  1
  Lu  Lu6  1  0.979683  0.490034  0.250000  1
  Lu  Lu7  1  0.510349  0.490034  0.250000  1
  Si  Si8  1  0.166849  0.833128  0.498256  1
  Si  Si9  1  0.166757  0.333512  0.497942  1
  Si  Si10  1  0.666280  0.833128  0.498256  1
  Si  Si11  1  0.333240  0.166788  0.999739  1
  Si  Si12  1  0.833356  0.666712  0.499443  1
  Si  Si13  1  0.833547  0.166788  0.999739  1
  Si  Si14  1  0.833356  0.666712  0.000557  1
  Si  Si15  1  0.166757  0.333512  0.002058  1
  Si  Si16  1  0.666280  0.833128  0.001744  1
  Si  Si17  1  0.333240  0.166788  0.500261  1
  Si  Si18  1  0.833547  0.166788  0.500261  1
  Si  Si19  1  0.166849  0.833128  0.001744  1
  Ir  Ir20  1  0.332777  0.665555  0.037785  1
  Ir  Ir21  1  0.666945  0.333889  0.967535  1
  Ir  Ir22  1  0.666945  0.333889  0.532465  1
  Ir  Ir23  1  0.332777  0.665555  0.462215  1
