# generated using pymatgen
data_K4SrUO6
_symmetry_space_group_name_H-M   'P 1'
_cell_length_a   6.38956841
_cell_length_b   6.38956900
_cell_length_c   6.57244836
_cell_angle_alpha   99.55791451
_cell_angle_beta   99.55792092
_cell_angle_gamma   119.79641552
_symmetry_Int_Tables_number   1
_chemical_formula_structural   K4SrUO6
_chemical_formula_sum   'K4 Sr1 U1 O6'
_cell_volume   219.72468158
_cell_formula_units_Z   1
loop_
 _symmetry_equiv_pos_site_id
 _symmetry_equiv_pos_as_xyz
  1  'x, y, z'
loop_
 _atom_site_type_symbol
 _atom_site_label
 _atom_site_symmetry_multiplicity
 _atom_site_fract_x
 _atom_site_fract_y
 _atom_site_fract_z
 _atom_site_occupancy
  K  K0  1  0.499666  0.500335  0.000000  1
  K  K1  1  0.003452  0.996547  0.499998  1
  K  K2  1  0.660023  0.339977  0.500001  1
  K  K3  1  0.339283  0.660717  0.500001  1
  Sr  Sr4  1  0.832645  0.167355  0.000000  1
  U  U5  1  0.166775  0.833225  0.000000  1
  O  O6  1  0.971307  0.616487  0.193329  1
  O  O7  1  0.516093  0.920701  0.196901  1
  O  O8  1  0.211031  0.163087  0.195672  1
  O  O9  1  0.836915  0.788972  0.804331  1
  O  O10  1  0.079301  0.483910  0.803102  1
  O  O11  1  0.383516  0.028696  0.806672  1
