# generated using pymatgen
data_Tb5YPd2
_symmetry_space_group_name_H-M   'P 1'
_cell_length_a   7.04527100
_cell_length_b   9.72430700
_cell_length_c   6.49327900
_cell_angle_alpha   90.00000000
_cell_angle_beta   90.00000000
_cell_angle_gamma   90.00000000
_symmetry_Int_Tables_number   1
_chemical_formula_structural   Tb5YPd2
_chemical_formula_sum   'Tb10 Y2 Pd4'
_cell_volume   444.85699941
_cell_formula_units_Z   2
loop_
 _symmetry_equiv_pos_site_id
 _symmetry_equiv_pos_as_xyz
  1  'x, y, z'
loop_
 _atom_site_type_symbol
 _atom_site_label
 _atom_site_symmetry_multiplicity
 _atom_site_fract_x
 _atom_site_fract_y
 _atom_site_fract_z
 _atom_site_occupancy
  Tb  Tb0  1  0.476142  0.250000  0.131991  1
  Tb  Tb1  1  0.181023  0.559374  0.175089  1
  Tb  Tb2  1  0.181023  0.940626  0.175089  1
  Tb  Tb3  1  0.681023  0.559374  0.324911  1
  Tb  Tb4  1  0.681023  0.940626  0.324911  1
  Tb  Tb5  1  0.976142  0.250000  0.368009  1
  Tb  Tb6  1  0.318814  0.059298  0.674995  1
  Tb  Tb7  1  0.318814  0.440702  0.674995  1
  Tb  Tb8  1  0.818814  0.059298  0.825005  1
  Tb  Tb9  1  0.818814  0.440702  0.825005  1
  Y  Y10  1  0.023626  0.750000  0.631685  1
  Y  Y11  1  0.523626  0.750000  0.868316  1
  Pd  Pd12  1  0.890025  0.750000  0.059765  1
  Pd  Pd13  1  0.390025  0.750000  0.440235  1
  Pd  Pd14  1  0.610535  0.250000  0.559020  1
  Pd  Pd15  1  0.110535  0.250000  0.940980  1
