# generated using pymatgen
data_Nd4GaSn7Pt4
_symmetry_space_group_name_H-M   'P 1'
_cell_length_a   10.25692614
_cell_length_b   10.30529935
_cell_length_c   10.30529899
_cell_angle_alpha   154.10672907
_cell_angle_beta   124.82684449
_cell_angle_gamma   61.95053070
_symmetry_Int_Tables_number   1
_chemical_formula_structural   Nd4GaSn7Pt4
_chemical_formula_sum   'Nd4 Ga1 Sn7 Pt4'
_cell_volume   387.58984560
_cell_formula_units_Z   1
loop_
 _symmetry_equiv_pos_site_id
 _symmetry_equiv_pos_as_xyz
  1  'x, y, z'
loop_
 _atom_site_type_symbol
 _atom_site_label
 _atom_site_symmetry_multiplicity
 _atom_site_fract_x
 _atom_site_fract_y
 _atom_site_fract_z
 _atom_site_occupancy
  Nd  Nd0  1  0.767902  0.998342  0.769560  1
  Nd  Nd1  1  0.226217  0.999172  0.227045  1
  Nd  Nd2  1  0.212410  0.206848  0.005563  1
  Nd  Nd3  1  0.794750  0.796815  0.997935  1
  Ga  Ga4  1  0.463974  0.800739  0.663235  1
  Sn  Sn5  1  0.419311  0.417533  0.001778  1
  Sn  Sn6  1  0.578010  0.580088  0.997922  1
  Sn  Sn7  1  0.915585  0.421476  0.494109  1
  Sn  Sn8  1  0.077553  0.578740  0.498813  1
  Sn  Sn9  1  0.859923  0.200702  0.659221  1
  Sn  Sn10  1  0.154872  0.802266  0.352605  1
  Sn  Sn11  1  0.542451  0.199415  0.343036  1
  Pt  Pt12  1  0.098859  0.353728  0.745133  1
  Pt  Pt13  1  0.898890  0.647681  0.251207  1
  Pt  Pt14  1  0.594066  0.347308  0.246758  1
  Pt  Pt15  1  0.395226  0.649147  0.746079  1
