# generated using pymatgen
data_TmLu5Fe7Co16
_symmetry_space_group_name_H-M   'P 1'
_cell_length_a   8.28114453
_cell_length_b   8.28114439
_cell_length_c   8.28284900
_cell_angle_alpha   59.99318657
_cell_angle_beta   59.99318710
_cell_angle_gamma   60.01362973
_symmetry_Int_Tables_number   1
_chemical_formula_structural   TmLu5Fe7Co16
_chemical_formula_sum   'Tm1 Lu5 Fe7 Co16'
_cell_volume   401.64784573
_cell_formula_units_Z   1
loop_
 _symmetry_equiv_pos_site_id
 _symmetry_equiv_pos_as_xyz
  1  'x, y, z'
loop_
 _atom_site_type_symbol
 _atom_site_label
 _atom_site_symmetry_multiplicity
 _atom_site_fract_x
 _atom_site_fract_y
 _atom_site_fract_z
 _atom_site_occupancy
  Tm  Tm0  1  0.710980  0.710980  0.289020  1
  Lu  Lu1  1  0.711507  0.288292  0.288493  1
  Lu  Lu2  1  0.288292  0.711507  0.711708  1
  Lu  Lu3  1  0.288292  0.711507  0.288493  1
  Lu  Lu4  1  0.288519  0.288519  0.711481  1
  Lu  Lu5  1  0.711507  0.288292  0.711708  1
  Fe  Fe6  1  0.499770  0.000316  0.999684  1
  Fe  Fe7  1  0.000316  0.499770  0.500230  1
  Fe  Fe8  1  0.000316  0.499770  0.999684  1
  Fe  Fe9  1  0.000010  0.000010  0.499990  1
  Fe  Fe10  1  0.499770  0.000316  0.500230  1
  Fe  Fe11  1  0.500010  0.500010  0.999990  1
  Fe  Fe12  1  0.000059  0.000059  0.999941  1
  Co  Co13  1  0.323984  0.323984  0.324023  1
  Co  Co14  1  0.323984  0.323984  0.028010  1
  Co  Co15  1  0.028248  0.323756  0.323999  1
  Co  Co16  1  0.323756  0.028248  0.323999  1
  Co  Co17  1  0.676001  0.676001  0.676244  1
  Co  Co18  1  0.676001  0.676001  0.971752  1
  Co  Co19  1  0.675977  0.971990  0.676016  1
  Co  Co20  1  0.971990  0.675977  0.676016  1
  Co  Co21  1  0.122448  0.122448  0.122413  1
  Co  Co22  1  0.122448  0.122448  0.632690  1
  Co  Co23  1  0.632589  0.122868  0.122271  1
  Co  Co24  1  0.122868  0.632589  0.122271  1
  Co  Co25  1  0.877729  0.877729  0.877132  1
  Co  Co26  1  0.877729  0.877729  0.367411  1
  Co  Co27  1  0.877587  0.367310  0.877552  1
  Co  Co28  1  0.367310  0.877587  0.877552  1
