# generated using pymatgen
data_Ba(CuH2)2
_symmetry_space_group_name_H-M   'P 1'
_cell_length_a   7.01755000
_cell_length_b   7.01755000
_cell_length_c   7.01755000
_cell_angle_alpha   90.00000000
_cell_angle_beta   90.00000000
_cell_angle_gamma   90.00000000
_symmetry_Int_Tables_number   1
_chemical_formula_structural   Ba(CuH2)2
_chemical_formula_sum   'Ba4 Cu8 H16'
_cell_volume   345.58632346
_cell_formula_units_Z   4
loop_
 _symmetry_equiv_pos_site_id
 _symmetry_equiv_pos_as_xyz
  1  'x, y, z'
loop_
 _atom_site_type_symbol
 _atom_site_label
 _atom_site_symmetry_multiplicity
 _atom_site_fract_x
 _atom_site_fract_y
 _atom_site_fract_z
 _atom_site_occupancy
  Ba  Ba0  1  0.164492  0.664492  0.835508  1
  Ba  Ba1  1  0.664492  0.835508  0.164492  1
  Ba  Ba2  1  0.835508  0.164492  0.664492  1
  Ba  Ba3  1  0.335508  0.335508  0.335508  1
  Cu  Cu4  1  0.812675  0.312675  0.187325  1
  Cu  Cu5  1  0.312675  0.187325  0.812675  1
  Cu  Cu6  1  0.187325  0.812675  0.312675  1
  Cu  Cu7  1  0.687325  0.687325  0.687325  1
  Cu  Cu8  1  0.426413  0.926413  0.573587  1
  Cu  Cu9  1  0.926413  0.573587  0.426413  1
  Cu  Cu10  1  0.573587  0.426413  0.926413  1
  Cu  Cu11  1  0.073587  0.073587  0.073587  1
  H  H12  1  0.562231  0.062231  0.437769  1
  H  H13  1  0.062231  0.437769  0.562231  1
  H  H14  1  0.437769  0.562231  0.062231  1
  H  H15  1  0.937769  0.937769  0.937769  1
  H  H16  1  0.272929  0.966338  0.150593  1
  H  H17  1  0.849407  0.772929  0.533662  1
  H  H18  1  0.466338  0.349407  0.727071  1
  H  H19  1  0.772929  0.533662  0.849407  1
  H  H20  1  0.349407  0.727071  0.466338  1
  H  H21  1  0.966338  0.150593  0.272929  1
  H  H22  1  0.727071  0.466338  0.349407  1
  H  H23  1  0.150593  0.272929  0.966338  1
  H  H24  1  0.533662  0.849407  0.772929  1
  H  H25  1  0.227071  0.033662  0.650593  1
  H  H26  1  0.650593  0.227071  0.033662  1
  H  H27  1  0.033662  0.650593  0.227071  1
