# generated using pymatgen
data_Dy13Tm7(CoBi2)4
_symmetry_space_group_name_H-M   'P 1'
_cell_length_a   7.93463664
_cell_length_b   8.87299249
_cell_length_c   12.38992404
_cell_angle_alpha   89.97198998
_cell_angle_beta   90.03789298
_cell_angle_gamma   90.02592581
_symmetry_Int_Tables_number   1
_chemical_formula_structural   Dy13Tm7(CoBi2)4
_chemical_formula_sum   'Dy13 Tm7 Co4 Bi8'
_cell_volume   872.29947292
_cell_formula_units_Z   1
loop_
 _symmetry_equiv_pos_site_id
 _symmetry_equiv_pos_as_xyz
  1  'x, y, z'
loop_
 _atom_site_type_symbol
 _atom_site_label
 _atom_site_symmetry_multiplicity
 _atom_site_fract_x
 _atom_site_fract_y
 _atom_site_fract_z
 _atom_site_occupancy
  Dy  Dy0  1  0.847254  0.750285  0.801071  1
  Dy  Dy1  1  0.152414  0.249847  0.199054  1
  Dy  Dy2  1  0.347809  0.249967  0.698627  1
  Dy  Dy3  1  0.652226  0.750003  0.301184  1
  Dy  Dy4  1  0.379238  0.749843  0.687600  1
  Dy  Dy5  1  0.620759  0.250041  0.312349  1
  Dy  Dy6  1  0.878548  0.249606  0.811909  1
  Dy  Dy7  1  0.120302  0.750594  0.188103  1
  Dy  Dy8  1  0.950043  0.750067  0.502660  1
  Dy  Dy9  1  0.049912  0.249964  0.497280  1
  Dy  Dy10  1  0.451534  0.249493  0.997442  1
  Dy  Dy11  1  0.550561  0.750339  0.002656  1
  Dy  Dy12  1  0.175706  0.534961  0.936746  1
  Tm  Tm13  1  0.672978  0.035237  0.563083  1
  Tm  Tm14  1  0.326915  0.964806  0.436837  1
  Tm  Tm15  1  0.173023  0.964786  0.936983  1
  Tm  Tm16  1  0.326889  0.535224  0.436900  1
  Tm  Tm17  1  0.826918  0.035645  0.063329  1
  Tm  Tm18  1  0.673056  0.464808  0.563050  1
  Tm  Tm19  1  0.826552  0.464650  0.063327  1
  Co  Co20  1  0.560297  0.750022  0.507313  1
  Co  Co21  1  0.439736  0.249995  0.492602  1
  Co  Co22  1  0.059537  0.249359  0.992686  1
  Co  Co23  1  0.937995  0.750820  0.007827  1
  Bi  Bi24  1  0.569259  0.492237  0.825816  1
  Bi  Bi25  1  0.431444  0.507512  0.173727  1
  Bi  Bi26  1  0.067777  0.507395  0.673535  1
  Bi  Bi27  1  0.431738  0.992483  0.173858  1
  Bi  Bi28  1  0.931873  0.492468  0.326199  1
  Bi  Bi29  1  0.567936  0.007448  0.826047  1
  Bi  Bi30  1  0.931718  0.007577  0.326352  1
  Bi  Bi31  1  0.068052  0.992516  0.673850  1
