# generated using pymatgen
data_Tb3Ho17(IrRh3)3
_symmetry_space_group_name_H-M   'P 1'
_cell_length_a   10.86297607
_cell_length_b   10.86297316
_cell_length_c   6.34945103
_cell_angle_alpha   89.99047511
_cell_angle_beta   90.00449419
_cell_angle_gamma   89.93335275
_symmetry_Int_Tables_number   1
_chemical_formula_structural   Tb3Ho17(IrRh3)3
_chemical_formula_sum   'Tb3 Ho17 Ir3 Rh9'
_cell_volume   749.26148103
_cell_formula_units_Z   1
loop_
 _symmetry_equiv_pos_site_id
 _symmetry_equiv_pos_as_xyz
  1  'x, y, z'
loop_
 _atom_site_type_symbol
 _atom_site_label
 _atom_site_symmetry_multiplicity
 _atom_site_fract_x
 _atom_site_fract_y
 _atom_site_fract_z
 _atom_site_occupancy
  Tb  Tb0  1  0.290855  0.089853  0.378282  1
  Tb  Tb1  1  0.290966  0.909843  0.878095  1
  Tb  Tb2  1  0.709233  0.088362  0.878055  1
  Ho  Ho3  1  0.708600  0.909962  0.378183  1
  Ho  Ho4  1  0.587658  0.789516  0.879413  1
  Ho  Ho5  1  0.587230  0.209552  0.378059  1
  Ho  Ho6  1  0.412640  0.789798  0.378866  1
  Ho  Ho7  1  0.410788  0.209737  0.879487  1
  Ho  Ho8  1  0.210224  0.412588  0.620602  1
  Ho  Ho9  1  0.209931  0.587462  0.121166  1
  Ho  Ho10  1  0.790629  0.412965  0.121914  1
  Ho  Ho11  1  0.790602  0.589172  0.620440  1
  Ho  Ho12  1  0.910296  0.708857  0.121494  1
  Ho  Ho13  1  0.911905  0.291136  0.621563  1
  Ho  Ho14  1  0.089824  0.708608  0.621556  1
  Ho  Ho15  1  0.089700  0.291490  0.121607  1
  Ho  Ho16  1  0.999605  0.999840  0.499930  1
  Ho  Ho17  1  0.000047  0.000172  0.000341  1
  Ho  Ho18  1  0.499750  0.499916  0.999964  1
  Ho  Ho19  1  0.500116  0.500277  0.500193  1
  Ir  Ir20  1  0.654619  0.653969  0.250003  1
  Ir  Ir21  1  0.346110  0.345758  0.249785  1
  Ir  Ir22  1  0.345418  0.654301  0.749809  1
  Rh  Rh23  1  0.846170  0.154145  0.250490  1
  Rh  Rh24  1  0.846540  0.846720  0.750107  1
  Rh  Rh25  1  0.152771  0.153914  0.750131  1
  Rh  Rh26  1  0.153043  0.846348  0.250358  1
  Rh  Rh27  1  0.654876  0.345341  0.749860  1
  Rh  Rh28  1  0.500478  0.000370  0.122892  1
  Rh  Rh29  1  0.500619  0.000628  0.622979  1
  Rh  Rh30  1  0.999258  0.499642  0.876875  1
  Rh  Rh31  1  0.999502  0.499754  0.377501  1
