# generated using pymatgen
data_Er3Tm5ReTc(B12Ru)2
_symmetry_space_group_name_H-M   'P 1'
_cell_length_a   3.63122100
_cell_length_b   9.07880801
_cell_length_c   11.45848600
_cell_angle_alpha   90.12028022
_cell_angle_beta   90.00000000
_cell_angle_gamma   90.00000000
_symmetry_Int_Tables_number   1
_chemical_formula_structural   Er3Tm5ReTc(B12Ru)2
_chemical_formula_sum   'Er3 Tm5 Re1 Tc1 B24 Ru2'
_cell_volume   377.75288927
_cell_formula_units_Z   1
loop_
 _symmetry_equiv_pos_site_id
 _symmetry_equiv_pos_as_xyz
  1  'x, y, z'
loop_
 _atom_site_type_symbol
 _atom_site_label
 _atom_site_symmetry_multiplicity
 _atom_site_fract_x
 _atom_site_fract_y
 _atom_site_fract_z
 _atom_site_occupancy
  Er  Er0  1  0.000000  0.324229  0.413902  1
  Er  Er1  1  0.000000  0.679149  0.586125  1
  Er  Er2  1  0.000000  0.821407  0.085633  1
  Tm  Tm3  1  0.000000  0.176130  0.913862  1
  Tm  Tm4  1  0.000000  0.942665  0.370345  1
  Tm  Tm5  1  0.000000  0.057585  0.628664  1
  Tm  Tm6  1  0.000000  0.442604  0.129400  1
  Tm  Tm7  1  0.000000  0.556378  0.871010  1
  Re  Re8  1  0.000000  0.862615  0.820971  1
  Tc  Tc9  1  0.000000  0.637727  0.320996  1
  B  B10  1  0.500000  0.553074  0.433861  1
  B  B11  1  0.500000  0.446627  0.567395  1
  B  B12  1  0.500000  0.053517  0.067048  1
  B  B13  1  0.500000  0.947549  0.933713  1
  B  B14  1  0.500000  0.749735  0.419335  1
  B  B15  1  0.500000  0.251512  0.580730  1
  B  B16  1  0.500000  0.248442  0.080618  1
  B  B17  1  0.500000  0.750241  0.919381  1
  B  B18  1  0.500000  0.791942  0.265054  1
  B  B19  1  0.500000  0.208468  0.734381  1
  B  B20  1  0.500000  0.291371  0.234484  1
  B  B21  1  0.500000  0.707780  0.765209  1
  B  B22  1  0.500000  0.630326  0.184980  1
  B  B23  1  0.500000  0.368400  0.815069  1
  B  B24  1  0.500000  0.131260  0.314783  1
  B  B25  1  0.500000  0.869676  0.684797  1
  B  B26  1  0.500000  0.982665  0.212361  1
  B  B27  1  0.500000  0.019254  0.787651  1
  B  B28  1  0.500000  0.481277  0.287825  1
  B  B29  1  0.500000  0.517136  0.712846  1
  B  B30  1  0.500000  0.601676  0.028383  1
  B  B31  1  0.500000  0.395639  0.971320  1
  B  B32  1  0.500000  0.103843  0.471047  1
  B  B33  1  0.500000  0.898269  0.528100  1
  Ru  Ru34  1  0.000000  0.361477  0.679531  1
  Ru  Ru35  1  0.000000  0.138359  0.179185  1
