# generated using pymatgen
data_CeDy3(CuSi3)2
_symmetry_space_group_name_H-M   'P 1'
_cell_length_a   7.99646100
_cell_length_b   7.99646130
_cell_length_c   8.14584000
_cell_angle_alpha   90.00000000
_cell_angle_beta   90.00000000
_cell_angle_gamma   119.99999463
_symmetry_Int_Tables_number   1
_chemical_formula_structural   CeDy3(CuSi3)2
_chemical_formula_sum   'Ce2 Dy6 Cu4 Si12'
_cell_volume   451.08895538
_cell_formula_units_Z   2
loop_
 _symmetry_equiv_pos_site_id
 _symmetry_equiv_pos_as_xyz
  1  'x, y, z'
loop_
 _atom_site_type_symbol
 _atom_site_label
 _atom_site_symmetry_multiplicity
 _atom_site_fract_x
 _atom_site_fract_y
 _atom_site_fract_z
 _atom_site_occupancy
  Ce  Ce0  1  0.000000  0.000000  0.250000  1
  Ce  Ce1  1  0.000000  0.000000  0.750000  1
  Dy  Dy2  1  0.500208  0.499792  0.250000  1
  Dy  Dy3  1  0.500208  0.000415  0.250000  1
  Dy  Dy4  1  0.999585  0.499792  0.250000  1
  Dy  Dy5  1  0.499792  0.500208  0.750000  1
  Dy  Dy6  1  0.000415  0.500208  0.750000  1
  Dy  Dy7  1  0.499792  0.999585  0.750000  1
  Cu  Cu8  1  0.666667  0.333333  0.500057  1
  Cu  Cu9  1  0.666667  0.333333  0.999943  1
  Cu  Cu10  1  0.333333  0.666667  0.000057  1
  Cu  Cu11  1  0.333333  0.666667  0.499943  1
  Si  Si12  1  0.830712  0.169288  0.499689  1
  Si  Si13  1  0.830712  0.661425  0.499689  1
  Si  Si14  1  0.338575  0.169288  0.499689  1
  Si  Si15  1  0.830712  0.169288  0.000311  1
  Si  Si16  1  0.830712  0.661425  0.000311  1
  Si  Si17  1  0.338575  0.169288  0.000311  1
  Si  Si18  1  0.169288  0.830712  0.999689  1
  Si  Si19  1  0.661425  0.830712  0.999689  1
  Si  Si20  1  0.169288  0.338575  0.999689  1
  Si  Si21  1  0.169288  0.830712  0.500311  1
  Si  Si22  1  0.661425  0.830712  0.500311  1
  Si  Si23  1  0.169288  0.338575  0.500311  1
