# generated using pymatgen
data_TbYSiNi9
_symmetry_space_group_name_H-M   'P 1'
_cell_length_a   3.95305600
_cell_length_b   4.97580400
_cell_length_c   8.26202100
_cell_angle_alpha   90.00000000
_cell_angle_beta   90.00000000
_cell_angle_gamma   90.00000000
_symmetry_Int_Tables_number   1
_chemical_formula_structural   TbYSiNi9
_chemical_formula_sum   'Tb1 Y1 Si1 Ni9'
_cell_volume   162.51091147
_cell_formula_units_Z   1
loop_
 _symmetry_equiv_pos_site_id
 _symmetry_equiv_pos_as_xyz
  1  'x, y, z'
loop_
 _atom_site_type_symbol
 _atom_site_label
 _atom_site_symmetry_multiplicity
 _atom_site_fract_x
 _atom_site_fract_y
 _atom_site_fract_z
 _atom_site_occupancy
  Tb  Tb0  1  0.000000  0.500000  0.000000  1
  Y  Y1  1  0.000000  0.000000  0.500000  1
  Si  Si2  1  0.500000  0.500000  0.500000  1
  Ni  Ni3  1  0.000000  0.500000  0.340204  1
  Ni  Ni4  1  0.000000  0.000000  0.834455  1
  Ni  Ni5  1  0.000000  0.000000  0.165545  1
  Ni  Ni6  1  0.000000  0.500000  0.659796  1
  Ni  Ni7  1  0.500000  0.000000  0.000000  1
  Ni  Ni8  1  0.500000  0.755574  0.258553  1
  Ni  Ni9  1  0.500000  0.244426  0.741447  1
  Ni  Ni10  1  0.500000  0.244426  0.258553  1
  Ni  Ni11  1  0.500000  0.755574  0.741447  1
