# generated using pymatgen
data_LuAl7Cu5
_symmetry_space_group_name_H-M   'P 1'
_cell_length_a   5.12529392
_cell_length_b   6.63886359
_cell_length_c   6.63886457
_cell_angle_alpha   98.19162480
_cell_angle_beta   112.70626044
_cell_angle_gamma   67.29373643
_symmetry_Int_Tables_number   1
_chemical_formula_structural   LuAl7Cu5
_chemical_formula_sum   'Lu1 Al7 Cu5'
_cell_volume   192.23058634
_cell_formula_units_Z   1
loop_
 _symmetry_equiv_pos_site_id
 _symmetry_equiv_pos_as_xyz
  1  'x, y, z'
loop_
 _atom_site_type_symbol
 _atom_site_label
 _atom_site_symmetry_multiplicity
 _atom_site_fract_x
 _atom_site_fract_y
 _atom_site_fract_z
 _atom_site_occupancy
  Lu  Lu0  1  0.998487  0.001513  0.998487  1
  Al  Al1  1  0.649502  0.350498  0.649502  1
  Al  Al2  1  0.343025  0.656975  0.343025  1
  Al  Al3  1  0.992959  0.353856  0.339773  1
  Al  Al4  1  0.992959  0.660227  0.646144  1
  Al  Al5  1  0.273269  0.226731  0.773269  1
  Al  Al6  1  0.507998  0.785403  0.801399  1
  Al  Al7  1  0.507998  0.198601  0.214597  1
  Cu  Cu8  1  0.500464  0.000694  0.505715  1
  Cu  Cu9  1  0.004557  0.000694  0.505715  1
  Cu  Cu10  1  0.500464  0.494285  0.999306  1
  Cu  Cu11  1  0.004557  0.494285  0.999306  1
  Cu  Cu12  1  0.723760  0.776240  0.223760  1
