# generated using pymatgen
data_CeHo(SiRu)2
_symmetry_space_group_name_H-M   'P 1'
_cell_length_a   4.40606400
_cell_length_b   7.13710995
_cell_length_c   6.87636920
_cell_angle_alpha   89.31937455
_cell_angle_beta   90.00000000
_cell_angle_gamma   90.00000000
_symmetry_Int_Tables_number   1
_chemical_formula_structural   CeHo(SiRu)2
_chemical_formula_sum   'Ce2 Ho2 Si4 Ru4'
_cell_volume   216.22292165
_cell_formula_units_Z   2
loop_
 _symmetry_equiv_pos_site_id
 _symmetry_equiv_pos_as_xyz
  1  'x, y, z'
loop_
 _atom_site_type_symbol
 _atom_site_label
 _atom_site_symmetry_multiplicity
 _atom_site_fract_x
 _atom_site_fract_y
 _atom_site_fract_z
 _atom_site_occupancy
  Ce  Ce0  1  0.250000  0.977691  0.830031  1
  Ce  Ce1  1  0.750000  0.022309  0.169969  1
  Ho  Ho2  1  0.250000  0.476911  0.682228  1
  Ho  Ho3  1  0.750000  0.523089  0.317772  1
  Si  Si4  1  0.250000  0.312145  0.113224  1
  Si  Si5  1  0.750000  0.687855  0.886776  1
  Si  Si6  1  0.250000  0.800871  0.393194  1
  Si  Si7  1  0.750000  0.199129  0.606806  1
  Ru  Ru8  1  0.750000  0.855535  0.567703  1
  Ru  Ru9  1  0.250000  0.144465  0.432297  1
  Ru  Ru10  1  0.750000  0.349603  0.934895  1
  Ru  Ru11  1  0.250000  0.650397  0.065105  1
