# generated using pymatgen
data_Zr4Ti2Re5W
_symmetry_space_group_name_H-M   'P 1'
_cell_length_a   5.33190068
_cell_length_b   5.33190080
_cell_length_c   8.79843500
_cell_angle_alpha   90.00000000
_cell_angle_beta   90.00000000
_cell_angle_gamma   119.87746548
_symmetry_Int_Tables_number   1
_chemical_formula_structural   Zr4Ti2Re5W
_chemical_formula_sum   'Zr4 Ti2 Re5 W1'
_cell_volume   216.88778369
_cell_formula_units_Z   1
loop_
 _symmetry_equiv_pos_site_id
 _symmetry_equiv_pos_as_xyz
  1  'x, y, z'
loop_
 _atom_site_type_symbol
 _atom_site_label
 _atom_site_symmetry_multiplicity
 _atom_site_fract_x
 _atom_site_fract_y
 _atom_site_fract_z
 _atom_site_occupancy
  Zr  Zr0  1  0.333620  0.666380  0.438440  1
  Zr  Zr1  1  0.666849  0.333151  0.565824  1
  Zr  Zr2  1  0.666849  0.333151  0.934176  1
  Zr  Zr3  1  0.333620  0.666380  0.061560  1
  Ti  Ti4  1  0.001093  0.998907  0.501885  1
  Ti  Ti5  1  0.001093  0.998907  0.998115  1
  Re  Re6  1  0.830145  0.663929  0.250000  1
  Re  Re7  1  0.336071  0.169855  0.250000  1
  Re  Re8  1  0.170443  0.829557  0.750000  1
  Re  Re9  1  0.169254  0.337941  0.750000  1
  Re  Re10  1  0.662059  0.830746  0.750000  1
  W  W11  1  0.828906  0.171094  0.250000  1
