# generated using pymatgen
data_TmLu2Fe8Co3B4
_symmetry_space_group_name_H-M   'P 1'
_cell_length_a   5.01771500
_cell_length_b   5.01771418
_cell_length_c   9.95051900
_cell_angle_alpha   90.00000000
_cell_angle_beta   90.00000000
_cell_angle_gamma   119.99999882
_symmetry_Int_Tables_number   1
_chemical_formula_structural   TmLu2Fe8Co3B4
_chemical_formula_sum   'Tm1 Lu2 Fe8 Co3 B4'
_cell_volume   216.96430010
_cell_formula_units_Z   1
loop_
 _symmetry_equiv_pos_site_id
 _symmetry_equiv_pos_as_xyz
  1  'x, y, z'
loop_
 _atom_site_type_symbol
 _atom_site_label
 _atom_site_symmetry_multiplicity
 _atom_site_fract_x
 _atom_site_fract_y
 _atom_site_fract_z
 _atom_site_occupancy
  Tm  Tm0  1  0.000000  0.000000  0.000000  1
  Lu  Lu1  1  0.000000  0.000000  0.652383  1
  Lu  Lu2  1  0.000000  0.000000  0.347617  1
  Fe  Fe3  1  0.666667  0.333333  0.000000  1
  Fe  Fe4  1  0.333333  0.666667  0.000000  1
  Fe  Fe5  1  0.500000  0.500000  0.797745  1
  Fe  Fe6  1  0.500000  0.000000  0.797745  1
  Fe  Fe7  1  0.000000  0.500000  0.797745  1
  Fe  Fe8  1  0.500000  0.500000  0.202255  1
  Fe  Fe9  1  0.500000  0.000000  0.202255  1
  Fe  Fe10  1  0.000000  0.500000  0.202255  1
  Co  Co11  1  0.500000  0.500000  0.500000  1
  Co  Co12  1  0.500000  0.000000  0.500000  1
  Co  Co13  1  0.000000  0.500000  0.500000  1
  B  B14  1  0.666667  0.333333  0.647275  1
  B  B15  1  0.333333  0.666667  0.647275  1
  B  B16  1  0.333333  0.666667  0.352725  1
  B  B17  1  0.666667  0.333333  0.352725  1
