# generated using pymatgen
data_K3AsO3
_symmetry_space_group_name_H-M   'P 1'
_cell_length_a   6.39005454
_cell_length_b   6.39005471
_cell_length_c   7.39971921
_cell_angle_alpha   85.28310446
_cell_angle_beta   85.28310724
_cell_angle_gamma   106.74576130
_symmetry_Int_Tables_number   1
_chemical_formula_structural   K3AsO3
_chemical_formula_sum   'K6 As2 O6'
_cell_volume   286.57618909
_cell_formula_units_Z   2
loop_
 _symmetry_equiv_pos_site_id
 _symmetry_equiv_pos_as_xyz
  1  'x, y, z'
loop_
 _atom_site_type_symbol
 _atom_site_label
 _atom_site_symmetry_multiplicity
 _atom_site_fract_x
 _atom_site_fract_y
 _atom_site_fract_z
 _atom_site_occupancy
  K  K0  1  0.674899  0.674899  0.333664  1
  K  K1  1  0.809862  0.190138  0.500000  1
  K  K2  1  0.190138  0.809862  0.500000  1
  K  K3  1  0.209973  0.790027  0.000000  1
  K  K4  1  0.790027  0.209973  0.000000  1
  K  K5  1  0.325101  0.325101  0.666336  1
  As  As6  1  0.729939  0.729939  0.820711  1
  As  As7  1  0.270061  0.270061  0.179289  1
  O  O8  1  0.033451  0.033451  0.242505  1
  O  O9  1  0.520040  0.792250  0.698228  1
  O  O10  1  0.792250  0.520040  0.698228  1
  O  O11  1  0.207750  0.479960  0.301772  1
  O  O12  1  0.479960  0.207750  0.301772  1
  O  O13  1  0.966549  0.966549  0.757495  1
