# generated using pymatgen
data_K2Cd2F7
_symmetry_space_group_name_H-M   'P 1'
_cell_length_a   8.22772459
_cell_length_b   8.22772387
_cell_length_c   8.22772457
_cell_angle_alpha   120.19884018
_cell_angle_beta   118.71012050
_cell_angle_gamma   90.95225161
_symmetry_Int_Tables_number   1
_chemical_formula_structural   K2Cd2F7
_chemical_formula_sum   'K4 Cd4 F14'
_cell_volume   396.94997407
_cell_formula_units_Z   2
loop_
 _symmetry_equiv_pos_site_id
 _symmetry_equiv_pos_as_xyz
  1  'x, y, z'
loop_
 _atom_site_type_symbol
 _atom_site_label
 _atom_site_symmetry_multiplicity
 _atom_site_fract_x
 _atom_site_fract_y
 _atom_site_fract_z
 _atom_site_occupancy
  K  K0  1  0.111198  0.248700  0.862497  1
  K  K1  1  0.613797  0.751300  0.862497  1
  K  K2  1  0.611626  0.250618  0.862243  1
  K  K3  1  0.611626  0.749382  0.361008  1
  Cd  Cd4  1  0.612069  0.249697  0.362370  1
  Cd  Cd5  1  0.112673  0.750303  0.362370  1
  Cd  Cd6  1  0.112469  0.250199  0.362668  1
  Cd  Cd7  1  0.112469  0.749801  0.862268  1
  F  F8  1  0.485001  0.345008  0.139992  1
  F  F9  1  0.794984  0.654992  0.139992  1
  F  F10  1  0.795030  0.573436  0.631719  1
  F  F11  1  0.058282  0.426564  0.221592  1
  F  F12  1  0.058282  0.836689  0.631719  1
  F  F13  1  0.795030  0.163311  0.221592  1
  F  F14  1  0.429773  0.337448  0.503443  1
  F  F15  1  0.165995  0.662552  0.092326  1
  F  F16  1  0.165995  0.073669  0.503443  1
  F  F17  1  0.429773  0.926331  0.092326  1
  F  F18  1  0.010944  0.000000  0.010944  1
  F  F19  1  0.738480  0.154314  0.584166  1
  F  F20  1  0.429852  0.845686  0.584166  1
  F  F21  1  0.214156  0.500000  0.714156  1
