# generated using pymatgen
data_Y3Tm(OsC2)2
_symmetry_space_group_name_H-M   'P 1'
_cell_length_a   5.12317600
_cell_length_b   6.45795423
_cell_length_c   9.75613528
_cell_angle_alpha   90.33506973
_cell_angle_beta   90.00000000
_cell_angle_gamma   90.00000000
_symmetry_Int_Tables_number   1
_chemical_formula_structural   Y3Tm(OsC2)2
_chemical_formula_sum   'Y6 Tm2 Os4 C8'
_cell_volume   322.77851984
_cell_formula_units_Z   2
loop_
 _symmetry_equiv_pos_site_id
 _symmetry_equiv_pos_as_xyz
  1  'x, y, z'
loop_
 _atom_site_type_symbol
 _atom_site_label
 _atom_site_symmetry_multiplicity
 _atom_site_fract_x
 _atom_site_fract_y
 _atom_site_fract_z
 _atom_site_occupancy
  Y  Y0  1  0.750000  0.815630  0.053004  1
  Y  Y1  1  0.250000  0.184370  0.946996  1
  Y  Y2  1  0.250000  0.527487  0.220463  1
  Y  Y3  1  0.750000  0.472513  0.779537  1
  Y  Y4  1  0.750000  0.972280  0.715549  1
  Y  Y5  1  0.250000  0.027720  0.284451  1
  Tm  Tm6  1  0.250000  0.678576  0.552880  1
  Tm  Tm7  1  0.750000  0.321424  0.447120  1
  Os  Os8  1  0.250000  0.726002  0.863134  1
  Os  Os9  1  0.750000  0.273998  0.136866  1
  Os  Os10  1  0.750000  0.774934  0.367614  1
  Os  Os11  1  0.250000  0.225066  0.632386  1
  C  C12  1  0.250000  0.460984  0.756084  1
  C  C13  1  0.750000  0.539016  0.243916  1
  C  C14  1  0.750000  0.040057  0.261247  1
  C  C15  1  0.250000  0.959943  0.738753  1
  C  C16  1  0.250000  0.823960  0.051465  1
  C  C17  1  0.750000  0.176040  0.948535  1
  C  C18  1  0.750000  0.669199  0.553968  1
  C  C19  1  0.250000  0.330801  0.446032  1
