# generated using pymatgen
data_Dy4AlPt
_symmetry_space_group_name_H-M   'P 1'
_cell_length_a   9.59972413
_cell_length_b   9.59972507
_cell_length_c   9.59972500
_cell_angle_alpha   60.00000369
_cell_angle_beta   60.00000044
_cell_angle_gamma   60.00000155
_symmetry_Int_Tables_number   1
_chemical_formula_structural   Dy4AlPt
_chemical_formula_sum   'Dy16 Al4 Pt4'
_cell_volume   625.54903853
_cell_formula_units_Z   4
loop_
 _symmetry_equiv_pos_site_id
 _symmetry_equiv_pos_as_xyz
  1  'x, y, z'
loop_
 _atom_site_type_symbol
 _atom_site_label
 _atom_site_symmetry_multiplicity
 _atom_site_fract_x
 _atom_site_fract_y
 _atom_site_fract_z
 _atom_site_occupancy
  Dy  Dy0  1  0.353795  0.353795  0.353795  1
  Dy  Dy1  1  0.353795  0.353795  0.938616  1
  Dy  Dy2  1  0.353795  0.938616  0.353795  1
  Dy  Dy3  1  0.938616  0.353795  0.353795  1
  Dy  Dy4  1  0.806777  0.193223  0.193223  1
  Dy  Dy5  1  0.193223  0.806777  0.806777  1
  Dy  Dy6  1  0.193223  0.806777  0.193223  1
  Dy  Dy7  1  0.806777  0.193223  0.806777  1
  Dy  Dy8  1  0.193223  0.193223  0.806777  1
  Dy  Dy9  1  0.806777  0.806777  0.193223  1
  Dy  Dy10  1  0.935866  0.564134  0.564134  1
  Dy  Dy11  1  0.564134  0.935866  0.935866  1
  Dy  Dy12  1  0.564134  0.935866  0.564134  1
  Dy  Dy13  1  0.935866  0.564133  0.935866  1
  Dy  Dy14  1  0.564134  0.564134  0.935866  1
  Dy  Dy15  1  0.935866  0.935866  0.564133  1
  Al  Al16  1  0.577792  0.577792  0.577792  1
  Al  Al17  1  0.577792  0.577792  0.266624  1
  Al  Al18  1  0.577792  0.266624  0.577792  1
  Al  Al19  1  0.266624  0.577792  0.577792  1
  Pt  Pt20  1  0.143348  0.143348  0.143348  1
  Pt  Pt21  1  0.143348  0.143348  0.569958  1
  Pt  Pt22  1  0.143348  0.569958  0.143348  1
  Pt  Pt23  1  0.569958  0.143348  0.143348  1
