# generated using pymatgen
data_Zr10AlGe(BiPb2)2
_symmetry_space_group_name_H-M   'P 1'
_cell_length_a   8.87560209
_cell_length_b   8.87347496
_cell_length_c   5.95670301
_cell_angle_alpha   90.00646050
_cell_angle_beta   89.99677059
_cell_angle_gamma   119.99206278
_symmetry_Int_Tables_number   1
_chemical_formula_structural   Zr10AlGe(BiPb2)2
_chemical_formula_sum   'Zr10 Al1 Ge1 Bi2 Pb4'
_cell_volume   406.31500229
_cell_formula_units_Z   1
loop_
 _symmetry_equiv_pos_site_id
 _symmetry_equiv_pos_as_xyz
  1  'x, y, z'
loop_
 _atom_site_type_symbol
 _atom_site_label
 _atom_site_symmetry_multiplicity
 _atom_site_fract_x
 _atom_site_fract_y
 _atom_site_fract_z
 _atom_site_occupancy
  Zr  Zr0  1  0.666856  0.333303  0.001090  1
  Zr  Zr1  1  0.333144  0.666449  0.001090  1
  Zr  Zr2  1  0.333132  0.666467  0.499141  1
  Zr  Zr3  1  0.666868  0.333335  0.499141  1
  Zr  Zr4  1  0.736036  0.735764  0.752783  1
  Zr  Zr5  1  0.263964  0.999728  0.752783  1
  Zr  Zr6  1  0.000000  0.264016  0.752851  1
  Zr  Zr7  1  0.264635  0.264146  0.247092  1
  Zr  Zr8  1  0.735365  0.999512  0.247092  1
  Zr  Zr9  1  0.000000  0.735135  0.247367  1
  Al  Al10  1  0.000000  0.999808  0.499927  1
  Ge  Ge11  1  0.000000  0.000041  0.000226  1
  Bi  Bi12  1  0.391044  0.391101  0.747627  1
  Bi  Bi13  1  0.608956  0.000056  0.747627  1
  Pb  Pb14  1  0.000000  0.611087  0.747456  1
  Pb  Pb15  1  0.611624  0.611110  0.252228  1
  Pb  Pb16  1  0.388376  0.999486  0.252228  1
  Pb  Pb17  1  0.000000  0.389455  0.252253  1
