# generated using pymatgen
data_Ba6U2Cr(FeO6)3
_symmetry_space_group_name_H-M   'P 1'
_cell_length_a   5.92808300
_cell_length_b   5.92808457
_cell_length_c   14.74856600
_cell_angle_alpha   89.99996437
_cell_angle_beta   89.99998257
_cell_angle_gamma   120.00001614
_symmetry_Int_Tables_number   1
_chemical_formula_structural   Ba6U2Cr(FeO6)3
_chemical_formula_sum   'Ba6 U2 Cr1 Fe3 O18'
_cell_volume   448.85805526
_cell_formula_units_Z   1
loop_
 _symmetry_equiv_pos_site_id
 _symmetry_equiv_pos_as_xyz
  1  'x, y, z'
loop_
 _atom_site_type_symbol
 _atom_site_label
 _atom_site_symmetry_multiplicity
 _atom_site_fract_x
 _atom_site_fract_y
 _atom_site_fract_z
 _atom_site_occupancy
  Ba  Ba0  1  0.000000  0.000001  0.250327  1
  Ba  Ba1  1  0.000000  0.000000  0.749533  1
  Ba  Ba2  1  0.333333  0.666667  0.111778  1
  Ba  Ba3  1  0.666667  0.333333  0.611457  1
  Ba  Ba4  1  0.666667  0.333333  0.887762  1
  Ba  Ba5  1  0.333333  0.666666  0.388749  1
  U  U6  1  0.000000  0.000000  0.999977  1
  U  U7  1  0.000000  0.000000  0.500872  1
  Cr  Cr8  1  0.333333  0.666666  0.661281  1
  Fe  Fe9  1  0.333334  0.666668  0.839026  1
  Fe  Fe10  1  0.666666  0.333333  0.339059  1
  Fe  Fe11  1  0.666665  0.333335  0.161345  1
  O  O12  1  0.513795  0.486205  0.249994  1
  O  O13  1  0.030682  0.515341  0.749216  1
  O  O14  1  0.484659  0.969317  0.749216  1
  O  O15  1  0.513795  0.027590  0.249994  1
  O  O16  1  0.972410  0.486204  0.249994  1
  O  O17  1  0.484659  0.515341  0.749216  1
  O  O18  1  0.834368  0.165632  0.082667  1
  O  O19  1  0.668091  0.834044  0.583208  1
  O  O20  1  0.165955  0.331908  0.583208  1
  O  O21  1  0.834367  0.668736  0.082668  1
  O  O22  1  0.331265  0.165633  0.082668  1
  O  O23  1  0.668872  0.834436  0.917130  1
  O  O24  1  0.165565  0.331128  0.917130  1
  O  O25  1  0.165955  0.834044  0.583207  1
  O  O26  1  0.165564  0.834436  0.917130  1
  O  O27  1  0.834686  0.165314  0.417396  1
  O  O28  1  0.330628  0.165315  0.417395  1
  O  O29  1  0.834685  0.669372  0.417395  1
