# generated using pymatgen
data_Tb2Y2Lu(SiB4)2
_symmetry_space_group_name_H-M   'P 1'
_cell_length_a   7.22011601
_cell_length_b   7.22011402
_cell_length_c   8.05775601
_cell_angle_alpha   89.99345171
_cell_angle_beta   90.00003025
_cell_angle_gamma   90.00542794
_symmetry_Int_Tables_number   1
_chemical_formula_structural   Tb2Y2Lu(SiB4)2
_chemical_formula_sum   'Tb4 Y4 Lu2 Si4 B16'
_cell_volume   420.05130637
_cell_formula_units_Z   2
loop_
 _symmetry_equiv_pos_site_id
 _symmetry_equiv_pos_as_xyz
  1  'x, y, z'
loop_
 _atom_site_type_symbol
 _atom_site_label
 _atom_site_symmetry_multiplicity
 _atom_site_fract_x
 _atom_site_fract_y
 _atom_site_fract_z
 _atom_site_occupancy
  Tb  Tb0  1  0.680294  0.180249  0.225843  1
  Tb  Tb1  1  0.319620  0.819677  0.774000  1
  Tb  Tb2  1  0.319758  0.819720  0.225943  1
  Tb  Tb3  1  0.819608  0.680362  0.225752  1
  Y  Y4  1  0.819644  0.680369  0.774667  1
  Y  Y5  1  0.680244  0.180303  0.774562  1
  Y  Y6  1  0.180381  0.319632  0.774751  1
  Y  Y7  1  0.180276  0.319704  0.225191  1
  Lu  Lu8  1  0.999943  0.000060  0.500088  1
  Lu  Lu9  1  0.499942  0.499915  0.500083  1
  Si  Si10  1  0.115817  0.615637  0.500120  1
  Si  Si11  1  0.884217  0.384048  0.500121  1
  Si  Si12  1  0.384119  0.116042  0.500112  1
  Si  Si13  1  0.615902  0.884265  0.500135  1
  B  B14  1  0.172379  0.039098  0.999846  1
  B  B15  1  0.827677  0.960953  0.999946  1
  B  B16  1  0.960848  0.172364  0.999906  1
  B  B17  1  0.327715  0.539105  0.999843  1
  B  B18  1  0.039092  0.827746  0.999886  1
  B  B19  1  0.672330  0.460851  0.999949  1
  B  B20  1  0.539038  0.672308  0.999902  1
  B  B21  1  0.460900  0.327600  0.999891  1
  B  B22  1  0.089841  0.589789  0.999940  1
  B  B23  1  0.910272  0.410215  0.000061  1
  B  B24  1  0.410240  0.089808  0.999942  1
  B  B25  1  0.589866  0.910175  0.000060  1
  B  B26  1  0.000006  0.000101  0.162890  1
  B  B27  1  0.000012  0.000084  0.836843  1
  B  B28  1  0.500022  0.499871  0.836839  1
  B  B29  1  0.499998  0.499949  0.162888  1
