# generated using pymatgen
data_Li3Th8AlSi12
_symmetry_space_group_name_H-M   'P 1'
_cell_length_a   8.24052900
_cell_length_b   8.24052922
_cell_length_c   8.40180400
_cell_angle_alpha   90.00000000
_cell_angle_beta   90.00000000
_cell_angle_gamma   119.99999509
_symmetry_Int_Tables_number   1
_chemical_formula_structural   Li3Th8AlSi12
_chemical_formula_sum   'Li3 Th8 Al1 Si12'
_cell_volume   494.09834023
_cell_formula_units_Z   1
loop_
 _symmetry_equiv_pos_site_id
 _symmetry_equiv_pos_as_xyz
  1  'x, y, z'
loop_
 _atom_site_type_symbol
 _atom_site_label
 _atom_site_symmetry_multiplicity
 _atom_site_fract_x
 _atom_site_fract_y
 _atom_site_fract_z
 _atom_site_occupancy
  Li  Li0  1  0.333333  0.666667  0.495411  1
  Li  Li1  1  0.666667  0.333333  0.506066  1
  Li  Li2  1  0.666667  0.333333  0.995090  1
  Th  Th3  1  0.000000  0.000000  0.249778  1
  Th  Th4  1  0.000000  0.000000  0.750499  1
  Th  Th5  1  0.500250  0.499750  0.248282  1
  Th  Th6  1  0.500250  0.000500  0.248282  1
  Th  Th7  1  0.999500  0.499750  0.248282  1
  Th  Th8  1  0.498162  0.501838  0.751729  1
  Th  Th9  1  0.498162  0.996323  0.751729  1
  Th  Th10  1  0.003677  0.501838  0.751729  1
  Al  Al11  1  0.333333  0.666667  0.002141  1
  Si  Si12  1  0.167526  0.832474  0.500000  1
  Si  Si13  1  0.167526  0.335052  0.500000  1
  Si  Si14  1  0.664948  0.832474  0.500000  1
  Si  Si15  1  0.832589  0.167411  0.499980  1
  Si  Si16  1  0.832589  0.665179  0.499980  1
  Si  Si17  1  0.334821  0.167411  0.499980  1
  Si  Si18  1  0.831402  0.168598  0.999651  1
  Si  Si19  1  0.831402  0.662804  0.999651  1
  Si  Si20  1  0.337196  0.168598  0.999651  1
  Si  Si21  1  0.163901  0.836099  0.000697  1
  Si  Si22  1  0.163901  0.327803  0.000697  1
  Si  Si23  1  0.672197  0.836099  0.000697  1
