# generated using pymatgen
data_Y4Zn3In2Ru
_symmetry_space_group_name_H-M   'P 1'
_cell_length_a   7.71350301
_cell_length_b   7.71350256
_cell_length_c   3.82489500
_cell_angle_alpha   90.00000000
_cell_angle_beta   90.00000000
_cell_angle_gamma   90.25070246
_symmetry_Int_Tables_number   1
_chemical_formula_structural   Y4Zn3In2Ru
_chemical_formula_sum   'Y4 Zn3 In2 Ru1'
_cell_volume   227.57190329
_cell_formula_units_Z   1
loop_
 _symmetry_equiv_pos_site_id
 _symmetry_equiv_pos_as_xyz
  1  'x, y, z'
loop_
 _atom_site_type_symbol
 _atom_site_label
 _atom_site_symmetry_multiplicity
 _atom_site_fract_x
 _atom_site_fract_y
 _atom_site_fract_z
 _atom_site_occupancy
  Y  Y0  1  0.672606  0.172606  0.500000  1
  Y  Y1  1  0.309336  0.809336  0.500000  1
  Y  Y2  1  0.181160  0.346995  0.500000  1
  Y  Y3  1  0.846995  0.681160  0.500000  1
  Zn  Zn4  1  0.879843  0.379843  0.000000  1
  Zn  Zn5  1  0.615212  0.874246  0.000000  1
  Zn  Zn6  1  0.374246  0.115212  0.000000  1
  In  In7  1  0.501063  0.500209  0.000000  1
  In  In8  1  0.000209  0.001063  0.000000  1
  Ru  Ru9  1  0.119330  0.619330  0.000000  1
