# generated using pymatgen
data_Nd3Er(MoO6)2
_symmetry_space_group_name_H-M   'P 1'
_cell_length_a   5.50425335
_cell_length_b   10.18133527
_cell_length_c   10.18219403
_cell_angle_alpha   68.59912328
_cell_angle_beta   75.01281635
_cell_angle_gamma   75.01197858
_symmetry_Int_Tables_number   1
_chemical_formula_structural   Nd3Er(MoO6)2
_chemical_formula_sum   'Nd6 Er2 Mo4 O24'
_cell_volume   504.56960389
_cell_formula_units_Z   2
loop_
 _symmetry_equiv_pos_site_id
 _symmetry_equiv_pos_as_xyz
  1  'x, y, z'
loop_
 _atom_site_type_symbol
 _atom_site_label
 _atom_site_symmetry_multiplicity
 _atom_site_fract_x
 _atom_site_fract_y
 _atom_site_fract_z
 _atom_site_occupancy
  Nd  Nd0  1  0.621681  0.786357  0.552727  1
  Nd  Nd1  1  0.121717  0.552732  0.786400  1
  Nd  Nd2  1  0.378317  0.213658  0.447264  1
  Nd  Nd3  1  0.878277  0.447262  0.213606  1
  Nd  Nd4  1  0.750005  0.862772  0.137245  1
  Nd  Nd5  1  0.249993  0.137233  0.862757  1
  Er  Er6  1  0.750024  0.400046  0.599981  1
  Er  Er7  1  0.249966  0.599967  0.400022  1
  Mo  Mo8  1  0.067073  0.006961  0.297457  1
  Mo  Mo9  1  0.432951  0.702520  0.993072  1
  Mo  Mo10  1  0.932903  0.993052  0.702534  1
  Mo  Mo11  1  0.567072  0.297466  0.006930  1
  O  O12  1  0.925736  0.568970  0.606068  1
  O  O13  1  0.574264  0.393929  0.431015  1
  O  O14  1  0.074263  0.431026  0.393918  1
  O  O15  1  0.425743  0.606084  0.568957  1
  O  O16  1  0.943854  0.804293  0.338355  1
  O  O17  1  0.556003  0.661671  0.195670  1
  O  O18  1  0.056144  0.195720  0.661627  1
  O  O19  1  0.444031  0.338324  0.804344  1
  O  O20  1  0.379605  0.890361  0.329156  1
  O  O21  1  0.120338  0.670872  0.109652  1
  O  O22  1  0.620408  0.109644  0.670850  1
  O  O23  1  0.879658  0.329111  0.890362  1
  O  O24  1  0.632235  0.289523  0.177981  1
  O  O25  1  0.867757  0.822040  0.710414  1
  O  O26  1  0.367720  0.710454  0.822043  1
  O  O27  1  0.132271  0.177974  0.289574  1
  O  O28  1  0.522728  0.116034  0.043577  1
  O  O29  1  0.977252  0.956457  0.883883  1
  O  O30  1  0.763626  0.023069  0.426743  1
  O  O31  1  0.022756  0.043544  0.116129  1
  O  O32  1  0.263596  0.426719  0.023090  1
  O  O33  1  0.236402  0.976931  0.573251  1
  O  O34  1  0.736385  0.573279  0.976917  1
  O  O35  1  0.477253  0.883945  0.956436  1
