# generated using pymatgen
data_Zr5AlSnSb2
_symmetry_space_group_name_H-M   'P 1'
_cell_length_a   8.71106471
_cell_length_b   8.72498641
_cell_length_c   5.89049400
_cell_angle_alpha   90.00000000
_cell_angle_beta   90.00000000
_cell_angle_gamma   120.05288039
_symmetry_Int_Tables_number   1
_chemical_formula_structural   Zr5AlSnSb2
_chemical_formula_sum   'Zr10 Al2 Sn2 Sb4'
_cell_volume   387.51336445
_cell_formula_units_Z   2
loop_
 _symmetry_equiv_pos_site_id
 _symmetry_equiv_pos_as_xyz
  1  'x, y, z'
loop_
 _atom_site_type_symbol
 _atom_site_label
 _atom_site_symmetry_multiplicity
 _atom_site_fract_x
 _atom_site_fract_y
 _atom_site_fract_z
 _atom_site_occupancy
  Zr  Zr0  1  0.727476  0.726198  0.750000  1
  Zr  Zr1  1  0.272524  0.998722  0.750000  1
  Zr  Zr2  1  0.000000  0.275504  0.750000  1
  Zr  Zr3  1  0.268020  0.267309  0.250000  1
  Zr  Zr4  1  0.731980  0.999289  0.250000  1
  Zr  Zr5  1  0.000000  0.732267  0.250000  1
  Zr  Zr6  1  0.667587  0.334092  0.998688  1
  Zr  Zr7  1  0.332413  0.666506  0.998688  1
  Zr  Zr8  1  0.332413  0.666506  0.501312  1
  Zr  Zr9  1  0.667587  0.334092  0.501312  1
  Al  Al10  1  0.000000  0.001522  0.993364  1
  Al  Al11  1  0.000000  0.001522  0.506636  1
  Sn  Sn12  1  0.382767  0.382775  0.750000  1
  Sn  Sn13  1  0.617233  0.000008  0.750000  1
  Sb  Sb14  1  0.000000  0.615166  0.750000  1
  Sb  Sb15  1  0.609675  0.610428  0.250000  1
  Sb  Sb16  1  0.390325  0.000753  0.250000  1
  Sb  Sb17  1  0.000000  0.387339  0.250000  1
