# generated using pymatgen
data_Yb5Pr4HoPt8
_symmetry_space_group_name_H-M   'P 1'
_cell_length_a   7.56166073
_cell_length_b   7.73249800
_cell_length_c   14.45705400
_cell_angle_alpha   90.00000000
_cell_angle_beta   90.16858408
_cell_angle_gamma   90.00000000
_symmetry_Int_Tables_number   1
_chemical_formula_structural   Yb5Pr4HoPt8
_chemical_formula_sum   'Yb10 Pr8 Ho2 Pt16'
_cell_volume   845.30789975
_cell_formula_units_Z   2
loop_
 _symmetry_equiv_pos_site_id
 _symmetry_equiv_pos_as_xyz
  1  'x, y, z'
loop_
 _atom_site_type_symbol
 _atom_site_label
 _atom_site_symmetry_multiplicity
 _atom_site_fract_x
 _atom_site_fract_y
 _atom_site_fract_z
 _atom_site_occupancy
  Yb  Yb0  1  0.333983  0.167416  0.624642  1
  Yb  Yb1  1  0.665475  0.833440  0.375333  1
  Yb  Yb2  1  0.668204  0.004827  0.750179  1
  Yb  Yb3  1  0.165475  0.666560  0.375333  1
  Yb  Yb4  1  0.834492  0.334667  0.877423  1
  Yb  Yb5  1  0.833983  0.332584  0.624642  1
  Yb  Yb6  1  0.830443  0.500086  0.251230  1
  Yb  Yb7  1  0.330443  0.999914  0.251230  1
  Yb  Yb8  1  0.334492  0.165333  0.877423  1
  Yb  Yb9  1  0.168204  0.495173  0.750179  1
  Pr  Pr10  1  0.006691  0.181459  0.403765  1
  Pr  Pr11  1  0.506691  0.318541  0.403765  1
  Pr  Pr12  1  0.492800  0.678501  0.901810  1
  Pr  Pr13  1  0.492697  0.678812  0.597120  1
  Pr  Pr14  1  0.992697  0.821188  0.597120  1
  Pr  Pr15  1  0.992800  0.821499  0.901810  1
  Pr  Pr16  1  0.508745  0.321445  0.096432  1
  Pr  Pr17  1  0.008745  0.178555  0.096432  1
  Ho  Ho18  1  0.165027  0.666491  0.124332  1
  Ho  Ho19  1  0.665027  0.833509  0.124332  1
  Pt  Pt20  1  0.294954  0.856213  0.749937  1
  Pt  Pt21  1  0.463714  0.620816  0.244130  1
  Pt  Pt22  1  0.035635  0.116146  0.751879  1
  Pt  Pt23  1  0.535635  0.383854  0.751879  1
  Pt  Pt24  1  0.174765  0.465581  0.538431  1
  Pt  Pt25  1  0.963714  0.879184  0.244130  1
  Pt  Pt26  1  0.705241  0.140157  0.248782  1
  Pt  Pt27  1  0.826863  0.545285  0.040180  1
  Pt  Pt28  1  0.326863  0.954715  0.040180  1
  Pt  Pt29  1  0.177067  0.464348  0.964248  1
  Pt  Pt30  1  0.674765  0.034419  0.538431  1
  Pt  Pt31  1  0.323201  0.966535  0.460146  1
  Pt  Pt32  1  0.823201  0.533465  0.460146  1
  Pt  Pt33  1  0.794954  0.643787  0.749937  1
  Pt  Pt34  1  0.205241  0.359843  0.248782  1
  Pt  Pt35  1  0.677067  0.035652  0.964248  1
