# generated using pymatgen
data_Nb3TeI6Br
_symmetry_space_group_name_H-M   'P 1'
_cell_length_a   7.70251236
_cell_length_b   7.67374515
_cell_length_c   7.34043341
_cell_angle_alpha   89.99999897
_cell_angle_beta   90.28322025
_cell_angle_gamma   119.87654011
_symmetry_Int_Tables_number   1
_chemical_formula_structural   Nb3TeI6Br
_chemical_formula_sum   'Nb3 Te1 I6 Br1'
_cell_volume   376.20451251
_cell_formula_units_Z   1
loop_
 _symmetry_equiv_pos_site_id
 _symmetry_equiv_pos_as_xyz
  1  'x, y, z'
loop_
 _atom_site_type_symbol
 _atom_site_label
 _atom_site_symmetry_multiplicity
 _atom_site_fract_x
 _atom_site_fract_y
 _atom_site_fract_z
 _atom_site_occupancy
  Nb  Nb0  1  0.263635  0.131817  0.500949  1
  Nb  Nb1  1  0.866287  0.130549  0.500296  1
  Nb  Nb2  1  0.866287  0.735738  0.500296  1
  Te  Te3  1  0.998559  0.999279  0.215187  1
  I  I4  1  0.497883  0.997277  0.289317  1
  I  I5  1  0.166882  0.831165  0.754645  1
  I  I6  1  0.000678  0.500339  0.292739  1
  I  I7  1  0.664218  0.332108  0.703368  1
  I  I8  1  0.166882  0.335716  0.754645  1
  I  I9  1  0.497883  0.500607  0.289317  1
  Br  Br10  1  0.677475  0.838737  0.728838  1
