# generated using pymatgen
data_La9NdIn6
_symmetry_space_group_name_H-M   'P 1'
_cell_length_a   6.31760433
_cell_length_b   9.59013597
_cell_length_c   9.59013600
_cell_angle_alpha   83.77164298
_cell_angle_beta   70.76882777
_cell_angle_gamma   70.76883558
_symmetry_Int_Tables_number   1
_chemical_formula_structural   La9NdIn6
_chemical_formula_sum   'La9 Nd1 In6'
_cell_volume   517.99729263
_cell_formula_units_Z   1
loop_
 _symmetry_equiv_pos_site_id
 _symmetry_equiv_pos_as_xyz
  1  'x, y, z'
loop_
 _atom_site_type_symbol
 _atom_site_label
 _atom_site_symmetry_multiplicity
 _atom_site_fract_x
 _atom_site_fract_y
 _atom_site_fract_z
 _atom_site_occupancy
  La  La0  1  0.723604  0.864304  0.692958  1
  La  La1  1  0.280866  0.135696  0.307042  1
  La  La2  1  0.776396  0.307042  0.135696  1
  La  La3  1  0.219134  0.692958  0.864304  1
  La  La4  1  0.583438  0.692958  0.135696  1
  La  La5  1  0.412092  0.307042  0.864304  1
  La  La6  1  0.087908  0.135696  0.692958  1
  La  La7  1  0.916562  0.864304  0.307042  1
  La  La8  1  0.750000  0.500000  0.500000  1
  Nd  Nd9  1  0.250000  0.500000  0.500000  1
  In  In10  1  0.165078  0.500000  0.179751  1
  In  In11  1  0.844829  0.500000  0.820249  1
  In  In12  1  0.334922  0.820249  0.500000  1
  In  In13  1  0.655171  0.179751  0.500000  1
  In  In14  1  0.250000  0.000000  0.000000  1
  In  In15  1  0.750000  0.000000  0.000000  1
