# generated using pymatgen
data_DyY2Th(Al8Pt3)3
_symmetry_space_group_name_H-M   'P 1'
_cell_length_a   7.56567264
_cell_length_b   7.58263725
_cell_length_c   13.18811716
_cell_angle_alpha   84.52877460
_cell_angle_beta   78.99394832
_cell_angle_gamma   59.90658986
_symmetry_Int_Tables_number   1
_chemical_formula_structural   DyY2Th(Al8Pt3)3
_chemical_formula_sum   'Dy1 Y2 Th1 Al24 Pt9'
_cell_volume   642.55352912
_cell_formula_units_Z   1
loop_
 _symmetry_equiv_pos_site_id
 _symmetry_equiv_pos_as_xyz
  1  'x, y, z'
loop_
 _atom_site_type_symbol
 _atom_site_label
 _atom_site_symmetry_multiplicity
 _atom_site_fract_x
 _atom_site_fract_y
 _atom_site_fract_z
 _atom_site_occupancy
  Dy  Dy0  1  0.266158  0.501272  0.193191  1
  Y  Y1  1  0.606030  0.831475  0.192990  1
  Y  Y2  1  0.733411  0.499083  0.807698  1
  Th  Th3  1  0.394244  0.167915  0.807171  1
  Al  Al4  1  0.686998  0.830643  0.946759  1
  Al  Al5  1  0.314922  0.166267  0.058163  1
  Al  Al6  1  0.146817  0.832676  0.560495  1
  Al  Al7  1  0.854030  0.167494  0.437827  1
  Al  Al8  1  0.481022  0.166489  0.556653  1
  Al  Al9  1  0.520207  0.832517  0.440763  1
  Al  Al10  1  0.217348  0.165468  0.329813  1
  Al  Al11  1  0.787434  0.831010  0.667178  1
  Al  Al12  1  0.438289  0.510352  0.667581  1
  Al  Al13  1  0.562590  0.493620  0.329530  1
  Al  Al14  1  0.106887  0.159930  0.666086  1
  Al  Al15  1  0.890251  0.839836  0.330893  1
  Al  Al16  1  0.351728  0.502750  0.946790  1
  Al  Al17  1  0.646601  0.500917  0.056382  1
  Al  Al18  1  0.011760  0.167360  0.956118  1
  Al  Al19  1  0.984183  0.832037  0.048267  1
  Al  Al20  1  0.185860  0.500199  0.440849  1
  Al  Al21  1  0.813592  0.500454  0.558273  1
  Al  Al22  1  0.734163  0.164084  0.183630  1
  Al  Al23  1  0.264697  0.832780  0.816495  1
  Al  Al24  1  0.058659  0.635004  0.815333  1
  Al  Al25  1  0.938004  0.369397  0.185040  1
  Al  Al26  1  0.859404  0.040722  0.816219  1
  Al  Al27  1  0.144438  0.957913  0.184350  1
  Pt  Pt28  1  0.121474  0.491004  0.638682  1
  Pt  Pt29  1  0.879909  0.507884  0.361409  1
  Pt  Pt30  1  0.656641  0.171423  0.999742  1
  Pt  Pt31  1  0.342784  0.829423  0.999919  1
  Pt  Pt32  1  0.537596  0.166988  0.361241  1
  Pt  Pt33  1  0.461884  0.834447  0.638564  1
  Pt  Pt34  1  0.778094  0.174872  0.637369  1
  Pt  Pt35  1  0.220866  0.825101  0.362745  1
  Pt  Pt36  1  0.001022  0.499194  0.999793  1
