# generated using pymatgen
data_CaTcAs2Rh
_symmetry_space_group_name_H-M   'P 1'
_cell_length_a   6.09163435
_cell_length_b   6.09163360
_cell_length_c   6.09163232
_cell_angle_alpha   139.40229544
_cell_angle_beta   139.40230482
_cell_angle_gamma   58.76196512
_symmetry_Int_Tables_number   1
_chemical_formula_structural   CaTcAs2Rh
_chemical_formula_sum   'Ca1 Tc1 As2 Rh1'
_cell_volume   94.82392902
_cell_formula_units_Z   1
loop_
 _symmetry_equiv_pos_site_id
 _symmetry_equiv_pos_as_xyz
  1  'x, y, z'
loop_
 _atom_site_type_symbol
 _atom_site_label
 _atom_site_symmetry_multiplicity
 _atom_site_fract_x
 _atom_site_fract_y
 _atom_site_fract_z
 _atom_site_occupancy
  Ca  Ca0  1  0.000000  0.000000  0.000000  1
  Tc  Tc1  1  0.750000  0.250000  0.500000  1
  As  As2  1  0.368052  0.368052  0.000000  1
  As  As3  1  0.631948  0.631948  0.000000  1
  Rh  Rh4  1  0.250000  0.750000  0.500000  1
