# generated using pymatgen
data_Ac12Co(RuBr4)3
_symmetry_space_group_name_H-M   'P 1'
_cell_length_a   11.03030018
_cell_length_b   10.96438387
_cell_length_c   10.96438279
_cell_angle_alpha   109.34911579
_cell_angle_beta   109.59304700
_cell_angle_gamma   109.59304901
_symmetry_Int_Tables_number   1
_chemical_formula_structural   Ac12Co(RuBr4)3
_chemical_formula_sum   'Ac12 Co1 Ru3 Br12'
_cell_volume   1019.24526359
_cell_formula_units_Z   1
loop_
 _symmetry_equiv_pos_site_id
 _symmetry_equiv_pos_as_xyz
  1  'x, y, z'
loop_
 _atom_site_type_symbol
 _atom_site_label
 _atom_site_symmetry_multiplicity
 _atom_site_fract_x
 _atom_site_fract_y
 _atom_site_fract_z
 _atom_site_occupancy
  Ac  Ac0  1  0.464450  0.482962  0.231488  1
  Ac  Ac1  1  0.750000  0.233453  0.266547  1
  Ac  Ac2  1  0.750000  0.015501  0.484499  1
  Ac  Ac3  1  0.234499  0.468997  0.484499  1
  Ac  Ac4  1  0.267038  0.748525  0.231488  1
  Ac  Ac5  1  0.035550  0.268512  0.017038  1
  Ac  Ac6  1  0.016547  0.033095  0.266547  1
  Ac  Ac7  1  0.481488  0.748525  0.017038  1
  Ac  Ac8  1  0.483453  0.233453  0.466905  1
  Ac  Ac9  1  0.018512  0.482962  0.751475  1
  Ac  Ac10  1  0.265501  0.015501  0.031003  1
  Ac  Ac11  1  0.232962  0.268512  0.751475  1
  Co  Co12  1  0.250000  0.500000  0.000000  1
  Ru  Ru13  1  0.250000  0.251623  0.248377  1
  Ru  Ru14  1  0.498377  0.996755  0.248377  1
  Ru  Ru15  1  0.001623  0.251623  0.503245  1
  Br  Br16  1  0.250000  0.756489  0.743511  1
  Br  Br17  1  0.512065  0.506282  0.756029  1
  Br  Br18  1  0.987935  0.743971  0.993718  1
  Br  Br19  1  0.743966  0.249747  0.756029  1
  Br  Br20  1  0.993511  0.987021  0.743511  1
  Br  Br21  1  0.250000  0.994168  0.505832  1
  Br  Br22  1  0.755832  0.511665  0.505832  1
  Br  Br23  1  0.505782  0.249747  0.993718  1
  Br  Br24  1  0.756034  0.743971  0.250253  1
  Br  Br25  1  0.744168  0.994168  0.988335  1
  Br  Br26  1  0.994218  0.506282  0.250253  1
  Br  Br27  1  0.506489  0.756489  0.512979  1
