# generated using pymatgen
data_U4SiGe5Ru7
_symmetry_space_group_name_H-M   'P 1'
_cell_length_a   7.19566179
_cell_length_b   7.19566151
_cell_length_c   7.19566226
_cell_angle_alpha   109.37871765
_cell_angle_beta   109.65639950
_cell_angle_gamma   109.37870141
_symmetry_Int_Tables_number   1
_chemical_formula_structural   U4SiGe5Ru7
_chemical_formula_sum   'U4 Si1 Ge5 Ru7'
_cell_volume   286.80515697
_cell_formula_units_Z   1
loop_
 _symmetry_equiv_pos_site_id
 _symmetry_equiv_pos_as_xyz
  1  'x, y, z'
loop_
 _atom_site_type_symbol
 _atom_site_label
 _atom_site_symmetry_multiplicity
 _atom_site_fract_x
 _atom_site_fract_y
 _atom_site_fract_z
 _atom_site_occupancy
  U  U0  1  0.998941  0.000000  0.502830  1
  U  U1  1  0.502830  0.000000  0.998941  1
  U  U2  1  0.998941  0.496111  0.998941  1
  U  U3  1  0.502830  0.503889  0.502830  1
  Si  Si4  1  0.685486  0.000000  0.685486  1
  Ge  Ge5  1  0.305649  0.000000  0.305649  1
  Ge  Ge6  1  0.000779  0.308491  0.309271  1
  Ge  Ge7  1  0.000779  0.691509  0.692288  1
  Ge  Ge8  1  0.309271  0.308491  0.000779  1
  Ge  Ge9  1  0.692288  0.691509  0.000779  1
  Ru  Ru10  1  0.751225  0.500000  0.251225  1
  Ru  Ru11  1  0.502866  0.751890  0.254756  1
  Ru  Ru12  1  0.502866  0.248110  0.750976  1
  Ru  Ru13  1  0.750976  0.248110  0.502866  1
  Ru  Ru14  1  0.254756  0.751890  0.502866  1
  Ru  Ru15  1  0.251225  0.500000  0.751225  1
  Ru  Ru16  1  0.988293  0.000000  0.988293  1
