# generated using pymatgen
data_Nd4HgPb11
_symmetry_space_group_name_H-M   'P 1'
_cell_length_a   10.01541600
_cell_length_b   6.89360755
_cell_length_c   6.88901418
_cell_angle_alpha   89.95579490
_cell_angle_beta   90.00000000
_cell_angle_gamma   90.00000000
_symmetry_Int_Tables_number   1
_chemical_formula_structural   Nd4HgPb11
_chemical_formula_sum   'Nd4 Hg1 Pb11'
_cell_volume   475.63356803
_cell_formula_units_Z   1
loop_
 _symmetry_equiv_pos_site_id
 _symmetry_equiv_pos_as_xyz
  1  'x, y, z'
loop_
 _atom_site_type_symbol
 _atom_site_label
 _atom_site_symmetry_multiplicity
 _atom_site_fract_x
 _atom_site_fract_y
 _atom_site_fract_z
 _atom_site_occupancy
  Nd  Nd0  1  0.250000  0.005070  0.001693  1
  Nd  Nd1  1  0.250000  0.497258  0.503106  1
  Nd  Nd2  1  0.750000  0.996710  0.999014  1
  Nd  Nd3  1  0.750000  0.504137  0.498800  1
  Hg  Hg4  1  0.750000  0.495221  0.996606  1
  Pb  Pb5  1  0.996580  0.246527  0.746700  1
  Pb  Pb6  1  0.504010  0.254209  0.246361  1
  Pb  Pb7  1  0.501887  0.751349  0.251160  1
  Pb  Pb8  1  0.997565  0.745728  0.754437  1
  Pb  Pb9  1  0.998113  0.751349  0.251160  1
  Pb  Pb10  1  0.502435  0.745728  0.754437  1
  Pb  Pb11  1  0.503420  0.246527  0.746700  1
  Pb  Pb12  1  0.995990  0.254209  0.246361  1
  Pb  Pb13  1  0.250000  0.998085  0.501440  1
  Pb  Pb14  1  0.250000  0.504705  0.003112  1
  Pb  Pb15  1  0.750000  0.003186  0.498915  1
