# generated using pymatgen
data_Ca2Yb10Sn4N3
_symmetry_space_group_name_H-M   'P 1'
_cell_length_a   4.87739300
_cell_length_b   4.87739300
_cell_length_c   19.57385100
_cell_angle_alpha   90.00000000
_cell_angle_beta   90.00000000
_cell_angle_gamma   90.00000000
_symmetry_Int_Tables_number   1
_chemical_formula_structural   Ca2Yb10Sn4N3
_chemical_formula_sum   'Ca2 Yb10 Sn4 N3'
_cell_volume   465.64160696
_cell_formula_units_Z   1
loop_
 _symmetry_equiv_pos_site_id
 _symmetry_equiv_pos_as_xyz
  1  'x, y, z'
loop_
 _atom_site_type_symbol
 _atom_site_label
 _atom_site_symmetry_multiplicity
 _atom_site_fract_x
 _atom_site_fract_y
 _atom_site_fract_z
 _atom_site_occupancy
  Ca  Ca0  1  0.500000  0.000000  0.000000  1
  Ca  Ca1  1  0.000000  0.500000  0.000000  1
  Yb  Yb2  1  0.500000  0.500000  0.864334  1
  Yb  Yb3  1  0.500000  0.500000  0.135666  1
  Yb  Yb4  1  0.500000  0.500000  0.377183  1
  Yb  Yb5  1  0.500000  0.500000  0.622817  1
  Yb  Yb6  1  0.500000  0.000000  0.253221  1
  Yb  Yb7  1  0.500000  0.000000  0.500000  1
  Yb  Yb8  1  0.500000  0.000000  0.746779  1
  Yb  Yb9  1  0.000000  0.500000  0.253221  1
  Yb  Yb10  1  0.000000  0.500000  0.500000  1
  Yb  Yb11  1  0.000000  0.500000  0.746779  1
  Sn  Sn12  1  0.000000  0.000000  0.880251  1
  Sn  Sn13  1  0.000000  0.000000  0.119749  1
  Sn  Sn14  1  0.000000  0.000000  0.375069  1
  Sn  Sn15  1  0.000000  0.000000  0.624931  1
  N  N16  1  0.500000  0.500000  0.248994  1
  N  N17  1  0.500000  0.500000  0.500000  1
  N  N18  1  0.500000  0.500000  0.751006  1
