# generated using pymatgen
data_VSbF10
_symmetry_space_group_name_H-M   'P 1'
_cell_length_a   6.13992992
_cell_length_b   6.13993007
_cell_length_c   11.69666100
_cell_angle_alpha   90.00000000
_cell_angle_beta   90.00000000
_cell_angle_gamma   97.21439128
_symmetry_Int_Tables_number   1
_chemical_formula_structural   VSbF10
_chemical_formula_sum   'V2 Sb2 F20'
_cell_volume   437.45847331
_cell_formula_units_Z   2
loop_
 _symmetry_equiv_pos_site_id
 _symmetry_equiv_pos_as_xyz
  1  'x, y, z'
loop_
 _atom_site_type_symbol
 _atom_site_label
 _atom_site_symmetry_multiplicity
 _atom_site_fract_x
 _atom_site_fract_y
 _atom_site_fract_z
 _atom_site_occupancy
  V  V0  1  0.662894  0.662894  0.092260  1
  V  V1  1  0.837106  0.837106  0.592260  1
  Sb  Sb2  1  0.153802  0.153802  0.412790  1
  Sb  Sb3  1  0.346198  0.346198  0.912790  1
  F  F4  1  0.866275  0.130367  0.501538  1
  F  F5  1  0.995553  0.995553  0.294227  1
  F  F6  1  0.425775  0.104584  0.349586  1
  F  F7  1  0.395416  0.074225  0.849586  1
  F  F8  1  0.209228  0.209228  0.043605  1
  F  F9  1  0.633725  0.369633  0.001538  1
  F  F10  1  0.290772  0.290772  0.543605  1
  F  F11  1  0.104584  0.425775  0.349586  1
  F  F12  1  0.074225  0.395416  0.849586  1
  F  F13  1  0.504447  0.504447  0.794227  1
  F  F14  1  0.502882  0.502882  0.193681  1
  F  F15  1  0.912183  0.615947  0.149207  1
  F  F16  1  0.884053  0.587817  0.649207  1
  F  F17  1  0.726461  0.726461  0.462775  1
  F  F18  1  0.369633  0.633725  0.001538  1
  F  F19  1  0.773539  0.773539  0.962775  1
  F  F20  1  0.615947  0.912183  0.149207  1
  F  F21  1  0.587817  0.884053  0.649207  1
  F  F22  1  0.997118  0.997118  0.693681  1
  F  F23  1  0.130367  0.866275  0.501538  1
