# generated using pymatgen
data_YbCe5(TiSb5)2
_symmetry_space_group_name_H-M   'P 1'
_cell_length_a   9.36349600
_cell_length_b   9.35395144
_cell_length_c   6.27409300
_cell_angle_alpha   90.00000000
_cell_angle_beta   90.00000000
_cell_angle_gamma   120.03375248
_symmetry_Int_Tables_number   1
_chemical_formula_structural   YbCe5(TiSb5)2
_chemical_formula_sum   'Yb1 Ce5 Ti2 Sb10'
_cell_volume   475.73698350
_cell_formula_units_Z   1
loop_
 _symmetry_equiv_pos_site_id
 _symmetry_equiv_pos_as_xyz
  1  'x, y, z'
loop_
 _atom_site_type_symbol
 _atom_site_label
 _atom_site_symmetry_multiplicity
 _atom_site_fract_x
 _atom_site_fract_y
 _atom_site_fract_z
 _atom_site_occupancy
  Yb  Yb0  1  0.616701  0.000000  0.250000  1
  Ce  Ce1  1  0.387399  0.000000  0.750000  1
  Ce  Ce2  1  0.001375  0.615091  0.250000  1
  Ce  Ce3  1  0.997151  0.381580  0.750000  1
  Ce  Ce4  1  0.386284  0.384909  0.250000  1
  Ce  Ce5  1  0.615570  0.618420  0.750000  1
  Ti  Ti6  1  0.997719  0.000000  0.004524  1
  Ti  Ti7  1  0.997719  0.000000  0.495476  1
  Sb  Sb8  1  0.256300  0.000000  0.250000  1
  Sb  Sb9  1  0.746085  0.000000  0.750000  1
  Sb  Sb10  1  0.001016  0.257602  0.250000  1
  Sb  Sb11  1  0.000354  0.745227  0.750000  1
  Sb  Sb12  1  0.743414  0.742398  0.250000  1
  Sb  Sb13  1  0.255127  0.254773  0.750000  1
  Sb  Sb14  1  0.331605  0.664318  0.000392  1
  Sb  Sb15  1  0.667287  0.335682  0.000392  1
  Sb  Sb16  1  0.667287  0.335682  0.499608  1
  Sb  Sb17  1  0.331605  0.664318  0.499608  1
