# generated using pymatgen
data_AcH5Os
_symmetry_space_group_name_H-M   'P 1'
_cell_length_a   4.76183800
_cell_length_b   4.92799800
_cell_length_c   12.63069700
_cell_angle_alpha   90.00000000
_cell_angle_beta   90.00000000
_cell_angle_gamma   90.00000000
_symmetry_Int_Tables_number   1
_chemical_formula_structural   AcH5Os
_chemical_formula_sum   'Ac4 H20 Os4'
_cell_volume   296.39608044
_cell_formula_units_Z   4
loop_
 _symmetry_equiv_pos_site_id
 _symmetry_equiv_pos_as_xyz
  1  'x, y, z'
loop_
 _atom_site_type_symbol
 _atom_site_label
 _atom_site_symmetry_multiplicity
 _atom_site_fract_x
 _atom_site_fract_y
 _atom_site_fract_z
 _atom_site_occupancy
  Ac  Ac0  1  0.257440  0.165943  0.636445  1
  Ac  Ac1  1  0.757440  0.334057  0.363555  1
  Ac  Ac2  1  0.242560  0.834057  0.136445  1
  Ac  Ac3  1  0.742560  0.665943  0.863555  1
  H  H4  1  0.718093  0.345396  0.559646  1
  H  H5  1  0.218093  0.154604  0.440354  1
  H  H6  1  0.781907  0.654604  0.059646  1
  H  H7  1  0.281907  0.845396  0.940354  1
  H  H8  1  0.016924  0.098026  0.814446  1
  H  H9  1  0.516924  0.401974  0.185554  1
  H  H10  1  0.483076  0.901974  0.314446  1
  H  H11  1  0.983076  0.598026  0.685554  1
  H  H12  1  0.238958  0.493929  0.851201  1
  H  H13  1  0.738958  0.006071  0.148799  1
  H  H14  1  0.261042  0.506071  0.351201  1
  H  H15  1  0.761042  0.993929  0.648799  1
  H  H16  1  0.530161  0.143407  0.820494  1
  H  H17  1  0.030161  0.356593  0.179506  1
  H  H18  1  0.969839  0.856593  0.320494  1
  H  H19  1  0.469839  0.643407  0.679506  1
  H  H20  1  0.955732  0.150336  0.991775  1
  H  H21  1  0.455732  0.349664  0.008225  1
  H  H22  1  0.544268  0.849664  0.491775  1
  H  H23  1  0.044268  0.650336  0.508225  1
  Os  Os24  1  0.258899  0.177581  0.904809  1
  Os  Os25  1  0.758899  0.322419  0.095191  1
  Os  Os26  1  0.241101  0.822419  0.404809  1
  Os  Os27  1  0.741101  0.677581  0.595191  1
