# generated using pymatgen
data_Yb12DyTm7Si16
_symmetry_space_group_name_H-M   'P 1'
_cell_length_a   7.35178435
_cell_length_b   7.77104218
_cell_length_c   15.01282340
_cell_angle_alpha   89.99364426
_cell_angle_beta   90.02572148
_cell_angle_gamma   90.02404440
_symmetry_Int_Tables_number   1
_chemical_formula_structural   Yb12DyTm7Si16
_chemical_formula_sum   'Yb12 Dy1 Tm7 Si16'
_cell_volume   857.69784108
_cell_formula_units_Z   1
loop_
 _symmetry_equiv_pos_site_id
 _symmetry_equiv_pos_as_xyz
  1  'x, y, z'
loop_
 _atom_site_type_symbol
 _atom_site_label
 _atom_site_symmetry_multiplicity
 _atom_site_fract_x
 _atom_site_fract_y
 _atom_site_fract_z
 _atom_site_occupancy
  Yb  Yb0  1  0.973057  0.816360  0.403938  1
  Yb  Yb1  1  0.473361  0.683474  0.096143  1
  Yb  Yb2  1  0.526820  0.316480  0.596147  1
  Yb  Yb3  1  0.026706  0.183603  0.903755  1
  Yb  Yb4  1  0.026875  0.183537  0.596153  1
  Yb  Yb5  1  0.527021  0.316504  0.903725  1
  Yb  Yb6  1  0.473149  0.683540  0.403911  1
  Yb  Yb7  1  0.972900  0.816292  0.096126  1
  Yb  Yb8  1  0.352457  0.019735  0.749970  1
  Yb  Yb9  1  0.852407  0.480222  0.750019  1
  Yb  Yb10  1  0.147479  0.519983  0.250150  1
  Yb  Yb11  1  0.647731  0.980085  0.250100  1
  Dy  Dy12  1  0.314332  0.176953  0.121064  1
  Tm  Tm13  1  0.814607  0.323645  0.378933  1
  Tm  Tm14  1  0.185518  0.676438  0.878709  1
  Tm  Tm15  1  0.685503  0.823539  0.621196  1
  Tm  Tm16  1  0.314438  0.176326  0.379006  1
  Tm  Tm17  1  0.814448  0.323889  0.121116  1
  Tm  Tm18  1  0.185498  0.676443  0.621200  1
  Tm  Tm19  1  0.685721  0.823442  0.878630  1
  Si  Si20  1  0.856959  0.533854  0.538382  1
  Si  Si21  1  0.357509  0.965517  0.961091  1
  Si  Si22  1  0.642989  0.033798  0.461616  1
  Si  Si23  1  0.142025  0.466846  0.038033  1
  Si  Si24  1  0.143088  0.466111  0.461644  1
  Si  Si25  1  0.644043  0.033334  0.038029  1
  Si  Si26  1  0.356925  0.966155  0.538396  1
  Si  Si27  1  0.856686  0.534116  0.961530  1
  Si  Si28  1  0.977594  0.879902  0.749986  1
  Si  Si29  1  0.477578  0.620073  0.749976  1
  Si  Si30  1  0.523025  0.380640  0.250258  1
  Si  Si31  1  0.021843  0.119654  0.250487  1
  Si  Si32  1  0.249034  0.396299  0.749985  1
  Si  Si33  1  0.749106  0.103614  0.749981  1
  Si  Si34  1  0.250379  0.895752  0.250502  1
  Si  Si35  1  0.751189  0.603845  0.250111  1
