# generated using pymatgen
data_Y8Ho12SnPb15
_symmetry_space_group_name_H-M   'P 1'
_cell_length_a   8.19965900
_cell_length_b   8.27583266
_cell_length_c   15.62304900
_cell_angle_alpha   90.00000000
_cell_angle_beta   90.00000000
_cell_angle_gamma   89.82946589
_symmetry_Int_Tables_number   1
_chemical_formula_structural   Y8Ho12SnPb15
_chemical_formula_sum   'Y8 Ho12 Sn1 Pb15'
_cell_volume   1060.15987569
_cell_formula_units_Z   1
loop_
 _symmetry_equiv_pos_site_id
 _symmetry_equiv_pos_as_xyz
  1  'x, y, z'
loop_
 _atom_site_type_symbol
 _atom_site_label
 _atom_site_symmetry_multiplicity
 _atom_site_fract_x
 _atom_site_fract_y
 _atom_site_fract_z
 _atom_site_occupancy
  Y  Y0  1  0.534285  0.326071  0.899399  1
  Y  Y1  1  0.034271  0.176830  0.599913  1
  Y  Y2  1  0.465624  0.676937  0.400698  1
  Y  Y3  1  0.965962  0.823531  0.099285  1
  Y  Y4  1  0.465624  0.676937  0.099302  1
  Y  Y5  1  0.965962  0.823531  0.400715  1
  Y  Y6  1  0.534285  0.326071  0.600601  1
  Y  Y7  1  0.034271  0.176830  0.900087  1
  Ho  Ho8  1  0.378293  0.839037  0.877218  1
  Ho  Ho9  1  0.873770  0.658121  0.621874  1
  Ho  Ho10  1  0.623729  0.158538  0.379008  1
  Ho  Ho11  1  0.124246  0.341323  0.120983  1
  Ho  Ho12  1  0.623729  0.158538  0.120992  1
  Ho  Ho13  1  0.124246  0.341323  0.379017  1
  Ho  Ho14  1  0.378293  0.839037  0.622782  1
  Ho  Ho15  1  0.873770  0.658121  0.878126  1
  Ho  Ho16  1  0.210335  0.505347  0.750000  1
  Ho  Ho17  1  0.707181  0.993149  0.750000  1
  Ho  Ho18  1  0.792177  0.495422  0.250000  1
  Ho  Ho19  1  0.291932  0.004566  0.250000  1
  Sn  Sn20  1  0.572343  0.625433  0.750000  1
  Pb  Pb21  1  0.283114  0.034098  0.042174  1
  Pb  Pb22  1  0.783177  0.464959  0.457346  1
  Pb  Pb23  1  0.716688  0.965752  0.542973  1
  Pb  Pb24  1  0.216193  0.535281  0.957288  1
  Pb  Pb25  1  0.716688  0.965752  0.957027  1
  Pb  Pb26  1  0.216193  0.535281  0.542712  1
  Pb  Pb27  1  0.283114  0.034098  0.457826  1
  Pb  Pb28  1  0.783177  0.464959  0.042654  1
  Pb  Pb29  1  0.070940  0.873842  0.750000  1
  Pb  Pb30  1  0.428806  0.374202  0.250000  1
  Pb  Pb31  1  0.929171  0.125996  0.250000  1
  Pb  Pb32  1  0.345899  0.153216  0.750000  1
  Pb  Pb33  1  0.844947  0.347849  0.750000  1
  Pb  Pb34  1  0.653518  0.846856  0.250000  1
  Pb  Pb35  1  0.154044  0.653166  0.250000  1
