# generated using pymatgen
data_V3FeSi2N
_symmetry_space_group_name_H-M   'P 1'
_cell_length_a   7.60518439
_cell_length_b   7.60518354
_cell_length_c   7.60518300
_cell_angle_alpha   59.99999800
_cell_angle_beta   60.00000172
_cell_angle_gamma   59.99999492
_symmetry_Int_Tables_number   1
_chemical_formula_structural   V3FeSi2N
_chemical_formula_sum   'V12 Fe4 Si8 N4'
_cell_volume   311.03846599
_cell_formula_units_Z   4
loop_
 _symmetry_equiv_pos_site_id
 _symmetry_equiv_pos_as_xyz
  1  'x, y, z'
loop_
 _atom_site_type_symbol
 _atom_site_label
 _atom_site_symmetry_multiplicity
 _atom_site_fract_x
 _atom_site_fract_y
 _atom_site_fract_z
 _atom_site_occupancy
  V  V0  1  0.810551  0.810551  0.189449  1
  V  V1  1  0.189449  0.189449  0.810551  1
  V  V2  1  0.810551  0.189449  0.810551  1
  V  V3  1  0.189449  0.810551  0.189449  1
  V  V4  1  0.189449  0.810551  0.810551  1
  V  V5  1  0.810551  0.189449  0.189449  1
  V  V6  1  0.439449  0.439449  0.060551  1
  V  V7  1  0.060551  0.060551  0.439449  1
  V  V8  1  0.439449  0.060551  0.439449  1
  V  V9  1  0.060551  0.439449  0.060551  1
  V  V10  1  0.060551  0.439449  0.439449  1
  V  V11  1  0.439449  0.060551  0.060551  1
  Fe  Fe12  1  0.125000  0.625000  0.625000  1
  Fe  Fe13  1  0.625000  0.125000  0.625000  1
  Fe  Fe14  1  0.625000  0.625000  0.125000  1
  Fe  Fe15  1  0.625000  0.625000  0.625000  1
  Si  Si16  1  0.758269  0.413911  0.413911  1
  Si  Si17  1  0.413911  0.758269  0.413911  1
  Si  Si18  1  0.413911  0.413911  0.758269  1
  Si  Si19  1  0.413911  0.413911  0.413911  1
  Si  Si20  1  0.491731  0.836089  0.836089  1
  Si  Si21  1  0.836089  0.491731  0.836089  1
  Si  Si22  1  0.836089  0.836089  0.491731  1
  Si  Si23  1  0.836089  0.836089  0.836089  1
  N  N24  1  0.625000  0.125000  0.125000  1
  N  N25  1  0.125000  0.625000  0.125000  1
  N  N26  1  0.125000  0.125000  0.625000  1
  N  N27  1  0.125000  0.125000  0.125000  1
