# generated using pymatgen
data_Ti3V3C5
_symmetry_space_group_name_H-M   'P 1'
_cell_length_a   5.20865600
_cell_length_b   5.20865601
_cell_length_c   14.69466400
_cell_angle_alpha   90.00000000
_cell_angle_beta   90.00000000
_cell_angle_gamma   119.99998726
_symmetry_Int_Tables_number   1
_chemical_formula_structural   Ti3V3C5
_chemical_formula_sum   'Ti9 V9 C15'
_cell_volume   345.25636985
_cell_formula_units_Z   3
loop_
 _symmetry_equiv_pos_site_id
 _symmetry_equiv_pos_as_xyz
  1  'x, y, z'
loop_
 _atom_site_type_symbol
 _atom_site_label
 _atom_site_symmetry_multiplicity
 _atom_site_fract_x
 _atom_site_fract_y
 _atom_site_fract_z
 _atom_site_occupancy
  Ti  Ti0  1  0.775324  0.544232  0.417011  1
  Ti  Ti1  1  0.768908  0.224676  0.083678  1
  Ti  Ti2  1  0.455768  0.231092  0.750344  1
  Ti  Ti3  1  0.766688  0.534693  0.916701  1
  Ti  Ti4  1  0.768005  0.233312  0.583368  1
  Ti  Ti5  1  0.465307  0.231995  0.250035  1
  Ti  Ti6  1  0.103227  0.526708  0.750107  1
  Ti  Ti7  1  0.473292  0.576517  0.083441  1
  Ti  Ti8  1  0.423483  0.896773  0.416774  1
  V  V9  1  0.486995  0.888134  0.919082  1
  V  V10  1  0.401140  0.513005  0.585749  1
  V  V11  1  0.111866  0.598860  0.252416  1
  V  V12  1  0.129438  0.879038  0.590309  1
  V  V13  1  0.120962  0.250400  0.923643  1
  V  V14  1  0.749600  0.870562  0.256976  1
  V  V15  1  0.121900  0.865927  0.074664  1
  V  V16  1  0.744027  0.878100  0.741331  1
  V  V17  1  0.134073  0.255973  0.407998  1
  C  C18  1  0.444941  0.214605  0.998713  1
  C  C19  1  0.769664  0.555059  0.665380  1
  C  C20  1  0.785395  0.230336  0.332046  1
  C  C21  1  0.123918  0.559484  0.999135  1
  C  C22  1  0.435565  0.876082  0.665802  1
  C  C23  1  0.440516  0.564435  0.332468  1
  C  C24  1  0.795053  0.894728  0.998947  1
  C  C25  1  0.099675  0.204947  0.665614  1
  C  C26  1  0.105272  0.900325  0.332280  1
  C  C27  1  0.426258  0.220461  0.501126  1
  C  C28  1  0.794203  0.573742  0.167793  1
  C  C29  1  0.779539  0.205797  0.834459  1
  C  C30  1  0.108997  0.553405  0.500871  1
  C  C31  1  0.444407  0.891003  0.167538  1
  C  C32  1  0.446595  0.555593  0.834204  1
