# generated using pymatgen
data_Dy4Al17Si(Ir2Pt)2
_symmetry_space_group_name_H-M   'P 1'
_cell_length_a   7.57346577
_cell_length_b   7.57347009
_cell_length_c   9.38947002
_cell_angle_alpha   89.96011135
_cell_angle_beta   89.96013848
_cell_angle_gamma   119.67359697
_symmetry_Int_Tables_number   1
_chemical_formula_structural   Dy4Al17Si(Ir2Pt)2
_chemical_formula_sum   'Dy4 Al17 Si1 Ir4 Pt2'
_cell_volume   467.92895262
_cell_formula_units_Z   1
loop_
 _symmetry_equiv_pos_site_id
 _symmetry_equiv_pos_as_xyz
  1  'x, y, z'
loop_
 _atom_site_type_symbol
 _atom_site_label
 _atom_site_symmetry_multiplicity
 _atom_site_fract_x
 _atom_site_fract_y
 _atom_site_fract_z
 _atom_site_occupancy
  Dy  Dy0  1  0.993341  0.675302  0.751168  1
  Dy  Dy1  1  0.003817  0.330863  0.249012  1
  Dy  Dy2  1  0.675302  0.993340  0.751168  1
  Dy  Dy3  1  0.330863  0.003817  0.249012  1
  Al  Al4  1  0.876260  0.876260  0.248816  1
  Al  Al5  1  0.001250  0.333884  0.578826  1
  Al  Al6  1  0.998349  0.669258  0.423325  1
  Al  Al7  1  0.999941  0.665725  0.073675  1
  Al  Al8  1  0.337515  0.999592  0.924525  1
  Al  Al9  1  0.999592  0.337515  0.924525  1
  Al  Al10  1  0.665725  0.999941  0.073675  1
  Al  Al11  1  0.669258  0.998349  0.423325  1
  Al  Al12  1  0.333884  0.001250  0.578826  1
  Al  Al13  1  0.331197  0.331197  0.054761  1
  Al  Al14  1  0.664375  0.664375  0.949542  1
  Al  Al15  1  0.665487  0.665487  0.558096  1
  Al  Al16  1  0.329690  0.329690  0.436775  1
  Al  Al17  1  0.335926  0.547006  0.753164  1
  Al  Al18  1  0.661536  0.453547  0.247046  1
  Al  Al19  1  0.547006  0.335926  0.753164  1
  Al  Al20  1  0.453547  0.661536  0.247046  1
  Si  Si21  1  0.131060  0.131060  0.750648  1
  Ir  Ir22  1  0.326973  0.670173  0.999842  1
  Ir  Ir23  1  0.670173  0.326973  0.999843  1
  Ir  Ir24  1  0.000506  0.000506  0.507661  1
  Ir  Ir25  1  0.000365  0.000365  0.991843  1
  Pt  Pt26  1  0.670711  0.326353  0.500346  1
  Pt  Pt27  1  0.326353  0.670711  0.500346  1
