# generated using pymatgen
data_Ho5ErTaCo17P12
_symmetry_space_group_name_H-M   'P 1'
_cell_length_a   3.68180100
_cell_length_b   10.52181801
_cell_length_c   12.20537201
_cell_angle_alpha   90.00384221
_cell_angle_beta   89.99987673
_cell_angle_gamma   89.99984051
_symmetry_Int_Tables_number   1
_chemical_formula_structural   Ho5ErTaCo17P12
_chemical_formula_sum   'Ho5 Er1 Ta1 Co17 P12'
_cell_volume   472.82683508
_cell_formula_units_Z   1
loop_
 _symmetry_equiv_pos_site_id
 _symmetry_equiv_pos_as_xyz
  1  'x, y, z'
loop_
 _atom_site_type_symbol
 _atom_site_label
 _atom_site_symmetry_multiplicity
 _atom_site_fract_x
 _atom_site_fract_y
 _atom_site_fract_z
 _atom_site_occupancy
  Ho  Ho0  1  0.000000  0.499973  0.526798  1
  Ho  Ho1  1  0.499998  0.000000  0.477615  1
  Ho  Ho2  1  0.499984  0.179928  0.207145  1
  Ho  Ho3  1  0.999990  0.682734  0.795972  1
  Ho  Ho4  1  0.000013  0.317284  0.796026  1
  Er  Er5  1  0.500002  0.820025  0.207079  1
  Ta  Ta6  1  0.500002  0.500134  0.154562  1
  Co  Co7  1  0.999999  0.500094  0.985175  1
  Co  Co8  1  0.499999  0.999865  0.014468  1
  Co  Co9  1  0.499988  0.295367  0.432556  1
  Co  Co10  1  0.500013  0.704686  0.432413  1
  Co  Co11  1  0.999995  0.202340  0.569684  1
  Co  Co12  1  0.000003  0.797642  0.569574  1
  Co  Co13  1  0.499998  0.879488  0.708176  1
  Co  Co14  1  0.500005  0.120492  0.708223  1
  Co  Co15  1  0.000064  0.622863  0.293156  1
  Co  Co16  1  0.999939  0.377465  0.293359  1
  Co  Co17  1  0.500004  0.330120  0.989980  1
  Co  Co18  1  0.499993  0.669985  0.990064  1
  Co  Co19  1  0.999998  0.163844  0.004128  1
  Co  Co20  1  0.000003  0.836025  0.004229  1
  Co  Co21  1  0.999997  0.999976  0.838685  1
  Co  Co22  1  0.500002  0.500019  0.701722  1
  Co  Co23  1  0.000004  0.999683  0.296781  1
  P  P24  1  0.499999  0.310142  0.617226  1
  P  P25  1  0.500003  0.689896  0.617157  1
  P  P26  1  0.999990  0.187937  0.385510  1
  P  P27  1  0.000007  0.812015  0.385201  1
  P  P28  1  0.500000  0.500040  0.880309  1
  P  P29  1  0.000001  0.999744  0.117618  1
  P  P30  1  0.500000  0.851068  0.889870  1
  P  P31  1  0.500005  0.148927  0.889930  1
  P  P32  1  0.000005  0.661602  0.103900  1
  P  P33  1  0.999997  0.338646  0.103653  1
  P  P34  1  0.499998  0.499984  0.356696  1
  P  P35  1  0.000003  0.999965  0.655364  1
