# generated using pymatgen
data_Ca2YbCu(Ni3B)2
_symmetry_space_group_name_H-M   'P 1'
_cell_length_a   5.11775500
_cell_length_b   5.11775539
_cell_length_c   14.26063300
_cell_angle_alpha   90.00000000
_cell_angle_beta   90.00000000
_cell_angle_gamma   120.00000395
_symmetry_Int_Tables_number   1
_chemical_formula_structural   Ca2YbCu(Ni3B)2
_chemical_formula_sum   'Ca4 Yb2 Cu2 Ni12 B4'
_cell_volume   323.46584746
_cell_formula_units_Z   2
loop_
 _symmetry_equiv_pos_site_id
 _symmetry_equiv_pos_as_xyz
  1  'x, y, z'
loop_
 _atom_site_type_symbol
 _atom_site_label
 _atom_site_symmetry_multiplicity
 _atom_site_fract_x
 _atom_site_fract_y
 _atom_site_fract_z
 _atom_site_occupancy
  Ca  Ca0  1  0.666667  0.333333  0.536034  1
  Ca  Ca1  1  0.333333  0.666667  0.463966  1
  Ca  Ca2  1  0.333333  0.666667  0.036034  1
  Ca  Ca3  1  0.666667  0.333333  0.963966  1
  Yb  Yb4  1  0.666667  0.333333  0.750000  1
  Yb  Yb5  1  0.333333  0.666667  0.250000  1
  Cu  Cu6  1  0.000000  0.000000  0.000000  1
  Cu  Cu7  1  0.000000  0.000000  0.500000  1
  Ni  Ni8  1  0.165970  0.331940  0.654096  1
  Ni  Ni9  1  0.331940  0.165970  0.345904  1
  Ni  Ni10  1  0.331940  0.165970  0.154096  1
  Ni  Ni11  1  0.165970  0.834030  0.845904  1
  Ni  Ni12  1  0.834030  0.668060  0.345904  1
  Ni  Ni13  1  0.834030  0.165970  0.154096  1
  Ni  Ni14  1  0.668060  0.834030  0.654096  1
  Ni  Ni15  1  0.668060  0.834030  0.845904  1
  Ni  Ni16  1  0.165970  0.834030  0.654096  1
  Ni  Ni17  1  0.834030  0.668060  0.154096  1
  Ni  Ni18  1  0.165970  0.331940  0.845904  1
  Ni  Ni19  1  0.834030  0.165970  0.345904  1
  B  B20  1  0.666667  0.333333  0.250000  1
  B  B21  1  0.000000  0.000000  0.750000  1
  B  B22  1  0.333333  0.666667  0.750000  1
  B  B23  1  0.000000  0.000000  0.250000  1
