# generated using pymatgen
data_Tb4Er4Re3B24Rh
_symmetry_space_group_name_H-M   'P 1'
_cell_length_a   3.67381100
_cell_length_b   9.15419119
_cell_length_c   11.54583414
_cell_angle_alpha   90.14757153
_cell_angle_beta   90.00000000
_cell_angle_gamma   90.00000000
_symmetry_Int_Tables_number   1
_chemical_formula_structural   Tb4Er4Re3B24Rh
_chemical_formula_sum   'Tb4 Er4 Re3 B24 Rh1'
_cell_volume   388.29398483
_cell_formula_units_Z   1
loop_
 _symmetry_equiv_pos_site_id
 _symmetry_equiv_pos_as_xyz
  1  'x, y, z'
loop_
 _atom_site_type_symbol
 _atom_site_label
 _atom_site_symmetry_multiplicity
 _atom_site_fract_x
 _atom_site_fract_y
 _atom_site_fract_z
 _atom_site_occupancy
  Tb  Tb0  1  0.000000  0.318485  0.415469  1
  Tb  Tb1  1  0.000000  0.678274  0.590853  1
  Tb  Tb2  1  0.000000  0.826666  0.081735  1
  Tb  Tb3  1  0.000000  0.177572  0.912726  1
  Er  Er4  1  0.000000  0.943472  0.370116  1
  Er  Er5  1  0.000000  0.055791  0.628905  1
  Er  Er6  1  0.000000  0.441374  0.128926  1
  Er  Er7  1  0.000000  0.556622  0.871580  1
  Re  Re8  1  0.000000  0.362108  0.678209  1
  Re  Re9  1  0.000000  0.138720  0.180373  1
  Re  Re10  1  0.000000  0.861321  0.820490  1
  B  B11  1  0.500000  0.554268  0.433301  1
  B  B12  1  0.500000  0.446317  0.567037  1
  B  B13  1  0.500000  0.053834  0.067002  1
  B  B14  1  0.500000  0.946852  0.932236  1
  B  B15  1  0.500000  0.749554  0.419746  1
  B  B16  1  0.500000  0.250058  0.581319  1
  B  B17  1  0.500000  0.249868  0.081729  1
  B  B18  1  0.500000  0.751199  0.918507  1
  B  B19  1  0.500000  0.791182  0.265327  1
  B  B20  1  0.500000  0.208276  0.733853  1
  B  B21  1  0.500000  0.291886  0.235011  1
  B  B22  1  0.500000  0.708007  0.766062  1
  B  B23  1  0.500000  0.631373  0.184105  1
  B  B24  1  0.500000  0.369794  0.814181  1
  B  B25  1  0.500000  0.130344  0.314947  1
  B  B26  1  0.500000  0.868872  0.685370  1
  B  B27  1  0.500000  0.983080  0.212353  1
  B  B28  1  0.500000  0.017264  0.786568  1
  B  B29  1  0.500000  0.483426  0.287588  1
  B  B30  1  0.500000  0.518002  0.712794  1
  B  B31  1  0.500000  0.602706  0.029071  1
  B  B32  1  0.500000  0.398645  0.972515  1
  B  B33  1  0.500000  0.100484  0.471403  1
  B  B34  1  0.500000  0.896150  0.527828  1
  Rh  Rh35  1  0.000000  0.638155  0.320760  1
