# generated using pymatgen
data_Li3Pr2PaPt3
_symmetry_space_group_name_H-M   'P 1'
_cell_length_a   7.42611400
_cell_length_b   7.29070887
_cell_length_c   4.08179200
_cell_angle_alpha   90.00000000
_cell_angle_beta   90.00000000
_cell_angle_gamma   120.61629176
_symmetry_Int_Tables_number   1
_chemical_formula_structural   Li3Pr2PaPt3
_chemical_formula_sum   'Li3 Pr2 Pa1 Pt3'
_cell_volume   190.18759746
_cell_formula_units_Z   1
loop_
 _symmetry_equiv_pos_site_id
 _symmetry_equiv_pos_as_xyz
  1  'x, y, z'
loop_
 _atom_site_type_symbol
 _atom_site_label
 _atom_site_symmetry_multiplicity
 _atom_site_fract_x
 _atom_site_fract_y
 _atom_site_fract_z
 _atom_site_occupancy
  Li  Li0  1  0.227306  0.000000  0.500000  1
  Li  Li1  1  0.998697  0.235608  0.500000  1
  Li  Li2  1  0.763089  0.764392  0.500000  1
  Pr  Pr3  1  0.004167  0.596795  0.000000  1
  Pr  Pr4  1  0.407372  0.403205  0.000000  1
  Pa  Pa5  1  0.594757  0.000000  0.000000  1
  Pt  Pt6  1  0.363488  0.696216  0.500000  1
  Pt  Pt7  1  0.667274  0.303784  0.500000  1
  Pt  Pt8  1  0.973850  0.000000  0.000000  1
