# generated using pymatgen
data_TbYP7(Rh3W)3
_symmetry_space_group_name_H-M   'P 1'
_cell_length_a   3.94831107
_cell_length_b   9.52180067
_cell_length_c   9.52133703
_cell_angle_alpha   120.00142245
_cell_angle_beta   90.00124879
_cell_angle_gamma   89.99715097
_symmetry_Int_Tables_number   1
_chemical_formula_structural   TbYP7(Rh3W)3
_chemical_formula_sum   'Tb1 Y1 P7 Rh9 W3'
_cell_volume   309.99364566
_cell_formula_units_Z   1
loop_
 _symmetry_equiv_pos_site_id
 _symmetry_equiv_pos_as_xyz
  1  'x, y, z'
loop_
 _atom_site_type_symbol
 _atom_site_label
 _atom_site_symmetry_multiplicity
 _atom_site_fract_x
 _atom_site_fract_y
 _atom_site_fract_z
 _atom_site_occupancy
  Tb  Tb0  1  0.261681  0.666602  0.333246  1
  Y  Y1  1  0.762528  0.333347  0.666697  1
  P  P2  1  0.261648  0.000001  0.999915  1
  P  P3  1  0.762051  0.881336  0.592095  1
  P  P4  1  0.762064  0.407892  0.289242  1
  P  P5  1  0.762057  0.710742  0.118594  1
  P  P6  1  0.261932  0.118766  0.412251  1
  P  P7  1  0.261939  0.587802  0.706562  1
  P  P8  1  0.261882  0.293500  0.881273  1
  Rh  Rh9  1  0.261728  0.886579  0.159522  1
  Rh  Rh10  1  0.261730  0.840413  0.726854  1
  Rh  Rh11  1  0.261709  0.273028  0.113553  1
  Rh  Rh12  1  0.761890  0.613921  0.559982  1
  Rh  Rh13  1  0.761865  0.439908  0.053816  1
  Rh  Rh14  1  0.761880  0.945983  0.386030  1
  Rh  Rh15  1  0.262097  0.371072  0.438761  1
  Rh  Rh16  1  0.262074  0.561413  0.932448  1
  Rh  Rh17  1  0.262104  0.067660  0.629006  1
  W  W18  1  0.761718  0.090486  0.869898  1
  W  W19  1  0.761716  0.130236  0.220870  1
  W  W20  1  0.761706  0.779315  0.909385  1
