# generated using pymatgen
data_Ho2NbB2Ru5
_symmetry_space_group_name_H-M   'P 1'
_cell_length_a   9.66728300
_cell_length_b   9.66728300
_cell_length_c   3.12925700
_cell_angle_alpha   90.00000000
_cell_angle_beta   90.00000000
_cell_angle_gamma   90.00000000
_symmetry_Int_Tables_number   1
_chemical_formula_structural   Ho2NbB2Ru5
_chemical_formula_sum   'Ho4 Nb2 B4 Ru10'
_cell_volume   292.44897061
_cell_formula_units_Z   2
loop_
 _symmetry_equiv_pos_site_id
 _symmetry_equiv_pos_as_xyz
  1  'x, y, z'
loop_
 _atom_site_type_symbol
 _atom_site_label
 _atom_site_symmetry_multiplicity
 _atom_site_fract_x
 _atom_site_fract_y
 _atom_site_fract_z
 _atom_site_occupancy
  Ho  Ho0  1  0.824960  0.675040  0.000000  1
  Ho  Ho1  1  0.175040  0.324960  0.000000  1
  Ho  Ho2  1  0.324960  0.824960  0.000000  1
  Ho  Ho3  1  0.675040  0.175040  0.000000  1
  Nb  Nb4  1  0.500000  0.500000  0.000000  1
  Nb  Nb5  1  0.000000  0.000000  0.000000  1
  B  B6  1  0.620389  0.879611  0.000000  1
  B  B7  1  0.379611  0.120389  0.000000  1
  B  B8  1  0.120389  0.620389  0.000000  1
  B  B9  1  0.879611  0.379611  0.000000  1
  Ru  Ru10  1  0.570728  0.718395  0.500000  1
  Ru  Ru11  1  0.429272  0.281605  0.500000  1
  Ru  Ru12  1  0.070728  0.781605  0.500000  1
  Ru  Ru13  1  0.929272  0.218395  0.500000  1
  Ru  Ru14  1  0.281605  0.570728  0.500000  1
  Ru  Ru15  1  0.718395  0.429272  0.500000  1
  Ru  Ru16  1  0.218395  0.070728  0.500000  1
  Ru  Ru17  1  0.781605  0.929272  0.500000  1
  Ru  Ru18  1  0.500000  0.000000  0.500000  1
  Ru  Ru19  1  0.000000  0.500000  0.500000  1
