# generated using pymatgen
data_Nd5ErTa2O14
_symmetry_space_group_name_H-M   'P 1'
_cell_length_a   6.66401828
_cell_length_b   6.63444181
_cell_length_c   7.68516500
_cell_angle_alpha   90.00000000
_cell_angle_beta   90.00000000
_cell_angle_gamma   108.73753770
_symmetry_Int_Tables_number   1
_chemical_formula_structural   Nd5ErTa2O14
_chemical_formula_sum   'Nd5 Er1 Ta2 O14'
_cell_volume   321.76866920
_cell_formula_units_Z   1
loop_
 _symmetry_equiv_pos_site_id
 _symmetry_equiv_pos_as_xyz
  1  'x, y, z'
loop_
 _atom_site_type_symbol
 _atom_site_label
 _atom_site_symmetry_multiplicity
 _atom_site_fract_x
 _atom_site_fract_y
 _atom_site_fract_z
 _atom_site_occupancy
  Nd  Nd0  1  0.535313  0.528508  0.498648  1
  Nd  Nd1  1  0.535313  0.528508  0.001352  1
  Nd  Nd2  1  0.007174  0.463157  0.750000  1
  Nd  Nd3  1  0.532944  0.003758  0.750000  1
  Nd  Nd4  1  0.461976  0.003592  0.250000  1
  Er  Er5  1  0.003541  0.529672  0.250000  1
  Ta  Ta6  1  0.001023  0.001273  0.497426  1
  Ta  Ta7  1  0.001023  0.001273  0.002574  1
  O  O8  1  0.945151  0.057023  0.750000  1
  O  O9  1  0.058619  0.935386  0.250000  1
  O  O10  1  0.351725  0.634040  0.250000  1
  O  O11  1  0.642939  0.369840  0.750000  1
  O  O12  1  0.372932  0.631113  0.750000  1
  O  O13  1  0.646157  0.378945  0.250000  1
  O  O14  1  0.308276  0.069414  0.969276  1
  O  O15  1  0.678215  0.917937  0.472778  1
  O  O16  1  0.308276  0.069414  0.530724  1
  O  O17  1  0.678215  0.917937  0.027222  1
  O  O18  1  0.034505  0.300029  0.456574  1
  O  O19  1  0.931089  0.679575  0.977550  1
  O  O20  1  0.931089  0.679575  0.522450  1
  O  O21  1  0.034505  0.300029  0.043426  1
