# generated using pymatgen
data_Ti4Re18Tc6Sn
_symmetry_space_group_name_H-M   'P 1'
_cell_length_a   8.38361683
_cell_length_b   8.38361596
_cell_length_c   8.36483200
_cell_angle_alpha   109.47220174
_cell_angle_beta   109.47219963
_cell_angle_gamma   109.56005602
_symmetry_Int_Tables_number   1
_chemical_formula_structural   Ti4Re18Tc6Sn
_chemical_formula_sum   'Ti4 Re18 Tc6 Sn1'
_cell_volume   452.07477434
_cell_formula_units_Z   1
loop_
 _symmetry_equiv_pos_site_id
 _symmetry_equiv_pos_as_xyz
  1  'x, y, z'
loop_
 _atom_site_type_symbol
 _atom_site_label
 _atom_site_symmetry_multiplicity
 _atom_site_fract_x
 _atom_site_fract_y
 _atom_site_fract_z
 _atom_site_occupancy
  Ti  Ti0  1  0.630484  0.999487  0.000000  1
  Ti  Ti1  1  0.999487  0.630484  0.000000  1
  Ti  Ti2  1  0.999419  0.999419  0.631172  1
  Ti  Ti3  1  0.368248  0.368248  0.368828  1
  Re  Re4  1  0.319864  0.319864  0.718877  1
  Re  Re5  1  0.000890  0.680497  0.397958  1
  Re  Re6  1  0.680497  0.000890  0.397958  1
  Re  Re7  1  0.600985  0.600985  0.281123  1
  Re  Re8  1  0.282539  0.602933  0.602042  1
  Re  Re9  1  0.602933  0.282539  0.602042  1
  Re  Re10  1  0.377198  0.195082  0.000000  1
  Re  Re11  1  0.181376  0.805476  0.804621  1
  Re  Re12  1  0.376755  0.000855  0.195379  1
  Re  Re13  1  0.195082  0.377198  0.000000  1
  Re  Re14  1  0.000855  0.376755  0.195379  1
  Re  Re15  1  0.805476  0.181376  0.804621  1
  Re  Re16  1  0.805599  0.805599  0.183230  1
  Re  Re17  1  0.000817  0.194805  0.378764  1
  Re  Re18  1  0.194805  0.000817  0.378764  1
  Re  Re19  1  0.622369  0.622369  0.816770  1
  Re  Re20  1  0.816041  0.622053  0.621236  1
  Re  Re21  1  0.622053  0.816041  0.621236  1
  Tc  Tc22  1  0.397675  0.681169  0.000000  1
  Tc  Tc23  1  0.718187  0.319189  0.318285  1
  Tc  Tc24  1  0.399901  0.000903  0.681715  1
  Tc  Tc25  1  0.681169  0.397675  0.000000  1
  Tc  Tc26  1  0.000903  0.399901  0.681715  1
  Tc  Tc27  1  0.319189  0.718187  0.318285  1
  Sn  Sn28  1  0.999201  0.999201  0.000000  1
