# generated using pymatgen
data_Hf2Sc2Si6Ir3Rh4
_symmetry_space_group_name_H-M   'P 1'
_cell_length_a   6.98206665
_cell_length_b   6.96440342
_cell_length_c   6.96515223
_cell_angle_alpha   109.38174927
_cell_angle_beta   109.44690008
_cell_angle_gamma   109.48649208
_symmetry_Int_Tables_number   1
_chemical_formula_structural   Hf2Sc2Si6Ir3Rh4
_chemical_formula_sum   'Hf2 Sc2 Si6 Ir3 Rh4'
_cell_volume   261.03772815
_cell_formula_units_Z   1
loop_
 _symmetry_equiv_pos_site_id
 _symmetry_equiv_pos_as_xyz
  1  'x, y, z'
loop_
 _atom_site_type_symbol
 _atom_site_label
 _atom_site_symmetry_multiplicity
 _atom_site_fract_x
 _atom_site_fract_y
 _atom_site_fract_z
 _atom_site_occupancy
  Hf  Hf0  1  0.999815  0.999601  0.499847  1
  Hf  Hf1  1  0.000623  0.500389  0.000538  1
  Sc  Sc2  1  0.499952  0.999748  0.999876  1
  Sc  Sc3  1  0.500023  0.500238  0.500051  1
  Si  Si4  1  0.678500  0.681220  0.996763  1
  Si  Si5  1  0.321151  0.003484  0.318088  1
  Si  Si6  1  0.999783  0.318392  0.318643  1
  Si  Si7  1  0.321347  0.318311  0.002616  1
  Si  Si8  1  0.679269  0.997371  0.682334  1
  Si  Si9  1  0.999724  0.681105  0.681402  1
  Ir  Ir10  1  0.247695  0.749937  0.498642  1
  Ir  Ir11  1  0.500598  0.750061  0.249726  1
  Ir  Ir12  1  0.999938  0.999857  0.999960  1
  Rh  Rh13  1  0.751788  0.250647  0.501779  1
  Rh  Rh14  1  0.751060  0.500849  0.249712  1
  Rh  Rh15  1  0.500445  0.250627  0.750403  1
  Rh  Rh16  1  0.248290  0.498164  0.749622  1
