# generated using pymatgen
data_YbDy3S4
_symmetry_space_group_name_H-M   'P 1'
_cell_length_a   12.92076977
_cell_length_b   12.92076995
_cell_length_c   12.92077069
_cell_angle_alpha   17.50424826
_cell_angle_beta   17.50424741
_cell_angle_gamma   17.50424201
_symmetry_Int_Tables_number   1
_chemical_formula_structural   YbDy3S4
_chemical_formula_sum   'Yb1 Dy3 S4'
_cell_volume   170.31301356
_cell_formula_units_Z   1
loop_
 _symmetry_equiv_pos_site_id
 _symmetry_equiv_pos_as_xyz
  1  'x, y, z'
loop_
 _atom_site_type_symbol
 _atom_site_label
 _atom_site_symmetry_multiplicity
 _atom_site_fract_x
 _atom_site_fract_y
 _atom_site_fract_z
 _atom_site_occupancy
  Yb  Yb0  1  0.000000  0.000000  0.000000  1
  Dy  Dy1  1  0.248810  0.248810  0.248810  1
  Dy  Dy2  1  0.500000  0.500000  0.500000  1
  Dy  Dy3  1  0.751190  0.751190  0.751190  1
  S  S4  1  0.375631  0.375631  0.375631  1
  S  S5  1  0.125201  0.125201  0.125201  1
  S  S6  1  0.624369  0.624369  0.624369  1
  S  S7  1  0.874799  0.874799  0.874799  1
