# generated using pymatgen
data_La3Sm(Rh2O7)2
_symmetry_space_group_name_H-M   'P 1'
_cell_length_a   7.43810569
_cell_length_b   7.43810559
_cell_length_c   7.42439242
_cell_angle_alpha   59.93888846
_cell_angle_beta   59.93888098
_cell_angle_gamma   60.00000028
_symmetry_Int_Tables_number   1
_chemical_formula_structural   La3Sm(Rh2O7)2
_chemical_formula_sum   'La3 Sm1 Rh4 O14'
_cell_volume   290.18088759
_cell_formula_units_Z   1
loop_
 _symmetry_equiv_pos_site_id
 _symmetry_equiv_pos_as_xyz
  1  'x, y, z'
loop_
 _atom_site_type_symbol
 _atom_site_label
 _atom_site_symmetry_multiplicity
 _atom_site_fract_x
 _atom_site_fract_y
 _atom_site_fract_z
 _atom_site_occupancy
  La  La0  1  0.125000  0.125000  0.125000  1
  La  La1  1  0.625000  0.125000  0.125000  1
  La  La2  1  0.125000  0.625000  0.125000  1
  Sm  Sm3  1  0.125000  0.125000  0.625000  1
  Rh  Rh4  1  0.625000  0.625000  0.625000  1
  Rh  Rh5  1  0.125000  0.625000  0.625000  1
  Rh  Rh6  1  0.625000  0.125000  0.625000  1
  Rh  Rh7  1  0.625000  0.625000  0.125000  1
  O  O8  1  0.293977  0.293977  0.699983  1
  O  O9  1  0.294120  0.705562  0.294757  1
  O  O10  1  0.955880  0.544438  0.955243  1
  O  O11  1  0.705562  0.294120  0.294757  1
  O  O12  1  0.001889  0.001889  0.994333  1
  O  O13  1  0.544438  0.544438  0.955243  1
  O  O14  1  0.293977  0.712064  0.699983  1
  O  O15  1  0.537936  0.956023  0.550017  1
  O  O16  1  0.544438  0.955880  0.955243  1
  O  O17  1  0.705562  0.705562  0.294757  1
  O  O18  1  0.248111  0.248111  0.255667  1
  O  O19  1  0.956023  0.956023  0.550017  1
  O  O20  1  0.956023  0.537936  0.550017  1
  O  O21  1  0.712064  0.293977  0.699983  1
