# generated using pymatgen
data_Ta6Re3Si6TcRu2
_symmetry_space_group_name_H-M   'P 1'
_cell_length_a   7.49179697
_cell_length_b   7.54476343
_cell_length_c   7.51991284
_cell_angle_alpha   127.72984097
_cell_angle_beta   123.22644254
_cell_angle_gamma   80.77396803
_symmetry_Int_Tables_number   1
_chemical_formula_structural   Ta6Re3Si6TcRu2
_chemical_formula_sum   'Ta6 Re3 Si6 Tc1 Ru2'
_cell_volume   271.20241597
_cell_formula_units_Z   1
loop_
 _symmetry_equiv_pos_site_id
 _symmetry_equiv_pos_as_xyz
  1  'x, y, z'
loop_
 _atom_site_type_symbol
 _atom_site_label
 _atom_site_symmetry_multiplicity
 _atom_site_fract_x
 _atom_site_fract_y
 _atom_site_fract_z
 _atom_site_occupancy
  Ta  Ta0  1  0.546172  0.097563  0.048319  1
  Ta  Ta1  1  0.451108  0.485383  0.542404  1
  Ta  Ta2  1  0.963850  0.500541  0.024449  1
  Ta  Ta3  1  0.035928  0.071540  0.535710  1
  Ta  Ta4  1  0.747428  0.905913  0.648400  1
  Ta  Ta5  1  0.255501  0.911277  0.173646  1
  Re  Re6  1  0.842609  0.495514  0.589170  1
  Re  Re7  1  0.592781  0.750610  0.092296  1
  Re  Re8  1  0.401798  0.492460  0.151294  1
  Si  Si9  1  0.785734  0.547916  0.267692  1
  Si  Si10  1  0.228166  0.460829  0.730662  1
  Si  Si11  1  0.335535  0.827200  0.503752  1
  Si  Si12  1  0.665956  0.162397  0.494773  1
  Si  Si13  1  0.829882  0.836225  0.995098  1
  Si  Si14  1  0.163915  0.159834  0.997291  1
  Tc  Tc15  1  0.522897  0.243006  0.769266  1
  Ru  Ru16  1  0.966719  0.245466  0.213671  1
  Ru  Ru17  1  0.164022  0.748521  0.664304  1
