# generated using pymatgen
data_Ta9Nb4Co8W3N4
_symmetry_space_group_name_H-M   'P 1'
_cell_length_a   8.15659636
_cell_length_b   8.18400090
_cell_length_c   8.17854100
_cell_angle_alpha   60.02206242
_cell_angle_beta   59.91095769
_cell_angle_gamma   59.84971619
_symmetry_Int_Tables_number   1
_chemical_formula_structural   Ta9Nb4Co8W3N4
_chemical_formula_sum   'Ta9 Nb4 Co8 W3 N4'
_cell_volume   385.40686153
_cell_formula_units_Z   1
loop_
 _symmetry_equiv_pos_site_id
 _symmetry_equiv_pos_as_xyz
  1  'x, y, z'
loop_
 _atom_site_type_symbol
 _atom_site_label
 _atom_site_symmetry_multiplicity
 _atom_site_fract_x
 _atom_site_fract_y
 _atom_site_fract_z
 _atom_site_occupancy
  Ta  Ta0  1  0.124888  0.623350  0.625881  1
  Ta  Ta1  1  0.809698  0.810031  0.190136  1
  Ta  Ta2  1  0.188418  0.185507  0.813037  1
  Ta  Ta3  1  0.807989  0.192025  0.808336  1
  Ta  Ta4  1  0.190395  0.811046  0.187635  1
  Ta  Ta5  1  0.190395  0.811046  0.810923  1
  Ta  Ta6  1  0.807989  0.192025  0.191651  1
  Ta  Ta7  1  0.441882  0.441721  0.058198  1
  Ta  Ta8  1  0.059925  0.062423  0.438826  1
  Nb  Nb9  1  0.440955  0.059165  0.440904  1
  Nb  Nb10  1  0.061228  0.437734  0.063328  1
  Nb  Nb11  1  0.061228  0.437734  0.437710  1
  Nb  Nb12  1  0.440955  0.059165  0.058975  1
  Co  Co13  1  0.731039  0.421969  0.423497  1
  Co  Co14  1  0.423471  0.733664  0.421434  1
  Co  Co15  1  0.425642  0.421441  0.733823  1
  Co  Co16  1  0.425642  0.421441  0.419096  1
  Co  Co17  1  0.518322  0.826203  0.827737  1
  Co  Co18  1  0.824024  0.513879  0.831047  1
  Co  Co19  1  0.825850  0.830839  0.514369  1
  Co  Co20  1  0.825850  0.830839  0.828940  1
  W  W21  1  0.623970  0.125599  0.625216  1
  W  W22  1  0.625480  0.625174  0.125220  1
  W  W23  1  0.625480  0.625174  0.624126  1
  N  N24  1  0.627497  0.126324  0.123089  1
  N  N25  1  0.125978  0.628312  0.122855  1
  N  N26  1  0.122906  0.123085  0.627999  1
  N  N27  1  0.122906  0.123085  0.126010  1
