# generated using pymatgen
data_Pr12Si3AsI12
_symmetry_space_group_name_H-M   'P 1'
_cell_length_a   10.92393268
_cell_length_b   10.92393298
_cell_length_c   10.92393301
_cell_angle_alpha   109.53280080
_cell_angle_beta   109.53280381
_cell_angle_gamma   109.53280027
_symmetry_Int_Tables_number   1
_chemical_formula_structural   Pr12Si3AsI12
_chemical_formula_sum   'Pr12 Si3 As1 I12'
_cell_volume   1001.20044379
_cell_formula_units_Z   1
loop_
 _symmetry_equiv_pos_site_id
 _symmetry_equiv_pos_as_xyz
  1  'x, y, z'
loop_
 _atom_site_type_symbol
 _atom_site_label
 _atom_site_symmetry_multiplicity
 _atom_site_fract_x
 _atom_site_fract_y
 _atom_site_fract_z
 _atom_site_occupancy
  Pr  Pr0  1  0.465122  0.485141  0.230435  1
  Pr  Pr1  1  0.750000  0.232308  0.267692  1
  Pr  Pr2  1  0.750000  0.017387  0.482613  1
  Pr  Pr3  1  0.230435  0.465122  0.485141  1
  Pr  Pr4  1  0.267692  0.750000  0.232308  1
  Pr  Pr5  1  0.034878  0.269565  0.014859  1
  Pr  Pr6  1  0.014859  0.034878  0.269565  1
  Pr  Pr7  1  0.482613  0.750000  0.017387  1
  Pr  Pr8  1  0.485141  0.230435  0.465122  1
  Pr  Pr9  1  0.017387  0.482613  0.750000  1
  Pr  Pr10  1  0.269565  0.014859  0.034878  1
  Pr  Pr11  1  0.232308  0.267692  0.750000  1
  Si  Si12  1  0.500441  0.999559  0.250000  1
  Si  Si13  1  0.999559  0.250000  0.500441  1
  Si  Si14  1  0.250000  0.500441  0.999559  1
  As  As15  1  0.250000  0.250000  0.250000  1
  I  I16  1  0.250000  0.757654  0.742346  1
  I  I17  1  0.513876  0.506671  0.756545  1
  I  I18  1  0.986124  0.743455  0.993329  1
  I  I19  1  0.742346  0.250000  0.757654  1
  I  I20  1  0.993329  0.986124  0.743455  1
  I  I21  1  0.250000  0.993314  0.506686  1
  I  I22  1  0.756545  0.513876  0.506671  1
  I  I23  1  0.506686  0.250000  0.993314  1
  I  I24  1  0.757654  0.742346  0.250000  1
  I  I25  1  0.743455  0.993329  0.986124  1
  I  I26  1  0.993314  0.506686  0.250000  1
  I  I27  1  0.506671  0.756545  0.513876  1
