# generated using pymatgen
data_Er13Th3Mg2(CdNi2)2
_symmetry_space_group_name_H-M   'P 1'
_cell_length_a   9.55927270
_cell_length_b   9.56298129
_cell_length_c   9.60780700
_cell_angle_alpha   59.84482335
_cell_angle_beta   59.83190858
_cell_angle_gamma   59.75387032
_symmetry_Int_Tables_number   1
_chemical_formula_structural   Er13Th3Mg2(CdNi2)2
_chemical_formula_sum   'Er13 Th3 Mg2 Cd2 Ni4'
_cell_volume   618.37462265
_cell_formula_units_Z   1
loop_
 _symmetry_equiv_pos_site_id
 _symmetry_equiv_pos_as_xyz
  1  'x, y, z'
loop_
 _atom_site_type_symbol
 _atom_site_label
 _atom_site_symmetry_multiplicity
 _atom_site_fract_x
 _atom_site_fract_y
 _atom_site_fract_z
 _atom_site_occupancy
  Er  Er0  1  0.954981  0.348850  0.348085  1
  Er  Er1  1  0.814159  0.187471  0.186448  1
  Er  Er2  1  0.188758  0.813534  0.812907  1
  Er  Er3  1  0.188758  0.813534  0.184800  1
  Er  Er4  1  0.814159  0.187471  0.811921  1
  Er  Er5  1  0.191099  0.189863  0.809518  1
  Er  Er6  1  0.813698  0.812244  0.187029  1
  Er  Er7  1  0.936273  0.568141  0.565972  1
  Er  Er8  1  0.564965  0.935668  0.932985  1
  Er  Er9  1  0.564965  0.935668  0.566382  1
  Er  Er10  1  0.936273  0.568141  0.929613  1
  Er  Er11  1  0.567541  0.566963  0.932748  1
  Er  Er12  1  0.934306  0.935453  0.565120  1
  Th  Th13  1  0.341881  0.349043  0.348915  1
  Th  Th14  1  0.341881  0.349043  0.960161  1
  Th  Th15  1  0.341590  0.959715  0.349348  1
  Mg  Mg16  1  0.578752  0.574390  0.581638  1
  Mg  Mg17  1  0.578752  0.574390  0.265219  1
  Cd  Cd18  1  0.585535  0.252549  0.580958  1
  Cd  Cd19  1  0.253813  0.580559  0.582813  1
  Ni  Ni20  1  0.147387  0.139853  0.140723  1
  Ni  Ni21  1  0.147387  0.139853  0.572037  1
  Ni  Ni22  1  0.143272  0.573657  0.141535  1
  Ni  Ni23  1  0.569808  0.143946  0.143123  1
