# generated using pymatgen
data_KRb5Li4(TiAs3)2
_symmetry_space_group_name_H-M   'P 1'
_cell_length_a   10.33961024
_cell_length_b   10.34319939
_cell_length_c   15.68575653
_cell_angle_alpha   89.99748687
_cell_angle_beta   90.02045669
_cell_angle_gamma   143.13415059
_symmetry_Int_Tables_number   1
_chemical_formula_structural   KRb5Li4(TiAs3)2
_chemical_formula_sum   'K2 Rb10 Li8 Ti4 As12'
_cell_volume   1006.40968088
_cell_formula_units_Z   2
loop_
 _symmetry_equiv_pos_site_id
 _symmetry_equiv_pos_as_xyz
  1  'x, y, z'
loop_
 _atom_site_type_symbol
 _atom_site_label
 _atom_site_symmetry_multiplicity
 _atom_site_fract_x
 _atom_site_fract_y
 _atom_site_fract_z
 _atom_site_occupancy
  K  K0  1  0.944829  0.603731  0.835193  1
  K  K1  1  0.780262  0.780047  0.171915  1
  Rb  Rb2  1  0.604690  0.946568  0.828158  1
  Rb  Rb3  1  0.284964  0.284850  0.319418  1
  Rb  Rb4  1  0.214496  0.214268  0.819755  1
  Rb  Rb5  1  0.715097  0.714557  0.680215  1
  Rb  Rb6  1  0.446455  0.105015  0.672170  1
  Rb  Rb7  1  0.894674  0.554494  0.328297  1
  Rb  Rb8  1  0.054256  0.394930  0.172093  1
  Rb  Rb9  1  0.395117  0.054377  0.172051  1
  Rb  Rb10  1  0.554307  0.894636  0.328359  1
  Rb  Rb11  1  0.104205  0.446635  0.671724  1
  Li  Li12  1  0.081551  0.918009  0.999867  1
  Li  Li13  1  0.581936  0.418351  0.500048  1
  Li  Li14  1  0.918664  0.081891  0.000386  1
  Li  Li15  1  0.750660  0.252801  0.999757  1
  Li  Li16  1  0.750476  0.249025  0.500202  1
  Li  Li17  1  0.251948  0.750561  0.999951  1
  Li  Li18  1  0.249023  0.750675  0.500431  1
  Li  Li19  1  0.418487  0.581763  0.499669  1
  Ti  Ti20  1  0.086093  0.913559  0.500079  1
  Ti  Ti21  1  0.413731  0.586086  0.000089  1
  Ti  Ti22  1  0.913641  0.085973  0.499340  1
  Ti  Ti23  1  0.585612  0.413158  0.999866  1
  As  As24  1  0.068166  0.388144  0.414611  1
  As  As25  1  0.887576  0.569795  0.086288  1
  As  As26  1  0.432285  0.112447  0.913521  1
  As  As27  1  0.612476  0.931223  0.585395  1
  As  As28  1  0.932514  0.613754  0.587576  1
  As  As29  1  0.112274  0.433266  0.914651  1
  As  As30  1  0.569762  0.887083  0.086513  1
  As  As31  1  0.387954  0.068032  0.414940  1
  As  As32  1  0.217900  0.217927  0.581498  1
  As  As33  1  0.718261  0.717417  0.918080  1
  As  As34  1  0.281860  0.281692  0.082235  1
  As  As35  1  0.783798  0.783262  0.415657  1
