# generated using pymatgen
data_Tm5V3(Ni4P3)4
_symmetry_space_group_name_H-M   'P 1'
_cell_length_a   12.07742247
_cell_length_b   12.07742296
_cell_length_c   3.69861500
_cell_angle_alpha   90.00000000
_cell_angle_beta   90.00000000
_cell_angle_gamma   120.03324261
_symmetry_Int_Tables_number   1
_chemical_formula_structural   Tm5V3(Ni4P3)4
_chemical_formula_sum   'Tm5 V3 Ni16 P12'
_cell_volume   467.06004545
_cell_formula_units_Z   1
loop_
 _symmetry_equiv_pos_site_id
 _symmetry_equiv_pos_as_xyz
  1  'x, y, z'
loop_
 _atom_site_type_symbol
 _atom_site_label
 _atom_site_symmetry_multiplicity
 _atom_site_fract_x
 _atom_site_fract_y
 _atom_site_fract_z
 _atom_site_occupancy
  Tm  Tm0  1  0.666710  0.333436  0.000000  1
  Tm  Tm1  1  0.333437  0.666710  0.000000  1
  Tm  Tm2  1  0.186769  0.999931  0.500000  1
  Tm  Tm3  1  0.999931  0.186769  0.500000  1
  Tm  Tm4  1  0.813109  0.813109  0.500000  1
  V  V5  1  0.559215  0.999958  0.000000  1
  V  V6  1  0.440671  0.440670  0.000000  1
  V  V7  1  0.999958  0.559215  0.000000  1
  Ni  Ni8  1  0.000053  0.000053  0.000000  1
  Ni  Ni9  1  0.805709  0.183206  0.000000  1
  Ni  Ni10  1  0.377102  0.193703  0.000000  1
  Ni  Ni11  1  0.193703  0.377102  0.000000  1
  Ni  Ni12  1  0.816894  0.623119  0.000000  1
  Ni  Ni13  1  0.183206  0.805709  0.000000  1
  Ni  Ni14  1  0.623119  0.816893  0.000000  1
  Ni  Ni15  1  0.720073  0.999901  0.500000  1
  Ni  Ni16  1  0.484611  0.125720  0.500000  1
  Ni  Ni17  1  0.279850  0.279850  0.500000  1
  Ni  Ni18  1  0.874980  0.359126  0.500000  1
  Ni  Ni19  1  0.125720  0.484611  0.500000  1
  Ni  Ni20  1  0.640979  0.515506  0.500000  1
  Ni  Ni21  1  0.515506  0.640979  0.500000  1
  Ni  Ni22  1  0.999901  0.720072  0.500000  1
  Ni  Ni23  1  0.359126  0.874980  0.500000  1
  P  P24  1  0.366060  0.999932  0.000000  1
  P  P25  1  0.822283  0.000006  0.000000  1
  P  P26  1  0.177732  0.177732  0.000000  1
  P  P27  1  0.999932  0.366060  0.000000  1
  P  P28  1  0.633789  0.633789  0.000000  1
  P  P29  1  0.000006  0.822283  0.000000  1
  P  P30  1  0.684980  0.164046  0.500000  1
  P  P31  1  0.478933  0.315008  0.500000  1
  P  P32  1  0.315008  0.478933  0.500000  1
  P  P33  1  0.836053  0.520954  0.500000  1
  P  P34  1  0.164046  0.684980  0.500000  1
  P  P35  1  0.520954  0.836053  0.500000  1
