# generated using pymatgen
data_Zr6Ga3Si
_symmetry_space_group_name_H-M   'P 1'
_cell_length_a   7.34207393
_cell_length_b   7.34207393
_cell_length_c   3.67495700
_cell_angle_alpha   90.00000000
_cell_angle_beta   90.00000000
_cell_angle_gamma   90.25324781
_symmetry_Int_Tables_number   1
_chemical_formula_structural   Zr6Ga3Si
_chemical_formula_sum   'Zr6 Ga3 Si1'
_cell_volume   198.10047918
_cell_formula_units_Z   1
loop_
 _symmetry_equiv_pos_site_id
 _symmetry_equiv_pos_as_xyz
  1  'x, y, z'
loop_
 _atom_site_type_symbol
 _atom_site_label
 _atom_site_symmetry_multiplicity
 _atom_site_fract_x
 _atom_site_fract_y
 _atom_site_fract_z
 _atom_site_occupancy
  Zr  Zr0  1  0.667728  0.177865  0.500000  1
  Zr  Zr1  1  0.322135  0.832272  0.500000  1
  Zr  Zr2  1  0.182602  0.317398  0.500000  1
  Zr  Zr3  1  0.822812  0.677188  0.500000  1
  Zr  Zr4  1  0.003102  0.001126  0.000000  1
  Zr  Zr5  1  0.498874  0.496898  0.000000  1
  Ga  Ga6  1  0.124427  0.622360  0.000000  1
  Ga  Ga7  1  0.877640  0.375573  0.000000  1
  Ga  Ga8  1  0.622784  0.877216  0.000000  1
  Si  Si9  1  0.377896  0.122104  0.000000  1
