# generated using pymatgen
data_Dy10In8PtRh3
_symmetry_space_group_name_H-M   'P 1'
_cell_length_a   3.63543700
_cell_length_b   8.08101522
_cell_length_c   18.31125846
_cell_angle_alpha   90.02622054
_cell_angle_beta   90.00000000
_cell_angle_gamma   90.00000000
_symmetry_Int_Tables_number   1
_chemical_formula_structural   Dy10In8PtRh3
_chemical_formula_sum   'Dy10 In8 Pt1 Rh3'
_cell_volume   537.94849260
_cell_formula_units_Z   1
loop_
 _symmetry_equiv_pos_site_id
 _symmetry_equiv_pos_as_xyz
  1  'x, y, z'
loop_
 _atom_site_type_symbol
 _atom_site_label
 _atom_site_symmetry_multiplicity
 _atom_site_fract_x
 _atom_site_fract_y
 _atom_site_fract_z
 _atom_site_occupancy
  Dy  Dy0  1  0.000000  0.114966  0.412022  1
  Dy  Dy1  1  0.000000  0.884086  0.589233  1
  Dy  Dy2  1  0.000000  0.384554  0.910759  1
  Dy  Dy3  1  0.000000  0.617133  0.085992  1
  Dy  Dy4  1  0.000000  0.239401  0.221734  1
  Dy  Dy5  1  0.000000  0.754249  0.778795  1
  Dy  Dy6  1  0.000000  0.253830  0.721415  1
  Dy  Dy7  1  0.000000  0.750974  0.279738  1
  Dy  Dy8  1  0.000000  0.000281  0.999747  1
  Dy  Dy9  1  0.000000  0.500389  0.500053  1
  In  In10  1  0.500000  0.424903  0.351415  1
  In  In11  1  0.500000  0.572439  0.649979  1
  In  In12  1  0.500000  0.072509  0.849946  1
  In  In13  1  0.500000  0.928263  0.149747  1
  In  In14  1  0.500000  0.291712  0.066481  1
  In  In15  1  0.500000  0.707092  0.931659  1
  In  In16  1  0.500000  0.206486  0.568200  1
  In  In17  1  0.500000  0.793106  0.431958  1
  Pt  Pt18  1  0.500000  0.523645  0.196768  1
  Rh  Rh19  1  0.500000  0.022603  0.304654  1
  Rh  Rh20  1  0.500000  0.978902  0.694995  1
  Rh  Rh21  1  0.500000  0.478475  0.804710  1
