# generated using pymatgen
data_Sr4ZnGa23Pt9
_symmetry_space_group_name_H-M   'P 1'
_cell_length_a   7.65497374
_cell_length_b   7.69204426
_cell_length_c   13.51494934
_cell_angle_alpha   84.45583005
_cell_angle_beta   79.13527185
_cell_angle_gamma   60.14112311
_symmetry_Int_Tables_number   1
_chemical_formula_structural   Sr4ZnGa23Pt9
_chemical_formula_sum   'Sr4 Zn1 Ga23 Pt9'
_cell_volume   677.77991873
_cell_formula_units_Z   1
loop_
 _symmetry_equiv_pos_site_id
 _symmetry_equiv_pos_as_xyz
  1  'x, y, z'
loop_
 _atom_site_type_symbol
 _atom_site_label
 _atom_site_symmetry_multiplicity
 _atom_site_fract_x
 _atom_site_fract_y
 _atom_site_fract_z
 _atom_site_occupancy
  Sr  Sr0  1  0.394743  0.169583  0.808435  1
  Sr  Sr1  1  0.605038  0.831278  0.191764  1
  Sr  Sr2  1  0.731452  0.499496  0.807810  1
  Sr  Sr3  1  0.268256  0.499847  0.190984  1
  Zn  Zn4  1  0.690644  0.833287  0.946424  1
  Ga  Ga5  1  0.315737  0.161631  0.053805  1
  Ga  Ga6  1  0.146997  0.830913  0.558476  1
  Ga  Ga7  1  0.853397  0.168976  0.441874  1
  Ga  Ga8  1  0.478539  0.167192  0.554836  1
  Ga  Ga9  1  0.521206  0.833050  0.445136  1
  Ga  Ga10  1  0.214141  0.165135  0.330640  1
  Ga  Ga11  1  0.786684  0.835192  0.668725  1
  Ga  Ga12  1  0.433925  0.509530  0.669230  1
  Ga  Ga13  1  0.564475  0.491693  0.331757  1
  Ga  Ga14  1  0.108766  0.155618  0.667153  1
  Ga  Ga15  1  0.890740  0.843707  0.333765  1
  Ga  Ga16  1  0.348639  0.503857  0.944079  1
  Ga  Ga17  1  0.652451  0.502131  0.052675  1
  Ga  Ga18  1  0.015868  0.163853  0.951989  1
  Ga  Ga19  1  0.982164  0.835022  0.046235  1
  Ga  Ga20  1  0.186194  0.497648  0.444952  1
  Ga  Ga21  1  0.814429  0.502379  0.555237  1
  Ga  Ga22  1  0.736208  0.167804  0.182297  1
  Ga  Ga23  1  0.263405  0.833632  0.817211  1
  Ga  Ga24  1  0.057914  0.634170  0.816982  1
  Ga  Ga25  1  0.939324  0.365506  0.184184  1
  Ga  Ga26  1  0.857657  0.034531  0.816782  1
  Ga  Ga27  1  0.138451  0.962433  0.184938  1
  Pt  Pt28  1  0.120009  0.492367  0.637173  1
  Pt  Pt29  1  0.880023  0.507439  0.363072  1
  Pt  Pt30  1  0.659726  0.175240  0.999011  1
  Pt  Pt31  1  0.337078  0.829812  0.002019  1
  Pt  Pt32  1  0.539170  0.166853  0.362727  1
  Pt  Pt33  1  0.461323  0.833774  0.636951  1
  Pt  Pt34  1  0.779854  0.173839  0.634006  1
  Pt  Pt35  1  0.220221  0.826720  0.366389  1
  Pt  Pt36  1  0.005153  0.494863  0.000276  1
