# generated using pymatgen
data_Y2HoSi6Pd17Pt3
_symmetry_space_group_name_H-M   'P 1'
_cell_length_a   8.72576606
_cell_length_b   8.72576657
_cell_length_c   8.73446389
_cell_angle_alpha   59.85825970
_cell_angle_beta   59.85825796
_cell_angle_gamma   59.84698185
_symmetry_Int_Tables_number   1
_chemical_formula_structural   Y2HoSi6Pd17Pt3
_chemical_formula_sum   'Y2 Ho1 Si6 Pd17 Pt3'
_cell_volume   468.69686478
_cell_formula_units_Z   1
loop_
 _symmetry_equiv_pos_site_id
 _symmetry_equiv_pos_as_xyz
  1  'x, y, z'
loop_
 _atom_site_type_symbol
 _atom_site_label
 _atom_site_symmetry_multiplicity
 _atom_site_fract_x
 _atom_site_fract_y
 _atom_site_fract_z
 _atom_site_occupancy
  Y  Y0  1  0.250400  0.250400  0.249803  1
  Y  Y1  1  0.749642  0.749642  0.749951  1
  Ho  Ho2  1  0.999999  0.999999  0.000019  1
  Si  Si3  1  0.731324  0.267927  0.267283  1
  Si  Si4  1  0.268964  0.731426  0.732528  1
  Si  Si5  1  0.267927  0.731324  0.267283  1
  Si  Si6  1  0.731426  0.268964  0.732528  1
  Si  Si7  1  0.268144  0.268144  0.731421  1
  Si  Si8  1  0.732420  0.732420  0.268309  1
  Pd  Pd9  1  0.382718  0.849389  0.383032  1
  Pd  Pd10  1  0.617012  0.617012  0.150989  1
  Pd  Pd11  1  0.617999  0.150092  0.616119  1
  Pd  Pd12  1  0.849389  0.382718  0.383032  1
  Pd  Pd13  1  0.150092  0.617999  0.616119  1
  Pd  Pd14  1  0.344792  0.999836  0.000466  1
  Pd  Pd15  1  0.655121  0.999489  0.000412  1
  Pd  Pd16  1  0.999928  0.344791  0.655533  1
  Pd  Pd17  1  0.999718  0.655270  0.345197  1
  Pd  Pd18  1  0.999836  0.344792  0.000466  1
  Pd  Pd19  1  0.655270  0.999718  0.345197  1
  Pd  Pd20  1  0.999489  0.655121  0.000412  1
  Pd  Pd21  1  0.344791  0.999928  0.655533  1
  Pd  Pd22  1  0.999913  0.999913  0.345343  1
  Pd  Pd23  1  0.999792  0.999792  0.655255  1
  Pd  Pd24  1  0.655336  0.344663  0.000331  1
  Pd  Pd25  1  0.344663  0.655336  0.000331  1
  Pt  Pt26  1  0.384163  0.384163  0.384319  1
  Pt  Pt27  1  0.616547  0.616547  0.614648  1
  Pt  Pt28  1  0.383185  0.383185  0.848143  1
