# generated using pymatgen
data_Ba3YTc2O9
_symmetry_space_group_name_H-M   'P 1'
_cell_length_a   5.99891200
_cell_length_b   5.99891097
_cell_length_c   14.57687100
_cell_angle_alpha   90.00000000
_cell_angle_beta   90.00000000
_cell_angle_gamma   120.00000567
_symmetry_Int_Tables_number   1
_chemical_formula_structural   Ba3YTc2O9
_chemical_formula_sum   'Ba6 Y2 Tc4 O18'
_cell_volume   454.29695434
_cell_formula_units_Z   2
loop_
 _symmetry_equiv_pos_site_id
 _symmetry_equiv_pos_as_xyz
  1  'x, y, z'
loop_
 _atom_site_type_symbol
 _atom_site_label
 _atom_site_symmetry_multiplicity
 _atom_site_fract_x
 _atom_site_fract_y
 _atom_site_fract_z
 _atom_site_occupancy
  Ba  Ba0  1  0.333333  0.666667  0.596071  1
  Ba  Ba1  1  0.666667  0.333333  0.096071  1
  Ba  Ba2  1  0.666667  0.333333  0.403929  1
  Ba  Ba3  1  0.333333  0.666667  0.903929  1
  Ba  Ba4  1  0.000000  0.000000  0.750000  1
  Ba  Ba5  1  0.000000  0.000000  0.250000  1
  Y  Y6  1  0.000000  0.000000  0.000000  1
  Y  Y7  1  0.000000  0.000000  0.500000  1
  Tc  Tc8  1  0.666667  0.333333  0.664201  1
  Tc  Tc9  1  0.333333  0.666667  0.164201  1
  Tc  Tc10  1  0.666667  0.333333  0.835799  1
  Tc  Tc11  1  0.333333  0.666667  0.335799  1
  O  O12  1  0.175852  0.824148  0.088934  1
  O  O13  1  0.175852  0.351705  0.088934  1
  O  O14  1  0.648295  0.824148  0.088934  1
  O  O15  1  0.351705  0.175852  0.588934  1
  O  O16  1  0.824148  0.648295  0.911066  1
  O  O17  1  0.824148  0.175852  0.588934  1
  O  O18  1  0.824148  0.648295  0.588934  1
  O  O19  1  0.175852  0.824148  0.411066  1
  O  O20  1  0.648295  0.824148  0.411066  1
  O  O21  1  0.351705  0.175852  0.911066  1
  O  O22  1  0.824148  0.175852  0.911066  1
  O  O23  1  0.175852  0.351705  0.411066  1
  O  O24  1  0.491080  0.982160  0.250000  1
  O  O25  1  0.508920  0.491080  0.750000  1
  O  O26  1  0.982160  0.491080  0.750000  1
  O  O27  1  0.017840  0.508920  0.250000  1
  O  O28  1  0.491080  0.508920  0.250000  1
  O  O29  1  0.508920  0.017840  0.750000  1
