# generated using pymatgen
data_Nd3Ag5Ir
_symmetry_space_group_name_H-M   'P 1'
_cell_length_a   7.86275600
_cell_length_b   7.86275612
_cell_length_c   3.92487800
_cell_angle_alpha   90.00000000
_cell_angle_beta   90.00000000
_cell_angle_gamma   120.00000063
_symmetry_Int_Tables_number   1
_chemical_formula_structural   Nd3Ag5Ir
_chemical_formula_sum   'Nd3 Ag5 Ir1'
_cell_volume   210.13887103
_cell_formula_units_Z   1
loop_
 _symmetry_equiv_pos_site_id
 _symmetry_equiv_pos_as_xyz
  1  'x, y, z'
loop_
 _atom_site_type_symbol
 _atom_site_label
 _atom_site_symmetry_multiplicity
 _atom_site_fract_x
 _atom_site_fract_y
 _atom_site_fract_z
 _atom_site_occupancy
  Nd  Nd0  1  0.582054  0.970011  0.000000  1
  Nd  Nd1  1  0.029989  0.612042  0.000000  1
  Nd  Nd2  1  0.387958  0.417946  0.000000  1
  Ag  Ag3  1  0.265789  0.006727  0.500000  1
  Ag  Ag4  1  0.993273  0.259062  0.500000  1
  Ag  Ag5  1  0.740938  0.734211  0.500000  1
  Ag  Ag6  1  0.666667  0.333333  0.500000  1
  Ag  Ag7  1  0.000000  0.000000  0.000000  1
  Ir  Ir8  1  0.333333  0.666667  0.500000  1
