# generated using pymatgen
data_TmLu4In2Sb
_symmetry_space_group_name_H-M   'P 1'
_cell_length_a   6.45300501
_cell_length_b   8.81565243
_cell_length_c   8.78135800
_cell_angle_alpha   119.78988408
_cell_angle_beta   90.00318754
_cell_angle_gamma   90.00269942
_symmetry_Int_Tables_number   1
_chemical_formula_structural   TmLu4In2Sb
_chemical_formula_sum   'Tm2 Lu8 In4 Sb2'
_cell_volume   433.53523814
_cell_formula_units_Z   2
loop_
 _symmetry_equiv_pos_site_id
 _symmetry_equiv_pos_as_xyz
  1  'x, y, z'
loop_
 _atom_site_type_symbol
 _atom_site_label
 _atom_site_symmetry_multiplicity
 _atom_site_fract_x
 _atom_site_fract_y
 _atom_site_fract_z
 _atom_site_occupancy
  Tm  Tm0  1  0.750350  0.233356  0.994642  1
  Tm  Tm1  1  0.750345  0.766389  0.759789  1
  Lu  Lu2  1  0.495361  0.334151  0.669252  1
  Lu  Lu3  1  0.495427  0.666122  0.335003  1
  Lu  Lu4  1  0.004434  0.665977  0.335192  1
  Lu  Lu5  1  0.004507  0.334324  0.669208  1
  Lu  Lu6  1  0.749949  0.999906  0.234479  1
  Lu  Lu7  1  0.250047  0.764925  0.001516  1
  Lu  Lu8  1  0.250048  0.233738  0.235936  1
  Lu  Lu9  1  0.250038  0.000045  0.764631  1
  In  In10  1  0.749858  0.000842  0.594420  1
  In  In11  1  0.249738  0.396283  0.002757  1
  In  In12  1  0.250267  0.603913  0.606452  1
  In  In13  1  0.249581  0.999606  0.399628  1
  Sb  Sb14  1  0.750106  0.606202  0.001337  1
  Sb  Sb15  1  0.749945  0.394220  0.395758  1
