# generated using pymatgen
data_Nd3Tl2InPd2Pt
_symmetry_space_group_name_H-M   'P 1'
_cell_length_a   7.97306825
_cell_length_b   8.00205449
_cell_length_c   3.90354200
_cell_angle_alpha   90.00000000
_cell_angle_beta   90.00000000
_cell_angle_gamma   119.71563588
_symmetry_Int_Tables_number   1
_chemical_formula_structural   Nd3Tl2InPd2Pt
_chemical_formula_sum   'Nd3 Tl2 In1 Pd2 Pt1'
_cell_volume   216.29864613
_cell_formula_units_Z   1
loop_
 _symmetry_equiv_pos_site_id
 _symmetry_equiv_pos_as_xyz
  1  'x, y, z'
loop_
 _atom_site_type_symbol
 _atom_site_label
 _atom_site_symmetry_multiplicity
 _atom_site_fract_x
 _atom_site_fract_y
 _atom_site_fract_z
 _atom_site_occupancy
  Nd  Nd0  1  0.007835  0.593707  0.000000  1
  Nd  Nd1  1  0.406764  0.413357  0.000000  1
  Nd  Nd2  1  0.586880  0.994207  0.000000  1
  Tl  Tl3  1  0.742614  0.735783  0.500000  1
  Tl  Tl4  1  0.994326  0.257934  0.500000  1
  In  In5  1  0.261782  0.004846  0.500000  1
  Pd  Pd6  1  0.009343  0.000189  0.000000  1
  Pd  Pd7  1  0.658408  0.326459  0.500000  1
  Pt  Pt8  1  0.332048  0.673518  0.500000  1
