# generated using pymatgen
data_La2ErTm(SeO3)6
_symmetry_space_group_name_H-M   'P 1'
_cell_length_a   7.26287467
_cell_length_b   8.31044946
_cell_length_c   9.24946329
_cell_angle_alpha   70.72665751
_cell_angle_beta   70.24194336
_cell_angle_gamma   65.97222012
_symmetry_Int_Tables_number   1
_chemical_formula_structural   La2ErTm(SeO3)6
_chemical_formula_sum   'La2 Er1 Tm1 Se6 O18'
_cell_volume   467.70321757
_cell_formula_units_Z   1
loop_
 _symmetry_equiv_pos_site_id
 _symmetry_equiv_pos_as_xyz
  1  'x, y, z'
loop_
 _atom_site_type_symbol
 _atom_site_label
 _atom_site_symmetry_multiplicity
 _atom_site_fract_x
 _atom_site_fract_y
 _atom_site_fract_z
 _atom_site_occupancy
  La  La0  1  0.330939  0.731757  0.593844  1
  La  La1  1  0.669672  0.267444  0.406255  1
  Er  Er2  1  0.261185  0.264345  0.194354  1
  Tm  Tm3  1  0.738899  0.736304  0.805581  1
  Se  Se4  1  0.422846  0.785552  0.190683  1
  Se  Se5  1  0.577728  0.213323  0.809039  1
  Se  Se6  1  0.147559  0.747377  0.972303  1
  Se  Se7  1  0.851907  0.254508  0.026573  1
  Se  Se8  1  0.886500  0.749714  0.427271  1
  Se  Se9  1  0.113306  0.249786  0.573991  1
  O  O10  1  0.642846  0.791712  0.046788  1
  O  O11  1  0.357052  0.207420  0.951954  1
  O  O12  1  0.365374  0.953541  0.288377  1
  O  O13  1  0.636166  0.044827  0.711592  1
  O  O14  1  0.509680  0.604817  0.342176  1
  O  O15  1  0.491372  0.394025  0.657395  1
  O  O16  1  0.171856  0.559926  0.121783  1
  O  O17  1  0.826724  0.442711  0.877944  1
  O  O18  1  0.401388  0.714130  0.857279  1
  O  O19  1  0.598570  0.286305  0.142085  1
  O  O20  1  0.343234  0.244388  0.428672  1
  O  O21  1  0.656609  0.755839  0.572872  1
  O  O22  1  0.977145  0.294583  0.433384  1
  O  O23  1  0.022094  0.705544  0.568035  1
  O  O24  1  0.143844  0.030225  0.659374  1
  O  O25  1  0.856480  0.968989  0.340803  1
  O  O26  1  0.944938  0.298955  0.155403  1
  O  O27  1  0.054086  0.701957  0.844190  1
