# generated using pymatgen
data_TbDy3(LuSi2)2
_symmetry_space_group_name_H-M   'P 1'
_cell_length_a   7.38334219
_cell_length_b   7.38334219
_cell_length_c   4.23970600
_cell_angle_alpha   90.00000000
_cell_angle_beta   90.00000000
_cell_angle_gamma   90.02619824
_symmetry_Int_Tables_number   1
_chemical_formula_structural   TbDy3(LuSi2)2
_chemical_formula_sum   'Tb1 Dy3 Lu2 Si4'
_cell_volume   231.12221462
_cell_formula_units_Z   1
loop_
 _symmetry_equiv_pos_site_id
 _symmetry_equiv_pos_as_xyz
  1  'x, y, z'
loop_
 _atom_site_type_symbol
 _atom_site_label
 _atom_site_symmetry_multiplicity
 _atom_site_fract_x
 _atom_site_fract_y
 _atom_site_fract_z
 _atom_site_occupancy
  Tb  Tb0  1  0.824225  0.675775  0.500000  1
  Dy  Dy1  1  0.324252  0.824297  0.500000  1
  Dy  Dy2  1  0.675703  0.175748  0.500000  1
  Dy  Dy3  1  0.175785  0.324215  0.500000  1
  Lu  Lu4  1  0.000052  0.000045  0.000000  1
  Lu  Lu5  1  0.499955  0.499948  0.000000  1
  Si  Si6  1  0.617567  0.882433  0.000000  1
  Si  Si7  1  0.382292  0.117708  0.000000  1
  Si  Si8  1  0.882294  0.382124  0.000000  1
  Si  Si9  1  0.117876  0.617706  0.000000  1
