# generated using pymatgen
data_Tm2ScCo8P6Ru
_symmetry_space_group_name_H-M   'P 1'
_cell_length_a   3.65358400
_cell_length_b   10.44232900
_cell_length_c   12.10683600
_cell_angle_alpha   90.00000000
_cell_angle_beta   90.00000000
_cell_angle_gamma   90.00000000
_symmetry_Int_Tables_number   1
_chemical_formula_structural   Tm2ScCo8P6Ru
_chemical_formula_sum   'Tm4 Sc2 Co16 P12 Ru2'
_cell_volume   461.89911307
_cell_formula_units_Z   2
loop_
 _symmetry_equiv_pos_site_id
 _symmetry_equiv_pos_as_xyz
  1  'x, y, z'
loop_
 _atom_site_type_symbol
 _atom_site_label
 _atom_site_symmetry_multiplicity
 _atom_site_fract_x
 _atom_site_fract_y
 _atom_site_fract_z
 _atom_site_occupancy
  Tm  Tm0  1  0.000000  0.500000  0.524817  1
  Tm  Tm1  1  0.500000  0.000000  0.472293  1
  Tm  Tm2  1  0.000000  0.682587  0.793509  1
  Tm  Tm3  1  0.000000  0.317413  0.793509  1
  Sc  Sc4  1  0.500000  0.818428  0.207460  1
  Sc  Sc5  1  0.500000  0.181572  0.207460  1
  Co  Co6  1  0.500000  0.500000  0.703671  1
  Co  Co7  1  0.000000  0.000000  0.295012  1
  Co  Co8  1  0.000000  0.500000  0.988509  1
  Co  Co9  1  0.500000  0.000000  0.016576  1
  Co  Co10  1  0.500000  0.331430  0.992061  1
  Co  Co11  1  0.500000  0.668570  0.992061  1
  Co  Co12  1  0.000000  0.166913  0.012386  1
  Co  Co13  1  0.000000  0.833087  0.012386  1
  Co  Co14  1  0.500000  0.296855  0.429262  1
  Co  Co15  1  0.500000  0.703145  0.429262  1
  Co  Co16  1  0.000000  0.202217  0.566659  1
  Co  Co17  1  0.000000  0.797783  0.566659  1
  Co  Co18  1  0.500000  0.878282  0.706832  1
  Co  Co19  1  0.500000  0.121718  0.706832  1
  Co  Co20  1  0.000000  0.623285  0.291547  1
  Co  Co21  1  0.000000  0.376715  0.291547  1
  P  P22  1  0.500000  0.500000  0.882175  1
  P  P23  1  0.000000  0.000000  0.121524  1
  P  P24  1  0.500000  0.500000  0.351573  1
  P  P25  1  0.000000  0.000000  0.647265  1
  P  P26  1  0.500000  0.312539  0.615526  1
  P  P27  1  0.500000  0.687461  0.615526  1
  P  P28  1  0.000000  0.186279  0.379451  1
  P  P29  1  0.000000  0.813721  0.379451  1
  P  P30  1  0.500000  0.846703  0.893443  1
  P  P31  1  0.500000  0.153297  0.893443  1
  P  P32  1  0.000000  0.656903  0.109947  1
  P  P33  1  0.000000  0.343097  0.109947  1
  Ru  Ru34  1  0.500000  0.500000  0.159805  1
  Ru  Ru35  1  0.000000  0.000000  0.840610  1
