# generated using pymatgen
data_SmDy16Ho3Sn16
_symmetry_space_group_name_H-M   'P 1'
_cell_length_a   8.03360485
_cell_length_b   8.18325175
_cell_length_c   15.45952401
_cell_angle_alpha   90.00884344
_cell_angle_beta   89.90995370
_cell_angle_gamma   89.94066168
_symmetry_Int_Tables_number   1
_chemical_formula_structural   SmDy16Ho3Sn16
_chemical_formula_sum   'Sm1 Dy16 Ho3 Sn16'
_cell_volume   1016.32292540
_cell_formula_units_Z   1
loop_
 _symmetry_equiv_pos_site_id
 _symmetry_equiv_pos_as_xyz
  1  'x, y, z'
loop_
 _atom_site_type_symbol
 _atom_site_label
 _atom_site_symmetry_multiplicity
 _atom_site_fract_x
 _atom_site_fract_y
 _atom_site_fract_z
 _atom_site_occupancy
  Sm  Sm0  1  0.019204  0.179724  0.902297  1
  Dy  Dy1  1  0.367427  0.834894  0.878093  1
  Dy  Dy2  1  0.867414  0.664970  0.621528  1
  Dy  Dy3  1  0.632427  0.164783  0.378223  1
  Dy  Dy4  1  0.133017  0.335449  0.122129  1
  Dy  Dy5  1  0.632900  0.164799  0.121975  1
  Dy  Dy6  1  0.132487  0.335191  0.378188  1
  Dy  Dy7  1  0.367612  0.835074  0.621635  1
  Dy  Dy8  1  0.867176  0.664913  0.878177  1
  Dy  Dy9  1  0.520349  0.320848  0.901594  1
  Dy  Dy10  1  0.020513  0.179525  0.598595  1
  Dy  Dy11  1  0.479632  0.679429  0.401577  1
  Dy  Dy12  1  0.979986  0.820193  0.098526  1
  Dy  Dy13  1  0.479843  0.679607  0.098424  1
  Dy  Dy14  1  0.979657  0.820552  0.401600  1
  Dy  Dy15  1  0.520446  0.320683  0.598100  1
  Dy  Dy16  1  0.198180  0.502613  0.749699  1
  Ho  Ho17  1  0.697773  0.997279  0.749572  1
  Ho  Ho18  1  0.801914  0.497591  0.250104  1
  Ho  Ho19  1  0.301982  0.002357  0.250058  1
  Sn  Sn20  1  0.294486  0.034190  0.042414  1
  Sn  Sn21  1  0.792753  0.465015  0.458262  1
  Sn  Sn22  1  0.707320  0.965240  0.541607  1
  Sn  Sn23  1  0.207726  0.536210  0.958783  1
  Sn  Sn24  1  0.704911  0.963364  0.958766  1
  Sn  Sn25  1  0.207160  0.534938  0.541467  1
  Sn  Sn26  1  0.292830  0.034953  0.458306  1
  Sn  Sn27  1  0.792851  0.465158  0.041758  1
  Sn  Sn28  1  0.565113  0.619388  0.749908  1
  Sn  Sn29  1  0.064956  0.880059  0.749789  1
  Sn  Sn30  1  0.435256  0.380893  0.250059  1
  Sn  Sn31  1  0.935166  0.119312  0.250110  1
  Sn  Sn32  1  0.328892  0.146115  0.749600  1
  Sn  Sn33  1  0.826649  0.354553  0.749038  1
  Sn  Sn34  1  0.672030  0.853624  0.249995  1
  Sn  Sn35  1  0.171961  0.646514  0.250044  1
