# generated using pymatgen
data_Sm(FeTc2)4
_symmetry_space_group_name_H-M   'P 1'
_cell_length_a   4.78250747
_cell_length_b   6.73636925
_cell_length_c   6.73636945
_cell_angle_alpha   82.76100155
_cell_angle_beta   69.20797406
_cell_angle_gamma   69.20797874
_symmetry_Int_Tables_number   1
_chemical_formula_structural   Sm(FeTc2)4
_chemical_formula_sum   'Sm1 Fe4 Tc8'
_cell_volume   189.67698101
_cell_formula_units_Z   1
loop_
 _symmetry_equiv_pos_site_id
 _symmetry_equiv_pos_as_xyz
  1  'x, y, z'
loop_
 _atom_site_type_symbol
 _atom_site_label
 _atom_site_symmetry_multiplicity
 _atom_site_fract_x
 _atom_site_fract_y
 _atom_site_fract_z
 _atom_site_occupancy
  Sm  Sm0  1  0.000000  0.000000  0.000000  1
  Fe  Fe1  1  0.000000  0.000000  0.500000  1
  Fe  Fe2  1  0.500000  0.000000  0.500000  1
  Fe  Fe3  1  0.500000  0.500000  0.000000  1
  Fe  Fe4  1  0.000000  0.500000  0.000000  1
  Tc  Tc5  1  0.000000  0.358173  0.641827  1
  Tc  Tc6  1  0.000000  0.641827  0.358173  1
  Tc  Tc7  1  0.641827  0.358173  0.358173  1
  Tc  Tc8  1  0.358173  0.641827  0.641827  1
  Tc  Tc9  1  0.500000  0.782330  0.217670  1
  Tc  Tc10  1  0.500000  0.217670  0.782330  1
  Tc  Tc11  1  0.717670  0.782330  0.782330  1
  Tc  Tc12  1  0.282330  0.217670  0.217670  1
