# generated using pymatgen
data_Ho7ErGa12CoNi3
_symmetry_space_group_name_H-M   'P 1'
_cell_length_a   6.99548300
_cell_length_b   8.73576749
_cell_length_c   8.73505901
_cell_angle_alpha   120.00267710
_cell_angle_beta   89.99970171
_cell_angle_gamma   89.99999569
_symmetry_Int_Tables_number   1
_chemical_formula_structural   Ho7ErGa12CoNi3
_chemical_formula_sum   'Ho7 Er1 Ga12 Co1 Ni3'
_cell_volume   462.27832461
_cell_formula_units_Z   1
loop_
 _symmetry_equiv_pos_site_id
 _symmetry_equiv_pos_as_xyz
  1  'x, y, z'
loop_
 _atom_site_type_symbol
 _atom_site_label
 _atom_site_symmetry_multiplicity
 _atom_site_fract_x
 _atom_site_fract_y
 _atom_site_fract_z
 _atom_site_occupancy
  Ho  Ho0  1  0.748294  0.999997  0.999995  1
  Ho  Ho1  1  0.249830  0.999996  0.999991  1
  Ho  Ho2  1  0.750260  0.478298  0.521694  1
  Ho  Ho3  1  0.252984  0.524884  0.475041  1
  Ho  Ho4  1  0.750260  0.043397  0.521694  1
  Ho  Ho5  1  0.252984  0.950157  0.475041  1
  Ho  Ho6  1  0.750249  0.478316  0.956631  1
  Er  Er7  1  0.253030  0.524949  0.049898  1
  Ga  Ga8  1  0.954521  0.828752  0.171145  1
  Ga  Ga9  1  0.047219  0.171880  0.828307  1
  Ga  Ga10  1  0.954521  0.342394  0.171145  1
  Ga  Ga11  1  0.454362  0.171486  0.828690  1
  Ga  Ga12  1  0.047219  0.656426  0.828307  1
  Ga  Ga13  1  0.545498  0.827265  0.172618  1
  Ga  Ga14  1  0.954420  0.828811  0.657622  1
  Ga  Ga15  1  0.454362  0.657202  0.828690  1
  Ga  Ga16  1  0.047146  0.171767  0.343536  1
  Ga  Ga17  1  0.545498  0.345354  0.172618  1
  Ga  Ga18  1  0.454432  0.171381  0.342762  1
  Ga  Ga19  1  0.545617  0.827332  0.654663  1
  Co  Co20  1  0.516945  0.666611  0.333221  1
  Ni  Ni21  1  0.969517  0.666610  0.333219  1
  Ni  Ni22  1  0.028650  0.333364  0.666728  1
  Ni  Ni23  1  0.472180  0.333371  0.666743  1
