# generated using pymatgen
data_Nd10Al3ZnRu6
_symmetry_space_group_name_H-M   'P 1'
_cell_length_a   8.55939486
_cell_length_b   8.55939461
_cell_length_c   8.49609900
_cell_angle_alpha   109.32149798
_cell_angle_beta   109.32149740
_cell_angle_gamma   109.62053193
_symmetry_Int_Tables_number   1
_chemical_formula_structural   Nd10Al3ZnRu6
_chemical_formula_sum   'Nd10 Al3 Zn1 Ru6'
_cell_volume   480.04605897
_cell_formula_units_Z   1
loop_
 _symmetry_equiv_pos_site_id
 _symmetry_equiv_pos_as_xyz
  1  'x, y, z'
loop_
 _atom_site_type_symbol
 _atom_site_label
 _atom_site_symmetry_multiplicity
 _atom_site_fract_x
 _atom_site_fract_y
 _atom_site_fract_z
 _atom_site_occupancy
  Nd  Nd0  1  0.250445  0.683829  0.435975  1
  Nd  Nd1  1  0.748578  0.815706  0.063974  1
  Nd  Nd2  1  0.433386  0.249555  0.685528  1
  Nd  Nd3  1  0.684294  0.432873  0.248268  1
  Nd  Nd4  1  0.067128  0.751422  0.815396  1
  Nd  Nd5  1  0.816171  0.066615  0.752145  1
  Nd  Nd6  1  0.214866  0.215094  0.214785  1
  Nd  Nd7  1  0.500001  0.000000  0.283103  1
  Nd  Nd8  1  0.284906  0.499773  0.999692  1
  Nd  Nd9  1  0.000228  0.285134  0.499921  1
  Al  Al10  1  0.591185  0.588992  0.589720  1
  Al  Al11  1  0.911008  0.502193  0.000727  1
  Al  Al12  1  0.997808  0.908815  0.498536  1
  Zn  Zn13  1  0.500001  0.000000  0.913840  1
  Ru  Ru14  1  0.241798  0.121165  0.866311  1
  Ru  Ru15  1  0.749365  0.380942  0.630909  1
  Ru  Ru16  1  0.879367  0.258204  0.124514  1
  Ru  Ru17  1  0.119057  0.868422  0.249968  1
  Ru  Ru18  1  0.631577  0.750635  0.381543  1
  Ru  Ru19  1  0.378834  0.620632  0.745147  1
