# generated using pymatgen
data_Lu4Th6Si3Ge3C2
_symmetry_space_group_name_H-M   'P 1'
_cell_length_a   8.72670900
_cell_length_b   8.72668836
_cell_length_c   6.33432101
_cell_angle_alpha   89.99985886
_cell_angle_beta   90.00006877
_cell_angle_gamma   119.99992521
_symmetry_Int_Tables_number   1
_chemical_formula_structural   Lu4Th6Si3Ge3C2
_chemical_formula_sum   'Lu4 Th6 Si3 Ge3 C2'
_cell_volume   417.76397728
_cell_formula_units_Z   1
loop_
 _symmetry_equiv_pos_site_id
 _symmetry_equiv_pos_as_xyz
  1  'x, y, z'
loop_
 _atom_site_type_symbol
 _atom_site_label
 _atom_site_symmetry_multiplicity
 _atom_site_fract_x
 _atom_site_fract_y
 _atom_site_fract_z
 _atom_site_occupancy
  Lu  Lu0  1  0.666663  0.333332  0.497046  1
  Lu  Lu1  1  0.333337  0.666670  0.497046  1
  Lu  Lu2  1  0.333329  0.666667  0.002952  1
  Lu  Lu3  1  0.666671  0.333337  0.002952  1
  Th  Th4  1  0.766050  0.766040  0.250005  1
  Th  Th5  1  0.233950  0.999990  0.250005  1
  Th  Th6  1  0.000000  0.233952  0.249998  1
  Th  Th7  1  0.233997  0.234016  0.750004  1
  Th  Th8  1  0.766003  0.000020  0.750004  1
  Th  Th9  1  0.000000  0.765987  0.750001  1
  Si  Si10  1  0.403153  0.403149  0.249996  1
  Si  Si11  1  0.596847  0.999996  0.249996  1
  Si  Si12  1  0.000000  0.596835  0.250005  1
  Ge  Ge13  1  0.595762  0.595761  0.749998  1
  Ge  Ge14  1  0.404238  0.999999  0.749998  1
  Ge  Ge15  1  0.000000  0.404249  0.749992  1
  C  C16  1  0.000000  0.999999  0.500858  1
  C  C17  1  0.000000  0.999999  0.999142  1
