# generated using pymatgen
data_Ti10V9Si16Pt
_symmetry_space_group_name_H-M   'P 1'
_cell_length_a   6.52361145
_cell_length_b   6.52361171
_cell_length_c   12.00425625
_cell_angle_alpha   89.79590401
_cell_angle_beta   90.20409432
_cell_angle_gamma   89.83748926
_symmetry_Int_Tables_number   1
_chemical_formula_structural   Ti10V9Si16Pt
_chemical_formula_sum   'Ti10 V9 Si16 Pt1'
_cell_volume   510.86267624
_cell_formula_units_Z   1
loop_
 _symmetry_equiv_pos_site_id
 _symmetry_equiv_pos_as_xyz
  1  'x, y, z'
loop_
 _atom_site_type_symbol
 _atom_site_label
 _atom_site_symmetry_multiplicity
 _atom_site_fract_x
 _atom_site_fract_y
 _atom_site_fract_z
 _atom_site_occupancy
  Ti  Ti0  1  0.997184  0.343065  0.221650  1
  Ti  Ti1  1  0.158596  0.502994  0.469177  1
  Ti  Ti2  1  0.835443  0.498791  0.969924  1
  Ti  Ti3  1  0.502994  0.158596  0.530823  1
  Ti  Ti4  1  0.498791  0.835443  0.030076  1
  Ti  Ti5  1  0.998175  0.658060  0.719298  1
  Ti  Ti6  1  0.343065  0.997184  0.778350  1
  Ti  Ti7  1  0.658060  0.998175  0.280702  1
  Ti  Ti8  1  0.332076  0.668929  0.249772  1
  Ti  Ti9  1  0.668929  0.332076  0.750228  1
  V  V10  1  0.994818  0.153639  0.621557  1
  V  V11  1  0.347915  0.500853  0.869540  1
  V  V12  1  0.653597  0.506246  0.371746  1
  V  V13  1  0.500853  0.347915  0.130460  1
  V  V14  1  0.506246  0.653597  0.628254  1
  V  V15  1  0.004807  0.837570  0.122166  1
  V  V16  1  0.153639  0.994818  0.378443  1
  V  V17  1  0.837570  0.004807  0.877834  1
  V  V18  1  0.833837  0.833837  0.500000  1
  Si  Si19  1  0.044543  0.296265  0.814192  1
  Si  Si20  1  0.209089  0.544630  0.060661  1
  Si  Si21  1  0.798098  0.460626  0.561958  1
  Si  Si22  1  0.544630  0.209089  0.939339  1
  Si  Si23  1  0.460626  0.798098  0.438042  1
  Si  Si24  1  0.955507  0.704870  0.314914  1
  Si  Si25  1  0.296265  0.044543  0.185808  1
  Si  Si26  1  0.704870  0.955507  0.685086  1
  Si  Si27  1  0.291077  0.364574  0.673120  1
  Si  Si28  1  0.125949  0.789070  0.922004  1
  Si  Si29  1  0.864972  0.206857  0.423308  1
  Si  Si30  1  0.789070  0.125949  0.077996  1
  Si  Si31  1  0.206857  0.864972  0.576692  1
  Si  Si32  1  0.708663  0.635671  0.174212  1
  Si  Si33  1  0.364574  0.291077  0.326880  1
  Si  Si34  1  0.635671  0.708663  0.825788  1
  Pt  Pt35  1  0.172941  0.172941  0.000000  1
