# generated using pymatgen
data_PrDyB5
_symmetry_space_group_name_H-M   'P 1'
_cell_length_a   7.21749600
_cell_length_b   7.20374890
_cell_length_c   7.22433893
_cell_angle_alpha   76.86002752
_cell_angle_beta   90.00000000
_cell_angle_gamma   90.00000000
_symmetry_Int_Tables_number   1
_chemical_formula_structural   PrDyB5
_chemical_formula_sum   'Pr4 Dy4 B20'
_cell_volume   365.78075604
_cell_formula_units_Z   4
loop_
 _symmetry_equiv_pos_site_id
 _symmetry_equiv_pos_as_xyz
  1  'x, y, z'
loop_
 _atom_site_type_symbol
 _atom_site_label
 _atom_site_symmetry_multiplicity
 _atom_site_fract_x
 _atom_site_fract_y
 _atom_site_fract_z
 _atom_site_occupancy
  Pr  Pr0  1  0.688681  0.778288  0.623138  1
  Pr  Pr1  1  0.188681  0.221712  0.876862  1
  Pr  Pr2  1  0.311319  0.221712  0.376862  1
  Pr  Pr3  1  0.811319  0.778288  0.123138  1
  Dy  Dy4  1  0.316028  0.749647  0.255281  1
  Dy  Dy5  1  0.816028  0.250353  0.244719  1
  Dy  Dy6  1  0.683972  0.250353  0.744719  1
  Dy  Dy7  1  0.183972  0.749647  0.755281  1
  B  B8  1  0.505223  0.315173  0.039324  1
  B  B9  1  0.005223  0.684827  0.460676  1
  B  B10  1  0.494777  0.684827  0.960676  1
  B  B11  1  0.994777  0.315173  0.539324  1
  B  B12  1  0.484307  0.924468  0.928895  1
  B  B13  1  0.984307  0.075532  0.571105  1
  B  B14  1  0.515693  0.075532  0.071105  1
  B  B15  1  0.015693  0.924468  0.428895  1
  B  B16  1  0.327413  0.496136  0.040320  1
  B  B17  1  0.827413  0.503864  0.459680  1
  B  B18  1  0.672587  0.503864  0.959680  1
  B  B19  1  0.172587  0.496136  0.540320  1
  B  B20  1  0.909704  0.498838  0.910018  1
  B  B21  1  0.409704  0.501162  0.589982  1
  B  B22  1  0.090296  0.501162  0.089982  1
  B  B23  1  0.590296  0.498838  0.410018  1
  B  B24  1  0.961057  0.496740  0.673032  1
  B  B25  1  0.461057  0.503260  0.826968  1
  B  B26  1  0.038943  0.503260  0.326968  1
  B  B27  1  0.538943  0.496740  0.173032  1
