# generated using pymatgen
data_Tb11Er(TcRu)2
_symmetry_space_group_name_H-M   'P 1'
_cell_length_a   6.31033393
_cell_length_b   7.40425594
_cell_length_c   9.23167444
_cell_angle_alpha   90.04388371
_cell_angle_beta   90.10115869
_cell_angle_gamma   90.01969809
_symmetry_Int_Tables_number   1
_chemical_formula_structural   Tb11Er(TcRu)2
_chemical_formula_sum   'Tb11 Er1 Tc2 Ru2'
_cell_volume   431.33372409
_cell_formula_units_Z   1
loop_
 _symmetry_equiv_pos_site_id
 _symmetry_equiv_pos_as_xyz
  1  'x, y, z'
loop_
 _atom_site_type_symbol
 _atom_site_label
 _atom_site_symmetry_multiplicity
 _atom_site_fract_x
 _atom_site_fract_y
 _atom_site_fract_z
 _atom_site_occupancy
  Tb  Tb0  1  0.332860  0.676886  0.064980  1
  Tb  Tb1  1  0.166427  0.176645  0.433962  1
  Tb  Tb2  1  0.665498  0.323897  0.563534  1
  Tb  Tb3  1  0.835327  0.824778  0.937081  1
  Tb  Tb4  1  0.664817  0.323857  0.936852  1
  Tb  Tb5  1  0.834691  0.824094  0.563750  1
  Tb  Tb6  1  0.333560  0.676538  0.435009  1
  Tb  Tb7  1  0.872318  0.540327  0.249510  1
  Tb  Tb8  1  0.627452  0.041251  0.249185  1
  Tb  Tb9  1  0.135396  0.456379  0.750677  1
  Tb  Tb10  1  0.364933  0.957119  0.750741  1
  Er  Er11  1  0.166237  0.176045  0.064954  1
  Tc  Tc12  1  0.038762  0.886115  0.249556  1
  Tc  Tc13  1  0.460280  0.385114  0.248939  1
  Ru  Ru14  1  0.961313  0.115585  0.751978  1
  Ru  Ru15  1  0.540129  0.615370  0.749293  1
