# generated using pymatgen
data_Dy2AlAgPt2
_symmetry_space_group_name_H-M   'P 1'
_cell_length_a   4.18862500
_cell_length_b   7.02927621
_cell_length_c   8.37633435
_cell_angle_alpha   92.54609431
_cell_angle_beta   90.00000000
_cell_angle_gamma   90.00000000
_symmetry_Int_Tables_number   1
_chemical_formula_structural   Dy2AlAgPt2
_chemical_formula_sum   'Dy4 Al2 Ag2 Pt4'
_cell_volume   246.38096359
_cell_formula_units_Z   2
loop_
 _symmetry_equiv_pos_site_id
 _symmetry_equiv_pos_as_xyz
  1  'x, y, z'
loop_
 _atom_site_type_symbol
 _atom_site_label
 _atom_site_symmetry_multiplicity
 _atom_site_fract_x
 _atom_site_fract_y
 _atom_site_fract_z
 _atom_site_occupancy
  Dy  Dy0  1  0.250000  0.454831  0.178868  1
  Dy  Dy1  1  0.750000  0.545169  0.821132  1
  Dy  Dy2  1  0.750000  0.038855  0.685176  1
  Dy  Dy3  1  0.250000  0.961145  0.314824  1
  Al  Al4  1  0.750000  0.636830  0.439588  1
  Al  Al5  1  0.250000  0.363170  0.560412  1
  Ag  Ag6  1  0.250000  0.863014  0.933643  1
  Ag  Ag7  1  0.750000  0.136986  0.066357  1
  Pt  Pt8  1  0.250000  0.733381  0.599407  1
  Pt  Pt9  1  0.750000  0.266619  0.400593  1
  Pt  Pt10  1  0.750000  0.736446  0.147045  1
  Pt  Pt11  1  0.250000  0.263554  0.852955  1
