# generated using pymatgen
data_Cu9(AsS3)4
_symmetry_space_group_name_H-M   'P 1'
_cell_length_a   8.26882602
_cell_length_b   8.27291489
_cell_length_c   8.27559163
_cell_angle_alpha   107.22359727
_cell_angle_beta   107.23220653
_cell_angle_gamma   107.18707013
_symmetry_Int_Tables_number   1
_chemical_formula_structural   Cu9(AsS3)4
_chemical_formula_sum   'Cu9 As4 S12'
_cell_volume   468.67914870
_cell_formula_units_Z   1
loop_
 _symmetry_equiv_pos_site_id
 _symmetry_equiv_pos_as_xyz
  1  'x, y, z'
loop_
 _atom_site_type_symbol
 _atom_site_label
 _atom_site_symmetry_multiplicity
 _atom_site_fract_x
 _atom_site_fract_y
 _atom_site_fract_z
 _atom_site_occupancy
  Cu  Cu0  1  0.395559  0.169213  0.458441  1
  Cu  Cu1  1  0.072174  0.219807  0.700776  1
  Cu  Cu2  1  0.220406  0.700953  0.072223  1
  Cu  Cu3  1  0.170927  0.459000  0.396596  1
  Cu  Cu4  1  0.458361  0.395381  0.169993  1
  Cu  Cu5  1  0.701727  0.072920  0.219130  1
  Cu  Cu6  1  0.302538  0.912881  0.765521  1
  Cu  Cu7  1  0.912881  0.765702  0.303552  1
  Cu  Cu8  1  0.764972  0.303495  0.912957  1
  As  As9  1  0.978338  0.978825  0.978861  1
  As  As10  1  0.556384  0.621158  0.839008  1
  As  As11  1  0.621754  0.839220  0.556090  1
  As  As12  1  0.838701  0.555820  0.621190  1
  S  S13  1  0.219748  0.135589  0.919417  1
  S  S14  1  0.135526  0.919146  0.219988  1
  S  S15  1  0.920225  0.221265  0.135768  1
  S  S16  1  0.290559  0.361170  0.611871  1
  S  S17  1  0.361768  0.611875  0.290513  1
  S  S18  1  0.611399  0.289841  0.361540  1
  S  S19  1  0.444991  0.821598  0.981566  1
  S  S20  1  0.821360  0.982216  0.444362  1
  S  S21  1  0.981707  0.444672  0.821471  1
  S  S22  1  0.510914  0.054554  0.664289  1
  S  S23  1  0.054725  0.663964  0.511155  1
  S  S24  1  0.663955  0.511338  0.055319  1
