# generated using pymatgen
data_Dy3YHgRh
_symmetry_space_group_name_H-M   'P 1'
_cell_length_a   9.60587135
_cell_length_b   9.60480020
_cell_length_c   9.60480106
_cell_angle_alpha   60.00737894
_cell_angle_beta   59.99631820
_cell_angle_gamma   59.99631795
_symmetry_Int_Tables_number   1
_chemical_formula_structural   Dy3YHgRh
_chemical_formula_sum   'Dy12 Y4 Hg4 Rh4'
_cell_volume   626.61172315
_cell_formula_units_Z   4
loop_
 _symmetry_equiv_pos_site_id
 _symmetry_equiv_pos_as_xyz
  1  'x, y, z'
loop_
 _atom_site_type_symbol
 _atom_site_label
 _atom_site_symmetry_multiplicity
 _atom_site_fract_x
 _atom_site_fract_y
 _atom_site_fract_z
 _atom_site_occupancy
  Dy  Dy0  1  0.601138  0.601398  0.601398  1
  Dy  Dy1  1  0.601398  0.601138  0.196066  1
  Dy  Dy2  1  0.601398  0.196066  0.601138  1
  Dy  Dy3  1  0.196066  0.601398  0.601398  1
  Dy  Dy4  1  0.060567  0.439433  0.439433  1
  Dy  Dy5  1  0.439433  0.060567  0.060567  1
  Dy  Dy6  1  0.439448  0.060552  0.439448  1
  Dy  Dy7  1  0.060552  0.439448  0.060552  1
  Dy  Dy8  1  0.439448  0.439448  0.060552  1
  Dy  Dy9  1  0.060552  0.060552  0.439448  1
  Dy  Dy10  1  0.187311  0.812689  0.812689  1
  Dy  Dy11  1  0.812689  0.187311  0.187311  1
  Y  Y12  1  0.813112  0.186888  0.813112  1
  Y  Y13  1  0.186888  0.813112  0.186888  1
  Y  Y14  1  0.813112  0.813112  0.186888  1
  Y  Y15  1  0.186888  0.186888  0.813112  1
  Hg  Hg16  1  0.834886  0.834798  0.834798  1
  Hg  Hg17  1  0.834798  0.834886  0.495517  1
  Hg  Hg18  1  0.834798  0.495517  0.834886  1
  Hg  Hg19  1  0.495517  0.834798  0.834798  1
  Rh  Rh20  1  0.392852  0.392716  0.392716  1
  Rh  Rh21  1  0.392716  0.392852  0.821718  1
  Rh  Rh22  1  0.392716  0.821718  0.392852  1
  Rh  Rh23  1  0.821718  0.392716  0.392716  1
