# generated using pymatgen
data_SnSb11(IrPt)2
_symmetry_space_group_name_H-M   'P 1'
_cell_length_a   8.21238294
_cell_length_b   8.21238312
_cell_length_c   8.19192219
_cell_angle_alpha   109.50897946
_cell_angle_beta   109.57121976
_cell_angle_gamma   109.43478530
_symmetry_Int_Tables_number   1
_chemical_formula_structural   SnSb11(IrPt)2
_chemical_formula_sum   'Sn1 Sb11 Ir2 Pt2'
_cell_volume   424.77368239
_cell_formula_units_Z   1
loop_
 _symmetry_equiv_pos_site_id
 _symmetry_equiv_pos_as_xyz
  1  'x, y, z'
loop_
 _atom_site_type_symbol
 _atom_site_label
 _atom_site_symmetry_multiplicity
 _atom_site_fract_x
 _atom_site_fract_y
 _atom_site_fract_z
 _atom_site_occupancy
  Sn  Sn0  1  0.845840  0.656958  0.502798  1
  Sb  Sb1  1  0.844897  0.341314  0.186213  1
  Sb  Sb2  1  0.151675  0.662719  0.814392  1
  Sb  Sb3  1  0.339785  0.494559  0.151214  1
  Sb  Sb4  1  0.151346  0.345533  0.496878  1
  Sb  Sb5  1  0.656656  0.811428  0.151214  1
  Sb  Sb6  1  0.186560  0.843218  0.338236  1
  Sb  Sb7  1  0.662872  0.504293  0.848343  1
  Sb  Sb8  1  0.813632  0.156001  0.662287  1
  Sb  Sb9  1  0.344049  0.185472  0.848343  1
  Sb  Sb10  1  0.506287  0.848654  0.662287  1
  Sb  Sb11  1  0.495017  0.151677  0.338236  1
  Ir  Ir12  1  0.001749  0.499287  0.000113  1
  Ir  Ir13  1  0.500826  0.998364  0.000113  1
  Pt  Pt14  1  0.000650  0.001505  0.499666  1
  Pt  Pt15  1  0.498161  0.499016  0.499666  1
