# generated using pymatgen
data_Ti4SiAs3Rh4
_symmetry_space_group_name_H-M   'P 1'
_cell_length_a   3.83711800
_cell_length_b   6.35877396
_cell_length_c   7.43597702
_cell_angle_alpha   89.67347521
_cell_angle_beta   90.00000000
_cell_angle_gamma   90.00000000
_symmetry_Int_Tables_number   1
_chemical_formula_structural   Ti4SiAs3Rh4
_chemical_formula_sum   'Ti4 Si1 As3 Rh4'
_cell_volume   181.43017873
_cell_formula_units_Z   1
loop_
 _symmetry_equiv_pos_site_id
 _symmetry_equiv_pos_as_xyz
  1  'x, y, z'
loop_
 _atom_site_type_symbol
 _atom_site_label
 _atom_site_symmetry_multiplicity
 _atom_site_fract_x
 _atom_site_fract_y
 _atom_site_fract_z
 _atom_site_occupancy
  Ti  Ti0  1  0.750000  0.034755  0.682896  1
  Ti  Ti1  1  0.250000  0.968973  0.317441  1
  Ti  Ti2  1  0.250000  0.465541  0.180461  1
  Ti  Ti3  1  0.750000  0.528008  0.820119  1
  Si  Si4  1  0.250000  0.241168  0.879793  1
  As  As5  1  0.750000  0.753337  0.121342  1
  As  As6  1  0.250000  0.749106  0.622899  1
  As  As7  1  0.750000  0.250594  0.375557  1
  Rh  Rh8  1  0.750000  0.153506  0.052908  1
  Rh  Rh9  1  0.250000  0.859295  0.935829  1
  Rh  Rh10  1  0.250000  0.350793  0.573805  1
  Rh  Rh11  1  0.750000  0.644924  0.436951  1
