# generated using pymatgen
data_DyEr2Ti(Co4P3)2
_symmetry_space_group_name_H-M   'P 1'
_cell_length_a   3.68570600
_cell_length_b   10.58234900
_cell_length_c   12.26043600
_cell_angle_alpha   90.00000000
_cell_angle_beta   90.00000000
_cell_angle_gamma   90.00000000
_symmetry_Int_Tables_number   1
_chemical_formula_structural   DyEr2Ti(Co4P3)2
_chemical_formula_sum   'Dy2 Er4 Ti2 Co16 P12'
_cell_volume   478.19902301
_cell_formula_units_Z   2
loop_
 _symmetry_equiv_pos_site_id
 _symmetry_equiv_pos_as_xyz
  1  'x, y, z'
loop_
 _atom_site_type_symbol
 _atom_site_label
 _atom_site_symmetry_multiplicity
 _atom_site_fract_x
 _atom_site_fract_y
 _atom_site_fract_z
 _atom_site_occupancy
  Dy  Dy0  1  0.750000  0.250000  0.474339  1
  Dy  Dy1  1  0.250000  0.750000  0.525661  1
  Er  Er2  1  0.250000  0.929941  0.795957  1
  Er  Er3  1  0.250000  0.570059  0.795957  1
  Er  Er4  1  0.750000  0.070059  0.204043  1
  Er  Er5  1  0.750000  0.429941  0.204043  1
  Ti  Ti6  1  0.250000  0.250000  0.846522  1
  Ti  Ti7  1  0.750000  0.750000  0.153478  1
  Co  Co8  1  0.250000  0.250000  0.296597  1
  Co  Co9  1  0.750000  0.750000  0.703403  1
  Co  Co10  1  0.750000  0.250000  0.012936  1
  Co  Co11  1  0.250000  0.750000  0.987064  1
  Co  Co12  1  0.250000  0.417856  0.006140  1
  Co  Co13  1  0.250000  0.082144  0.006140  1
  Co  Co14  1  0.750000  0.582144  0.993860  1
  Co  Co15  1  0.750000  0.917856  0.993860  1
  Co  Co16  1  0.250000  0.454335  0.568327  1
  Co  Co17  1  0.250000  0.045665  0.568327  1
  Co  Co18  1  0.750000  0.545665  0.431673  1
  Co  Co19  1  0.750000  0.954335  0.431673  1
  Co  Co20  1  0.250000  0.871882  0.293677  1
  Co  Co21  1  0.250000  0.628118  0.293677  1
  Co  Co22  1  0.750000  0.128118  0.706323  1
  Co  Co23  1  0.750000  0.371882  0.706323  1
  P  P24  1  0.250000  0.250000  0.117094  1
  P  P25  1  0.750000  0.750000  0.882906  1
  P  P26  1  0.250000  0.250000  0.646800  1
  P  P27  1  0.750000  0.750000  0.353200  1
  P  P28  1  0.250000  0.439453  0.383506  1
  P  P29  1  0.250000  0.060547  0.383506  1
  P  P30  1  0.750000  0.560547  0.616494  1
  P  P31  1  0.750000  0.939453  0.616494  1
  P  P32  1  0.250000  0.907515  0.108283  1
  P  P33  1  0.250000  0.592485  0.108283  1
  P  P34  1  0.750000  0.092485  0.891717  1
  P  P35  1  0.750000  0.407515  0.891717  1
