# generated using pymatgen
data_Er3Tm7In8IrPt3
_symmetry_space_group_name_H-M   'P 1'
_cell_length_a   3.60634300
_cell_length_b   8.06639718
_cell_length_c   18.08252982
_cell_angle_alpha   89.94060874
_cell_angle_beta   90.00000000
_cell_angle_gamma   90.00000000
_symmetry_Int_Tables_number   1
_chemical_formula_structural   Er3Tm7In8IrPt3
_chemical_formula_sum   'Er3 Tm7 In8 Ir1 Pt3'
_cell_volume   526.02403602
_cell_formula_units_Z   1
loop_
 _symmetry_equiv_pos_site_id
 _symmetry_equiv_pos_as_xyz
  1  'x, y, z'
loop_
 _atom_site_type_symbol
 _atom_site_label
 _atom_site_symmetry_multiplicity
 _atom_site_fract_x
 _atom_site_fract_y
 _atom_site_fract_z
 _atom_site_occupancy
  Er  Er0  1  0.000000  0.749708  0.279229  1
  Er  Er1  1  0.000000  0.999985  0.000332  1
  Er  Er2  1  0.000000  0.500902  0.499549  1
  Tm  Tm3  1  0.000000  0.115327  0.412504  1
  Tm  Tm4  1  0.000000  0.883539  0.585794  1
  Tm  Tm5  1  0.000000  0.383698  0.914182  1
  Tm  Tm6  1  0.000000  0.616517  0.086625  1
  Tm  Tm7  1  0.000000  0.237769  0.221939  1
  Tm  Tm8  1  0.000000  0.757296  0.779184  1
  Tm  Tm9  1  0.000000  0.256644  0.721050  1
  In  In10  1  0.500000  0.422585  0.351410  1
  In  In11  1  0.500000  0.576388  0.648450  1
  In  In12  1  0.500000  0.076539  0.851702  1
  In  In13  1  0.500000  0.925896  0.148873  1
  In  In14  1  0.500000  0.292560  0.066630  1
  In  In15  1  0.500000  0.707594  0.933424  1
  In  In16  1  0.500000  0.207658  0.566545  1
  In  In17  1  0.500000  0.793459  0.432438  1
  Ir  Ir18  1  0.500000  0.022834  0.303982  1
  Pt  Pt19  1  0.500000  0.975444  0.696320  1
  Pt  Pt20  1  0.500000  0.475513  0.803911  1
  Pt  Pt21  1  0.500000  0.522145  0.195928  1
