# generated using pymatgen
data_Tm5VCo5
_symmetry_space_group_name_H-M   'P 1'
_cell_length_a   5.51369531
_cell_length_b   5.51369510
_cell_length_c   20.43883900
_cell_angle_alpha   90.00000000
_cell_angle_beta   90.00000000
_cell_angle_gamma   139.38908095
_symmetry_Int_Tables_number   1
_chemical_formula_structural   Tm5VCo5
_chemical_formula_sum   'Tm10 V2 Co10'
_cell_volume   404.45351679
_cell_formula_units_Z   2
loop_
 _symmetry_equiv_pos_site_id
 _symmetry_equiv_pos_as_xyz
  1  'x, y, z'
loop_
 _atom_site_type_symbol
 _atom_site_label
 _atom_site_symmetry_multiplicity
 _atom_site_fract_x
 _atom_site_fract_y
 _atom_site_fract_z
 _atom_site_occupancy
  Tm  Tm0  1  0.284045  0.715955  0.250000  1
  Tm  Tm1  1  0.289008  0.710992  0.066291  1
  Tm  Tm2  1  0.999494  0.000506  0.841960  1
  Tm  Tm3  1  0.715955  0.284045  0.750000  1
  Tm  Tm4  1  0.710992  0.289008  0.566291  1
  Tm  Tm5  1  0.000506  0.999494  0.341960  1
  Tm  Tm6  1  0.999494  0.000506  0.658040  1
  Tm  Tm7  1  0.710992  0.289008  0.933709  1
  Tm  Tm8  1  0.000506  0.999494  0.158040  1
  Tm  Tm9  1  0.289008  0.710992  0.433709  1
  V  V10  1  0.000000  0.000000  0.500000  1
  V  V11  1  0.000000  0.000000  0.000000  1
  Co  Co12  1  0.300681  0.699319  0.652590  1
  Co  Co13  1  0.571877  0.428123  0.443116  1
  Co  Co14  1  0.414986  0.585014  0.750000  1
  Co  Co15  1  0.428123  0.571877  0.943116  1
  Co  Co16  1  0.585014  0.414986  0.250000  1
  Co  Co17  1  0.428123  0.571877  0.556884  1
  Co  Co18  1  0.699319  0.300681  0.347410  1
  Co  Co19  1  0.699319  0.300681  0.152590  1
  Co  Co20  1  0.571877  0.428123  0.056884  1
  Co  Co21  1  0.300681  0.699319  0.847410  1
