# generated using pymatgen
data_Y5Er5(GaSb)4
_symmetry_space_group_name_H-M   'P 1'
_cell_length_a   8.67339267
_cell_length_b   8.53680286
_cell_length_c   7.88001248
_cell_angle_alpha   90.05148452
_cell_angle_beta   90.03128520
_cell_angle_gamma   125.48538329
_symmetry_Int_Tables_number   1
_chemical_formula_structural   Y5Er5(GaSb)4
_chemical_formula_sum   'Y5 Er5 Ga4 Sb4'
_cell_volume   475.08974628
_cell_formula_units_Z   1
loop_
 _symmetry_equiv_pos_site_id
 _symmetry_equiv_pos_as_xyz
  1  'x, y, z'
loop_
 _atom_site_type_symbol
 _atom_site_label
 _atom_site_symmetry_multiplicity
 _atom_site_fract_x
 _atom_site_fract_y
 _atom_site_fract_z
 _atom_site_occupancy
  Y  Y0  1  0.043127  0.308635  0.329885  1
  Y  Y1  1  0.956044  0.690639  0.670689  1
  Y  Y2  1  0.456558  0.190937  0.829030  1
  Y  Y3  1  0.794663  0.536043  0.167655  1
  Y  Y4  1  0.544018  0.810224  0.171114  1
  Er  Er5  1  0.207193  0.464049  0.833226  1
  Er  Er6  1  0.706902  0.962957  0.666801  1
  Er  Er7  1  0.292257  0.036485  0.333338  1
  Er  Er8  1  0.000740  0.000700  0.999342  1
  Er  Er9  1  0.499058  0.499532  0.500201  1
  Ga  Ga10  1  0.374447  0.375529  0.123946  1
  Ga  Ga11  1  0.624352  0.624768  0.875234  1
  Ga  Ga12  1  0.124478  0.124215  0.624070  1
  Ga  Ga13  1  0.875179  0.875995  0.376490  1
  Sb  Sb14  1  0.801614  0.211527  0.990634  1
  Sb  Sb15  1  0.201060  0.789612  0.007370  1
  Sb  Sb16  1  0.697902  0.285849  0.492709  1
  Sb  Sb17  1  0.300408  0.712305  0.508266  1
