# generated using pymatgen
data_TbY2Sb4Au3
_symmetry_space_group_name_H-M   'P 1'
_cell_length_a   8.62310913
_cell_length_b   8.62309472
_cell_length_c   8.62310900
_cell_angle_alpha   109.47311647
_cell_angle_beta   109.47318571
_cell_angle_gamma   109.46732782
_symmetry_Int_Tables_number   1
_chemical_formula_structural   TbY2Sb4Au3
_chemical_formula_sum   'Tb2 Y4 Sb8 Au6'
_cell_volume   493.59322937
_cell_formula_units_Z   2
loop_
 _symmetry_equiv_pos_site_id
 _symmetry_equiv_pos_as_xyz
  1  'x, y, z'
loop_
 _atom_site_type_symbol
 _atom_site_label
 _atom_site_symmetry_multiplicity
 _atom_site_fract_x
 _atom_site_fract_y
 _atom_site_fract_z
 _atom_site_occupancy
  Tb  Tb0  1  0.624995  0.749998  0.374993  1
  Tb  Tb1  1  0.750002  0.375005  0.625007  1
  Y  Y2  1  0.250002  0.124995  0.874997  1
  Y  Y3  1  0.374998  0.625002  0.750000  1
  Y  Y4  1  0.124998  0.875001  0.250000  1
  Y  Y5  1  0.875005  0.249999  0.125003  1
  Sb  Sb6  1  0.177571  0.500013  0.000010  1
  Sb  Sb7  1  0.322431  0.322432  0.322441  1
  Sb  Sb8  1  0.000007  0.177567  0.500004  1
  Sb  Sb9  1  0.822439  0.822436  0.822440  1
  Sb  Sb10  1  0.499989  0.999991  0.677559  1
  Sb  Sb11  1  0.000003  0.677563  0.499996  1
  Sb  Sb12  1  0.499999  0.999995  0.177560  1
  Sb  Sb13  1  0.677561  0.500003  0.999990  1
  Au  Au14  1  0.374991  0.249997  0.625001  1
  Au  Au15  1  0.875011  0.125003  0.750014  1
  Au  Au16  1  0.249990  0.624996  0.374999  1
  Au  Au17  1  0.750003  0.875004  0.124994  1
  Au  Au18  1  0.125009  0.750010  0.875006  1
  Au  Au19  1  0.624997  0.374990  0.249986  1
