# generated using pymatgen
data_YLu3Mg3ZnPt4
_symmetry_space_group_name_H-M   'P 1'
_cell_length_a   4.16254900
_cell_length_b   6.92950060
_cell_length_c   8.49901625
_cell_angle_alpha   88.50644591
_cell_angle_beta   90.00000000
_cell_angle_gamma   90.00000000
_symmetry_Int_Tables_number   1
_chemical_formula_structural   YLu3Mg3ZnPt4
_chemical_formula_sum   'Y1 Lu3 Mg3 Zn1 Pt4'
_cell_volume   245.06561762
_cell_formula_units_Z   1
loop_
 _symmetry_equiv_pos_site_id
 _symmetry_equiv_pos_as_xyz
  1  'x, y, z'
loop_
 _atom_site_type_symbol
 _atom_site_label
 _atom_site_symmetry_multiplicity
 _atom_site_fract_x
 _atom_site_fract_y
 _atom_site_fract_z
 _atom_site_occupancy
  Y  Y0  1  0.750000  0.450302  0.830819  1
  Lu  Lu1  1  0.250000  0.537021  0.170994  1
  Lu  Lu2  1  0.750000  0.960093  0.677744  1
  Lu  Lu3  1  0.250000  0.043807  0.320426  1
  Mg  Mg4  1  0.250000  0.636199  0.559617  1
  Mg  Mg5  1  0.750000  0.365051  0.440026  1
  Mg  Mg6  1  0.750000  0.872275  0.055062  1
  Zn  Zn7  1  0.250000  0.134301  0.942275  1
  Pt  Pt8  1  0.250000  0.750790  0.870962  1
  Pt  Pt9  1  0.750000  0.252486  0.134136  1
  Pt  Pt10  1  0.750000  0.759402  0.371698  1
  Pt  Pt11  1  0.250000  0.238272  0.626243  1
