# generated using pymatgen
data_Cs4Na2YInBi4
_symmetry_space_group_name_H-M   'P 1'
_cell_length_a   11.85185395
_cell_length_b   11.85185444
_cell_length_c   7.63642600
_cell_angle_alpha   90.00000000
_cell_angle_beta   90.00000000
_cell_angle_gamma   101.58474561
_symmetry_Int_Tables_number   1
_chemical_formula_structural   Cs4Na2YInBi4
_chemical_formula_sum   'Cs8 Na4 Y2 In2 Bi8'
_cell_volume   1050.81017649
_cell_formula_units_Z   2
loop_
 _symmetry_equiv_pos_site_id
 _symmetry_equiv_pos_as_xyz
  1  'x, y, z'
loop_
 _atom_site_type_symbol
 _atom_site_label
 _atom_site_symmetry_multiplicity
 _atom_site_fract_x
 _atom_site_fract_y
 _atom_site_fract_z
 _atom_site_occupancy
  Cs  Cs0  1  0.074933  0.425067  0.250000  1
  Cs  Cs1  1  0.425067  0.074933  0.750000  1
  Cs  Cs2  1  0.920616  0.579384  0.750000  1
  Cs  Cs3  1  0.579384  0.920616  0.250000  1
  Cs  Cs4  1  0.674824  0.328766  0.218369  1
  Cs  Cs5  1  0.825176  0.171234  0.718369  1
  Cs  Cs6  1  0.328766  0.674824  0.781631  1
  Cs  Cs7  1  0.171234  0.825176  0.281631  1
  Na  Na8  1  0.381746  0.381746  0.000000  1
  Na  Na9  1  0.118254  0.118254  0.500000  1
  Na  Na10  1  0.620644  0.620644  0.000000  1
  Na  Na11  1  0.879356  0.879356  0.500000  1
  Y  Y12  1  0.126949  0.126949  0.000000  1
  Y  Y13  1  0.373051  0.373051  0.500000  1
  In  In14  1  0.869764  0.869764  0.000000  1
  In  In15  1  0.630236  0.630236  0.500000  1
  Bi  Bi16  1  0.844305  0.655694  0.250000  1
  Bi  Bi17  1  0.655694  0.844305  0.750000  1
  Bi  Bi18  1  0.156675  0.343324  0.750000  1
  Bi  Bi19  1  0.343324  0.156675  0.250000  1
  Bi  Bi20  1  0.899126  0.094302  0.211316  1
  Bi  Bi21  1  0.600874  0.405698  0.711316  1
  Bi  Bi22  1  0.094302  0.899126  0.788684  1
  Bi  Bi23  1  0.405698  0.600874  0.288684  1
