# generated using pymatgen
data_Pr8Zn8AgIrRh6
_symmetry_space_group_name_H-M   'P 1'
_cell_length_a   4.03561800
_cell_length_b   7.43533527
_cell_length_c   16.82031633
_cell_angle_alpha   90.19935144
_cell_angle_beta   90.00000000
_cell_angle_gamma   90.00000000
_symmetry_Int_Tables_number   1
_chemical_formula_structural   Pr8Zn8AgIrRh6
_chemical_formula_sum   'Pr8 Zn8 Ag1 Ir1 Rh6'
_cell_volume   504.71026441
_cell_formula_units_Z   1
loop_
 _symmetry_equiv_pos_site_id
 _symmetry_equiv_pos_as_xyz
  1  'x, y, z'
loop_
 _atom_site_type_symbol
 _atom_site_label
 _atom_site_symmetry_multiplicity
 _atom_site_fract_x
 _atom_site_fract_y
 _atom_site_fract_z
 _atom_site_occupancy
  Pr  Pr0  1  0.750000  0.452086  0.213000  1
  Pr  Pr1  1  0.750000  0.949248  0.282222  1
  Pr  Pr2  1  0.750000  0.829915  0.060667  1
  Pr  Pr3  1  0.250000  0.039086  0.724865  1
  Pr  Pr4  1  0.250000  0.171165  0.941057  1
  Pr  Pr5  1  0.250000  0.550679  0.787001  1
  Pr  Pr6  1  0.750000  0.334570  0.428526  1
  Pr  Pr7  1  0.250000  0.676101  0.559548  1
  Zn  Zn8  1  0.250000  0.991491  0.432555  1
  Zn  Zn9  1  0.750000  0.501672  0.940638  1
  Zn  Zn10  1  0.750000  0.993091  0.560208  1
  Zn  Zn11  1  0.250000  0.623382  0.346662  1
  Zn  Zn12  1  0.750000  0.385497  0.659992  1
  Zn  Zn13  1  0.750000  0.874784  0.853460  1
  Zn  Zn14  1  0.250000  0.499439  0.059320  1
  Zn  Zn15  1  0.250000  0.123329  0.150161  1
  Ag  Ag16  1  0.250000  0.244019  0.567865  1
  Ir  Ir17  1  0.250000  0.244402  0.312946  1
  Rh  Rh18  1  0.750000  0.257503  0.065163  1
  Rh  Rh19  1  0.750000  0.252661  0.813453  1
  Rh  Rh20  1  0.250000  0.743722  0.935795  1
  Rh  Rh21  1  0.750000  0.755034  0.685202  1
  Rh  Rh22  1  0.750000  0.757079  0.434658  1
  Rh  Rh23  1  0.250000  0.750044  0.185034  1
