# generated using pymatgen
data_Nd5Ga2Ru3
_symmetry_space_group_name_H-M   'P 1'
_cell_length_a   8.53537501
_cell_length_b   8.53944325
_cell_length_c   8.53917552
_cell_angle_alpha   109.47615317
_cell_angle_beta   109.48756495
_cell_angle_gamma   109.45431143
_symmetry_Int_Tables_number   1
_chemical_formula_structural   Nd5Ga2Ru3
_chemical_formula_sum   'Nd10 Ga4 Ru6'
_cell_volume   479.09625189
_cell_formula_units_Z   2
loop_
 _symmetry_equiv_pos_site_id
 _symmetry_equiv_pos_as_xyz
  1  'x, y, z'
loop_
 _atom_site_type_symbol
 _atom_site_label
 _atom_site_symmetry_multiplicity
 _atom_site_fract_x
 _atom_site_fract_y
 _atom_site_fract_z
 _atom_site_occupancy
  Nd  Nd0  1  0.750036  0.814112  0.064131  1
  Nd  Nd1  1  0.435999  0.249396  0.685820  1
  Nd  Nd2  1  0.686193  0.435968  0.250195  1
  Nd  Nd3  1  0.064013  0.749897  0.813462  1
  Nd  Nd4  1  0.813828  0.063986  0.749793  1
  Nd  Nd5  1  0.216390  0.216822  0.216371  1
  Nd  Nd6  1  0.499486  0.999840  0.282711  1
  Nd  Nd7  1  0.283723  0.500002  0.000368  1
  Nd  Nd8  1  0.000406  0.283188  0.500394  1
  Nd  Nd9  1  0.249965  0.686048  0.436080  1
  Ga  Ga10  1  0.500409  0.000138  0.912268  1
  Ga  Ga11  1  0.587080  0.586941  0.587485  1
  Ga  Ga12  1  0.913039  0.500436  0.999899  1
  Ga  Ga13  1  0.999660  0.911878  0.499764  1
  Ru  Ru14  1  0.249961  0.121338  0.871277  1
  Ru  Ru15  1  0.749925  0.378511  0.628568  1
  Ru  Ru16  1  0.871570  0.250761  0.121648  1
  Ru  Ru17  1  0.120944  0.871736  0.249895  1
  Ru  Ru18  1  0.628392  0.750037  0.379163  1
  Ru  Ru19  1  0.378984  0.628964  0.750710  1
