# generated using pymatgen
data_Dy2Y3Bi3C
_symmetry_space_group_name_H-M   'P 1'
_cell_length_a   9.15608307
_cell_length_b   9.15608469
_cell_length_c   6.52046100
_cell_angle_alpha   89.99993488
_cell_angle_beta   89.99993598
_cell_angle_gamma   120.01021782
_symmetry_Int_Tables_number   1
_chemical_formula_structural   Dy2Y3Bi3C
_chemical_formula_sum   'Dy4 Y6 Bi6 C2'
_cell_volume   473.35147357
_cell_formula_units_Z   2
loop_
 _symmetry_equiv_pos_site_id
 _symmetry_equiv_pos_as_xyz
  1  'x, y, z'
loop_
 _atom_site_type_symbol
 _atom_site_label
 _atom_site_symmetry_multiplicity
 _atom_site_fract_x
 _atom_site_fract_y
 _atom_site_fract_z
 _atom_site_occupancy
  Dy  Dy0  1  0.792050  0.792050  0.249998  1
  Dy  Dy1  1  0.207773  0.999978  0.249999  1
  Dy  Dy2  1  0.999978  0.207773  0.249999  1
  Dy  Dy3  1  0.207997  0.207997  0.749998  1
  Y  Y4  1  0.666581  0.333404  0.499988  1
  Y  Y5  1  0.333404  0.666581  0.499988  1
  Y  Y6  1  0.333404  0.666580  0.000013  1
  Y  Y7  1  0.666580  0.333404  0.000013  1
  Y  Y8  1  0.791303  0.000115  0.749999  1
  Y  Y9  1  0.000115  0.791303  0.749999  1
  Bi  Bi10  1  0.402010  0.402010  0.250000  1
  Bi  Bi11  1  0.597750  0.000031  0.250003  1
  Bi  Bi12  1  0.000031  0.597750  0.250003  1
  Bi  Bi13  1  0.597853  0.597853  0.750000  1
  Bi  Bi14  1  0.402282  0.000038  0.750003  1
  Bi  Bi15  1  0.000038  0.402282  0.750003  1
  C  C16  1  0.000425  0.000425  0.499176  1
  C  C17  1  0.000426  0.000426  0.000815  1
