# generated using pymatgen
data_FeCo3(Mo3N)2
_symmetry_space_group_name_H-M   'P 1'
_cell_length_a   6.67271264
_cell_length_b   6.67105300
_cell_length_c   6.67271264
_cell_angle_alpha   90.04374236
_cell_angle_beta   89.71824783
_cell_angle_gamma   89.95625764
_symmetry_Int_Tables_number   1
_chemical_formula_structural   FeCo3(Mo3N)2
_chemical_formula_sum   'Fe2 Co6 Mo12 N4'
_cell_volume   297.02549693
_cell_formula_units_Z   2
loop_
 _symmetry_equiv_pos_site_id
 _symmetry_equiv_pos_as_xyz
  1  'x, y, z'
loop_
 _atom_site_type_symbol
 _atom_site_label
 _atom_site_symmetry_multiplicity
 _atom_site_fract_x
 _atom_site_fract_y
 _atom_site_fract_z
 _atom_site_occupancy
  Fe  Fe0  1  0.070609  0.071025  0.070076  1
  Fe  Fe1  1  0.320076  0.178975  0.820609  1
  Co  Co2  1  0.820303  0.317920  0.178679  1
  Co  Co3  1  0.180129  0.821431  0.316930  1
  Co  Co4  1  0.428679  0.932080  0.570303  1
  Co  Co5  1  0.566930  0.428569  0.930129  1
  Co  Co6  1  0.931935  0.567365  0.430611  1
  Co  Co7  1  0.680611  0.682635  0.681935  1
  Mo  Mo8  1  0.125219  0.202427  0.452114  1
  Mo  Mo9  1  0.377797  0.794819  0.950686  1
  Mo  Mo10  1  0.873193  0.698405  0.048082  1
  Mo  Mo11  1  0.200686  0.455181  0.127797  1
  Mo  Mo12  1  0.797575  0.949585  0.376163  1
  Mo  Mo13  1  0.046302  0.872905  0.699460  1
  Mo  Mo14  1  0.454186  0.125000  0.204186  1
  Mo  Mo15  1  0.298082  0.551595  0.623193  1
  Mo  Mo16  1  0.949460  0.377095  0.796302  1
  Mo  Mo17  1  0.550374  0.625000  0.300374  1
  Mo  Mo18  1  0.702114  0.047573  0.875219  1
  Mo  Mo19  1  0.626163  0.300415  0.547575  1
  N  N20  1  0.375713  0.375532  0.374870  1
  N  N21  1  0.624870  0.874468  0.125713  1
  N  N22  1  0.125052  0.625000  0.875052  1
  N  N23  1  0.873945  0.125000  0.623945  1
