# generated using pymatgen
data_Ce3Dy15(HoPb8)2
_symmetry_space_group_name_H-M   'P 1'
_cell_length_a   8.19436600
_cell_length_b   8.27501870
_cell_length_c   15.63519300
_cell_angle_alpha   90.00302576
_cell_angle_beta   89.99977625
_cell_angle_gamma   90.02338910
_symmetry_Int_Tables_number   1
_chemical_formula_structural   Ce3Dy15(HoPb8)2
_chemical_formula_sum   'Ce3 Dy15 Ho2 Pb16'
_cell_volume   1060.19939338
_cell_formula_units_Z   1
loop_
 _symmetry_equiv_pos_site_id
 _symmetry_equiv_pos_as_xyz
  1  'x, y, z'
loop_
 _atom_site_type_symbol
 _atom_site_label
 _atom_site_symmetry_multiplicity
 _atom_site_fract_x
 _atom_site_fract_y
 _atom_site_fract_z
 _atom_site_occupancy
  Ce  Ce0  1  0.709219  0.995495  0.750083  1
  Ce  Ce1  1  0.790996  0.494384  0.249815  1
  Ce  Ce2  1  0.291585  0.004566  0.249941  1
  Dy  Dy3  1  0.878042  0.658267  0.621098  1
  Dy  Dy4  1  0.622435  0.158243  0.378622  1
  Dy  Dy5  1  0.122444  0.341487  0.120395  1
  Dy  Dy6  1  0.622278  0.158292  0.121483  1
  Dy  Dy7  1  0.122138  0.341525  0.379431  1
  Dy  Dy8  1  0.377151  0.841644  0.621515  1
  Dy  Dy9  1  0.878205  0.658294  0.879042  1
  Dy  Dy10  1  0.536138  0.324463  0.898125  1
  Dy  Dy11  1  0.036823  0.176936  0.601958  1
  Dy  Dy12  1  0.463472  0.676908  0.398619  1
  Dy  Dy13  1  0.963703  0.823112  0.101968  1
  Dy  Dy14  1  0.463652  0.677223  0.101158  1
  Dy  Dy15  1  0.963855  0.823178  0.398048  1
  Dy  Dy16  1  0.536176  0.324698  0.601997  1
  Dy  Dy17  1  0.036707  0.176907  0.898107  1
  Ho  Ho18  1  0.376891  0.841964  0.878296  1
  Ho  Ho19  1  0.209189  0.503392  0.750129  1
  Pb  Pb20  1  0.280395  0.032497  0.042092  1
  Pb  Pb21  1  0.779749  0.467548  0.457400  1
  Pb  Pb22  1  0.719598  0.966916  0.541843  1
  Pb  Pb23  1  0.220215  0.533553  0.957121  1
  Pb  Pb24  1  0.718758  0.966580  0.958210  1
  Pb  Pb25  1  0.219886  0.532949  0.542927  1
  Pb  Pb26  1  0.280344  0.032907  0.457616  1
  Pb  Pb27  1  0.779842  0.467231  0.042438  1
  Pb  Pb28  1  0.570917  0.623910  0.750255  1
  Pb  Pb29  1  0.074316  0.873035  0.750129  1
  Pb  Pb30  1  0.425646  0.376463  0.250022  1
  Pb  Pb31  1  0.927005  0.123994  0.249957  1
  Pb  Pb32  1  0.345743  0.152870  0.750127  1
  Pb  Pb33  1  0.847612  0.350190  0.750030  1
  Pb  Pb34  1  0.654825  0.848799  0.250016  1
  Pb  Pb35  1  0.154046  0.649580  0.249988  1
