# generated using pymatgen
data_Ca3Sm(AgPb)2
_symmetry_space_group_name_H-M   'P 1'
_cell_length_a   7.62094400
_cell_length_b   5.39704200
_cell_length_c   10.79246300
_cell_angle_alpha   90.00000000
_cell_angle_beta   90.00005751
_cell_angle_gamma   90.00000000
_symmetry_Int_Tables_number   1
_chemical_formula_structural   Ca3Sm(AgPb)2
_chemical_formula_sum   'Ca6 Sm2 Ag4 Pb4'
_cell_volume   443.89999136
_cell_formula_units_Z   2
loop_
 _symmetry_equiv_pos_site_id
 _symmetry_equiv_pos_as_xyz
  1  'x, y, z'
loop_
 _atom_site_type_symbol
 _atom_site_label
 _atom_site_symmetry_multiplicity
 _atom_site_fract_x
 _atom_site_fract_y
 _atom_site_fract_z
 _atom_site_occupancy
  Ca  Ca0  1  0.000200  0.249999  0.378442  1
  Ca  Ca1  1  0.500078  0.249999  0.378566  1
  Ca  Ca2  1  0.501157  0.750000  0.624997  1
  Ca  Ca3  1  0.998569  0.750000  0.625111  1
  Ca  Ca4  1  0.499793  0.249999  0.871313  1
  Ca  Ca5  1  0.999919  0.249999  0.871435  1
  Sm  Sm6  1  0.002283  0.750000  0.125009  1
  Sm  Sm7  1  0.497948  0.750000  0.125107  1
  Ag  Ag8  1  0.750101  0.249999  0.124885  1
  Ag  Ag9  1  0.250066  0.750000  0.371995  1
  Ag  Ag10  1  0.749932  0.249999  0.624891  1
  Ag  Ag11  1  0.249900  0.750000  0.878236  1
  Pb  Pb12  1  0.250232  0.249999  0.124921  1
  Pb  Pb13  1  0.750230  0.750000  0.372518  1
  Pb  Pb14  1  0.249773  0.249999  0.624916  1
  Pb  Pb15  1  0.749820  0.750000  0.877660  1
