# generated using pymatgen
data_Yb8Zn2CoSi12Rh
_symmetry_space_group_name_H-M   'P 1'
_cell_length_a   8.13691700
_cell_length_b   8.13691740
_cell_length_c   8.45286000
_cell_angle_alpha   90.00000000
_cell_angle_beta   90.00000000
_cell_angle_gamma   120.00000245
_symmetry_Int_Tables_number   1
_chemical_formula_structural   Yb8Zn2CoSi12Rh
_chemical_formula_sum   'Yb8 Zn2 Co1 Si12 Rh1'
_cell_volume   484.67887399
_cell_formula_units_Z   1
loop_
 _symmetry_equiv_pos_site_id
 _symmetry_equiv_pos_as_xyz
  1  'x, y, z'
loop_
 _atom_site_type_symbol
 _atom_site_label
 _atom_site_symmetry_multiplicity
 _atom_site_fract_x
 _atom_site_fract_y
 _atom_site_fract_z
 _atom_site_occupancy
  Yb  Yb0  1  0.015062  0.507530  0.249886  1
  Yb  Yb1  1  0.492470  0.507530  0.249886  1
  Yb  Yb2  1  0.490182  0.980363  0.749800  1
  Yb  Yb3  1  0.019637  0.509818  0.749800  1
  Yb  Yb4  1  0.490182  0.509818  0.749800  1
  Yb  Yb5  1  0.492470  0.984938  0.249886  1
  Yb  Yb6  1  0.000000  0.000000  0.751902  1
  Yb  Yb7  1  0.000000  0.000000  0.248773  1
  Zn  Zn8  1  0.666667  0.333333  0.992312  1
  Zn  Zn9  1  0.666667  0.333333  0.506120  1
  Co  Co10  1  0.333333  0.666667  0.002753  1
  Si  Si11  1  0.168631  0.831369  0.499582  1
  Si  Si12  1  0.168631  0.337261  0.499582  1
  Si  Si13  1  0.662739  0.831369  0.499582  1
  Si  Si14  1  0.323192  0.161597  0.000483  1
  Si  Si15  1  0.838309  0.676619  0.500321  1
  Si  Si16  1  0.838403  0.161597  0.000483  1
  Si  Si17  1  0.838403  0.676808  0.000483  1
  Si  Si18  1  0.174202  0.348404  0.000425  1
  Si  Si19  1  0.651596  0.825798  0.000425  1
  Si  Si20  1  0.323381  0.161691  0.500321  1
  Si  Si21  1  0.838309  0.161691  0.500321  1
  Si  Si22  1  0.174202  0.825798  0.000425  1
  Rh  Rh23  1  0.333333  0.666667  0.496643  1
