# generated using pymatgen
data_HoTm5TcBi2
_symmetry_space_group_name_H-M   'P 1'
_cell_length_a   8.21314200
_cell_length_b   8.20117035
_cell_length_c   4.27155000
_cell_angle_alpha   90.00000000
_cell_angle_beta   90.00000000
_cell_angle_gamma   120.04830795
_symmetry_Int_Tables_number   1
_chemical_formula_structural   HoTm5TcBi2
_chemical_formula_sum   'Ho1 Tm5 Tc1 Bi2'
_cell_volume   249.05179565
_cell_formula_units_Z   1
loop_
 _symmetry_equiv_pos_site_id
 _symmetry_equiv_pos_as_xyz
  1  'x, y, z'
loop_
 _atom_site_type_symbol
 _atom_site_label
 _atom_site_symmetry_multiplicity
 _atom_site_fract_x
 _atom_site_fract_y
 _atom_site_fract_z
 _atom_site_occupancy
  Ho  Ho0  1  0.612333  0.000000  0.000000  1
  Tm  Tm1  1  0.231691  0.000000  0.500000  1
  Tm  Tm2  1  0.000448  0.231962  0.500000  1
  Tm  Tm3  1  0.768486  0.768038  0.500000  1
  Tm  Tm4  1  0.999937  0.613105  0.000000  1
  Tm  Tm5  1  0.386832  0.386895  0.000000  1
  Tc  Tc6  1  0.000637  0.000000  0.000000  1
  Bi  Bi7  1  0.332947  0.666258  0.500000  1
  Bi  Bi8  1  0.666690  0.333742  0.500000  1
