# generated using pymatgen
data_YHo7Re(B8Os)3
_symmetry_space_group_name_H-M   'P 1'
_cell_length_a   3.65570500
_cell_length_b   9.13939600
_cell_length_c   11.52229901
_cell_angle_alpha   90.08305633
_cell_angle_beta   90.00000000
_cell_angle_gamma   90.00000000
_symmetry_Int_Tables_number   1
_chemical_formula_structural   YHo7Re(B8Os)3
_chemical_formula_sum   'Y1 Ho7 Re1 B24 Os3'
_cell_volume   384.97038611
_cell_formula_units_Z   1
loop_
 _symmetry_equiv_pos_site_id
 _symmetry_equiv_pos_as_xyz
  1  'x, y, z'
loop_
 _atom_site_type_symbol
 _atom_site_label
 _atom_site_symmetry_multiplicity
 _atom_site_fract_x
 _atom_site_fract_y
 _atom_site_fract_z
 _atom_site_occupancy
  Y  Y0  1  0.000000  0.322260  0.414875  1
  Ho  Ho1  1  0.000000  0.680112  0.588172  1
  Ho  Ho2  1  0.000000  0.822652  0.083613  1
  Ho  Ho3  1  0.000000  0.176363  0.913210  1
  Ho  Ho4  1  0.000000  0.943160  0.371970  1
  Ho  Ho5  1  0.000000  0.055851  0.627720  1
  Ho  Ho6  1  0.000000  0.442975  0.127607  1
  Ho  Ho7  1  0.000000  0.556583  0.872928  1
  Re  Re8  1  0.000000  0.862555  0.821595  1
  B  B9  1  0.500000  0.554080  0.433248  1
  B  B10  1  0.500000  0.446591  0.567319  1
  B  B11  1  0.500000  0.053503  0.067204  1
  B  B12  1  0.500000  0.947217  0.933188  1
  B  B13  1  0.500000  0.748367  0.419536  1
  B  B14  1  0.500000  0.251752  0.580720  1
  B  B15  1  0.500000  0.247999  0.080519  1
  B  B16  1  0.500000  0.751676  0.919400  1
  B  B17  1  0.500000  0.790517  0.266076  1
  B  B18  1  0.500000  0.209078  0.733250  1
  B  B19  1  0.500000  0.290778  0.233613  1
  B  B20  1  0.500000  0.708508  0.766105  1
  B  B21  1  0.500000  0.631194  0.185356  1
  B  B22  1  0.500000  0.368448  0.814242  1
  B  B23  1  0.500000  0.131425  0.314502  1
  B  B24  1  0.500000  0.868596  0.685592  1
  B  B25  1  0.500000  0.983087  0.212622  1
  B  B26  1  0.500000  0.017847  0.787258  1
  B  B27  1  0.500000  0.483258  0.287541  1
  B  B28  1  0.500000  0.517157  0.712833  1
  B  B29  1  0.500000  0.605975  0.030018  1
  B  B30  1  0.500000  0.392544  0.970585  1
  B  B31  1  0.500000  0.106863  0.470051  1
  B  B32  1  0.500000  0.893272  0.529045  1
  Os  Os33  1  0.000000  0.637675  0.321537  1
  Os  Os34  1  0.000000  0.362615  0.678171  1
  Os  Os35  1  0.000000  0.137467  0.178777  1
