# generated using pymatgen
data_Tb9Nd8Sc3Si15Os
_symmetry_space_group_name_H-M   'P 1'
_cell_length_a   7.40629300
_cell_length_b   7.83808343
_cell_length_c   14.70909700
_cell_angle_alpha   90.00000000
_cell_angle_beta   90.00000000
_cell_angle_gamma   90.14105450
_symmetry_Int_Tables_number   1
_chemical_formula_structural   Tb9Nd8Sc3Si15Os
_chemical_formula_sum   'Tb9 Nd8 Sc3 Si15 Os1'
_cell_volume   853.87729743
_cell_formula_units_Z   1
loop_
 _symmetry_equiv_pos_site_id
 _symmetry_equiv_pos_as_xyz
  1  'x, y, z'
loop_
 _atom_site_type_symbol
 _atom_site_label
 _atom_site_symmetry_multiplicity
 _atom_site_fract_x
 _atom_site_fract_y
 _atom_site_fract_z
 _atom_site_occupancy
  Tb  Tb0  1  0.150954  0.513204  0.750000  1
  Tb  Tb1  1  0.313366  0.172639  0.627261  1
  Tb  Tb2  1  0.678720  0.824242  0.373078  1
  Tb  Tb3  1  0.177599  0.679286  0.373426  1
  Tb  Tb4  1  0.678720  0.824242  0.126922  1
  Tb  Tb5  1  0.830278  0.312144  0.626729  1
  Tb  Tb6  1  0.313366  0.172639  0.872739  1
  Tb  Tb7  1  0.830278  0.312144  0.873271  1
  Tb  Tb8  1  0.177599  0.679286  0.126574  1
  Nd  Nd9  1  0.017846  0.184105  0.098442  1
  Nd  Nd10  1  0.983318  0.827889  0.903283  1
  Nd  Nd11  1  0.483604  0.680782  0.904443  1
  Nd  Nd12  1  0.983318  0.827889  0.596717  1
  Nd  Nd13  1  0.517199  0.319914  0.097926  1
  Nd  Nd14  1  0.017846  0.184105  0.401558  1
  Nd  Nd15  1  0.517199  0.319914  0.402074  1
  Nd  Nd16  1  0.483604  0.680782  0.595557  1
  Sc  Sc17  1  0.841224  0.483409  0.250000  1
  Sc  Sc18  1  0.342136  0.018232  0.250000  1
  Sc  Sc19  1  0.670486  0.987615  0.750000  1
  Si  Si20  1  0.979965  0.902128  0.250000  1
  Si  Si21  1  0.479935  0.599172  0.250000  1
  Si  Si22  1  0.526057  0.397094  0.750000  1
  Si  Si23  1  0.284091  0.871698  0.750000  1
  Si  Si24  1  0.717946  0.131857  0.250000  1
  Si  Si25  1  0.220492  0.369528  0.250000  1
  Si  Si26  1  0.765572  0.626842  0.750000  1
  Si  Si27  1  0.151035  0.471957  0.536713  1
  Si  Si28  1  0.851241  0.531632  0.459912  1
  Si  Si29  1  0.351073  0.969682  0.458901  1
  Si  Si30  1  0.851241  0.531632  0.040088  1
  Si  Si31  1  0.645493  0.029874  0.537887  1
  Si  Si32  1  0.151035  0.471957  0.963287  1
  Si  Si33  1  0.645493  0.029874  0.962113  1
  Si  Si34  1  0.351073  0.969682  0.041099  1
  Os  Os35  1  0.019601  0.090930  0.750000  1
