# generated using pymatgen
data_NdY2Si4(AsPd10)2
_symmetry_space_group_name_H-M   'P 1'
_cell_length_a   8.73411881
_cell_length_b   8.83236957
_cell_length_c   8.83236949
_cell_angle_alpha   59.26539845
_cell_angle_beta   60.36730254
_cell_angle_gamma   60.36729881
_symmetry_Int_Tables_number   1
_chemical_formula_structural   NdY2Si4(AsPd10)2
_chemical_formula_sum   'Nd1 Y2 Si4 As2 Pd20'
_cell_volume   481.67293353
_cell_formula_units_Z   1
loop_
 _symmetry_equiv_pos_site_id
 _symmetry_equiv_pos_as_xyz
  1  'x, y, z'
loop_
 _atom_site_type_symbol
 _atom_site_label
 _atom_site_symmetry_multiplicity
 _atom_site_fract_x
 _atom_site_fract_y
 _atom_site_fract_z
 _atom_site_occupancy
  Nd  Nd0  1  0.750000  0.750000  0.750000  1
  Y  Y1  1  0.250000  0.250000  0.250000  1
  Y  Y2  1  0.000000  0.000000  0.000000  1
  Si  Si3  1  0.267146  0.732854  0.267146  1
  Si  Si4  1  0.732854  0.267146  0.732854  1
  Si  Si5  1  0.267146  0.267146  0.732854  1
  Si  Si6  1  0.732854  0.732854  0.267146  1
  As  As7  1  0.736680  0.263320  0.263320  1
  As  As8  1  0.263320  0.736680  0.736680  1
  Pd  Pd9  1  0.345393  0.000468  0.000468  1
  Pd  Pd10  1  0.653671  0.000468  0.000468  1
  Pd  Pd11  1  0.000468  0.345393  0.653671  1
  Pd  Pd12  1  0.000468  0.653671  0.345393  1
  Pd  Pd13  1  0.009920  0.345787  0.992209  1
  Pd  Pd14  1  0.652084  0.992209  0.345787  1
  Pd  Pd15  1  0.992209  0.652084  0.009920  1
  Pd  Pd16  1  0.345787  0.009920  0.652084  1
  Pd  Pd17  1  0.009920  0.992209  0.345787  1
  Pd  Pd18  1  0.992209  0.009920  0.652084  1
  Pd  Pd19  1  0.652084  0.345787  0.992209  1
  Pd  Pd20  1  0.345787  0.652084  0.009920  1
  Pd  Pd21  1  0.378992  0.385356  0.385356  1
  Pd  Pd22  1  0.619317  0.611682  0.611682  1
  Pd  Pd23  1  0.385356  0.378992  0.850294  1
  Pd  Pd24  1  0.385356  0.850294  0.378992  1
  Pd  Pd25  1  0.611682  0.619317  0.157320  1
  Pd  Pd26  1  0.611682  0.157320  0.619317  1
  Pd  Pd27  1  0.850294  0.385356  0.385356  1
  Pd  Pd28  1  0.157320  0.611682  0.611682  1
