# generated using pymatgen
data_Eu4Cu3Ni3P8
_symmetry_space_group_name_H-M   'P 1'
_cell_length_a   7.91768451
_cell_length_b   7.91768473
_cell_length_c   7.91079605
_cell_angle_alpha   137.66936058
_cell_angle_beta   107.90297048
_cell_angle_gamma   87.37686180
_symmetry_Int_Tables_number   1
_chemical_formula_structural   Eu4Cu3Ni3P8
_chemical_formula_sum   'Eu4 Cu3 Ni3 P8'
_cell_volume   304.77716317
_cell_formula_units_Z   1
loop_
 _symmetry_equiv_pos_site_id
 _symmetry_equiv_pos_as_xyz
  1  'x, y, z'
loop_
 _atom_site_type_symbol
 _atom_site_label
 _atom_site_symmetry_multiplicity
 _atom_site_fract_x
 _atom_site_fract_y
 _atom_site_fract_z
 _atom_site_occupancy
  Eu  Eu0  1  0.107864  0.882189  0.224375  1
  Eu  Eu1  1  0.893981  0.119230  0.781104  1
  Eu  Eu2  1  0.338126  0.612877  0.718896  1
  Eu  Eu3  1  0.657814  0.383489  0.275625  1
  Cu  Cu4  1  0.734126  0.484126  0.750000  1
  Cu  Cu5  1  0.265289  0.515289  0.250000  1
  Cu  Cu6  1  0.735044  0.985044  0.250000  1
  Ni  Ni7  1  0.498611  0.748611  0.250000  1
  Ni  Ni8  1  0.501217  0.251217  0.750000  1
  Ni  Ni9  1  0.266394  0.016394  0.750000  1
  P  P10  1  0.483049  0.113222  0.365934  1
  P  P11  1  0.507662  0.889237  0.633478  1
  P  P12  1  0.255758  0.374184  0.866522  1
  P  P13  1  0.747290  0.617116  0.134066  1
  P  P14  1  0.995250  0.362647  0.633667  1
  P  P15  1  0.014361  0.650551  0.381367  1
  P  P16  1  0.728980  0.861583  0.866333  1
  P  P17  1  0.269184  0.132993  0.118633  1
