# generated using pymatgen
data_LiPr6RhBr12
_symmetry_space_group_name_H-M   'P 1'
_cell_length_a   9.65917426
_cell_length_b   9.65917671
_cell_length_c   9.65917608
_cell_angle_alpha   108.04674462
_cell_angle_beta   108.04673346
_cell_angle_gamma   108.04673625
_symmetry_Int_Tables_number   1
_chemical_formula_structural   LiPr6RhBr12
_chemical_formula_sum   'Li1 Pr6 Rh1 Br12'
_cell_volume   728.03347537
_cell_formula_units_Z   1
loop_
 _symmetry_equiv_pos_site_id
 _symmetry_equiv_pos_as_xyz
  1  'x, y, z'
loop_
 _atom_site_type_symbol
 _atom_site_label
 _atom_site_symmetry_multiplicity
 _atom_site_fract_x
 _atom_site_fract_y
 _atom_site_fract_z
 _atom_site_occupancy
  Li  Li0  1  0.500000  0.500000  0.500000  1
  Pr  Pr1  1  0.325261  0.116400  0.035752  1
  Pr  Pr2  1  0.035752  0.325261  0.116400  1
  Pr  Pr3  1  0.116400  0.035752  0.325261  1
  Pr  Pr4  1  0.674739  0.883600  0.964248  1
  Pr  Pr5  1  0.964248  0.674739  0.883600  1
  Pr  Pr6  1  0.883600  0.964248  0.674739  1
  Rh  Rh7  1  0.000000  0.000000  0.000000  1
  Br  Br8  1  0.688161  0.218637  0.071457  1
  Br  Br9  1  0.071457  0.688161  0.218637  1
  Br  Br10  1  0.218637  0.071457  0.688161  1
  Br  Br11  1  0.311839  0.781363  0.928543  1
  Br  Br12  1  0.928543  0.311839  0.781363  1
  Br  Br13  1  0.781363  0.928543  0.311839  1
  Br  Br14  1  0.461988  0.176969  0.383779  1
  Br  Br15  1  0.383779  0.461988  0.176969  1
  Br  Br16  1  0.176969  0.383779  0.461988  1
  Br  Br17  1  0.538012  0.823031  0.616221  1
  Br  Br18  1  0.616221  0.538012  0.823031  1
  Br  Br19  1  0.823031  0.616221  0.538012  1
