# generated using pymatgen
data_HoTmCo12SiP6
_symmetry_space_group_name_H-M   'P 1'
_cell_length_a   9.00419000
_cell_length_b   9.00419062
_cell_length_c   3.57783400
_cell_angle_alpha   90.00000000
_cell_angle_beta   90.00000000
_cell_angle_gamma   119.99999771
_symmetry_Int_Tables_number   1
_chemical_formula_structural   HoTmCo12SiP6
_chemical_formula_sum   'Ho1 Tm1 Co12 Si1 P6'
_cell_volume   251.21187198
_cell_formula_units_Z   1
loop_
 _symmetry_equiv_pos_site_id
 _symmetry_equiv_pos_as_xyz
  1  'x, y, z'
loop_
 _atom_site_type_symbol
 _atom_site_label
 _atom_site_symmetry_multiplicity
 _atom_site_fract_x
 _atom_site_fract_y
 _atom_site_fract_z
 _atom_site_occupancy
  Ho  Ho0  1  0.666667  0.333333  0.500000  1
  Tm  Tm1  1  0.333333  0.666667  0.000000  1
  Co  Co2  1  0.122596  0.841160  0.000000  1
  Co  Co3  1  0.385364  0.436376  0.500000  1
  Co  Co4  1  0.718564  0.877404  0.000000  1
  Co  Co5  1  0.563624  0.948987  0.500000  1
  Co  Co6  1  0.231156  0.101012  0.500000  1
  Co  Co7  1  0.869857  0.768844  0.500000  1
  Co  Co8  1  0.898988  0.130143  0.500000  1
  Co  Co9  1  0.939896  0.373991  0.000000  1
  Co  Co10  1  0.626009  0.565907  0.000000  1
  Co  Co11  1  0.434093  0.060104  0.000000  1
  Co  Co12  1  0.051013  0.614636  0.500000  1
  Co  Co13  1  0.158840  0.281436  0.000000  1
  Si  Si14  1  0.000000  0.000000  0.000000  1
  P  P15  1  0.596735  0.709509  0.500000  1
  P  P16  1  0.706435  0.113030  0.000000  1
  P  P17  1  0.886970  0.593406  0.000000  1
  P  P18  1  0.406594  0.293565  0.000000  1
  P  P19  1  0.290491  0.887228  0.500000  1
  P  P20  1  0.112772  0.403265  0.500000  1
