# generated using pymatgen
data_Yb2Cd2SnPd2Pb
_symmetry_space_group_name_H-M   'P 1'
_cell_length_a   5.49623863
_cell_length_b   5.49623875
_cell_length_c   8.25684299
_cell_angle_alpha   89.49593716
_cell_angle_beta   90.50406214
_cell_angle_gamma   132.23220035
_symmetry_Int_Tables_number   1
_chemical_formula_structural   Yb2Cd2SnPd2Pb
_chemical_formula_sum   'Yb2 Cd2 Sn1 Pd2 Pb1'
_cell_volume   184.67466671
_cell_formula_units_Z   1
loop_
 _symmetry_equiv_pos_site_id
 _symmetry_equiv_pos_as_xyz
  1  'x, y, z'
loop_
 _atom_site_type_symbol
 _atom_site_label
 _atom_site_symmetry_multiplicity
 _atom_site_fract_x
 _atom_site_fract_y
 _atom_site_fract_z
 _atom_site_occupancy
  Yb  Yb0  1  0.433748  0.566252  0.249879  1
  Yb  Yb1  1  0.566406  0.433594  0.755287  1
  Cd  Cd2  1  0.145349  0.854651  0.443627  1
  Cd  Cd3  1  0.860908  0.139092  0.948792  1
  Sn  Sn4  1  0.146525  0.853475  0.052982  1
  Pd  Pd5  1  0.273517  0.726483  0.757120  1
  Pd  Pd6  1  0.716982  0.283018  0.241604  1
  Pb  Pb7  1  0.856564  0.143436  0.550709  1
