# generated using pymatgen
data_Li2Mn2Se2O
_symmetry_space_group_name_H-M   'P 1'
_cell_length_a   5.67114629
_cell_length_b   7.41764425
_cell_length_c   5.68385900
_cell_angle_alpha   89.99951551
_cell_angle_beta   89.99961400
_cell_angle_gamma   67.88702511
_symmetry_Int_Tables_number   1
_chemical_formula_structural   Li2Mn2Se2O
_chemical_formula_sum   'Li4 Mn4 Se4 O2'
_cell_volume   221.51291048
_cell_formula_units_Z   2
loop_
 _symmetry_equiv_pos_site_id
 _symmetry_equiv_pos_as_xyz
  1  'x, y, z'
loop_
 _atom_site_type_symbol
 _atom_site_label
 _atom_site_symmetry_multiplicity
 _atom_site_fract_x
 _atom_site_fract_y
 _atom_site_fract_z
 _atom_site_occupancy
  Li  Li0  1  0.757064  0.002779  0.741633  1
  Li  Li1  1  0.257060  0.002778  0.758358  1
  Li  Li2  1  0.742949  0.997219  0.241644  1
  Li  Li3  1  0.242954  0.997220  0.258349  1
  Mn  Mn4  1  0.149146  0.690212  0.994730  1
  Mn  Mn5  1  0.649162  0.690204  0.505275  1
  Mn  Mn6  1  0.350837  0.309791  0.494730  1
  Mn  Mn7  1  0.850822  0.309803  0.005278  1
  Se  Se8  1  0.353890  0.298507  0.999199  1
  Se  Se9  1  0.146111  0.701491  0.499200  1
  Se  Se10  1  0.853891  0.298506  0.500800  1
  Se  Se11  1  0.646109  0.701492  0.000801  1
  O  O12  1  0.500004  0.999999  0.500007  1
  O  O13  1  0.000001  0.999998  0.999995  1
