# generated using pymatgen
data_Zn2CuB4Pt9
_symmetry_space_group_name_H-M   'P 1'
_cell_length_a   9.20203925
_cell_length_b   9.16262405
_cell_length_c   5.77681100
_cell_angle_alpha   90.00000000
_cell_angle_beta   90.00000000
_cell_angle_gamma   119.90126154
_symmetry_Int_Tables_number   1
_chemical_formula_structural   Zn2CuB4Pt9
_chemical_formula_sum   'Zn4 Cu2 B8 Pt18'
_cell_volume   422.23476007
_cell_formula_units_Z   2
loop_
 _symmetry_equiv_pos_site_id
 _symmetry_equiv_pos_as_xyz
  1  'x, y, z'
loop_
 _atom_site_type_symbol
 _atom_site_label
 _atom_site_symmetry_multiplicity
 _atom_site_fract_x
 _atom_site_fract_y
 _atom_site_fract_z
 _atom_site_occupancy
  Zn  Zn0  1  0.449416  0.988569  0.250000  1
  Zn  Zn1  1  0.538248  0.550962  0.250000  1
  Zn  Zn2  1  0.987672  0.448750  0.750000  1
  Zn  Zn3  1  0.012926  0.461336  0.250000  1
  Cu  Cu4  1  0.456814  0.007292  0.750000  1
  Cu  Cu5  1  0.549876  0.543131  0.750000  1
  B  B6  1  0.807973  0.999675  0.501040  1
  B  B7  1  0.807973  0.999675  0.998960  1
  B  B8  1  0.000020  0.809418  0.500438  1
  B  B9  1  0.192895  0.192153  0.500087  1
  B  B10  1  0.192895  0.192153  0.999913  1
  B  B11  1  0.000020  0.809418  0.999562  1
  B  B12  1  0.665628  0.332088  0.250000  1
  B  B13  1  0.337644  0.668249  0.750000  1
  Pt  Pt14  1  0.809293  0.538582  0.499258  1
  Pt  Pt15  1  0.539805  0.809198  0.501461  1
  Pt  Pt16  1  0.994882  0.175492  0.750000  1
  Pt  Pt17  1  0.269511  0.459743  0.501722  1
  Pt  Pt18  1  0.004162  0.179104  0.250000  1
  Pt  Pt19  1  0.728139  0.189313  0.500307  1
  Pt  Pt20  1  0.820142  0.824264  0.250000  1
  Pt  Pt21  1  0.190618  0.729989  0.502661  1
  Pt  Pt22  1  0.462314  0.271017  0.501089  1
  Pt  Pt23  1  0.809293  0.538582  0.000742  1
  Pt  Pt24  1  0.462314  0.271017  0.998911  1
  Pt  Pt25  1  0.179377  0.006063  0.750000  1
  Pt  Pt26  1  0.176166  0.995609  0.250000  1
  Pt  Pt27  1  0.190618  0.729989  0.997339  1
  Pt  Pt28  1  0.825912  0.820915  0.750000  1
  Pt  Pt29  1  0.728139  0.189313  0.999693  1
  Pt  Pt30  1  0.269511  0.459743  0.998278  1
  Pt  Pt31  1  0.539805  0.809198  0.998539  1
