# generated using pymatgen
data_Ac4Zn10SnPb
_symmetry_space_group_name_H-M   'P 1'
_cell_length_a   8.91465177
_cell_length_b   8.91465257
_cell_length_c   9.34373000
_cell_angle_alpha   90.00000000
_cell_angle_beta   90.00000000
_cell_angle_gamma   149.27392191
_symmetry_Int_Tables_number   1
_chemical_formula_structural   Ac4Zn10SnPb
_chemical_formula_sum   'Ac4 Zn10 Sn1 Pb1'
_cell_volume   379.39716464
_cell_formula_units_Z   1
loop_
 _symmetry_equiv_pos_site_id
 _symmetry_equiv_pos_as_xyz
  1  'x, y, z'
loop_
 _atom_site_type_symbol
 _atom_site_label
 _atom_site_symmetry_multiplicity
 _atom_site_fract_x
 _atom_site_fract_y
 _atom_site_fract_z
 _atom_site_occupancy
  Ac  Ac0  1  0.208018  0.791982  0.250000  1
  Ac  Ac1  1  0.792551  0.207449  0.750000  1
  Ac  Ac2  1  0.999937  0.000063  0.503031  1
  Ac  Ac3  1  0.999937  0.000063  0.996969  1
  Zn  Zn4  1  0.814441  0.185559  0.390562  1
  Zn  Zn5  1  0.185429  0.814571  0.610006  1
  Zn  Zn6  1  0.814441  0.185559  0.109438  1
  Zn  Zn7  1  0.185429  0.814571  0.889994  1
  Zn  Zn8  1  0.658384  0.341616  0.490398  1
  Zn  Zn9  1  0.343601  0.656399  0.512844  1
  Zn  Zn10  1  0.658384  0.341616  0.009602  1
  Zn  Zn11  1  0.343601  0.656399  0.987156  1
  Zn  Zn12  1  0.395349  0.604651  0.250000  1
  Zn  Zn13  1  0.601524  0.398476  0.750000  1
  Sn  Sn14  1  0.442297  0.557703  0.750000  1
  Pb  Pb15  1  0.556676  0.443324  0.250000  1
