# generated using pymatgen
data_LuZr(Co5P3)2
_symmetry_space_group_name_H-M   'P 1'
_cell_length_a   3.61991800
_cell_length_b   10.20099800
_cell_length_c   11.67640200
_cell_angle_alpha   90.00000000
_cell_angle_beta   90.00000000
_cell_angle_gamma   90.00000000
_symmetry_Int_Tables_number   1
_chemical_formula_structural   LuZr(Co5P3)2
_chemical_formula_sum   'Lu2 Zr2 Co20 P12'
_cell_volume   431.17188439
_cell_formula_units_Z   2
loop_
 _symmetry_equiv_pos_site_id
 _symmetry_equiv_pos_as_xyz
  1  'x, y, z'
loop_
 _atom_site_type_symbol
 _atom_site_label
 _atom_site_symmetry_multiplicity
 _atom_site_fract_x
 _atom_site_fract_y
 _atom_site_fract_z
 _atom_site_occupancy
  Lu  Lu0  1  0.750000  0.417976  0.297061  1
  Lu  Lu1  1  0.750000  0.082024  0.797061  1
  Zr  Zr2  1  0.250000  0.581465  0.701603  1
  Zr  Zr3  1  0.250000  0.918535  0.201603  1
  Co  Co4  1  0.250000  0.719298  0.993754  1
  Co  Co5  1  0.250000  0.780702  0.493754  1
  Co  Co6  1  0.750000  0.281412  0.007443  1
  Co  Co7  1  0.750000  0.218588  0.507443  1
  Co  Co8  1  0.250000  0.409423  0.488541  1
  Co  Co9  1  0.250000  0.090577  0.988541  1
  Co  Co10  1  0.750000  0.592750  0.514480  1
  Co  Co11  1  0.750000  0.907250  0.014480  1
  Co  Co12  1  0.250000  0.222502  0.177751  1
  Co  Co13  1  0.250000  0.277498  0.677751  1
  Co  Co14  1  0.750000  0.776082  0.822573  1
  Co  Co15  1  0.750000  0.723918  0.322573  1
  Co  Co16  1  0.250000  0.881920  0.699732  1
  Co  Co17  1  0.250000  0.618080  0.199732  1
  Co  Co18  1  0.750000  0.115037  0.299449  1
  Co  Co19  1  0.750000  0.384963  0.799449  1
  Co  Co20  1  0.250000  0.468423  0.929723  1
  Co  Co21  1  0.250000  0.031577  0.429723  1
  Co  Co22  1  0.750000  0.534136  0.068219  1
  Co  Co23  1  0.750000  0.965864  0.568219  1
  P  P24  1  0.250000  0.419403  0.112529  1
  P  P25  1  0.250000  0.080597  0.612529  1
  P  P26  1  0.750000  0.580909  0.885308  1
  P  P27  1  0.750000  0.919091  0.385308  1
  P  P28  1  0.250000  0.268267  0.870647  1
  P  P29  1  0.250000  0.231733  0.370647  1
  P  P30  1  0.750000  0.732775  0.130892  1
  P  P31  1  0.750000  0.767225  0.630892  1
  P  P32  1  0.250000  0.600734  0.390314  1
  P  P33  1  0.250000  0.899266  0.890314  1
  P  P34  1  0.750000  0.400135  0.609981  1
  P  P35  1  0.750000  0.099865  0.109981  1
