# generated using pymatgen
data_RbDy3CBr6
_symmetry_space_group_name_H-M   'P 1'
_cell_length_a   8.73938855
_cell_length_b   8.79016248
_cell_length_c   9.43207989
_cell_angle_alpha   70.82473953
_cell_angle_beta   85.17474133
_cell_angle_gamma   89.20702068
_symmetry_Int_Tables_number   1
_chemical_formula_structural   RbDy3CBr6
_chemical_formula_sum   'Rb2 Dy6 C2 Br12'
_cell_volume   681.87888729
_cell_formula_units_Z   2
loop_
 _symmetry_equiv_pos_site_id
 _symmetry_equiv_pos_as_xyz
  1  'x, y, z'
loop_
 _atom_site_type_symbol
 _atom_site_label
 _atom_site_symmetry_multiplicity
 _atom_site_fract_x
 _atom_site_fract_y
 _atom_site_fract_z
 _atom_site_occupancy
  Rb  Rb0  1  0.469084  0.357320  0.331591  1
  Rb  Rb1  1  0.530917  0.642680  0.668409  1
  Dy  Dy2  1  0.915744  0.742915  0.004918  1
  Dy  Dy3  1  0.084256  0.257085  0.995081  1
  Dy  Dy4  1  0.741262  0.086232  0.001060  1
  Dy  Dy5  1  0.258737  0.913768  0.998941  1
  Dy  Dy6  1  0.974556  0.884112  0.325491  1
  Dy  Dy7  1  0.025443  0.115888  0.674510  1
  C  C8  1  0.006004  0.027263  0.920100  1
  C  C9  1  0.993995  0.972737  0.079900  1
  Br  Br10  1  0.080672  0.196225  0.327689  1
  Br  Br11  1  0.919328  0.803775  0.672311  1
  Br  Br12  1  0.206339  0.591793  0.000619  1
  Br  Br13  1  0.793662  0.408207  0.999381  1
  Br  Br14  1  0.404493  0.201845  0.003004  1
  Br  Br15  1  0.595506  0.798156  0.996995  1
  Br  Br16  1  0.666062  0.001499  0.326531  1
  Br  Br17  1  0.333938  0.998501  0.673469  1
  Br  Br18  1  0.283619  0.771100  0.322965  1
  Br  Br19  1  0.716381  0.228900  0.677035  1
  Br  Br20  1  0.849328  0.587036  0.326590  1
  Br  Br21  1  0.150671  0.412964  0.673410  1
