# generated using pymatgen
data_Li2Pr8Tm9LuSi16
_symmetry_space_group_name_H-M   'P 1'
_cell_length_a   7.32098500
_cell_length_b   7.76782512
_cell_length_c   14.68588300
_cell_angle_alpha   90.00000000
_cell_angle_beta   90.00000000
_cell_angle_gamma   90.04230896
_symmetry_Int_Tables_number   1
_chemical_formula_structural   Li2Pr8Tm9LuSi16
_chemical_formula_sum   'Li2 Pr8 Tm9 Lu1 Si16'
_cell_volume   835.15849310
_cell_formula_units_Z   1
loop_
 _symmetry_equiv_pos_site_id
 _symmetry_equiv_pos_as_xyz
  1  'x, y, z'
loop_
 _atom_site_type_symbol
 _atom_site_label
 _atom_site_symmetry_multiplicity
 _atom_site_fract_x
 _atom_site_fract_y
 _atom_site_fract_z
 _atom_site_occupancy
  Li  Li0  1  0.846145  0.491990  0.250000  1
  Li  Li1  1  0.153584  0.507544  0.750000  1
  Pr  Pr2  1  0.015650  0.185381  0.398887  1
  Pr  Pr3  1  0.524529  0.324145  0.399240  1
  Pr  Pr4  1  0.475122  0.675427  0.900002  1
  Pr  Pr5  1  0.475122  0.675427  0.599998  1
  Pr  Pr6  1  0.984678  0.814761  0.600390  1
  Pr  Pr7  1  0.984678  0.814761  0.899610  1
  Pr  Pr8  1  0.524529  0.324145  0.100760  1
  Pr  Pr9  1  0.015650  0.185381  0.101113  1
  Tm  Tm10  1  0.321536  0.185462  0.624219  1
  Tm  Tm11  1  0.678652  0.814554  0.375199  1
  Tm  Tm12  1  0.653931  0.993368  0.750000  1
  Tm  Tm13  1  0.169611  0.675921  0.373446  1
  Tm  Tm14  1  0.830234  0.324363  0.874137  1
  Tm  Tm15  1  0.830234  0.324363  0.625863  1
  Tm  Tm16  1  0.321536  0.185462  0.875781  1
  Tm  Tm17  1  0.169611  0.675921  0.126554  1
  Tm  Tm18  1  0.678652  0.814554  0.124801  1
  Lu  Lu19  1  0.346273  0.006024  0.250000  1
  Si  Si20  1  0.278931  0.890541  0.750000  1
  Si  Si21  1  0.467660  0.611598  0.250000  1
  Si  Si22  1  0.027526  0.102656  0.750000  1
  Si  Si23  1  0.532367  0.387994  0.750000  1
  Si  Si24  1  0.150863  0.462970  0.532460  1
  Si  Si25  1  0.973600  0.898809  0.250000  1
  Si  Si26  1  0.720113  0.109821  0.250000  1
  Si  Si27  1  0.848873  0.536806  0.033455  1
  Si  Si28  1  0.350192  0.968577  0.038878  1
  Si  Si29  1  0.150863  0.462970  0.967540  1
  Si  Si30  1  0.649788  0.031764  0.537788  1
  Si  Si31  1  0.350192  0.968577  0.461122  1
  Si  Si32  1  0.848873  0.536806  0.466545  1
  Si  Si33  1  0.772694  0.619509  0.750000  1
  Si  Si34  1  0.227721  0.379884  0.250000  1
  Si  Si35  1  0.649788  0.031764  0.962212  1
