# generated using pymatgen
data_Rb2Zn(InAu2)3
_symmetry_space_group_name_H-M   'P 1'
_cell_length_a   6.09915000
_cell_length_b   7.45273085
_cell_length_c   14.01259100
_cell_angle_alpha   90.00000000
_cell_angle_beta   90.00000000
_cell_angle_gamma   89.75914537
_symmetry_Int_Tables_number   1
_chemical_formula_structural   Rb2Zn(InAu2)3
_chemical_formula_sum   'Rb4 Zn2 In6 Au12'
_cell_volume   636.94122721
_cell_formula_units_Z   2
loop_
 _symmetry_equiv_pos_site_id
 _symmetry_equiv_pos_as_xyz
  1  'x, y, z'
loop_
 _atom_site_type_symbol
 _atom_site_label
 _atom_site_symmetry_multiplicity
 _atom_site_fract_x
 _atom_site_fract_y
 _atom_site_fract_z
 _atom_site_occupancy
  Rb  Rb0  1  0.245222  0.109602  0.077705  1
  Rb  Rb1  1  0.254778  0.390398  0.577705  1
  Rb  Rb2  1  0.744175  0.891732  0.922210  1
  Rb  Rb3  1  0.755825  0.608268  0.422210  1
  Zn  Zn4  1  0.998041  0.903632  0.657209  1
  Zn  Zn5  1  0.501959  0.596368  0.157209  1
  In  In6  1  0.499692  0.106321  0.355707  1
  In  In7  1  0.000308  0.393679  0.855707  1
  In  In8  1  0.004161  0.097738  0.333319  1
  In  In9  1  0.495839  0.402262  0.833319  1
  In  In10  1  0.498514  0.891149  0.654008  1
  In  In11  1  0.001486  0.608851  0.154008  1
  Au  Au12  1  0.237246  0.099324  0.787873  1
  Au  Au13  1  0.262754  0.400676  0.287873  1
  Au  Au14  1  0.722365  0.888419  0.208474  1
  Au  Au15  1  0.777635  0.611581  0.708474  1
  Au  Au16  1  0.220512  0.717170  0.797322  1
  Au  Au17  1  0.279488  0.782830  0.297322  1
  Au  Au18  1  0.731426  0.287813  0.200459  1
  Au  Au19  1  0.768574  0.212187  0.700459  1
  Au  Au20  1  0.278793  0.601146  0.994030  1
  Au  Au21  1  0.221207  0.898854  0.494030  1
  Au  Au22  1  0.720122  0.410143  0.011685  1
  Au  Au23  1  0.779878  0.089857  0.511685  1
