# generated using pymatgen
data_Tb18Lu2Sn9Bi7
_symmetry_space_group_name_H-M   'P 1'
_cell_length_a   8.20619248
_cell_length_b   8.23700854
_cell_length_c   15.68584200
_cell_angle_alpha   90.06807738
_cell_angle_beta   89.60553384
_cell_angle_gamma   89.91707639
_symmetry_Int_Tables_number   1
_chemical_formula_structural   Tb18Lu2Sn9Bi7
_chemical_formula_sum   'Tb18 Lu2 Sn9 Bi7'
_cell_volume   1060.24929551
_cell_formula_units_Z   1
loop_
 _symmetry_equiv_pos_site_id
 _symmetry_equiv_pos_as_xyz
  1  'x, y, z'
loop_
 _atom_site_type_symbol
 _atom_site_label
 _atom_site_symmetry_multiplicity
 _atom_site_fract_x
 _atom_site_fract_y
 _atom_site_fract_z
 _atom_site_occupancy
  Tb  Tb0  1  0.394739  0.838089  0.878150  1
  Tb  Tb1  1  0.898001  0.663491  0.620979  1
  Tb  Tb2  1  0.602541  0.161703  0.377859  1
  Tb  Tb3  1  0.101719  0.338949  0.121575  1
  Tb  Tb4  1  0.607531  0.166877  0.121592  1
  Tb  Tb5  1  0.102700  0.337394  0.377928  1
  Tb  Tb6  1  0.396608  0.838547  0.622290  1
  Tb  Tb7  1  0.892093  0.660320  0.880677  1
  Tb  Tb8  1  0.565597  0.333426  0.890259  1
  Tb  Tb9  1  0.066098  0.168887  0.614073  1
  Tb  Tb10  1  0.434238  0.667683  0.386125  1
  Tb  Tb11  1  0.936910  0.823653  0.111712  1
  Tb  Tb12  1  0.445481  0.665253  0.110504  1
  Tb  Tb13  1  0.933743  0.831102  0.385586  1
  Tb  Tb14  1  0.566153  0.331968  0.613423  1
  Tb  Tb15  1  0.056933  0.173908  0.889657  1
  Tb  Tb16  1  0.228452  0.500327  0.750736  1
  Tb  Tb17  1  0.728537  0.002242  0.750774  1
  Lu  Lu18  1  0.771293  0.499451  0.245899  1
  Lu  Lu19  1  0.270919  0.998240  0.248837  1
  Sn  Sn20  1  0.768111  0.481150  0.045910  1
  Sn  Sn21  1  0.594414  0.629640  0.749728  1
  Sn  Sn22  1  0.092766  0.871898  0.751154  1
  Sn  Sn23  1  0.405947  0.369716  0.250362  1
  Sn  Sn24  1  0.907118  0.128036  0.250111  1
  Sn  Sn25  1  0.366401  0.143234  0.751637  1
  Sn  Sn26  1  0.866357  0.360157  0.750054  1
  Sn  Sn27  1  0.631701  0.857562  0.249367  1
  Sn  Sn28  1  0.134106  0.641808  0.249674  1
  Bi  Bi29  1  0.264957  0.015242  0.046216  1
  Bi  Bi30  1  0.763082  0.487436  0.452345  1
  Bi  Bi31  1  0.737195  0.987886  0.545230  1
  Bi  Bi32  1  0.234366  0.517751  0.955564  1
  Bi  Bi33  1  0.732670  0.982739  0.955680  1
  Bi  Bi34  1  0.238001  0.512662  0.545305  1
  Bi  Bi35  1  0.262520  0.011569  0.453022  1
