# generated using pymatgen
data_Cs3K7Rb2(AlTe3)4
_symmetry_space_group_name_H-M   'P 1'
_cell_length_a   14.83426901
_cell_length_b   8.92227834
_cell_length_c   11.31932113
_cell_angle_alpha   53.12412707
_cell_angle_beta   89.30725883
_cell_angle_gamma   90.03348073
_symmetry_Int_Tables_number   1
_chemical_formula_structural   Cs3K7Rb2(AlTe3)4
_chemical_formula_sum   'Cs3 K7 Rb2 Al4 Te12'
_cell_volume   1198.30041450
_cell_formula_units_Z   1
loop_
 _symmetry_equiv_pos_site_id
 _symmetry_equiv_pos_as_xyz
  1  'x, y, z'
loop_
 _atom_site_type_symbol
 _atom_site_label
 _atom_site_symmetry_multiplicity
 _atom_site_fract_x
 _atom_site_fract_y
 _atom_site_fract_z
 _atom_site_occupancy
  Cs  Cs0  1  0.309555  0.174722  0.063555  1
  Cs  Cs1  1  0.685097  0.826458  0.938644  1
  Cs  Cs2  1  0.815663  0.830306  0.458296  1
  K  K3  1  0.110077  0.641172  0.021334  1
  K  K4  1  0.385821  0.635654  0.528509  1
  K  K5  1  0.895015  0.340226  0.982123  1
  K  K6  1  0.612678  0.301800  0.906742  1
  K  K7  1  0.109278  0.694348  0.591054  1
  K  K8  1  0.380087  0.709780  0.084323  1
  K  K9  1  0.194191  0.166497  0.566342  1
  Rb  Rb10  1  0.905544  0.310753  0.407471  1
  Rb  Rb11  1  0.612712  0.373799  0.465750  1
  Al  Al12  1  0.068519  0.943336  0.156804  1
  Al  Al13  1  0.562235  0.050362  0.341218  1
  Al  Al14  1  0.429643  0.965715  0.648654  1
  Al  Al15  1  0.937042  0.041161  0.848164  1
  Te  Te16  1  0.411227  0.209737  0.353022  1
  Te  Te17  1  0.907758  0.817348  0.143057  1
  Te  Te18  1  0.580209  0.804951  0.638812  1
  Te  Te19  1  0.095453  0.179230  0.857716  1
  Te  Te20  1  0.696082  0.294854  0.206274  1
  Te  Te21  1  0.187446  0.671495  0.300868  1
  Te  Te22  1  0.297671  0.717040  0.779942  1
  Te  Te23  1  0.812234  0.299770  0.713162  1
  Te  Te24  1  0.539087  0.868878  0.229668  1
  Te  Te25  1  0.063805  0.140487  0.258407  1
  Te  Te26  1  0.445865  0.147237  0.761841  1
  Te  Te27  1  0.950008  0.842883  0.748247  1
