# generated using pymatgen
data_LiTi2AlRh4
_symmetry_space_group_name_H-M   'P 1'
_cell_length_a   5.95092000
_cell_length_b   5.95061100
_cell_length_c   6.33546100
_cell_angle_alpha   90.00000000
_cell_angle_beta   89.99998133
_cell_angle_gamma   90.00000000
_symmetry_Int_Tables_number   1
_chemical_formula_structural   LiTi2AlRh4
_chemical_formula_sum   'Li2 Ti4 Al2 Rh8'
_cell_volume   224.34887418
_cell_formula_units_Z   2
loop_
 _symmetry_equiv_pos_site_id
 _symmetry_equiv_pos_as_xyz
  1  'x, y, z'
loop_
 _atom_site_type_symbol
 _atom_site_label
 _atom_site_symmetry_multiplicity
 _atom_site_fract_x
 _atom_site_fract_y
 _atom_site_fract_z
 _atom_site_occupancy
  Li  Li0  1  0.750012  0.250001  0.499993  1
  Li  Li1  1  0.249989  0.750000  0.500005  1
  Ti  Ti2  1  0.249992  0.250001  0.000000  1
  Ti  Ti3  1  0.750007  0.750000  0.999999  1
  Ti  Ti4  1  0.749976  0.750000  0.499997  1
  Ti  Ti5  1  0.250024  0.250001  0.499998  1
  Al  Al6  1  0.749995  0.250001  0.999999  1
  Al  Al7  1  0.250005  0.750000  0.999995  1
  Rh  Rh8  1  0.499997  0.000000  0.248502  1
  Rh  Rh9  1  0.499997  0.500001  0.248502  1
  Rh  Rh10  1  0.000000  0.000001  0.248516  1
  Rh  Rh11  1  0.000000  0.500002  0.248516  1
  Rh  Rh12  1  0.000002  0.000001  0.751488  1
  Rh  Rh13  1  0.000002  0.499997  0.751488  1
  Rh  Rh14  1  0.500002  0.999997  0.751500  1
  Rh  Rh15  1  0.500002  0.500001  0.751500  1
