# generated using pymatgen
data_Ba2Ce(ZnAs2)2
_symmetry_space_group_name_H-M   'P 1'
_cell_length_a   8.12633188
_cell_length_b   8.12633229
_cell_length_c   7.66888305
_cell_angle_alpha   70.89184393
_cell_angle_beta   70.89184474
_cell_angle_gamma   30.76804162
_symmetry_Int_Tables_number   1
_chemical_formula_structural   Ba2Ce(ZnAs2)2
_chemical_formula_sum   'Ba2 Ce1 Zn2 As4'
_cell_volume   243.68331686
_cell_formula_units_Z   1
loop_
 _symmetry_equiv_pos_site_id
 _symmetry_equiv_pos_as_xyz
  1  'x, y, z'
loop_
 _atom_site_type_symbol
 _atom_site_label
 _atom_site_symmetry_multiplicity
 _atom_site_fract_x
 _atom_site_fract_y
 _atom_site_fract_z
 _atom_site_occupancy
  Ba  Ba0  1  0.136155  0.136155  0.419192  1
  Ba  Ba1  1  0.863845  0.863845  0.580808  1
  Ce  Ce2  1  0.000000  0.000000  0.000000  1
  Zn  Zn3  1  0.330263  0.330263  0.981462  1
  Zn  Zn4  1  0.669737  0.669737  0.018538  1
  As  As5  1  0.202691  0.202691  0.821152  1
  As  As6  1  0.797309  0.797309  0.178848  1
  As  As7  1  0.488181  0.488181  0.749705  1
  As  As8  1  0.511819  0.511819  0.250295  1
