# generated using pymatgen
data_PrHo19Sn13Bi3
_symmetry_space_group_name_H-M   'P 1'
_cell_length_a   8.12745312
_cell_length_b   8.16695869
_cell_length_c   15.44086000
_cell_angle_alpha   90.13864161
_cell_angle_beta   89.14868701
_cell_angle_gamma   89.95479427
_symmetry_Int_Tables_number   1
_chemical_formula_structural   PrHo19Sn13Bi3
_chemical_formula_sum   'Pr1 Ho19 Sn13 Bi3'
_cell_volume   1024.79490437
_cell_formula_units_Z   1
loop_
 _symmetry_equiv_pos_site_id
 _symmetry_equiv_pos_as_xyz
  1  'x, y, z'
loop_
 _atom_site_type_symbol
 _atom_site_label
 _atom_site_symmetry_multiplicity
 _atom_site_fract_x
 _atom_site_fract_y
 _atom_site_fract_z
 _atom_site_occupancy
  Pr  Pr0  1  0.019817  0.182495  0.901560  1
  Ho  Ho1  1  0.372159  0.833851  0.876604  1
  Ho  Ho2  1  0.880928  0.661856  0.622621  1
  Ho  Ho3  1  0.620250  0.159705  0.375565  1
  Ho  Ho4  1  0.127633  0.341061  0.124235  1
  Ho  Ho5  1  0.633923  0.161429  0.123159  1
  Ho  Ho6  1  0.127357  0.337514  0.377823  1
  Ho  Ho7  1  0.373941  0.837634  0.621708  1
  Ho  Ho8  1  0.871740  0.661499  0.876470  1
  Ho  Ho9  1  0.534262  0.329733  0.898821  1
  Ho  Ho10  1  0.050245  0.173532  0.607297  1
  Ho  Ho11  1  0.451691  0.674057  0.393610  1
  Ho  Ho12  1  0.962526  0.819870  0.101670  1
  Ho  Ho13  1  0.474046  0.671144  0.099770  1
  Ho  Ho14  1  0.971110  0.828247  0.395356  1
  Ho  Ho15  1  0.527504  0.327519  0.602982  1
  Ho  Ho16  1  0.203976  0.501528  0.749776  1
  Ho  Ho17  1  0.703107  0.998618  0.753637  1
  Ho  Ho18  1  0.795922  0.498855  0.246873  1
  Ho  Ho19  1  0.296594  0.001053  0.252801  1
  Sn  Sn20  1  0.214395  0.534360  0.958492  1
  Sn  Sn21  1  0.707793  0.959000  0.959201  1
  Sn  Sn22  1  0.217459  0.531042  0.542645  1
  Sn  Sn23  1  0.283197  0.030957  0.457369  1
  Sn  Sn24  1  0.790615  0.463971  0.041743  1
  Sn  Sn25  1  0.570386  0.623688  0.747403  1
  Sn  Sn26  1  0.070734  0.876705  0.750033  1
  Sn  Sn27  1  0.431011  0.376906  0.249184  1
  Sn  Sn28  1  0.930909  0.122068  0.251333  1
  Sn  Sn29  1  0.343703  0.147312  0.751916  1
  Sn  Sn30  1  0.835402  0.354682  0.746113  1
  Sn  Sn31  1  0.658890  0.850445  0.249544  1
  Sn  Sn32  1  0.158143  0.648188  0.248356  1
  Bi  Bi33  1  0.287695  0.028838  0.045080  1
  Bi  Bi34  1  0.776639  0.474444  0.455784  1
  Bi  Bi35  1  0.724297  0.976197  0.543467  1
