# generated using pymatgen
data_Be9BRu4
_symmetry_space_group_name_H-M   'P 1'
_cell_length_a   5.64070437
_cell_length_b   5.58754330
_cell_length_c   5.89395841
_cell_angle_alpha   97.95197795
_cell_angle_beta   98.41773218
_cell_angle_gamma   44.64280029
_symmetry_Int_Tables_number   1
_chemical_formula_structural   Be9BRu4
_chemical_formula_sum   'Be9 B1 Ru4'
_cell_volume   128.97096385
_cell_formula_units_Z   1
loop_
 _symmetry_equiv_pos_site_id
 _symmetry_equiv_pos_as_xyz
  1  'x, y, z'
loop_
 _atom_site_type_symbol
 _atom_site_label
 _atom_site_symmetry_multiplicity
 _atom_site_fract_x
 _atom_site_fract_y
 _atom_site_fract_z
 _atom_site_occupancy
  Be  Be0  1  0.235244  0.955684  0.575739  1
  Be  Be1  1  0.944422  0.235414  0.084786  1
  Be  Be2  1  0.758925  0.058396  0.416185  1
  Be  Be3  1  0.062618  0.371071  0.816821  1
  Be  Be4  1  0.648927  0.919624  0.694510  1
  Be  Be5  1  0.927719  0.639559  0.181255  1
  Be  Be6  1  0.358398  0.080290  0.309129  1
  Be  Be7  1  0.808245  0.192325  0.750373  1
  Be  Be8  1  0.212900  0.777706  0.246831  1
  B  B9  1  0.061824  0.758739  0.923005  1
  Ru  Ru10  1  0.234623  0.534625  0.575933  1
  Ru  Ru11  1  0.461874  0.760170  0.936285  1
  Ru  Ru12  1  0.756217  0.483585  0.439931  1
  Ru  Ru13  1  0.528063  0.232812  0.049216  1
