# generated using pymatgen
data_Dy2Er10Co4BiIr
_symmetry_space_group_name_H-M   'P 1'
_cell_length_a   8.26732886
_cell_length_b   8.26732756
_cell_length_c   8.26256073
_cell_angle_alpha   110.68279769
_cell_angle_beta   111.13917372
_cell_angle_gamma   106.65349061
_symmetry_Int_Tables_number   1
_chemical_formula_structural   Dy2Er10Co4BiIr
_chemical_formula_sum   'Dy2 Er10 Co4 Bi1 Ir1'
_cell_volume   433.80375418
_cell_formula_units_Z   1
loop_
 _symmetry_equiv_pos_site_id
 _symmetry_equiv_pos_as_xyz
  1  'x, y, z'
loop_
 _atom_site_type_symbol
 _atom_site_label
 _atom_site_symmetry_multiplicity
 _atom_site_fract_x
 _atom_site_fract_y
 _atom_site_fract_z
 _atom_site_occupancy
  Dy  Dy0  1  0.284948  0.182771  0.467720  1
  Dy  Dy1  1  0.715052  0.817229  0.532280  1
  Er  Er2  1  0.284432  0.817510  0.101941  1
  Er  Er3  1  0.715568  0.182490  0.898059  1
  Er  Er4  1  0.621345  0.311622  0.309000  1
  Er  Er5  1  0.378655  0.688378  0.691000  1
  Er  Er6  1  0.002623  0.312344  0.691000  1
  Er  Er7  1  0.997377  0.687656  0.309000  1
  Er  Er8  1  0.211925  0.410390  0.197337  1
  Er  Er9  1  0.788075  0.589610  0.802663  1
  Er  Er10  1  0.213053  0.014588  0.802663  1
  Er  Er11  1  0.786947  0.985412  0.197337  1
  Co  Co12  1  0.999559  0.376094  0.375653  1
  Co  Co13  1  0.000441  0.623906  0.624347  1
  Co  Co14  1  0.388833  0.888833  0.500000  1
  Co  Co15  1  0.611167  0.111167  0.500000  1
  Bi  Bi16  1  0.500000  0.500000  0.000000  1
  Ir  Ir17  1  0.000000  0.000000  0.000000  1
