# generated using pymatgen
data_Ac(AsPd3)2
_symmetry_space_group_name_H-M   'P 1'
_cell_length_a   8.79645200
_cell_length_b   8.79645200
_cell_length_c   8.79645200
_cell_angle_alpha   90.00000000
_cell_angle_beta   90.00000000
_cell_angle_gamma   90.00000000
_symmetry_Int_Tables_number   1
_chemical_formula_structural   Ac(AsPd3)2
_chemical_formula_sum   'Ac4 As8 Pd24'
_cell_volume   680.64806093
_cell_formula_units_Z   4
loop_
 _symmetry_equiv_pos_site_id
 _symmetry_equiv_pos_as_xyz
  1  'x, y, z'
loop_
 _atom_site_type_symbol
 _atom_site_label
 _atom_site_symmetry_multiplicity
 _atom_site_fract_x
 _atom_site_fract_y
 _atom_site_fract_z
 _atom_site_occupancy
  Ac  Ac0  1  0.500000  0.500000  0.000000  1
  Ac  Ac1  1  0.500000  0.000000  0.500000  1
  Ac  Ac2  1  0.000000  0.500000  0.500000  1
  Ac  Ac3  1  0.000000  0.000000  0.000000  1
  As  As4  1  0.807553  0.307553  0.192447  1
  As  As5  1  0.192447  0.807553  0.307553  1
  As  As6  1  0.692447  0.692447  0.692447  1
  As  As7  1  0.307553  0.192447  0.807553  1
  As  As8  1  0.192447  0.692447  0.807553  1
  As  As9  1  0.807553  0.192447  0.692447  1
  As  As10  1  0.307553  0.307553  0.307553  1
  As  As11  1  0.692447  0.807553  0.192447  1
  Pd  Pd12  1  0.418398  0.844333  0.150733  1
  Pd  Pd13  1  0.581602  0.344333  0.349267  1
  Pd  Pd14  1  0.081602  0.155667  0.650733  1
  Pd  Pd15  1  0.918398  0.655667  0.849267  1
  Pd  Pd16  1  0.150733  0.418398  0.844333  1
  Pd  Pd17  1  0.349267  0.581602  0.344333  1
  Pd  Pd18  1  0.650733  0.081602  0.155667  1
  Pd  Pd19  1  0.849267  0.918398  0.655667  1
  Pd  Pd20  1  0.844333  0.150733  0.418398  1
  Pd  Pd21  1  0.344333  0.349267  0.581602  1
  Pd  Pd22  1  0.155667  0.650733  0.081602  1
  Pd  Pd23  1  0.655667  0.849267  0.918398  1
  Pd  Pd24  1  0.581602  0.155667  0.849267  1
  Pd  Pd25  1  0.418398  0.655667  0.650733  1
  Pd  Pd26  1  0.918398  0.844333  0.349267  1
  Pd  Pd27  1  0.081602  0.344333  0.150733  1
  Pd  Pd28  1  0.849267  0.581602  0.155667  1
  Pd  Pd29  1  0.650733  0.418398  0.655667  1
  Pd  Pd30  1  0.349267  0.918398  0.844333  1
  Pd  Pd31  1  0.150733  0.081602  0.344333  1
  Pd  Pd32  1  0.155667  0.849267  0.581602  1
  Pd  Pd33  1  0.655667  0.650733  0.418398  1
  Pd  Pd34  1  0.844333  0.349267  0.918398  1
  Pd  Pd35  1  0.344333  0.150733  0.081602  1
