# generated using pymatgen
data_LaZn12Cu
_symmetry_space_group_name_H-M   'P 1'
_cell_length_a   8.59302976
_cell_length_b   8.59302947
_cell_length_c   8.59302900
_cell_angle_alpha   59.99999797
_cell_angle_beta   59.99999908
_cell_angle_gamma   59.99999827
_symmetry_Int_Tables_number   1
_chemical_formula_structural   LaZn12Cu
_chemical_formula_sum   'La2 Zn24 Cu2'
_cell_volume   448.66674553
_cell_formula_units_Z   2
loop_
 _symmetry_equiv_pos_site_id
 _symmetry_equiv_pos_as_xyz
  1  'x, y, z'
loop_
 _atom_site_type_symbol
 _atom_site_label
 _atom_site_symmetry_multiplicity
 _atom_site_fract_x
 _atom_site_fract_y
 _atom_site_fract_z
 _atom_site_occupancy
  La  La0  1  0.750000  0.750000  0.750000  1
  La  La1  1  0.250000  0.250000  0.250000  1
  Zn  Zn2  1  0.701268  0.941681  0.298732  1
  Zn  Zn3  1  0.941681  0.701268  0.058319  1
  Zn  Zn4  1  0.058319  0.298732  0.941681  1
  Zn  Zn5  1  0.798732  0.558319  0.441681  1
  Zn  Zn6  1  0.558319  0.798732  0.201268  1
  Zn  Zn7  1  0.201268  0.558319  0.798732  1
  Zn  Zn8  1  0.798732  0.441681  0.201268  1
  Zn  Zn9  1  0.558319  0.441681  0.798732  1
  Zn  Zn10  1  0.201268  0.798732  0.441681  1
  Zn  Zn11  1  0.941681  0.058319  0.298732  1
  Zn  Zn12  1  0.298732  0.941681  0.058319  1
  Zn  Zn13  1  0.058319  0.701268  0.298732  1
  Zn  Zn14  1  0.058319  0.941681  0.701268  1
  Zn  Zn15  1  0.298732  0.701268  0.941681  1
  Zn  Zn16  1  0.701268  0.058319  0.941681  1
  Zn  Zn17  1  0.701268  0.298732  0.058319  1
  Zn  Zn18  1  0.941681  0.298732  0.701268  1
  Zn  Zn19  1  0.441681  0.798732  0.558319  1
  Zn  Zn20  1  0.441681  0.201268  0.798732  1
  Zn  Zn21  1  0.798732  0.201268  0.558319  1
  Zn  Zn22  1  0.441681  0.558319  0.201268  1
  Zn  Zn23  1  0.201268  0.441681  0.558319  1
  Zn  Zn24  1  0.558319  0.201268  0.441681  1
  Zn  Zn25  1  0.298732  0.058319  0.701268  1
  Cu  Cu26  1  0.000000  0.000000  0.000000  1
  Cu  Cu27  1  0.500000  0.500000  0.500000  1
