# generated using pymatgen
data_MnH9Br2
_symmetry_space_group_name_H-M   'P 1'
_cell_length_a   3.82700765
_cell_length_b   7.53482747
_cell_length_c   8.99358631
_cell_angle_alpha   84.35291707
_cell_angle_beta   83.54496058
_cell_angle_gamma   84.67408527
_symmetry_Int_Tables_number   1
_chemical_formula_structural   MnH9Br2
_chemical_formula_sum   'Mn1 H9 Br2'
_cell_volume   255.56486705
_cell_formula_units_Z   1
loop_
 _symmetry_equiv_pos_site_id
 _symmetry_equiv_pos_as_xyz
  1  'x, y, z'
loop_
 _atom_site_type_symbol
 _atom_site_label
 _atom_site_symmetry_multiplicity
 _atom_site_fract_x
 _atom_site_fract_y
 _atom_site_fract_z
 _atom_site_occupancy
  Mn  Mn0  1  0.737510  0.551628  0.171184  1
  H  H1  1  0.756580  0.113075  0.998413  1
  H  H2  1  0.405206  0.335151  0.657368  1
  H  H3  1  0.525124  0.316798  0.718565  1
  H  H4  1  0.764467  0.633108  0.594332  1
  H  H5  1  0.808245  0.714655  0.543319  1
  H  H6  1  0.820893  0.732704  0.224554  1
  H  H7  1  0.902381  0.046900  0.596848  1
  H  H8  1  0.096717  0.029274  0.575564  1
  H  H9  1  0.708431  0.210553  0.977369  1
  Br  Br10  1  0.485512  0.704895  0.969103  1
  Br  Br11  1  0.203002  0.385987  0.303416  1
