# generated using pymatgen
data_NdZn10Pt
_symmetry_space_group_name_H-M   'P 1'
_cell_length_a   6.84684502
_cell_length_b   8.30822102
_cell_length_c   8.33454137
_cell_angle_alpha   99.81551004
_cell_angle_beta   114.24498982
_cell_angle_gamma   65.57844681
_symmetry_Int_Tables_number   1
_chemical_formula_structural   NdZn10Pt
_chemical_formula_sum   'Nd2 Zn20 Pt2'
_cell_volume   393.61542157
_cell_formula_units_Z   2
loop_
 _symmetry_equiv_pos_site_id
 _symmetry_equiv_pos_as_xyz
  1  'x, y, z'
loop_
 _atom_site_type_symbol
 _atom_site_label
 _atom_site_symmetry_multiplicity
 _atom_site_fract_x
 _atom_site_fract_y
 _atom_site_fract_z
 _atom_site_occupancy
  Nd  Nd0  1  0.995261  0.999985  0.990493  1
  Nd  Nd1  1  0.254773  0.499833  0.509368  1
  Zn  Zn2  1  0.505073  0.999991  0.009930  1
  Zn  Zn3  1  0.904782  0.670256  0.084766  1
  Zn  Zn4  1  0.179925  0.329731  0.084949  1
  Zn  Zn5  1  0.346016  0.584276  0.172755  1
  Zn  Zn6  1  0.826932  0.415768  0.172774  1
  Zn  Zn7  1  0.423088  0.084250  0.327259  1
  Zn  Zn8  1  0.904002  0.915741  0.327244  1
  Zn  Zn9  1  0.070105  0.170268  0.415085  1
  Zn  Zn10  1  0.345243  0.829761  0.415258  1
  Zn  Zn11  1  0.744882  0.500035  0.490080  1
  Zn  Zn12  1  0.757353  0.175104  0.583289  1
  Zn  Zn13  1  0.825879  0.824878  0.583200  1
  Zn  Zn14  1  0.489138  0.083973  0.672570  1
  Zn  Zn15  1  0.183476  0.915960  0.672546  1
  Zn  Zn16  1  0.125037  0.250000  0.750020  1
  Zn  Zn17  1  0.625041  0.749997  0.750024  1
  Zn  Zn18  1  0.760856  0.416056  0.827440  1
  Zn  Zn19  1  0.066565  0.584038  0.827478  1
  Zn  Zn20  1  0.492654  0.324894  0.916722  1
  Zn  Zn21  1  0.424133  0.675133  0.916823  1
  Pt  Pt22  1  0.624896  0.250034  0.249969  1
  Pt  Pt23  1  0.624885  0.750041  0.249960  1
