# generated using pymatgen
data_Tb12Tm4In4OsRh3
_symmetry_space_group_name_H-M   'P 1'
_cell_length_a   9.66599589
_cell_length_b   9.70618343
_cell_length_c   9.64877824
_cell_angle_alpha   60.18097995
_cell_angle_beta   59.83892058
_cell_angle_gamma   60.01719281
_symmetry_Int_Tables_number   1
_chemical_formula_structural   Tb12Tm4In4OsRh3
_chemical_formula_sum   'Tb12 Tm4 In4 Os1 Rh3'
_cell_volume   640.27479893
_cell_formula_units_Z   1
loop_
 _symmetry_equiv_pos_site_id
 _symmetry_equiv_pos_as_xyz
  1  'x, y, z'
loop_
 _atom_site_type_symbol
 _atom_site_label
 _atom_site_symmetry_multiplicity
 _atom_site_fract_x
 _atom_site_fract_y
 _atom_site_fract_z
 _atom_site_occupancy
  Tb  Tb0  1  0.060299  0.060074  0.440369  1
  Tb  Tb1  1  0.444099  0.434966  0.059706  1
  Tb  Tb2  1  0.652030  0.650476  0.652260  1
  Tb  Tb3  1  0.811131  0.191709  0.187530  1
  Tb  Tb4  1  0.190059  0.810848  0.810894  1
  Tb  Tb5  1  0.047405  0.649222  0.650950  1
  Tb  Tb6  1  0.441005  0.059374  0.059650  1
  Tb  Tb7  1  0.438620  0.059981  0.438594  1
  Tb  Tb8  1  0.058303  0.436435  0.058399  1
  Tb  Tb9  1  0.650757  0.649401  0.047251  1
  Tb  Tb10  1  0.190573  0.810330  0.190469  1
  Tb  Tb11  1  0.058921  0.434774  0.446040  1
  Tm  Tm12  1  0.809672  0.808918  0.191535  1
  Tm  Tm13  1  0.809171  0.192976  0.808833  1
  Tm  Tm14  1  0.189675  0.193252  0.809160  1
  Tm  Tm15  1  0.648969  0.049743  0.649572  1
  In  In16  1  0.418965  0.415367  0.418072  1
  In  In17  1  0.418235  0.416150  0.748238  1
  In  In18  1  0.418238  0.747035  0.418500  1
  In  In19  1  0.748278  0.416287  0.418250  1
  Os  Os20  1  0.860555  0.422565  0.856635  1
  Rh  Rh21  1  0.854731  0.864993  0.858814  1
  Rh  Rh22  1  0.856233  0.860735  0.423974  1
  Rh  Rh23  1  0.424074  0.864384  0.856305  1
