# generated using pymatgen
data_SmVF7
_symmetry_space_group_name_H-M   'P 1'
_cell_length_a   5.56582900
_cell_length_b   8.98258335
_cell_length_c   12.01794842
_cell_angle_alpha   62.96775098
_cell_angle_beta   90.00000000
_cell_angle_gamma   90.00000000
_symmetry_Int_Tables_number   1
_chemical_formula_structural   SmVF7
_chemical_formula_sum   'Sm4 V4 F28'
_cell_volume   535.20196330
_cell_formula_units_Z   4
loop_
 _symmetry_equiv_pos_site_id
 _symmetry_equiv_pos_as_xyz
  1  'x, y, z'
loop_
 _atom_site_type_symbol
 _atom_site_label
 _atom_site_symmetry_multiplicity
 _atom_site_fract_x
 _atom_site_fract_y
 _atom_site_fract_z
 _atom_site_occupancy
  Sm  Sm0  1  0.757602  0.806909  0.768992  1
  Sm  Sm1  1  0.257602  0.193091  0.731008  1
  Sm  Sm2  1  0.242398  0.193091  0.231008  1
  Sm  Sm3  1  0.742398  0.806909  0.268992  1
  V  V4  1  0.754378  0.273257  0.955908  1
  V  V5  1  0.254378  0.726743  0.544092  1
  V  V6  1  0.245622  0.726743  0.044092  1
  V  V7  1  0.745622  0.273257  0.455908  1
  F  F8  1  0.442411  0.707948  0.922688  1
  F  F9  1  0.942411  0.292052  0.577312  1
  F  F10  1  0.557589  0.292052  0.077312  1
  F  F11  1  0.057589  0.707948  0.422688  1
  F  F12  1  0.463829  0.283610  0.543237  1
  F  F13  1  0.963829  0.716390  0.956763  1
  F  F14  1  0.536171  0.716390  0.456763  1
  F  F15  1  0.036171  0.283610  0.043237  1
  F  F16  1  0.767026  0.503554  0.864875  1
  F  F17  1  0.267026  0.496446  0.635125  1
  F  F18  1  0.232974  0.496446  0.135125  1
  F  F19  1  0.732974  0.503554  0.364875  1
  F  F20  1  0.759442  0.045673  0.046490  1
  F  F21  1  0.259442  0.954327  0.453510  1
  F  F22  1  0.240558  0.954327  0.953510  1
  F  F23  1  0.740558  0.045673  0.546490  1
  F  F24  1  0.978898  0.730851  0.635662  1
  F  F25  1  0.478898  0.269149  0.864338  1
  F  F26  1  0.021102  0.269149  0.364338  1
  F  F27  1  0.521102  0.730851  0.135662  1
  F  F28  1  0.048475  0.745117  0.167432  1
  F  F29  1  0.548475  0.254883  0.332568  1
  F  F30  1  0.951525  0.254883  0.832568  1
  F  F31  1  0.451525  0.745117  0.667432  1
  F  F32  1  0.413426  0.969726  0.229099  1
  F  F33  1  0.913426  0.030274  0.270901  1
  F  F34  1  0.586574  0.030274  0.770901  1
  F  F35  1  0.086574  0.969726  0.729099  1
