# generated using pymatgen
data_Tm7LuSc11Si16Hg
_symmetry_space_group_name_H-M   'P 1'
_cell_length_a   7.00842215
_cell_length_b   7.35637304
_cell_length_c   13.94055325
_cell_angle_alpha   89.98234799
_cell_angle_beta   89.98714467
_cell_angle_gamma   89.88691230
_symmetry_Int_Tables_number   1
_chemical_formula_structural   Tm7LuSc11Si16Hg
_chemical_formula_sum   'Tm7 Lu1 Sc11 Si16 Hg1'
_cell_volume   718.72562591
_cell_formula_units_Z   1
loop_
 _symmetry_equiv_pos_site_id
 _symmetry_equiv_pos_as_xyz
  1  'x, y, z'
loop_
 _atom_site_type_symbol
 _atom_site_label
 _atom_site_symmetry_multiplicity
 _atom_site_fract_x
 _atom_site_fract_y
 _atom_site_fract_z
 _atom_site_occupancy
  Tm  Tm0  1  0.990253  0.816284  0.902842  1
  Tm  Tm1  1  0.485640  0.674078  0.903119  1
  Tm  Tm2  1  0.990234  0.816203  0.597246  1
  Tm  Tm3  1  0.510724  0.322935  0.096593  1
  Tm  Tm4  1  0.010152  0.175484  0.403762  1
  Tm  Tm5  1  0.510756  0.323084  0.403348  1
  Tm  Tm6  1  0.485695  0.674068  0.596936  1
  Lu  Lu7  1  0.010399  0.175702  0.096577  1
  Sc  Sc8  1  0.837858  0.496436  0.249884  1
  Sc  Sc9  1  0.339944  0.004548  0.249920  1
  Sc  Sc10  1  0.656909  0.996584  0.749994  1
  Sc  Sc11  1  0.324809  0.182550  0.626217  1
  Sc  Sc12  1  0.671442  0.824193  0.374839  1
  Sc  Sc13  1  0.169383  0.680707  0.373203  1
  Sc  Sc14  1  0.671489  0.824420  0.125059  1
  Sc  Sc15  1  0.838727  0.325300  0.626101  1
  Sc  Sc16  1  0.324764  0.182549  0.873812  1
  Sc  Sc17  1  0.838809  0.325080  0.873922  1
  Sc  Sc18  1  0.169308  0.680820  0.126737  1
  Si  Si19  1  0.025888  0.090438  0.750063  1
  Si  Si20  1  0.968836  0.891514  0.249868  1
  Si  Si21  1  0.467460  0.614740  0.249960  1
  Si  Si22  1  0.542943  0.381661  0.750024  1
  Si  Si23  1  0.290700  0.882688  0.749996  1
  Si  Si24  1  0.714083  0.131369  0.249749  1
  Si  Si25  1  0.212633  0.370389  0.249785  1
  Si  Si26  1  0.769331  0.633769  0.750020  1
  Si  Si27  1  0.164653  0.459680  0.528272  1
  Si  Si28  1  0.840702  0.535710  0.462037  1
  Si  Si29  1  0.343004  0.966851  0.462216  1
  Si  Si30  1  0.840911  0.535374  0.038111  1
  Si  Si31  1  0.658661  0.033083  0.540353  1
  Si  Si32  1  0.164450  0.459166  0.971894  1
  Si  Si33  1  0.658687  0.033094  0.959659  1
  Si  Si34  1  0.342381  0.967176  0.037893  1
  Hg  Hg35  1  0.157387  0.512274  0.749989  1
