# generated using pymatgen
data_TbHoTm2(ReC2)2
_symmetry_space_group_name_H-M   'P 1'
_cell_length_a   5.07598800
_cell_length_b   6.56684300
_cell_length_c   9.79564600
_cell_angle_alpha   90.00000000
_cell_angle_beta   90.00000000
_cell_angle_gamma   90.00000000
_symmetry_Int_Tables_number   1
_chemical_formula_structural   TbHoTm2(ReC2)2
_chemical_formula_sum   'Tb2 Ho2 Tm4 Re4 C8'
_cell_volume   326.52038658
_cell_formula_units_Z   2
loop_
 _symmetry_equiv_pos_site_id
 _symmetry_equiv_pos_as_xyz
  1  'x, y, z'
loop_
 _atom_site_type_symbol
 _atom_site_label
 _atom_site_symmetry_multiplicity
 _atom_site_fract_x
 _atom_site_fract_y
 _atom_site_fract_z
 _atom_site_occupancy
  Tb  Tb0  1  0.750000  0.965395  0.714627  1
  Tb  Tb1  1  0.250000  0.534605  0.214627  1
  Ho  Ho2  1  0.750000  0.465451  0.784869  1
  Ho  Ho3  1  0.250000  0.034549  0.284869  1
  Tm  Tm4  1  0.750000  0.825070  0.057705  1
  Tm  Tm5  1  0.250000  0.674930  0.557705  1
  Tm  Tm6  1  0.750000  0.323827  0.442233  1
  Tm  Tm7  1  0.250000  0.176173  0.942233  1
  Re  Re8  1  0.750000  0.280222  0.133142  1
  Re  Re9  1  0.250000  0.219778  0.633142  1
  Re  Re10  1  0.750000  0.780073  0.367246  1
  Re  Re11  1  0.250000  0.719927  0.867246  1
  C  C12  1  0.750000  0.174169  0.949657  1
  C  C13  1  0.250000  0.828917  0.050133  1
  C  C14  1  0.750000  0.671083  0.550133  1
  C  C15  1  0.250000  0.325831  0.449657  1
  C  C16  1  0.750000  0.048290  0.260018  1
  C  C17  1  0.250000  0.451710  0.760018  1
  C  C18  1  0.750000  0.548561  0.240370  1
  C  C19  1  0.250000  0.951439  0.740370  1
