# generated using pymatgen
data_Sr6Sc2CrRhO12
_symmetry_space_group_name_H-M   'P 1'
_cell_length_a   6.76499290
_cell_length_b   6.76499418
_cell_length_c   6.76499340
_cell_angle_alpha   92.88333234
_cell_angle_beta   92.88334889
_cell_angle_gamma   92.88334118
_symmetry_Int_Tables_number   1
_chemical_formula_structural   Sr6Sc2CrRhO12
_chemical_formula_sum   'Sr6 Sc2 Cr1 Rh1 O12'
_cell_volume   308.38395920
_cell_formula_units_Z   1
loop_
 _symmetry_equiv_pos_site_id
 _symmetry_equiv_pos_as_xyz
  1  'x, y, z'
loop_
 _atom_site_type_symbol
 _atom_site_label
 _atom_site_symmetry_multiplicity
 _atom_site_fract_x
 _atom_site_fract_y
 _atom_site_fract_z
 _atom_site_occupancy
  Sr  Sr0  1  0.750843  0.383240  0.118993  1
  Sr  Sr1  1  0.616761  0.881007  0.249158  1
  Sr  Sr2  1  0.118993  0.750844  0.383239  1
  Sr  Sr3  1  0.881008  0.249157  0.616762  1
  Sr  Sr4  1  0.383240  0.118993  0.750843  1
  Sr  Sr5  1  0.249157  0.616761  0.881008  1
  Sc  Sc6  1  0.249895  0.249895  0.249895  1
  Sc  Sc7  1  0.750105  0.750105  0.750105  1
  Cr  Cr8  1  0.000000  0.000000  0.000000  1
  Rh  Rh9  1  0.500000  0.500000  0.500000  1
  O  O10  1  0.903970  0.713446  0.034815  1
  O  O11  1  0.286554  0.965185  0.096029  1
  O  O12  1  0.401369  0.532752  0.206550  1
  O  O13  1  0.965186  0.096029  0.286553  1
  O  O14  1  0.532752  0.206550  0.401368  1
  O  O15  1  0.793450  0.598632  0.467247  1
  O  O16  1  0.206550  0.401368  0.532753  1
  O  O17  1  0.467247  0.793449  0.598632  1
  O  O18  1  0.034814  0.903970  0.713447  1
  O  O19  1  0.598631  0.467247  0.793450  1
  O  O20  1  0.713446  0.034814  0.903971  1
  O  O21  1  0.096029  0.286554  0.965185  1
