# generated using pymatgen
data_CePr8HoIr4
_symmetry_space_group_name_H-M   'P 1'
_cell_length_a   6.70020039
_cell_length_b   7.28186883
_cell_length_c   9.01973636
_cell_angle_alpha   96.75034903
_cell_angle_beta   111.80315035
_cell_angle_gamma   90.00000223
_symmetry_Int_Tables_number   1
_chemical_formula_structural   CePr8HoIr4
_chemical_formula_sum   'Ce1 Pr8 Ho1 Ir4'
_cell_volume   405.30475304
_cell_formula_units_Z   1
loop_
 _symmetry_equiv_pos_site_id
 _symmetry_equiv_pos_as_xyz
  1  'x, y, z'
loop_
 _atom_site_type_symbol
 _atom_site_label
 _atom_site_symmetry_multiplicity
 _atom_site_fract_x
 _atom_site_fract_y
 _atom_site_fract_z
 _atom_site_occupancy
  Ce  Ce0  1  0.437306  0.750000  0.000000  1
  Pr  Pr1  1  0.977106  0.926519  0.183307  1
  Pr  Pr2  1  0.793800  0.573481  0.816693  1
  Pr  Pr3  1  0.020397  0.079266  0.816416  1
  Pr  Pr4  1  0.203980  0.420734  0.183584  1
  Pr  Pr5  1  0.647041  0.812605  0.433143  1
  Pr  Pr6  1  0.213897  0.687395  0.566857  1
  Pr  Pr7  1  0.356251  0.187804  0.570957  1
  Pr  Pr8  1  0.785294  0.312196  0.429043  1
  Ho  Ho9  1  0.563316  0.250000  0.000000  1
  Ir  Ir10  1  0.800300  0.572531  0.204740  1
  Ir  Ir11  1  0.595561  0.927469  0.795260  1
  Ir  Ir12  1  0.200478  0.433736  0.795205  1
  Ir  Ir13  1  0.405272  0.066264  0.204795  1
