# generated using pymatgen
data_Tb2CeZn3PdPt2
_symmetry_space_group_name_H-M   'P 1'
_cell_length_a   7.47185200
_cell_length_b   7.43690269
_cell_length_c   3.82380900
_cell_angle_alpha   90.00000000
_cell_angle_beta   90.00000000
_cell_angle_gamma   120.15557851
_symmetry_Int_Tables_number   1
_chemical_formula_structural   Tb2CeZn3PdPt2
_chemical_formula_sum   'Tb2 Ce1 Zn3 Pd1 Pt2'
_cell_volume   183.72328278
_cell_formula_units_Z   1
loop_
 _symmetry_equiv_pos_site_id
 _symmetry_equiv_pos_as_xyz
  1  'x, y, z'
loop_
 _atom_site_type_symbol
 _atom_site_label
 _atom_site_symmetry_multiplicity
 _atom_site_fract_x
 _atom_site_fract_y
 _atom_site_fract_z
 _atom_site_occupancy
  Tb  Tb0  1  0.997778  0.404220  0.000000  1
  Tb  Tb1  1  0.593558  0.595780  0.000000  1
  Ce  Ce2  1  0.410347  0.000000  0.000000  1
  Zn  Zn3  1  0.994751  0.743204  0.500000  1
  Zn  Zn4  1  0.251547  0.256796  0.500000  1
  Zn  Zn5  1  0.754782  0.000000  0.500000  1
  Pd  Pd6  1  0.002774  0.000000  0.000000  1
  Pt  Pt7  1  0.662005  0.329546  0.500000  1
  Pt  Pt8  1  0.332458  0.670454  0.500000  1
