# generated using pymatgen
data_Nb8FeCuS16
_symmetry_space_group_name_H-M   'P 1'
_cell_length_a   6.69631500
_cell_length_b   6.69631534
_cell_length_c   11.94988200
_cell_angle_alpha   90.00000000
_cell_angle_beta   90.00000000
_cell_angle_gamma   120.00000328
_symmetry_Int_Tables_number   1
_chemical_formula_structural   Nb8FeCuS16
_chemical_formula_sum   'Nb8 Fe1 Cu1 S16'
_cell_volume   464.05131313
_cell_formula_units_Z   1
loop_
 _symmetry_equiv_pos_site_id
 _symmetry_equiv_pos_as_xyz
  1  'x, y, z'
loop_
 _atom_site_type_symbol
 _atom_site_label
 _atom_site_symmetry_multiplicity
 _atom_site_fract_x
 _atom_site_fract_y
 _atom_site_fract_z
 _atom_site_occupancy
  Nb  Nb0  1  0.000000  0.000000  0.248947  1
  Nb  Nb1  1  0.000000  0.000000  0.751053  1
  Nb  Nb2  1  0.494042  0.988085  0.757458  1
  Nb  Nb3  1  0.011915  0.505958  0.757458  1
  Nb  Nb4  1  0.494042  0.505958  0.757458  1
  Nb  Nb5  1  0.505958  0.011915  0.242542  1
  Nb  Nb6  1  0.988085  0.494042  0.242542  1
  Nb  Nb7  1  0.505958  0.494042  0.242542  1
  Fe  Fe8  1  0.000000  0.000000  0.000000  1
  Cu  Cu9  1  0.000000  0.000000  0.500000  1
  S  S10  1  0.333333  0.666667  0.892175  1
  S  S11  1  0.666667  0.333333  0.107825  1
  S  S12  1  0.666667  0.333333  0.376615  1
  S  S13  1  0.333333  0.666667  0.623385  1
  S  S14  1  0.838075  0.676149  0.885803  1
  S  S15  1  0.323851  0.161925  0.885803  1
  S  S16  1  0.838075  0.161925  0.885803  1
  S  S17  1  0.161925  0.323851  0.114197  1
  S  S18  1  0.676149  0.838075  0.114197  1
  S  S19  1  0.161925  0.838075  0.114197  1
  S  S20  1  0.170456  0.340911  0.375132  1
  S  S21  1  0.659089  0.829544  0.375132  1
  S  S22  1  0.170456  0.829544  0.375132  1
  S  S23  1  0.829544  0.659089  0.624868  1
  S  S24  1  0.340911  0.170456  0.624868  1
  S  S25  1  0.829544  0.170456  0.624868  1
