# generated using pymatgen
data_LiNd2VN4
_symmetry_space_group_name_H-M   'P 1'
_cell_length_a   5.62793700
_cell_length_b   5.89022156
_cell_length_c   6.79843488
_cell_angle_alpha   73.02115886
_cell_angle_beta   90.00000000
_cell_angle_gamma   90.00000000
_symmetry_Int_Tables_number   1
_chemical_formula_structural   LiNd2VN4
_chemical_formula_sum   'Li2 Nd4 V2 N8'
_cell_volume   215.54359246
_cell_formula_units_Z   2
loop_
 _symmetry_equiv_pos_site_id
 _symmetry_equiv_pos_as_xyz
  1  'x, y, z'
loop_
 _atom_site_type_symbol
 _atom_site_label
 _atom_site_symmetry_multiplicity
 _atom_site_fract_x
 _atom_site_fract_y
 _atom_site_fract_z
 _atom_site_occupancy
  Li  Li0  1  0.750000  0.285493  0.314625  1
  Li  Li1  1  0.250000  0.714507  0.685375  1
  Nd  Nd2  1  0.250000  0.276827  0.052443  1
  Nd  Nd3  1  0.750000  0.723173  0.947557  1
  Nd  Nd4  1  0.750000  0.763382  0.434559  1
  Nd  Nd5  1  0.250000  0.236618  0.565441  1
  V  V6  1  0.250000  0.734169  0.196577  1
  V  V7  1  0.750000  0.265831  0.803423  1
  N  N8  1  0.503907  0.472538  0.747868  1
  N  N9  1  0.003907  0.527462  0.252132  1
  N  N10  1  0.496093  0.527462  0.252132  1
  N  N11  1  0.996093  0.472538  0.747868  1
  N  N12  1  0.750000  0.075585  0.630458  1
  N  N13  1  0.250000  0.924415  0.369542  1
  N  N14  1  0.750000  0.096310  0.073499  1
  N  N15  1  0.250000  0.903690  0.926501  1
