# generated using pymatgen
data_Tb8Re(B8Ru)3
_symmetry_space_group_name_H-M   'P 1'
_cell_length_a   3.69176400
_cell_length_b   9.18997194
_cell_length_c   11.57464176
_cell_angle_alpha   90.14089933
_cell_angle_beta   90.00000000
_cell_angle_gamma   90.00000000
_symmetry_Int_Tables_number   1
_chemical_formula_structural   Tb8Re(B8Ru)3
_chemical_formula_sum   'Tb8 Re1 B24 Ru3'
_cell_volume   392.69408607
_cell_formula_units_Z   1
loop_
 _symmetry_equiv_pos_site_id
 _symmetry_equiv_pos_as_xyz
  1  'x, y, z'
loop_
 _atom_site_type_symbol
 _atom_site_label
 _atom_site_symmetry_multiplicity
 _atom_site_fract_x
 _atom_site_fract_y
 _atom_site_fract_z
 _atom_site_occupancy
  Tb  Tb0  1  0.000000  0.323604  0.415073  1
  Tb  Tb1  1  0.000000  0.679036  0.588058  1
  Tb  Tb2  1  0.000000  0.823682  0.083651  1
  Tb  Tb3  1  0.000000  0.175338  0.913437  1
  Tb  Tb4  1  0.000000  0.943251  0.370706  1
  Tb  Tb5  1  0.000000  0.056109  0.627764  1
  Tb  Tb6  1  0.000000  0.442810  0.129017  1
  Tb  Tb7  1  0.000000  0.555675  0.872378  1
  Re  Re8  1  0.000000  0.861981  0.821376  1
  B  B9  1  0.500000  0.554503  0.432883  1
  B  B10  1  0.500000  0.445705  0.567264  1
  B  B11  1  0.500000  0.054277  0.067698  1
  B  B12  1  0.500000  0.946697  0.933046  1
  B  B13  1  0.500000  0.748151  0.419309  1
  B  B14  1  0.500000  0.252149  0.580463  1
  B  B15  1  0.500000  0.247921  0.080878  1
  B  B16  1  0.500000  0.751731  0.919204  1
  B  B17  1  0.500000  0.789905  0.266188  1
  B  B18  1  0.500000  0.209469  0.732925  1
  B  B19  1  0.500000  0.290405  0.233902  1
  B  B20  1  0.500000  0.708588  0.766214  1
  B  B21  1  0.500000  0.631738  0.185677  1
  B  B22  1  0.500000  0.367704  0.813891  1
  B  B23  1  0.500000  0.132511  0.314508  1
  B  B24  1  0.500000  0.868068  0.685828  1
  B  B25  1  0.500000  0.984962  0.212248  1
  B  B26  1  0.500000  0.016495  0.787619  1
  B  B27  1  0.500000  0.484611  0.288160  1
  B  B28  1  0.500000  0.515465  0.712362  1
  B  B29  1  0.500000  0.606925  0.030407  1
  B  B30  1  0.500000  0.391280  0.970597  1
  B  B31  1  0.500000  0.108799  0.469380  1
  B  B32  1  0.500000  0.892025  0.529140  1
  Ru  Ru33  1  0.000000  0.638068  0.321463  1
  Ru  Ru34  1  0.000000  0.361998  0.678166  1
  Ru  Ru35  1  0.000000  0.138363  0.179124  1
