# generated using pymatgen
data_BaCrP2Rh
_symmetry_space_group_name_H-M   'P 1'
_cell_length_a   6.92713680
_cell_length_b   6.92713674
_cell_length_c   6.92713685
_cell_angle_alpha   146.43207468
_cell_angle_beta   146.43207473
_cell_angle_gamma   48.20543121
_symmetry_Int_Tables_number   1
_chemical_formula_structural   BaCrP2Rh
_chemical_formula_sum   'Ba1 Cr1 P2 Rh1'
_cell_volume   101.20210515
_cell_formula_units_Z   1
loop_
 _symmetry_equiv_pos_site_id
 _symmetry_equiv_pos_as_xyz
  1  'x, y, z'
loop_
 _atom_site_type_symbol
 _atom_site_label
 _atom_site_symmetry_multiplicity
 _atom_site_fract_x
 _atom_site_fract_y
 _atom_site_fract_z
 _atom_site_occupancy
  Ba  Ba0  1  0.000000  0.000000  0.000000  1
  Cr  Cr1  1  0.750000  0.250000  0.500000  1
  P  P2  1  0.652683  0.652683  0.000000  1
  P  P3  1  0.347317  0.347317  0.000000  1
  Rh  Rh4  1  0.250000  0.750000  0.500000  1
