# generated using pymatgen
data_Nb3Cr2Si3H
_symmetry_space_group_name_H-M   'P 1'
_cell_length_a   4.95125700
_cell_length_b   7.36508229
_cell_length_c   7.36506000
_cell_angle_alpha   119.99980333
_cell_angle_beta   90.00000000
_cell_angle_gamma   90.00000000
_symmetry_Int_Tables_number   1
_chemical_formula_structural   Nb3Cr2Si3H
_chemical_formula_sum   'Nb6 Cr4 Si6 H2'
_cell_volume   232.59525687
_cell_formula_units_Z   2
loop_
 _symmetry_equiv_pos_site_id
 _symmetry_equiv_pos_as_xyz
  1  'x, y, z'
loop_
 _atom_site_type_symbol
 _atom_site_label
 _atom_site_symmetry_multiplicity
 _atom_site_fract_x
 _atom_site_fract_y
 _atom_site_fract_z
 _atom_site_occupancy
  Nb  Nb0  1  0.249999  0.243161  0.999994  1
  Nb  Nb1  1  0.750000  0.756838  0.000006  1
  Nb  Nb2  1  0.249999  0.999992  0.243160  1
  Nb  Nb3  1  0.750000  0.243169  0.243169  1
  Nb  Nb4  1  0.249999  0.756831  0.756830  1
  Nb  Nb5  1  0.750000  0.000008  0.756838  1
  Cr  Cr6  1  0.000007  0.666670  0.333344  1
  Cr  Cr7  1  0.499992  0.666670  0.333344  1
  Cr  Cr8  1  0.999993  0.333330  0.666655  1
  Cr  Cr9  1  0.500006  0.333330  0.666657  1
  Si  Si10  1  0.750000  0.407166  0.000001  1
  Si  Si11  1  0.250001  0.592833  0.999999  1
  Si  Si12  1  0.749998  0.999994  0.407153  1
  Si  Si13  1  0.250001  0.407162  0.407161  1
  Si  Si14  1  0.750000  0.592838  0.592838  1
  Si  Si15  1  0.249999  0.000006  0.592845  1
  H  H16  1  0.000000  0.000000  0.000000  1
  H  H17  1  0.499999  0.000000  0.000000  1
