# generated using pymatgen
data_Al3PdPt4
_symmetry_space_group_name_H-M   'P 1'
_cell_length_a   4.06883900
_cell_length_b   5.44965800
_cell_length_c   10.75524000
_cell_angle_alpha   90.00000000
_cell_angle_beta   90.00000000
_cell_angle_gamma   90.00000000
_symmetry_Int_Tables_number   1
_chemical_formula_structural   Al3PdPt4
_chemical_formula_sum   'Al6 Pd2 Pt8'
_cell_volume   238.48433644
_cell_formula_units_Z   2
loop_
 _symmetry_equiv_pos_site_id
 _symmetry_equiv_pos_as_xyz
  1  'x, y, z'
loop_
 _atom_site_type_symbol
 _atom_site_label
 _atom_site_symmetry_multiplicity
 _atom_site_fract_x
 _atom_site_fract_y
 _atom_site_fract_z
 _atom_site_occupancy
  Al  Al0  1  0.000000  0.000000  0.000000  1
  Al  Al1  1  0.000000  0.500000  0.500000  1
  Al  Al2  1  0.500000  0.167181  0.358193  1
  Al  Al3  1  0.500000  0.832819  0.641807  1
  Al  Al4  1  0.500000  0.667181  0.141807  1
  Al  Al5  1  0.500000  0.332819  0.858193  1
  Pd  Pd6  1  0.000000  0.000000  0.500000  1
  Pd  Pd7  1  0.000000  0.500000  0.000000  1
  Pt  Pt8  1  0.500000  0.195683  0.104631  1
  Pt  Pt9  1  0.500000  0.804317  0.895369  1
  Pt  Pt10  1  0.500000  0.695683  0.395369  1
  Pt  Pt11  1  0.500000  0.304317  0.604631  1
  Pt  Pt12  1  0.000000  0.909415  0.230451  1
  Pt  Pt13  1  0.000000  0.090585  0.769549  1
  Pt  Pt14  1  0.000000  0.409415  0.269549  1
  Pt  Pt15  1  0.000000  0.590585  0.730451  1
