# generated using pymatgen
data_Dy6Mn5AsO18
_symmetry_space_group_name_H-M   'P 1'
_cell_length_a   6.24730823
_cell_length_b   6.24141506
_cell_length_c   11.70103459
_cell_angle_alpha   89.57826706
_cell_angle_beta   90.84269307
_cell_angle_gamma   120.03123364
_symmetry_Int_Tables_number   1
_chemical_formula_structural   Dy6Mn5AsO18
_chemical_formula_sum   'Dy6 Mn5 As1 O18'
_cell_volume   394.95457239
_cell_formula_units_Z   1
loop_
 _symmetry_equiv_pos_site_id
 _symmetry_equiv_pos_as_xyz
  1  'x, y, z'
loop_
 _atom_site_type_symbol
 _atom_site_label
 _atom_site_symmetry_multiplicity
 _atom_site_fract_x
 _atom_site_fract_y
 _atom_site_fract_z
 _atom_site_occupancy
  Dy  Dy0  1  0.991362  0.000000  0.283137  1
  Dy  Dy1  1  0.999489  0.000000  0.777245  1
  Dy  Dy2  1  0.330985  0.663409  0.246012  1
  Dy  Dy3  1  0.676576  0.340956  0.735861  1
  Dy  Dy4  1  0.335620  0.659044  0.735861  1
  Dy  Dy5  1  0.667577  0.336591  0.246012  1
  Mn  Mn6  1  0.332641  0.327688  0.507767  1
  Mn  Mn7  1  0.004953  0.672312  0.507767  1
  Mn  Mn8  1  0.998905  0.334896  0.006116  1
  Mn  Mn9  1  0.664009  0.665104  0.006116  1
  Mn  Mn10  1  0.662909  0.000000  0.508502  1
  As  As11  1  0.334245  0.000000  0.008739  1
  O  O12  1  0.298938  0.000000  0.169019  1
  O  O13  1  0.308252  0.300615  0.670459  1
  O  O14  1  0.007637  0.699385  0.670459  1
  O  O15  1  0.998142  0.315761  0.178572  1
  O  O16  1  0.682380  0.684239  0.178572  1
  O  O17  1  0.687931  0.000000  0.670639  1
  O  O18  1  0.636117  0.000000  0.345483  1
  O  O19  1  0.649859  0.647390  0.834944  1
  O  O20  1  0.002469  0.352610  0.834944  1
  O  O21  1  0.004154  0.647103  0.345865  1
  O  O22  1  0.357051  0.352897  0.345865  1
  O  O23  1  0.368303  0.000000  0.850957  1
  O  O24  1  0.996124  0.000000  0.483108  1
  O  O25  1  0.049657  0.000000  0.983918  1
  O  O26  1  0.333183  0.714662  0.027880  1
  O  O27  1  0.669525  0.337040  0.528156  1
  O  O28  1  0.332484  0.662960  0.528156  1
  O  O29  1  0.618522  0.285338  0.027880  1
