# generated using pymatgen
data_Ho8InAgIrPt
_symmetry_space_group_name_H-M   'P 1'
_cell_length_a   9.55428626
_cell_length_b   9.58933984
_cell_length_c   9.56570300
_cell_angle_alpha   59.81353670
_cell_angle_beta   59.71155237
_cell_angle_gamma   59.91811825
_symmetry_Int_Tables_number   1
_chemical_formula_structural   Ho8InAgIrPt
_chemical_formula_sum   'Ho16 In2 Ag2 Ir2 Pt2'
_cell_volume   617.09572019
_cell_formula_units_Z   2
loop_
 _symmetry_equiv_pos_site_id
 _symmetry_equiv_pos_as_xyz
  1  'x, y, z'
loop_
 _atom_site_type_symbol
 _atom_site_label
 _atom_site_symmetry_multiplicity
 _atom_site_fract_x
 _atom_site_fract_y
 _atom_site_fract_z
 _atom_site_occupancy
  Ho  Ho0  1  0.186581  0.186748  0.811919  1
  Ho  Ho1  1  0.598945  0.602938  0.196051  1
  Ho  Ho2  1  0.440117  0.059964  0.441282  1
  Ho  Ho3  1  0.442233  0.442184  0.060600  1
  Ho  Ho4  1  0.813089  0.182924  0.815942  1
  Ho  Ho5  1  0.183042  0.809861  0.192442  1
  Ho  Ho6  1  0.439407  0.056604  0.061921  1
  Ho  Ho7  1  0.182707  0.814371  0.813565  1
  Ho  Ho8  1  0.058753  0.440759  0.057984  1
  Ho  Ho9  1  0.809157  0.812753  0.189677  1
  Ho  Ho10  1  0.195873  0.603708  0.599028  1
  Ho  Ho11  1  0.062064  0.441919  0.440854  1
  Ho  Ho12  1  0.063003  0.058330  0.437387  1
  Ho  Ho13  1  0.809527  0.182066  0.191621  1
  Ho  Ho14  1  0.603258  0.191077  0.601769  1
  Ho  Ho15  1  0.600357  0.603408  0.601531  1
  In  In16  1  0.506712  0.833964  0.828532  1
  In  In17  1  0.833622  0.506928  0.828489  1
  Ag  Ag18  1  0.834126  0.834786  0.830806  1
  Ag  Ag19  1  0.834503  0.834912  0.497972  1
  Ir  Ir20  1  0.394450  0.822954  0.391962  1
  Ir  Ir21  1  0.393475  0.392191  0.393302  1
  Pt  Pt22  1  0.821478  0.392453  0.393588  1
  Pt  Pt23  1  0.393522  0.392198  0.821778  1
