# generated using pymatgen
data_Li2Y18Cd6PdRu
_symmetry_space_group_name_H-M   'P 1'
_cell_length_a   9.56123400
_cell_length_b   9.56123354
_cell_length_c   9.73988000
_cell_angle_alpha   90.00000000
_cell_angle_beta   90.00000000
_cell_angle_gamma   120.00000160
_symmetry_Int_Tables_number   1
_chemical_formula_structural   Li2Y18Cd6PdRu
_chemical_formula_sum   'Li2 Y18 Cd6 Pd1 Ru1'
_cell_volume   771.10248755
_cell_formula_units_Z   1
loop_
 _symmetry_equiv_pos_site_id
 _symmetry_equiv_pos_as_xyz
  1  'x, y, z'
loop_
 _atom_site_type_symbol
 _atom_site_label
 _atom_site_symmetry_multiplicity
 _atom_site_fract_x
 _atom_site_fract_y
 _atom_site_fract_z
 _atom_site_occupancy
  Li  Li0  1  0.000000  0.000000  0.500055  1
  Li  Li1  1  0.000000  0.000000  0.999945  1
  Y  Y2  1  0.204993  0.795007  0.443541  1
  Y  Y3  1  0.204993  0.409987  0.443541  1
  Y  Y4  1  0.590013  0.795007  0.443541  1
  Y  Y5  1  0.791942  0.208058  0.558571  1
  Y  Y6  1  0.791942  0.583884  0.558571  1
  Y  Y7  1  0.416116  0.208058  0.558571  1
  Y  Y8  1  0.791942  0.208058  0.941429  1
  Y  Y9  1  0.791942  0.583884  0.941429  1
  Y  Y10  1  0.416116  0.208058  0.941429  1
  Y  Y11  1  0.204993  0.795007  0.056459  1
  Y  Y12  1  0.204993  0.409987  0.056459  1
  Y  Y13  1  0.590013  0.795007  0.056459  1
  Y  Y14  1  0.543499  0.456501  0.250000  1
  Y  Y15  1  0.543499  0.087000  0.250000  1
  Y  Y16  1  0.913000  0.456501  0.250000  1
  Y  Y17  1  0.457856  0.542144  0.750000  1
  Y  Y18  1  0.457856  0.915711  0.750000  1
  Y  Y19  1  0.084289  0.542144  0.750000  1
  Cd  Cd20  1  0.891693  0.108307  0.250000  1
  Cd  Cd21  1  0.891693  0.783386  0.250000  1
  Cd  Cd22  1  0.216614  0.108307  0.250000  1
  Cd  Cd23  1  0.108410  0.891590  0.750000  1
  Cd  Cd24  1  0.108410  0.216820  0.750000  1
  Cd  Cd25  1  0.783180  0.891590  0.750000  1
  Pd  Pd26  1  0.333333  0.666667  0.250000  1
  Ru  Ru27  1  0.666667  0.333333  0.750000  1
