# generated using pymatgen
data_Hf4Sc4Nb12Si15As
_symmetry_space_group_name_H-M   'P 1'
_cell_length_a   6.70185549
_cell_length_b   6.87611099
_cell_length_c   13.14850366
_cell_angle_alpha   89.96970601
_cell_angle_beta   90.23303877
_cell_angle_gamma   90.11957475
_symmetry_Int_Tables_number   1
_chemical_formula_structural   Hf4Sc4Nb12Si15As
_chemical_formula_sum   'Hf4 Sc4 Nb12 Si15 As1'
_cell_volume   605.91216454
_cell_formula_units_Z   1
loop_
 _symmetry_equiv_pos_site_id
 _symmetry_equiv_pos_as_xyz
  1  'x, y, z'
loop_
 _atom_site_type_symbol
 _atom_site_label
 _atom_site_symmetry_multiplicity
 _atom_site_fract_x
 _atom_site_fract_y
 _atom_site_fract_z
 _atom_site_occupancy
  Hf  Hf0  1  0.496556  0.673489  0.595426  1
  Hf  Hf1  1  0.998899  0.826332  0.905214  1
  Hf  Hf2  1  0.501189  0.326230  0.094426  1
  Hf  Hf3  1  0.007894  0.177178  0.403887  1
  Sc  Sc4  1  0.502559  0.327798  0.406770  1
  Sc  Sc5  1  0.003355  0.172088  0.092927  1
  Sc  Sc6  1  0.497913  0.672631  0.906864  1
  Sc  Sc7  1  0.996662  0.825031  0.594817  1
  Nb  Nb8  1  0.661826  0.170877  0.624781  1
  Nb  Nb9  1  0.165030  0.328606  0.876093  1
  Nb  Nb10  1  0.335088  0.829661  0.123970  1
  Nb  Nb11  1  0.837519  0.666796  0.375302  1
  Nb  Nb12  1  0.334976  0.830974  0.376623  1
  Nb  Nb13  1  0.834112  0.670014  0.123765  1
  Nb  Nb14  1  0.665398  0.170016  0.875819  1
  Nb  Nb15  1  0.164609  0.331019  0.624174  1
  Nb  Nb16  1  0.837303  0.495896  0.750372  1
  Nb  Nb17  1  0.337655  0.003875  0.748989  1
  Nb  Nb18  1  0.162675  0.503895  0.250867  1
  Nb  Nb19  1  0.662153  0.995701  0.248421  1
  Si  Si20  1  0.168591  0.534640  0.039019  1
  Si  Si21  1  0.331099  0.034677  0.960735  1
  Si  Si22  1  0.829813  0.464559  0.539319  1
  Si  Si23  1  0.318122  0.036620  0.540512  1
  Si  Si24  1  0.829693  0.464863  0.960971  1
  Si  Si25  1  0.669930  0.965408  0.039300  1
  Si  Si26  1  0.171946  0.536349  0.461375  1
  Si  Si27  1  0.460995  0.387289  0.750781  1
  Si  Si28  1  0.960608  0.113376  0.749613  1
  Si  Si29  1  0.538176  0.612825  0.250192  1
  Si  Si30  1  0.039026  0.886314  0.249388  1
  Si  Si31  1  0.703808  0.860176  0.750686  1
  Si  Si32  1  0.204409  0.639460  0.750773  1
  Si  Si33  1  0.296545  0.140199  0.249168  1
  Si  Si34  1  0.795571  0.359658  0.248976  1
  As  As35  1  0.678298  0.965481  0.459685  1
