# generated using pymatgen
data_Er5NbCo16(P6Ru)2
_symmetry_space_group_name_H-M   'P 1'
_cell_length_a   12.03782955
_cell_length_b   12.03782885
_cell_length_c   3.68794100
_cell_angle_alpha   90.00000000
_cell_angle_beta   90.00000000
_cell_angle_gamma   119.86340469
_symmetry_Int_Tables_number   1
_chemical_formula_structural   Er5NbCo16(P6Ru)2
_chemical_formula_sum   'Er5 Nb1 Co16 P12 Ru2'
_cell_volume   463.45447501
_cell_formula_units_Z   1
loop_
 _symmetry_equiv_pos_site_id
 _symmetry_equiv_pos_as_xyz
  1  'x, y, z'
loop_
 _atom_site_type_symbol
 _atom_site_label
 _atom_site_symmetry_multiplicity
 _atom_site_fract_x
 _atom_site_fract_y
 _atom_site_fract_z
 _atom_site_occupancy
  Er  Er0  1  0.814682  0.999382  0.500000  1
  Er  Er1  1  0.999382  0.814682  0.500000  1
  Er  Er2  1  0.181413  0.181413  0.500000  1
  Er  Er3  1  0.332542  0.665906  0.000000  1
  Er  Er4  1  0.665906  0.332542  0.000000  1
  Nb  Nb5  1  0.557878  0.557878  0.000000  1
  Co  Co6  1  0.282354  0.999169  0.500000  1
  Co  Co7  1  0.999169  0.282354  0.500000  1
  Co  Co8  1  0.721555  0.721555  0.500000  1
  Co  Co9  1  0.625936  0.807750  0.000000  1
  Co  Co10  1  0.198134  0.820790  0.000000  1
  Co  Co11  1  0.176424  0.373459  0.000000  1
  Co  Co12  1  0.373459  0.176424  0.000000  1
  Co  Co13  1  0.807750  0.625936  0.000000  1
  Co  Co14  1  0.820790  0.198134  0.000000  1
  Co  Co15  1  0.516027  0.874755  0.500000  1
  Co  Co16  1  0.126729  0.643057  0.500000  1
  Co  Co17  1  0.353313  0.480587  0.500000  1
  Co  Co18  1  0.480587  0.353313  0.500000  1
  Co  Co19  1  0.874755  0.516027  0.500000  1
  Co  Co20  1  0.643057  0.126729  0.500000  1
  Co  Co21  1  0.001272  0.001272  0.000000  1
  P  P22  1  0.178564  0.998193  0.000000  1
  P  P23  1  0.998193  0.178564  0.000000  1
  P  P24  1  0.822368  0.822368  0.000000  1
  P  P25  1  0.519957  0.690078  0.500000  1
  P  P26  1  0.313901  0.834051  0.500000  1
  P  P27  1  0.164291  0.478272  0.500000  1
  P  P28  1  0.478272  0.164291  0.500000  1
  P  P29  1  0.690078  0.519957  0.500000  1
  P  P30  1  0.834051  0.313901  0.500000  1
  P  P31  1  0.639046  0.003224  0.000000  1
  P  P32  1  0.003224  0.639046  0.000000  1
  P  P33  1  0.355940  0.355940  0.000000  1
  Ru  Ru34  1  0.447598  0.001404  0.000000  1
  Ru  Ru35  1  0.001404  0.447598  0.000000  1
