# generated using pymatgen
data_LuTl2In3(TeO6)3
_symmetry_space_group_name_H-M   'P 1'
_cell_length_a   9.10446130
_cell_length_b   9.10446243
_cell_length_c   5.02750030
_cell_angle_alpha   90.07162095
_cell_angle_beta   89.92837759
_cell_angle_gamma   120.03876943
_symmetry_Int_Tables_number   1
_chemical_formula_structural   LuTl2In3(TeO6)3
_chemical_formula_sum   'Lu1 Tl2 In3 Te3 O18'
_cell_volume   360.76221995
_cell_formula_units_Z   1
loop_
 _symmetry_equiv_pos_site_id
 _symmetry_equiv_pos_as_xyz
  1  'x, y, z'
loop_
 _atom_site_type_symbol
 _atom_site_label
 _atom_site_symmetry_multiplicity
 _atom_site_fract_x
 _atom_site_fract_y
 _atom_site_fract_z
 _atom_site_occupancy
  Lu  Lu0  1  0.373630  0.373630  0.000000  1
  Tl  Tl1  1  0.625970  0.000342  0.999959  1
  Tl  Tl2  1  0.000342  0.625970  0.000041  1
  In  In3  1  0.290658  0.001448  0.499215  1
  In  In4  1  0.001448  0.290658  0.500785  1
  In  In5  1  0.708110  0.708110  0.500000  1
  Te  Te6  1  0.000923  0.000923  0.000000  1
  Te  Te7  1  0.333694  0.665386  0.506260  1
  Te  Te8  1  0.665386  0.333694  0.493740  1
  O  O9  1  0.087840  0.885418  0.779441  1
  O  O10  1  0.120155  0.207448  0.787371  1
  O  O11  1  0.798114  0.913510  0.779696  1
  O  O12  1  0.207448  0.120155  0.212629  1
  O  O13  1  0.913510  0.798114  0.220304  1
  O  O14  1  0.885418  0.087840  0.220559  1
  O  O15  1  0.458426  0.588105  0.726254  1
  O  O16  1  0.404265  0.868472  0.724359  1
  O  O17  1  0.130619  0.534008  0.725134  1
  O  O18  1  0.868472  0.404265  0.275641  1
  O  O19  1  0.534008  0.130619  0.274866  1
  O  O20  1  0.588105  0.458426  0.273746  1
  O  O21  1  0.226629  0.764748  0.289177  1
  O  O22  1  0.239539  0.460158  0.286537  1
  O  O23  1  0.539694  0.772692  0.287453  1
  O  O24  1  0.460158  0.239539  0.713463  1
  O  O25  1  0.772692  0.539694  0.712547  1
  O  O26  1  0.764748  0.226629  0.710823  1
