# generated using pymatgen
data_ZrZn3Pd
_symmetry_space_group_name_H-M   'P 1'
_cell_length_a   8.87231546
_cell_length_b   8.87231412
_cell_length_c   8.87231500
_cell_angle_alpha   60.00000046
_cell_angle_beta   60.00000544
_cell_angle_gamma   59.99999865
_symmetry_Int_Tables_number   1
_chemical_formula_structural   ZrZn3Pd
_chemical_formula_sum   'Zr6 Zn18 Pd6'
_cell_volume   493.85090529
_cell_formula_units_Z   6
loop_
 _symmetry_equiv_pos_site_id
 _symmetry_equiv_pos_as_xyz
  1  'x, y, z'
loop_
 _atom_site_type_symbol
 _atom_site_label
 _atom_site_symmetry_multiplicity
 _atom_site_fract_x
 _atom_site_fract_y
 _atom_site_fract_z
 _atom_site_occupancy
  Zr  Zr0  1  0.728237  0.271763  0.271763  1
  Zr  Zr1  1  0.271763  0.728237  0.728237  1
  Zr  Zr2  1  0.271763  0.728237  0.271763  1
  Zr  Zr3  1  0.728237  0.271763  0.728237  1
  Zr  Zr4  1  0.271763  0.271763  0.728237  1
  Zr  Zr5  1  0.728237  0.728237  0.271763  1
  Zn  Zn6  1  0.128786  0.128786  0.128786  1
  Zn  Zn7  1  0.871214  0.871214  0.871214  1
  Zn  Zn8  1  0.128786  0.128786  0.613642  1
  Zn  Zn9  1  0.128786  0.613642  0.128786  1
  Zn  Zn10  1  0.871214  0.871214  0.386358  1
  Zn  Zn11  1  0.871214  0.386358  0.871214  1
  Zn  Zn12  1  0.613642  0.128786  0.128786  1
  Zn  Zn13  1  0.386358  0.871214  0.871214  1
  Zn  Zn14  1  0.348849  0.348849  0.348849  1
  Zn  Zn15  1  0.651151  0.651151  0.651151  1
  Zn  Zn16  1  0.348849  0.348849  0.953451  1
  Zn  Zn17  1  0.348849  0.953451  0.348849  1
  Zn  Zn18  1  0.651151  0.651151  0.046549  1
  Zn  Zn19  1  0.651151  0.046549  0.651151  1
  Zn  Zn20  1  0.953451  0.348849  0.348849  1
  Zn  Zn21  1  0.046549  0.651151  0.651151  1
  Zn  Zn22  1  0.000000  0.000000  0.000000  1
  Zn  Zn23  1  0.500000  0.500000  0.500000  1
  Pd  Pd24  1  0.500000  0.000000  0.000000  1
  Pd  Pd25  1  0.000000  0.500000  0.500000  1
  Pd  Pd26  1  0.000000  0.500000  0.000000  1
  Pd  Pd27  1  0.500000  0.000000  0.500000  1
  Pd  Pd28  1  0.000000  0.000000  0.500000  1
  Pd  Pd29  1  0.500000  0.500000  0.000000  1
