# generated using pymatgen
data_La3DyIn2Ir3
_symmetry_space_group_name_H-M   'P 1'
_cell_length_a   7.73526209
_cell_length_b   7.61350018
_cell_length_c   4.27731200
_cell_angle_alpha   90.00000000
_cell_angle_beta   90.00000000
_cell_angle_gamma   119.48063609
_symmetry_Int_Tables_number   1
_chemical_formula_structural   La3DyIn2Ir3
_chemical_formula_sum   'La3 Dy1 In2 Ir3'
_cell_volume   219.28559859
_cell_formula_units_Z   1
loop_
 _symmetry_equiv_pos_site_id
 _symmetry_equiv_pos_as_xyz
  1  'x, y, z'
loop_
 _atom_site_type_symbol
 _atom_site_label
 _atom_site_symmetry_multiplicity
 _atom_site_fract_x
 _atom_site_fract_y
 _atom_site_fract_z
 _atom_site_occupancy
  La  La0  1  0.435372  0.414721  0.000000  1
  La  La1  1  0.564628  0.979349  0.000000  1
  La  La2  1  0.000000  0.611620  0.000000  1
  Dy  Dy3  1  0.000000  0.240581  0.500000  1
  In  In4  1  0.748085  0.753769  0.500000  1
  In  In5  1  0.251915  0.005685  0.500000  1
  Ir  Ir6  1  0.000000  0.996490  0.000000  1
  Ir  Ir7  1  0.329047  0.663417  0.500000  1
  Ir  Ir8  1  0.670953  0.334369  0.500000  1
