# generated using pymatgen
data_BaTaBF10
_symmetry_space_group_name_H-M   'P 1'
_cell_length_a   6.65415500
_cell_length_b   10.97396100
_cell_length_c   12.43701600
_cell_angle_alpha   90.00000000
_cell_angle_beta   90.00000000
_cell_angle_gamma   90.00000000
_symmetry_Int_Tables_number   1
_chemical_formula_structural   BaTaBF10
_chemical_formula_sum   'Ba4 Ta4 B4 F40'
_cell_volume   908.18122302
_cell_formula_units_Z   4
loop_
 _symmetry_equiv_pos_site_id
 _symmetry_equiv_pos_as_xyz
  1  'x, y, z'
loop_
 _atom_site_type_symbol
 _atom_site_label
 _atom_site_symmetry_multiplicity
 _atom_site_fract_x
 _atom_site_fract_y
 _atom_site_fract_z
 _atom_site_occupancy
  Ba  Ba0  1  0.750000  0.269031  0.608194  1
  Ba  Ba1  1  0.750000  0.769031  0.891806  1
  Ba  Ba2  1  0.250000  0.730969  0.391806  1
  Ba  Ba3  1  0.250000  0.230969  0.108194  1
  Ta  Ta4  1  0.250000  0.982546  0.699036  1
  Ta  Ta5  1  0.250000  0.482546  0.800964  1
  Ta  Ta6  1  0.750000  0.017454  0.300964  1
  Ta  Ta7  1  0.750000  0.517454  0.199036  1
  B  B8  1  0.750000  0.641665  0.571643  1
  B  B9  1  0.750000  0.141665  0.928357  1
  B  B10  1  0.250000  0.358335  0.428357  1
  B  B11  1  0.250000  0.858335  0.071643  1
  F  F12  1  0.576650  0.684517  0.516948  1
  F  F13  1  0.923350  0.184517  0.983052  1
  F  F14  1  0.076650  0.315483  0.483052  1
  F  F15  1  0.423350  0.815483  0.016948  1
  F  F16  1  0.423350  0.315483  0.483052  1
  F  F17  1  0.076650  0.815483  0.016948  1
  F  F18  1  0.923350  0.684517  0.516948  1
  F  F19  1  0.576650  0.184517  0.983052  1
  F  F20  1  0.750000  0.512255  0.572531  1
  F  F21  1  0.750000  0.012255  0.927469  1
  F  F22  1  0.250000  0.487745  0.427469  1
  F  F23  1  0.250000  0.987745  0.072531  1
  F  F24  1  0.750000  0.684641  0.679170  1
  F  F25  1  0.750000  0.184641  0.820830  1
  F  F26  1  0.250000  0.315359  0.320830  1
  F  F27  1  0.250000  0.815359  0.179170  1
  F  F28  1  0.250000  0.884111  0.569014  1
  F  F29  1  0.250000  0.384111  0.930986  1
  F  F30  1  0.750000  0.115889  0.430986  1
  F  F31  1  0.750000  0.615889  0.069014  1
  F  F32  1  0.455065  0.879047  0.760817  1
  F  F33  1  0.044935  0.379047  0.739183  1
  F  F34  1  0.955065  0.120953  0.239183  1
  F  F35  1  0.544935  0.620953  0.260817  1
  F  F36  1  0.544935  0.120953  0.239183  1
  F  F37  1  0.955065  0.620953  0.260817  1
  F  F38  1  0.044935  0.879047  0.760817  1
  F  F39  1  0.455065  0.379047  0.739183  1
  F  F40  1  0.250000  0.082208  0.823266  1
  F  F41  1  0.250000  0.582208  0.676734  1
  F  F42  1  0.750000  0.917792  0.176734  1
  F  F43  1  0.750000  0.417792  0.323266  1
  F  F44  1  0.042616  0.083793  0.636128  1
  F  F45  1  0.457384  0.583793  0.863872  1
  F  F46  1  0.542616  0.916207  0.363872  1
  F  F47  1  0.957384  0.416207  0.136128  1
  F  F48  1  0.957384  0.916207  0.363872  1
  F  F49  1  0.542616  0.416207  0.136128  1
  F  F50  1  0.457384  0.083793  0.636128  1
  F  F51  1  0.042616  0.583793  0.863872  1
