# generated using pymatgen
data_Ta12Co8SiAs3N4
_symmetry_space_group_name_H-M   'P 1'
_cell_length_a   8.02652346
_cell_length_b   8.02652401
_cell_length_c   8.02652318
_cell_angle_alpha   59.77027505
_cell_angle_beta   59.77027597
_cell_angle_gamma   59.77027398
_symmetry_Int_Tables_number   1
_chemical_formula_structural   Ta12Co8SiAs3N4
_chemical_formula_sum   'Ta12 Co8 Si1 As3 N4'
_cell_volume   363.74437263
_cell_formula_units_Z   1
loop_
 _symmetry_equiv_pos_site_id
 _symmetry_equiv_pos_as_xyz
  1  'x, y, z'
loop_
 _atom_site_type_symbol
 _atom_site_label
 _atom_site_symmetry_multiplicity
 _atom_site_fract_x
 _atom_site_fract_y
 _atom_site_fract_z
 _atom_site_occupancy
  Ta  Ta0  1  0.801573  0.801573  0.199324  1
  Ta  Ta1  1  0.196763  0.196763  0.803114  1
  Ta  Ta2  1  0.801573  0.199324  0.801573  1
  Ta  Ta3  1  0.196763  0.803114  0.196763  1
  Ta  Ta4  1  0.199324  0.801573  0.801573  1
  Ta  Ta5  1  0.803114  0.196763  0.196763  1
  Ta  Ta6  1  0.448427  0.448427  0.050676  1
  Ta  Ta7  1  0.053237  0.053237  0.446886  1
  Ta  Ta8  1  0.448427  0.050676  0.448427  1
  Ta  Ta9  1  0.053237  0.446886  0.053237  1
  Ta  Ta10  1  0.050676  0.448427  0.448427  1
  Ta  Ta11  1  0.446886  0.053237  0.053237  1
  Co  Co12  1  0.751667  0.419966  0.419966  1
  Co  Co13  1  0.419966  0.751667  0.419966  1
  Co  Co14  1  0.419966  0.419966  0.751667  1
  Co  Co15  1  0.415296  0.415296  0.415296  1
  Co  Co16  1  0.498333  0.830034  0.830034  1
  Co  Co17  1  0.830034  0.498333  0.830034  1
  Co  Co18  1  0.830034  0.830034  0.498333  1
  Co  Co19  1  0.834704  0.834704  0.834704  1
  Si  Si20  1  0.625000  0.625000  0.625000  1
  As  As21  1  0.125000  0.625000  0.625000  1
  As  As22  1  0.625000  0.125000  0.625000  1
  As  As23  1  0.625000  0.625000  0.125000  1
  N  N24  1  0.625000  0.125000  0.125000  1
  N  N25  1  0.125000  0.625000  0.125000  1
  N  N26  1  0.125000  0.125000  0.625000  1
  N  N27  1  0.125000  0.125000  0.125000  1
