# generated using pymatgen
data_Sc8TiNb11Si15Sn
_symmetry_space_group_name_H-M   'P 1'
_cell_length_a   6.75245127
_cell_length_b   6.91474822
_cell_length_c   13.25076652
_cell_angle_alpha   89.84294721
_cell_angle_beta   90.27881939
_cell_angle_gamma   90.08472723
_symmetry_Int_Tables_number   1
_chemical_formula_structural   Sc8TiNb11Si15Sn
_chemical_formula_sum   'Sc8 Ti1 Nb11 Si15 Sn1'
_cell_volume   618.68785643
_cell_formula_units_Z   1
loop_
 _symmetry_equiv_pos_site_id
 _symmetry_equiv_pos_as_xyz
  1  'x, y, z'
loop_
 _atom_site_type_symbol
 _atom_site_label
 _atom_site_symmetry_multiplicity
 _atom_site_fract_x
 _atom_site_fract_y
 _atom_site_fract_z
 _atom_site_occupancy
  Sc  Sc0  1  0.494661  0.668640  0.599109  1
  Sc  Sc1  1  0.000525  0.826276  0.904621  1
  Sc  Sc2  1  0.499210  0.324404  0.093673  1
  Sc  Sc3  1  0.015155  0.183885  0.400587  1
  Sc  Sc4  1  0.496861  0.334061  0.402361  1
  Sc  Sc5  1  0.998410  0.173813  0.094226  1
  Sc  Sc6  1  0.500689  0.675793  0.905393  1
  Sc  Sc7  1  0.007029  0.819244  0.600359  1
  Ti  Ti8  1  0.654245  0.185461  0.632082  1
  Nb  Nb9  1  0.160049  0.323895  0.876050  1
  Nb  Nb10  1  0.336202  0.824377  0.123434  1
  Nb  Nb11  1  0.846786  0.660586  0.370043  1
  Nb  Nb12  1  0.331789  0.823477  0.373039  1
  Nb  Nb13  1  0.837485  0.673749  0.123588  1
  Nb  Nb14  1  0.662170  0.175835  0.875361  1
  Nb  Nb15  1  0.162672  0.327005  0.627141  1
  Nb  Nb16  1  0.834906  0.494419  0.751129  1
  Nb  Nb17  1  0.335335  0.006277  0.751027  1
  Nb  Nb18  1  0.163984  0.504608  0.248848  1
  Nb  Nb19  1  0.663284  0.991112  0.244080  1
  Si  Si20  1  0.168277  0.532090  0.038473  1
  Si  Si21  1  0.331510  0.031980  0.960281  1
  Si  Si22  1  0.829696  0.463751  0.539032  1
  Si  Si23  1  0.322140  0.034860  0.540653  1
  Si  Si24  1  0.830681  0.467442  0.960966  1
  Si  Si25  1  0.668018  0.966798  0.037915  1
  Si  Si26  1  0.170597  0.535426  0.463509  1
  Si  Si27  1  0.456310  0.386721  0.753154  1
  Si  Si28  1  0.955971  0.115474  0.749552  1
  Si  Si29  1  0.541394  0.615068  0.248853  1
  Si  Si30  1  0.040682  0.886484  0.248119  1
  Si  Si31  1  0.703672  0.865274  0.750295  1
  Si  Si32  1  0.203834  0.636669  0.752788  1
  Si  Si33  1  0.298311  0.136140  0.248515  1
  Si  Si34  1  0.793746  0.358942  0.247165  1
  Sn  Sn35  1  0.683714  0.969960  0.464580  1
