# generated using pymatgen
data_Tm4Lu(InSb)2
_symmetry_space_group_name_H-M   'P 1'
_cell_length_a   8.69729350
_cell_length_b   8.69729418
_cell_length_c   8.00347500
_cell_angle_alpha   90.00000000
_cell_angle_beta   90.00000000
_cell_angle_gamma   125.24459373
_symmetry_Int_Tables_number   1
_chemical_formula_structural   Tm4Lu(InSb)2
_chemical_formula_sum   'Tm8 Lu2 In4 Sb4'
_cell_volume   494.43284416
_cell_formula_units_Z   2
loop_
 _symmetry_equiv_pos_site_id
 _symmetry_equiv_pos_as_xyz
  1  'x, y, z'
loop_
 _atom_site_type_symbol
 _atom_site_label
 _atom_site_symmetry_multiplicity
 _atom_site_fract_x
 _atom_site_fract_y
 _atom_site_fract_z
 _atom_site_occupancy
  Tm  Tm0  1  0.531379  0.804518  0.165977  1
  Tm  Tm1  1  0.304518  0.031379  0.334023  1
  Tm  Tm2  1  0.195482  0.468621  0.834023  1
  Tm  Tm3  1  0.968621  0.695482  0.665977  1
  Tm  Tm4  1  0.695482  0.968621  0.665977  1
  Tm  Tm5  1  0.468621  0.195482  0.834023  1
  Tm  Tm6  1  0.804518  0.531379  0.165977  1
  Tm  Tm7  1  0.031379  0.304518  0.334023  1
  Lu  Lu8  1  0.500000  0.500000  0.500000  1
  Lu  Lu9  1  0.000000  0.000000  0.000000  1
  In  In10  1  0.631522  0.631522  0.869207  1
  In  In11  1  0.131522  0.131522  0.630793  1
  In  In12  1  0.868478  0.868478  0.369207  1
  In  In13  1  0.368478  0.368478  0.130793  1
  Sb  Sb14  1  0.296415  0.703585  0.500000  1
  Sb  Sb15  1  0.203585  0.796415  0.000000  1
  Sb  Sb16  1  0.703585  0.296415  0.500000  1
  Sb  Sb17  1  0.796415  0.203585  0.000000  1
