# generated using pymatgen
data_Yb5HgRh2
_symmetry_space_group_name_H-M   'P 1'
_cell_length_a   8.79604371
_cell_length_b   8.79604424
_cell_length_c   8.79604290
_cell_angle_alpha   128.24540304
_cell_angle_beta   128.24541566
_cell_angle_gamma   76.22780673
_symmetry_Int_Tables_number   1
_chemical_formula_structural   Yb5HgRh2
_chemical_formula_sum   'Yb10 Hg2 Rh4'
_cell_volume   407.97912914
_cell_formula_units_Z   2
loop_
 _symmetry_equiv_pos_site_id
 _symmetry_equiv_pos_as_xyz
  1  'x, y, z'
loop_
 _atom_site_type_symbol
 _atom_site_label
 _atom_site_symmetry_multiplicity
 _atom_site_fract_x
 _atom_site_fract_y
 _atom_site_fract_z
 _atom_site_occupancy
  Yb  Yb0  1  0.500000  0.500000  0.000000  1
  Yb  Yb1  1  0.000000  0.000000  0.000000  1
  Yb  Yb2  1  0.530972  0.030972  0.819817  1
  Yb  Yb3  1  0.211156  0.711156  0.180183  1
  Yb  Yb4  1  0.030972  0.211156  0.500000  1
  Yb  Yb5  1  0.711156  0.530972  0.500000  1
  Yb  Yb6  1  0.469028  0.969028  0.180183  1
  Yb  Yb7  1  0.788844  0.288844  0.819817  1
  Yb  Yb8  1  0.969028  0.788844  0.500000  1
  Yb  Yb9  1  0.288844  0.469028  0.500000  1
  Hg  Hg10  1  0.250000  0.250000  0.000000  1
  Hg  Hg11  1  0.750000  0.750000  0.000000  1
  Rh  Rh12  1  0.137467  0.637467  0.774934  1
  Rh  Rh13  1  0.862533  0.362533  0.225066  1
  Rh  Rh14  1  0.637467  0.862533  0.500000  1
  Rh  Rh15  1  0.362533  0.137467  0.500000  1
