# generated using pymatgen
data_Sc2GaFe3
_symmetry_space_group_name_H-M   'P 1'
_cell_length_a   5.02487000
_cell_length_b   5.02486994
_cell_length_c   8.12487000
_cell_angle_alpha   90.00000000
_cell_angle_beta   90.00000000
_cell_angle_gamma   120.00000040
_symmetry_Int_Tables_number   1
_chemical_formula_structural   Sc2GaFe3
_chemical_formula_sum   'Sc4 Ga2 Fe6'
_cell_volume   177.66288348
_cell_formula_units_Z   2
loop_
 _symmetry_equiv_pos_site_id
 _symmetry_equiv_pos_as_xyz
  1  'x, y, z'
loop_
 _atom_site_type_symbol
 _atom_site_label
 _atom_site_symmetry_multiplicity
 _atom_site_fract_x
 _atom_site_fract_y
 _atom_site_fract_z
 _atom_site_occupancy
  Sc  Sc0  1  0.333333  0.666667  0.435517  1
  Sc  Sc1  1  0.666667  0.333333  0.564483  1
  Sc  Sc2  1  0.666667  0.333333  0.935517  1
  Sc  Sc3  1  0.333333  0.666667  0.064483  1
  Ga  Ga4  1  0.000000  0.000000  0.500000  1
  Ga  Ga5  1  0.000000  0.000000  0.000000  1
  Fe  Fe6  1  0.825182  0.174818  0.250000  1
  Fe  Fe7  1  0.825182  0.650363  0.250000  1
  Fe  Fe8  1  0.349637  0.174818  0.250000  1
  Fe  Fe9  1  0.174818  0.825182  0.750000  1
  Fe  Fe10  1  0.174818  0.349637  0.750000  1
  Fe  Fe11  1  0.650363  0.825182  0.750000  1
