# generated using pymatgen
data_Lu6ScCrO12
_symmetry_space_group_name_H-M   'P 1'
_cell_length_a   6.42355756
_cell_length_b   6.42355858
_cell_length_c   6.42355820
_cell_angle_alpha   92.51706863
_cell_angle_beta   92.51707144
_cell_angle_gamma   92.51706397
_symmetry_Int_Tables_number   1
_chemical_formula_structural   Lu6ScCrO12
_chemical_formula_sum   'Lu6 Sc1 Cr1 O12'
_cell_volume   264.25905845
_cell_formula_units_Z   1
loop_
 _symmetry_equiv_pos_site_id
 _symmetry_equiv_pos_as_xyz
  1  'x, y, z'
loop_
 _atom_site_type_symbol
 _atom_site_label
 _atom_site_symmetry_multiplicity
 _atom_site_fract_x
 _atom_site_fract_y
 _atom_site_fract_z
 _atom_site_occupancy
  Lu  Lu0  1  0.743488  0.927190  0.436627  1
  Lu  Lu1  1  0.927190  0.436627  0.743488  1
  Lu  Lu2  1  0.436627  0.743488  0.927190  1
  Lu  Lu3  1  0.256512  0.072810  0.563373  1
  Lu  Lu4  1  0.072810  0.563373  0.256512  1
  Lu  Lu5  1  0.563373  0.256512  0.072810  1
  Sc  Sc6  1  0.000000  0.000000  0.000000  1
  Cr  Cr7  1  0.500000  0.500000  0.500000  1
  O  O8  1  0.590408  0.461741  0.803143  1
  O  O9  1  0.461741  0.803143  0.590408  1
  O  O10  1  0.803143  0.590408  0.461741  1
  O  O11  1  0.409592  0.538259  0.196857  1
  O  O12  1  0.538259  0.196857  0.409592  1
  O  O13  1  0.196857  0.409592  0.538259  1
  O  O14  1  0.070084  0.912593  0.311698  1
  O  O15  1  0.912593  0.311698  0.070084  1
  O  O16  1  0.688302  0.929916  0.087407  1
  O  O17  1  0.087407  0.688302  0.929916  1
  O  O18  1  0.929916  0.087407  0.688302  1
  O  O19  1  0.311698  0.070084  0.912593  1
