# generated using pymatgen
data_Tb3Dy13(TlPt)4
_symmetry_space_group_name_H-M   'P 1'
_cell_length_a   9.67312972
_cell_length_b   9.67210794
_cell_length_c   9.67210800
_cell_angle_alpha   59.99999979
_cell_angle_beta   60.00349398
_cell_angle_gamma   60.00349306
_symmetry_Int_Tables_number   1
_chemical_formula_structural   Tb3Dy13(TlPt)4
_chemical_formula_sum   'Tb3 Dy13 Tl4 Pt4'
_cell_volume   639.90752301
_cell_formula_units_Z   1
loop_
 _symmetry_equiv_pos_site_id
 _symmetry_equiv_pos_as_xyz
  1  'x, y, z'
loop_
 _atom_site_type_symbol
 _atom_site_label
 _atom_site_symmetry_multiplicity
 _atom_site_fract_x
 _atom_site_fract_y
 _atom_site_fract_z
 _atom_site_occupancy
  Tb  Tb0  1  0.352338  0.352353  0.352353  1
  Tb  Tb1  1  0.352338  0.352353  0.942958  1
  Tb  Tb2  1  0.352338  0.942958  0.352353  1
  Dy  Dy3  1  0.943176  0.352275  0.352275  1
  Dy  Dy4  1  0.811407  0.188699  0.188699  1
  Dy  Dy5  1  0.188706  0.811368  0.811368  1
  Dy  Dy6  1  0.188706  0.811368  0.188558  1
  Dy  Dy7  1  0.811407  0.188699  0.811194  1
  Dy  Dy8  1  0.188706  0.188558  0.811368  1
  Dy  Dy9  1  0.811407  0.811194  0.188699  1
  Dy  Dy10  1  0.939048  0.560841  0.560841  1
  Dy  Dy11  1  0.560962  0.939071  0.939071  1
  Dy  Dy12  1  0.560962  0.939071  0.560894  1
  Dy  Dy13  1  0.939048  0.560840  0.939270  1
  Dy  Dy14  1  0.560962  0.560894  0.939071  1
  Dy  Dy15  1  0.939048  0.939270  0.560840  1
  Tl  Tl16  1  0.586597  0.586177  0.586177  1
  Tl  Tl17  1  0.586597  0.586177  0.241047  1
  Tl  Tl18  1  0.586597  0.241047  0.586177  1
  Tl  Tl19  1  0.240960  0.586346  0.586346  1
  Pt  Pt20  1  0.143036  0.143903  0.143903  1
  Pt  Pt21  1  0.143036  0.143903  0.569159  1
  Pt  Pt22  1  0.143036  0.569159  0.143903  1
  Pt  Pt23  1  0.569582  0.143473  0.143473  1
