# generated using pymatgen
data_HoLu5Al19Si5Os8
_symmetry_space_group_name_H-M   'P 1'
_cell_length_a   8.66350301
_cell_length_b   8.64824440
_cell_length_c   9.54089100
_cell_angle_alpha   89.99982029
_cell_angle_beta   90.00026438
_cell_angle_gamma   120.05286443
_symmetry_Int_Tables_number   1
_chemical_formula_structural   HoLu5Al19Si5Os8
_chemical_formula_sum   'Ho1 Lu5 Al19 Si5 Os8'
_cell_volume   618.74180080
_cell_formula_units_Z   1
loop_
 _symmetry_equiv_pos_site_id
 _symmetry_equiv_pos_as_xyz
  1  'x, y, z'
loop_
 _atom_site_type_symbol
 _atom_site_label
 _atom_site_symmetry_multiplicity
 _atom_site_fract_x
 _atom_site_fract_y
 _atom_site_fract_z
 _atom_site_occupancy
  Ho  Ho0  1  0.198133  0.806418  0.250001  1
  Lu  Lu1  1  0.196428  0.392319  0.249988  1
  Lu  Lu2  1  0.804116  0.608213  0.750009  1
  Lu  Lu3  1  0.605323  0.804872  0.249989  1
  Lu  Lu4  1  0.392864  0.196950  0.750003  1
  Lu  Lu5  1  0.804165  0.196836  0.750007  1
  Al  Al6  1  0.164547  0.329049  0.578909  1
  Al  Al7  1  0.834459  0.669419  0.421617  1
  Al  Al8  1  0.670182  0.835526  0.577535  1
  Al  Al9  1  0.834458  0.669416  0.078385  1
  Al  Al10  1  0.329018  0.165677  0.421795  1
  Al  Al11  1  0.164547  0.329046  0.921091  1
  Al  Al12  1  0.165401  0.835532  0.577973  1
  Al  Al13  1  0.329018  0.165674  0.078207  1
  Al  Al14  1  0.836551  0.165228  0.421585  1
  Al  Al15  1  0.670181  0.835522  0.922465  1
  Al  Al16  1  0.836551  0.165227  0.078417  1
  Al  Al17  1  0.165397  0.835530  0.922030  1
  Al  Al18  1  0.437670  0.875209  0.750000  1
  Al  Al19  1  0.873134  0.433271  0.249997  1
  Al  Al20  1  0.126900  0.564007  0.749998  1
  Al  Al21  1  0.560217  0.434146  0.250001  1
  Al  Al22  1  0.437245  0.564026  0.750001  1
  Al  Al23  1  0.999074  0.000481  0.250002  1
  Al  Al24  1  0.000436  0.000781  0.750003  1
  Si  Si25  1  0.332921  0.664748  0.039089  1
  Si  Si26  1  0.667318  0.334389  0.958911  1
  Si  Si27  1  0.667324  0.334399  0.541091  1
  Si  Si28  1  0.332926  0.664749  0.460907  1
  Si  Si29  1  0.564270  0.127331  0.249998  1
  Os  Os30  1  0.501249  0.001592  0.005965  1
  Os  Os31  1  0.998715  0.498436  0.999973  1
  Os  Os32  1  0.501255  0.001599  0.494033  1
  Os  Os33  1  0.500064  0.498858  0.000360  1
  Os  Os34  1  0.998718  0.498444  0.500019  1
  Os  Os35  1  0.500067  0.498867  0.499638  1
  Os  Os36  1  0.999578  0.999103  0.999935  1
  Os  Os37  1  0.999579  0.999106  0.500070  1
