# generated using pymatgen
data_Ca2Er(AsRh)3
_symmetry_space_group_name_H-M   'P 1'
_cell_length_a   6.94978639
_cell_length_b   6.94978631
_cell_length_c   4.04297500
_cell_angle_alpha   90.00000000
_cell_angle_beta   90.00000000
_cell_angle_gamma   120.50835491
_symmetry_Int_Tables_number   1
_chemical_formula_structural   Ca2Er(AsRh)3
_chemical_formula_sum   'Ca2 Er1 As3 Rh3'
_cell_volume   168.23914086
_cell_formula_units_Z   1
loop_
 _symmetry_equiv_pos_site_id
 _symmetry_equiv_pos_as_xyz
  1  'x, y, z'
loop_
 _atom_site_type_symbol
 _atom_site_label
 _atom_site_symmetry_multiplicity
 _atom_site_fract_x
 _atom_site_fract_y
 _atom_site_fract_z
 _atom_site_occupancy
  Ca  Ca0  1  0.416824  0.999406  0.500000  1
  Ca  Ca1  1  0.999406  0.416824  0.500000  1
  Er  Er2  1  0.584679  0.584678  0.500000  1
  As  As3  1  0.665476  0.336191  0.000000  1
  As  As4  1  0.336192  0.665477  0.000000  1
  As  As5  1  0.003601  0.003601  0.500000  1
  Rh  Rh6  1  0.762391  0.993198  0.000000  1
  Rh  Rh7  1  0.238234  0.238233  0.000000  1
  Rh  Rh8  1  0.993198  0.762392  0.000000  1
