# generated using pymatgen
data_Gd3Y4Tm3Ru4
_symmetry_space_group_name_H-M   'P 1'
_cell_length_a   6.43735745
_cell_length_b   7.20314802
_cell_length_c   8.47317200
_cell_angle_alpha   96.81409642
_cell_angle_beta   112.33027801
_cell_angle_gamma   90.00845013
_symmetry_Int_Tables_number   1
_chemical_formula_structural   Gd3Y4Tm3Ru4
_chemical_formula_sum   'Gd3 Y4 Tm3 Ru4'
_cell_volume   360.42608791
_cell_formula_units_Z   1
loop_
 _symmetry_equiv_pos_site_id
 _symmetry_equiv_pos_as_xyz
  1  'x, y, z'
loop_
 _atom_site_type_symbol
 _atom_site_label
 _atom_site_symmetry_multiplicity
 _atom_site_fract_x
 _atom_site_fract_y
 _atom_site_fract_z
 _atom_site_occupancy
  Gd  Gd0  1  0.643291  0.812448  0.434282  1
  Gd  Gd1  1  0.206072  0.686801  0.564300  1
  Gd  Gd2  1  0.358195  0.187881  0.564643  1
  Y  Y3  1  0.974409  0.918959  0.184569  1
  Y  Y4  1  0.791899  0.580972  0.815568  1
  Y  Y5  1  0.024679  0.083110  0.816916  1
  Y  Y6  1  0.210512  0.417127  0.185572  1
  Tm  Tm7  1  0.793597  0.313970  0.434758  1
  Tm  Tm8  1  0.425337  0.749914  0.000035  1
  Tm  Tm9  1  0.575397  0.249991  0.002169  1
  Ru  Ru10  1  0.819756  0.572437  0.218845  1
  Ru  Ru11  1  0.600218  0.927232  0.781677  1
  Ru  Ru12  1  0.176383  0.425789  0.778019  1
  Ru  Ru13  1  0.400258  0.073366  0.218647  1
