# generated using pymatgen
data_Y2Tm8Cd3Pt
_symmetry_space_group_name_H-M   'P 1'
_cell_length_a   9.64582411
_cell_length_b   9.64834846
_cell_length_c   9.60986100
_cell_angle_alpha   90.00000000
_cell_angle_beta   90.00000000
_cell_angle_gamma   120.00865889
_symmetry_Int_Tables_number   1
_chemical_formula_structural   Y2Tm8Cd3Pt
_chemical_formula_sum   'Y4 Tm16 Cd6 Pt2'
_cell_volume   774.46564245
_cell_formula_units_Z   2
loop_
 _symmetry_equiv_pos_site_id
 _symmetry_equiv_pos_as_xyz
  1  'x, y, z'
loop_
 _atom_site_type_symbol
 _atom_site_label
 _atom_site_symmetry_multiplicity
 _atom_site_fract_x
 _atom_site_fract_y
 _atom_site_fract_z
 _atom_site_occupancy
  Y  Y0  1  0.914850  0.457424  0.750000  1
  Y  Y1  1  0.458308  0.541361  0.250000  1
  Y  Y2  1  0.458308  0.916948  0.250000  1
  Y  Y3  1  0.082828  0.541415  0.250000  1
  Tm  Tm4  1  0.208350  0.793405  0.939633  1
  Tm  Tm5  1  0.208350  0.414946  0.939633  1
  Tm  Tm6  1  0.585149  0.792574  0.939518  1
  Tm  Tm7  1  0.791651  0.207326  0.058579  1
  Tm  Tm8  1  0.791651  0.584325  0.058579  1
  Tm  Tm9  1  0.415927  0.207963  0.057939  1
  Tm  Tm10  1  0.791651  0.207326  0.441421  1
  Tm  Tm11  1  0.791651  0.584325  0.441421  1
  Tm  Tm12  1  0.415927  0.207963  0.442061  1
  Tm  Tm13  1  0.208350  0.793405  0.560367  1
  Tm  Tm14  1  0.208350  0.414946  0.560367  1
  Tm  Tm15  1  0.585149  0.792574  0.560482  1
  Tm  Tm16  1  0.541469  0.457565  0.750000  1
  Tm  Tm17  1  0.541469  0.083902  0.750000  1
  Tm  Tm18  1  0.000022  0.000011  0.000170  1
  Tm  Tm19  1  0.000022  0.000011  0.499830  1
  Cd  Cd20  1  0.883974  0.114915  0.750000  1
  Cd  Cd21  1  0.883974  0.769061  0.750000  1
  Cd  Cd22  1  0.231871  0.115937  0.750000  1
  Cd  Cd23  1  0.114807  0.885430  0.250000  1
  Cd  Cd24  1  0.114807  0.229375  0.250000  1
  Cd  Cd25  1  0.770524  0.885261  0.250000  1
  Pt  Pt26  1  0.333748  0.666874  0.750000  1
  Pt  Pt27  1  0.666866  0.333433  0.250000  1
