# generated using pymatgen
data_YbY8Ho(In2Pt)4
_symmetry_space_group_name_H-M   'P 1'
_cell_length_a   3.62094800
_cell_length_b   8.20194202
_cell_length_c   18.36973855
_cell_angle_alpha   89.97184864
_cell_angle_beta   90.00000000
_cell_angle_gamma   90.00000000
_symmetry_Int_Tables_number   1
_chemical_formula_structural   YbY8Ho(In2Pt)4
_chemical_formula_sum   'Yb1 Y8 Ho1 In8 Pt4'
_cell_volume   545.55922735
_cell_formula_units_Z   1
loop_
 _symmetry_equiv_pos_site_id
 _symmetry_equiv_pos_as_xyz
  1  'x, y, z'
loop_
 _atom_site_type_symbol
 _atom_site_label
 _atom_site_symmetry_multiplicity
 _atom_site_fract_x
 _atom_site_fract_y
 _atom_site_fract_z
 _atom_site_occupancy
  Yb  Yb0  1  0.000000  0.999996  0.000008  1
  Y  Y1  1  0.000000  0.117576  0.415299  1
  Y  Y2  1  0.000000  0.882354  0.584689  1
  Y  Y3  1  0.000000  0.380605  0.914694  1
  Y  Y4  1  0.000000  0.619472  0.085386  1
  Y  Y5  1  0.000000  0.241897  0.220848  1
  Y  Y6  1  0.000000  0.758104  0.779158  1
  Y  Y7  1  0.000000  0.258235  0.720356  1
  Y  Y8  1  0.000000  0.500003  0.499985  1
  Ho  Ho9  1  0.000000  0.742049  0.279380  1
  In  In10  1  0.500000  0.423580  0.351254  1
  In  In11  1  0.500000  0.576675  0.648707  1
  In  In12  1  0.500000  0.074814  0.850578  1
  In  In13  1  0.500000  0.925038  0.149494  1
  In  In14  1  0.500000  0.293088  0.067549  1
  In  In15  1  0.500000  0.706955  0.932431  1
  In  In16  1  0.500000  0.208170  0.567011  1
  In  In17  1  0.500000  0.791737  0.432854  1
  Pt  Pt18  1  0.500000  0.022169  0.303755  1
  Pt  Pt19  1  0.500000  0.976392  0.696120  1
  Pt  Pt20  1  0.500000  0.477729  0.802949  1
  Pt  Pt21  1  0.500000  0.523361  0.197494  1
