# generated using pymatgen
data_La3GaHg2Pt3
_symmetry_space_group_name_H-M   'P 1'
_cell_length_a   7.89077063
_cell_length_b   7.74150103
_cell_length_c   3.99945600
_cell_angle_alpha   90.00000000
_cell_angle_beta   90.00000000
_cell_angle_gamma   119.37618148
_symmetry_Int_Tables_number   1
_chemical_formula_structural   La3GaHg2Pt3
_chemical_formula_sum   'La3 Ga1 Hg2 Pt3'
_cell_volume   212.89818068
_cell_formula_units_Z   1
loop_
 _symmetry_equiv_pos_site_id
 _symmetry_equiv_pos_as_xyz
  1  'x, y, z'
loop_
 _atom_site_type_symbol
 _atom_site_label
 _atom_site_symmetry_multiplicity
 _atom_site_fract_x
 _atom_site_fract_y
 _atom_site_fract_z
 _atom_site_occupancy
  La  La0  1  0.402464  0.403989  0.500000  1
  La  La1  1  0.597536  0.001525  0.500000  1
  La  La2  1  0.000000  0.588302  0.500000  1
  Ga  Ga3  1  0.000000  0.251935  0.000000  1
  Hg  Hg4  1  0.746523  0.744416  0.000000  1
  Hg  Hg5  1  0.253477  0.997894  0.000000  1
  Pt  Pt6  1  0.683873  0.327453  0.000000  1
  Pt  Pt7  1  0.316127  0.643580  0.000000  1
  Pt  Pt8  1  0.000000  0.040908  0.500000  1
