# generated using pymatgen
data_Ce5ErAl24(IrRu)4
_symmetry_space_group_name_H-M   'P 1'
_cell_length_a   8.89231704
_cell_length_b   8.87183359
_cell_length_c   9.53477100
_cell_angle_alpha   90.00000000
_cell_angle_beta   90.00000000
_cell_angle_gamma   119.90251401
_symmetry_Int_Tables_number   1
_chemical_formula_structural   Ce5ErAl24(IrRu)4
_chemical_formula_sum   'Ce5 Er1 Al24 Ir4 Ru4'
_cell_volume   652.07118325
_cell_formula_units_Z   1
loop_
 _symmetry_equiv_pos_site_id
 _symmetry_equiv_pos_as_xyz
  1  'x, y, z'
loop_
 _atom_site_type_symbol
 _atom_site_label
 _atom_site_symmetry_multiplicity
 _atom_site_fract_x
 _atom_site_fract_y
 _atom_site_fract_z
 _atom_site_occupancy
  Ce  Ce0  1  0.190041  0.805021  0.250000  1
  Ce  Ce1  1  0.615595  0.807726  0.250000  1
  Ce  Ce2  1  0.383686  0.191087  0.750000  1
  Ce  Ce3  1  0.809305  0.193217  0.750000  1
  Ce  Ce4  1  0.190815  0.386043  0.250000  1
  Er  Er5  1  0.806264  0.610641  0.750000  1
  Al  Al6  1  0.332243  0.667087  0.476728  1
  Al  Al7  1  0.670297  0.337183  0.972927  1
  Al  Al8  1  0.670297  0.337183  0.527073  1
  Al  Al9  1  0.332243  0.667087  0.023272  1
  Al  Al10  1  0.162604  0.326505  0.577976  1
  Al  Al11  1  0.675744  0.836076  0.576687  1
  Al  Al12  1  0.159942  0.834377  0.578080  1
  Al  Al13  1  0.837529  0.164270  0.077404  1
  Al  Al14  1  0.837529  0.164270  0.422596  1
  Al  Al15  1  0.837894  0.673799  0.074773  1
  Al  Al16  1  0.325322  0.162811  0.076011  1
  Al  Al17  1  0.675744  0.836076  0.923313  1
  Al  Al18  1  0.162604  0.326505  0.922024  1
  Al  Al19  1  0.837894  0.673799  0.425227  1
  Al  Al20  1  0.998191  0.998657  0.250000  1
  Al  Al21  1  0.999444  0.996777  0.750000  1
  Al  Al22  1  0.562426  0.126097  0.250000  1
  Al  Al23  1  0.439835  0.563093  0.750000  1
  Al  Al24  1  0.123057  0.562897  0.750000  1
  Al  Al25  1  0.872826  0.437213  0.250000  1
  Al  Al26  1  0.563319  0.437014  0.250000  1
  Al  Al27  1  0.437173  0.873203  0.750000  1
  Al  Al28  1  0.159942  0.834377  0.921920  1
  Al  Al29  1  0.325322  0.162811  0.423989  1
  Ir  Ir30  1  0.500807  0.001769  0.500691  1
  Ir  Ir31  1  0.500414  0.501102  0.000568  1
  Ir  Ir32  1  0.500414  0.501102  0.499432  1
  Ir  Ir33  1  0.500807  0.001769  0.999309  1
  Ru  Ru34  1  0.999896  0.999892  0.500219  1
  Ru  Ru35  1  0.999896  0.999892  0.999781  1
  Ru  Ru36  1  0.001319  0.500787  0.001307  1
  Ru  Ru37  1  0.001319  0.500787  0.498693  1
