# generated using pymatgen
data_AlV9(GaTc)3
_symmetry_space_group_name_H-M   'P 1'
_cell_length_a   4.79338700
_cell_length_b   4.81080318
_cell_length_c   9.55947000
_cell_angle_alpha   90.00000000
_cell_angle_beta   90.00000000
_cell_angle_gamma   90.05213240
_symmetry_Int_Tables_number   1
_chemical_formula_structural   AlV9(GaTc)3
_chemical_formula_sum   'Al1 V9 Ga3 Tc3'
_cell_volume   220.44168318
_cell_formula_units_Z   1
loop_
 _symmetry_equiv_pos_site_id
 _symmetry_equiv_pos_as_xyz
  1  'x, y, z'
loop_
 _atom_site_type_symbol
 _atom_site_label
 _atom_site_symmetry_multiplicity
 _atom_site_fract_x
 _atom_site_fract_y
 _atom_site_fract_z
 _atom_site_occupancy
  Al  Al0  1  0.494986  0.501277  0.000000  1
  V  V1  1  0.997649  0.497984  0.122002  1
  V  V2  1  0.002130  0.495716  0.625554  1
  V  V3  1  0.752427  0.005402  0.500000  1
  V  V4  1  0.997649  0.497984  0.877998  1
  V  V5  1  0.002130  0.495716  0.374446  1
  V  V6  1  0.501243  0.747410  0.751139  1
  V  V7  1  0.501243  0.747410  0.248861  1
  V  V8  1  0.247283  0.999329  0.000000  1
  V  V9  1  0.250694  0.005204  0.500000  1
  Ga  Ga10  1  0.501050  0.507178  0.500000  1
  Ga  Ga11  1  0.001834  0.993786  0.748700  1
  Ga  Ga12  1  0.001834  0.993786  0.251300  1
  Tc  Tc13  1  0.499771  0.256537  0.750099  1
  Tc  Tc14  1  0.499771  0.256537  0.249901  1
  Tc  Tc15  1  0.748308  0.998746  0.000000  1
