# generated using pymatgen
data_Tl3Cu(SO4)6
_symmetry_space_group_name_H-M   'P 1'
_cell_length_a   8.67139033
_cell_length_b   8.67065480
_cell_length_c   9.36287300
_cell_angle_alpha   62.39810595
_cell_angle_beta   62.42953451
_cell_angle_gamma   60.04712107
_symmetry_Int_Tables_number   1
_chemical_formula_structural   Tl3Cu(SO4)6
_chemical_formula_sum   'Tl3 Cu1 S6 O24'
_cell_volume   515.36671138
_cell_formula_units_Z   1
loop_
 _symmetry_equiv_pos_site_id
 _symmetry_equiv_pos_as_xyz
  1  'x, y, z'
loop_
 _atom_site_type_symbol
 _atom_site_label
 _atom_site_symmetry_multiplicity
 _atom_site_fract_x
 _atom_site_fract_y
 _atom_site_fract_z
 _atom_site_occupancy
  Tl  Tl0  1  0.642800  0.642087  0.072949  1
  Tl  Tl1  1  0.352310  0.352168  0.942979  1
  Tl  Tl2  1  0.154080  0.154304  0.538166  1
  Cu  Cu3  1  0.840489  0.840558  0.478276  1
  S  S4  1  0.746338  0.465830  0.744148  1
  S  S5  1  0.043211  0.746297  0.744698  1
  S  S6  1  0.561419  0.954147  0.254775  1
  S  S7  1  0.954498  0.229518  0.254832  1
  S  S8  1  0.229588  0.561918  0.254464  1
  S  S9  1  0.465859  0.043293  0.744203  1
  O  O10  1  0.919717  0.684836  0.916945  1
  O  O11  1  0.480501  0.919247  0.915681  1
  O  O12  1  0.669911  0.978488  0.321707  1
  O  O13  1  0.367464  0.969416  0.370021  1
  O  O14  1  0.002763  0.948070  0.703549  1
  O  O15  1  0.711503  0.653342  0.613322  1
  O  O16  1  0.684110  0.480515  0.915631  1
  O  O17  1  0.656980  0.764306  0.232253  1
  O  O18  1  0.947921  0.345102  0.704418  1
  O  O19  1  0.241285  0.633124  0.745754  1
  O  O20  1  0.633203  0.379245  0.745747  1
  O  O21  1  0.019715  0.710614  0.615410  1
  O  O22  1  0.969703  0.294052  0.369389  1
  O  O23  1  0.346465  0.658178  0.230864  1
  O  O24  1  0.764895  0.345951  0.231658  1
  O  O25  1  0.030145  0.670131  0.321742  1
  O  O26  1  0.379418  0.241270  0.745685  1
  O  O27  1  0.255129  0.556188  0.086746  1
  O  O28  1  0.293472  0.368128  0.370015  1
  O  O29  1  0.978479  0.029819  0.323004  1
  O  O30  1  0.653314  0.021410  0.613509  1
  O  O31  1  0.345098  0.002132  0.704318  1
  O  O32  1  0.556321  0.101309  0.086487  1
  O  O33  1  0.101892  0.255004  0.086654  1
