# generated using pymatgen
data_TbTm3Co4HgI
_symmetry_space_group_name_H-M   'P 1'
_cell_length_a   3.89853000
_cell_length_b   3.89852898
_cell_length_c   16.51120700
_cell_angle_alpha   90.00000000
_cell_angle_beta   90.00000000
_cell_angle_gamma   119.99997467
_symmetry_Int_Tables_number   1
_chemical_formula_structural   TbTm3Co4HgI
_chemical_formula_sum   'Tb1 Tm3 Co4 Hg1 I1'
_cell_volume   217.32576284
_cell_formula_units_Z   1
loop_
 _symmetry_equiv_pos_site_id
 _symmetry_equiv_pos_as_xyz
  1  'x, y, z'
loop_
 _atom_site_type_symbol
 _atom_site_label
 _atom_site_symmetry_multiplicity
 _atom_site_fract_x
 _atom_site_fract_y
 _atom_site_fract_z
 _atom_site_occupancy
  Tb  Tb0  1  0.000000  0.000000  0.898266  1
  Tm  Tm1  1  0.000000  0.000000  0.115453  1
  Tm  Tm2  1  0.000000  0.000000  0.598931  1
  Tm  Tm3  1  0.000000  0.000000  0.385904  1
  Co  Co4  1  0.666667  0.333333  0.005531  1
  Co  Co5  1  0.333333  0.666667  0.006196  1
  Co  Co6  1  0.666667  0.333333  0.496419  1
  Co  Co7  1  0.333333  0.666667  0.495225  1
  Hg  Hg8  1  0.666667  0.333333  0.250556  1
  I  I9  1  0.333333  0.666667  0.747518  1
