# generated using pymatgen
data_Th3Zn2Co3Sn
_symmetry_space_group_name_H-M   'P 1'
_cell_length_a   7.20458800
_cell_length_b   7.31832067
_cell_length_c   3.85677400
_cell_angle_alpha   90.00000000
_cell_angle_beta   90.00000000
_cell_angle_gamma   119.48723183
_symmetry_Int_Tables_number   1
_chemical_formula_structural   Th3Zn2Co3Sn
_chemical_formula_sum   'Th3 Zn2 Co3 Sn1'
_cell_volume   177.00938545
_cell_formula_units_Z   1
loop_
 _symmetry_equiv_pos_site_id
 _symmetry_equiv_pos_as_xyz
  1  'x, y, z'
loop_
 _atom_site_type_symbol
 _atom_site_label
 _atom_site_symmetry_multiplicity
 _atom_site_fract_x
 _atom_site_fract_y
 _atom_site_fract_z
 _atom_site_occupancy
  Th  Th0  1  0.992966  0.573102  0.500000  1
  Th  Th1  1  0.419864  0.426898  0.500000  1
  Th  Th2  1  0.600249  0.000000  0.500000  1
  Zn  Zn3  1  0.760203  0.756780  0.000000  1
  Zn  Zn4  1  0.003423  0.243220  0.000000  1
  Co  Co5  1  0.330758  0.668469  0.000000  1
  Co  Co6  1  0.993074  0.000000  0.500000  1
  Co  Co7  1  0.662290  0.331531  0.000000  1
  Sn  Sn8  1  0.237172  0.000000  0.000000  1
