# generated using pymatgen
data_Li2Yb3PrOs6
_symmetry_space_group_name_H-M   'P 1'
_cell_length_a   5.22372200
_cell_length_b   5.22372154
_cell_length_c   9.23315800
_cell_angle_alpha   90.00000000
_cell_angle_beta   90.00000000
_cell_angle_gamma   119.99999025
_symmetry_Int_Tables_number   1
_chemical_formula_structural   Li2Yb3PrOs6
_chemical_formula_sum   'Li2 Yb3 Pr1 Os6'
_cell_volume   218.19310170
_cell_formula_units_Z   1
loop_
 _symmetry_equiv_pos_site_id
 _symmetry_equiv_pos_as_xyz
  1  'x, y, z'
loop_
 _atom_site_type_symbol
 _atom_site_label
 _atom_site_symmetry_multiplicity
 _atom_site_fract_x
 _atom_site_fract_y
 _atom_site_fract_z
 _atom_site_occupancy
  Li  Li0  1  0.000000  0.000000  0.502190  1
  Li  Li1  1  0.000000  0.000000  0.998818  1
  Yb  Yb2  1  0.666667  0.333333  0.578531  1
  Yb  Yb3  1  0.666667  0.333333  0.927185  1
  Yb  Yb4  1  0.333333  0.666667  0.067315  1
  Pr  Pr5  1  0.333333  0.666667  0.427233  1
  Os  Os6  1  0.832466  0.167534  0.247969  1
  Os  Os7  1  0.832466  0.664931  0.247969  1
  Os  Os8  1  0.335069  0.167534  0.247969  1
  Os  Os9  1  0.167430  0.832570  0.751607  1
  Os  Os10  1  0.167430  0.334861  0.751607  1
  Os  Os11  1  0.665139  0.832570  0.751607  1
