# generated using pymatgen
data_LaSi2PtAu
_symmetry_space_group_name_H-M   'P 1'
_cell_length_a   4.35728400
_cell_length_b   4.35728400
_cell_length_c   10.09382300
_cell_angle_alpha   90.00000000
_cell_angle_beta   90.00000000
_cell_angle_gamma   90.00000000
_symmetry_Int_Tables_number   1
_chemical_formula_structural   LaSi2PtAu
_chemical_formula_sum   'La2 Si4 Pt2 Au2'
_cell_volume   191.64055490
_cell_formula_units_Z   2
loop_
 _symmetry_equiv_pos_site_id
 _symmetry_equiv_pos_as_xyz
  1  'x, y, z'
loop_
 _atom_site_type_symbol
 _atom_site_label
 _atom_site_symmetry_multiplicity
 _atom_site_fract_x
 _atom_site_fract_y
 _atom_site_fract_z
 _atom_site_occupancy
  La  La0  1  0.000000  0.500000  0.257330  1
  La  La1  1  0.500000  0.000000  0.742670  1
  Si  Si2  1  0.000000  0.000000  0.500000  1
  Si  Si3  1  0.500000  0.500000  0.500000  1
  Si  Si4  1  0.000000  0.500000  0.855676  1
  Si  Si5  1  0.500000  0.000000  0.144324  1
  Pt  Pt6  1  0.000000  0.500000  0.614591  1
  Pt  Pt7  1  0.500000  0.000000  0.385409  1
  Au  Au8  1  0.000000  0.000000  0.000000  1
  Au  Au9  1  0.500000  0.500000  0.000000  1
