# generated using pymatgen
data_Rb16SnBi8Pb
_symmetry_space_group_name_H-M   'P 1'
_cell_length_a   12.38998322
_cell_length_b   12.38998373
_cell_length_c   12.38998300
_cell_angle_alpha   59.99999929
_cell_angle_beta   59.99999793
_cell_angle_gamma   59.99999536
_symmetry_Int_Tables_number   1
_chemical_formula_structural   Rb16SnBi8Pb
_chemical_formula_sum   'Rb16 Sn1 Bi8 Pb1'
_cell_volume   1344.92213958
_cell_formula_units_Z   1
loop_
 _symmetry_equiv_pos_site_id
 _symmetry_equiv_pos_as_xyz
  1  'x, y, z'
loop_
 _atom_site_type_symbol
 _atom_site_label
 _atom_site_symmetry_multiplicity
 _atom_site_fract_x
 _atom_site_fract_y
 _atom_site_fract_z
 _atom_site_occupancy
  Rb  Rb0  1  0.624864  0.125408  0.624864  1
  Rb  Rb1  1  0.624864  0.624864  0.125408  1
  Rb  Rb2  1  0.125408  0.624864  0.624864  1
  Rb  Rb3  1  0.624864  0.624864  0.624864  1
  Rb  Rb4  1  0.023033  0.023033  0.476967  1
  Rb  Rb5  1  0.773039  0.226961  0.226961  1
  Rb  Rb6  1  0.226961  0.773039  0.773039  1
  Rb  Rb7  1  0.773039  0.773039  0.226961  1
  Rb  Rb8  1  0.773039  0.226961  0.773039  1
  Rb  Rb9  1  0.226961  0.773039  0.226961  1
  Rb  Rb10  1  0.476967  0.023033  0.476967  1
  Rb  Rb11  1  0.476967  0.023033  0.023033  1
  Rb  Rb12  1  0.023033  0.476967  0.476967  1
  Rb  Rb13  1  0.023033  0.476967  0.023033  1
  Rb  Rb14  1  0.226961  0.226961  0.773039  1
  Rb  Rb15  1  0.476967  0.476967  0.023033  1
  Sn  Sn16  1  0.500000  0.500000  0.500000  1
  Bi  Bi17  1  0.398791  0.803626  0.398791  1
  Bi  Bi18  1  0.852892  0.852892  0.441324  1
  Bi  Bi19  1  0.441324  0.852892  0.852892  1
  Bi  Bi20  1  0.852892  0.852892  0.852892  1
  Bi  Bi21  1  0.803626  0.398791  0.398791  1
  Bi  Bi22  1  0.398791  0.398791  0.398791  1
  Bi  Bi23  1  0.398791  0.398791  0.803626  1
  Bi  Bi24  1  0.852892  0.441324  0.852892  1
  Pb  Pb25  1  0.750000  0.750000  0.750000  1
