# generated using pymatgen
data_Nd2Er(TmRh6)3
_symmetry_space_group_name_H-M   'P 1'
_cell_length_a   5.27907231
_cell_length_b   5.27887472
_cell_length_c   17.44776700
_cell_angle_alpha   89.99953278
_cell_angle_beta   90.00020720
_cell_angle_gamma   119.98959651
_symmetry_Int_Tables_number   1
_chemical_formula_structural   Nd2Er(TmRh6)3
_chemical_formula_sum   'Nd2 Er1 Tm3 Rh18'
_cell_volume   421.12882588
_cell_formula_units_Z   1
loop_
 _symmetry_equiv_pos_site_id
 _symmetry_equiv_pos_as_xyz
  1  'x, y, z'
loop_
 _atom_site_type_symbol
 _atom_site_label
 _atom_site_symmetry_multiplicity
 _atom_site_fract_x
 _atom_site_fract_y
 _atom_site_fract_z
 _atom_site_occupancy
  Nd  Nd0  1  0.333320  0.666677  0.750079  1
  Nd  Nd1  1  0.666679  0.333314  0.249997  1
  Er  Er2  1  0.333300  0.666683  0.540963  1
  Tm  Tm3  1  0.666693  0.333310  0.040999  1
  Tm  Tm4  1  0.666696  0.333311  0.458881  1
  Tm  Tm5  1  0.333305  0.666687  0.959000  1
  Rh  Rh6  1  0.167721  0.335381  0.124283  1
  Rh  Rh7  1  0.832451  0.664951  0.624372  1
  Rh  Rh8  1  0.664624  0.832276  0.124267  1
  Rh  Rh9  1  0.167725  0.832278  0.124289  1
  Rh  Rh10  1  0.832436  0.167553  0.624380  1
  Rh  Rh11  1  0.335051  0.167555  0.624359  1
  Rh  Rh12  1  0.832386  0.664829  0.875718  1
  Rh  Rh13  1  0.832381  0.167621  0.875711  1
  Rh  Rh14  1  0.335175  0.167620  0.875732  1
  Rh  Rh15  1  0.664760  0.832352  0.375705  1
  Rh  Rh16  1  0.167652  0.832349  0.375682  1
  Rh  Rh17  1  0.167649  0.335243  0.375693  1
  Rh  Rh18  1  0.999818  0.000024  0.249914  1
  Rh  Rh19  1  0.000182  0.999978  0.750027  1
  Rh  Rh20  1  0.333546  0.666613  0.249963  1
  Rh  Rh21  1  0.666450  0.333394  0.750019  1
  Rh  Rh22  1  0.999995  0.999996  0.999992  1
  Rh  Rh23  1  0.000006  0.000003  0.499975  1
