# generated using pymatgen
data_CeDy14Lu(CdCo)4
_symmetry_space_group_name_H-M   'P 1'
_cell_length_a   9.43517681
_cell_length_b   9.51951076
_cell_length_c   9.43517730
_cell_angle_alpha   60.35215936
_cell_angle_beta   60.02509425
_cell_angle_gamma   60.35216112
_symmetry_Int_Tables_number   1
_chemical_formula_structural   CeDy14Lu(CdCo)4
_chemical_formula_sum   'Ce1 Dy14 Lu1 Cd4 Co4'
_cell_volume   602.52381110
_cell_formula_units_Z   1
loop_
 _symmetry_equiv_pos_site_id
 _symmetry_equiv_pos_as_xyz
  1  'x, y, z'
loop_
 _atom_site_type_symbol
 _atom_site_label
 _atom_site_symmetry_multiplicity
 _atom_site_fract_x
 _atom_site_fract_y
 _atom_site_fract_z
 _atom_site_occupancy
  Ce  Ce0  1  0.160029  0.518947  0.160029  1
  Dy  Dy1  1  0.688332  0.312648  0.313463  1
  Dy  Dy2  1  0.939093  0.560731  0.560900  1
  Dy  Dy3  1  0.543914  0.150376  0.150263  1
  Dy  Dy4  1  0.150263  0.150376  0.543914  1
  Dy  Dy5  1  0.937333  0.937133  0.562170  1
  Dy  Dy6  1  0.311177  0.691286  0.311177  1
  Dy  Dy7  1  0.562170  0.937133  0.937333  1
  Dy  Dy8  1  0.562013  0.937492  0.562013  1
  Dy  Dy9  1  0.687064  0.689694  0.314925  1
  Dy  Dy10  1  0.560900  0.560731  0.939093  1
  Dy  Dy11  1  0.939039  0.560853  0.939039  1
  Dy  Dy12  1  0.314925  0.689694  0.687064  1
  Dy  Dy13  1  0.153955  0.150896  0.153955  1
  Dy  Dy14  1  0.313463  0.312648  0.688332  1
  Lu  Lu15  1  0.687107  0.315631  0.687107  1
  Cd  Cd16  1  0.919154  0.241774  0.919154  1
  Cd  Cd17  1  0.920341  0.918708  0.920341  1
  Cd  Cd18  1  0.919993  0.917636  0.242953  1
  Cd  Cd19  1  0.242953  0.917636  0.919993  1
  Co  Co20  1  0.350618  0.368215  0.928549  1
  Co  Co21  1  0.357456  0.923249  0.357456  1
  Co  Co22  1  0.928549  0.368215  0.350618  1
  Co  Co23  1  0.350161  0.368295  0.350161  1
