# generated using pymatgen
data_Zr10AlBiPb6
_symmetry_space_group_name_H-M   'P 1'
_cell_length_a   8.96623742
_cell_length_b   8.97496021
_cell_length_c   5.99395801
_cell_angle_alpha   89.99287649
_cell_angle_beta   90.00357211
_cell_angle_gamma   120.03219401
_symmetry_Int_Tables_number   1
_chemical_formula_structural   Zr10AlBiPb6
_chemical_formula_sum   'Zr10 Al1 Bi1 Pb6'
_cell_volume   417.58617373
_cell_formula_units_Z   1
loop_
 _symmetry_equiv_pos_site_id
 _symmetry_equiv_pos_as_xyz
  1  'x, y, z'
loop_
 _atom_site_type_symbol
 _atom_site_label
 _atom_site_symmetry_multiplicity
 _atom_site_fract_x
 _atom_site_fract_y
 _atom_site_fract_z
 _atom_site_occupancy
  Zr  Zr0  1  0.275846  0.276035  0.733614  1
  Zr  Zr1  1  0.000000  0.724299  0.733469  1
  Zr  Zr2  1  0.000000  0.275707  0.266278  1
  Zr  Zr3  1  0.724154  0.000190  0.733614  1
  Zr  Zr4  1  0.333448  0.666690  0.500763  1
  Zr  Zr5  1  0.724115  0.724801  0.266411  1
  Zr  Zr6  1  0.275885  0.000686  0.266411  1
  Zr  Zr7  1  0.666552  0.333240  0.500763  1
  Zr  Zr8  1  0.666525  0.333107  0.999306  1
  Zr  Zr9  1  0.333475  0.666583  0.999306  1
  Al  Al10  1  0.000000  0.000281  0.500200  1
  Bi  Bi11  1  0.000000  0.612683  0.245908  1
  Pb  Pb12  1  0.385986  0.385989  0.245535  1
  Pb  Pb13  1  0.614014  0.000003  0.245535  1
  Pb  Pb14  1  0.000000  0.000302  0.999812  1
  Pb  Pb15  1  0.386258  0.000150  0.754381  1
  Pb  Pb16  1  0.613742  0.613892  0.754381  1
  Pb  Pb17  1  0.000000  0.385361  0.754311  1
