# generated using pymatgen
data_Ta12Zn12CN3
_symmetry_space_group_name_H-M   'P 1'
_cell_length_a   8.28094105
_cell_length_b   8.26454197
_cell_length_c   8.26454400
_cell_angle_alpha   59.99999986
_cell_angle_beta   60.06548741
_cell_angle_gamma   60.06548458
_symmetry_Int_Tables_number   1
_chemical_formula_structural   Ta12Zn12CN3
_chemical_formula_sum   'Ta12 Zn12 C1 N3'
_cell_volume   400.34236036
_cell_formula_units_Z   1
loop_
 _symmetry_equiv_pos_site_id
 _symmetry_equiv_pos_as_xyz
  1  'x, y, z'
loop_
 _atom_site_type_symbol
 _atom_site_label
 _atom_site_symmetry_multiplicity
 _atom_site_fract_x
 _atom_site_fract_y
 _atom_site_fract_z
 _atom_site_occupancy
  Ta  Ta0  1  0.429736  0.430760  0.069752  1
  Ta  Ta1  1  0.071814  0.429442  0.069303  1
  Ta  Ta2  1  0.429736  0.069752  0.069752  1
  Ta  Ta3  1  0.071814  0.069303  0.429442  1
  Ta  Ta4  1  0.429736  0.069752  0.430760  1
  Ta  Ta5  1  0.071814  0.429442  0.429442  1
  Ta  Ta6  1  0.820264  0.819240  0.180248  1
  Ta  Ta7  1  0.178186  0.820558  0.180697  1
  Ta  Ta8  1  0.820264  0.180248  0.180248  1
  Ta  Ta9  1  0.178186  0.180697  0.820558  1
  Ta  Ta10  1  0.820264  0.180248  0.819240  1
  Ta  Ta11  1  0.178186  0.820558  0.820558  1
  Zn  Zn12  1  0.832058  0.832284  0.503377  1
  Zn  Zn13  1  0.832058  0.503377  0.832284  1
  Zn  Zn14  1  0.503663  0.832113  0.832113  1
  Zn  Zn15  1  0.832058  0.832284  0.832284  1
  Zn  Zn16  1  0.417942  0.417716  0.746623  1
  Zn  Zn17  1  0.417942  0.746623  0.417716  1
  Zn  Zn18  1  0.746337  0.417887  0.417887  1
  Zn  Zn19  1  0.417942  0.417716  0.417716  1
  Zn  Zn20  1  0.625000  0.625000  0.125000  1
  Zn  Zn21  1  0.625000  0.125000  0.625000  1
  Zn  Zn22  1  0.125000  0.625000  0.625000  1
  Zn  Zn23  1  0.625000  0.625000  0.625000  1
  C  C24  1  0.625000  0.125000  0.125000  1
  N  N25  1  0.125000  0.125000  0.625000  1
  N  N26  1  0.125000  0.625000  0.125000  1
  N  N27  1  0.125000  0.125000  0.125000  1
