# generated using pymatgen
data_Y3Er2Sb3
_symmetry_space_group_name_H-M   'P 1'
_cell_length_a   6.25678700
_cell_length_b   8.98779285
_cell_length_c   8.98790221
_cell_angle_alpha   119.99960193
_cell_angle_beta   90.00000000
_cell_angle_gamma   90.00000000
_symmetry_Int_Tables_number   1
_chemical_formula_structural   Y3Er2Sb3
_chemical_formula_sum   'Y6 Er4 Sb6'
_cell_volume   437.71873646
_cell_formula_units_Z   2
loop_
 _symmetry_equiv_pos_site_id
 _symmetry_equiv_pos_as_xyz
  1  'x, y, z'
loop_
 _atom_site_type_symbol
 _atom_site_label
 _atom_site_symmetry_multiplicity
 _atom_site_fract_x
 _atom_site_fract_y
 _atom_site_fract_z
 _atom_site_occupancy
  Y  Y0  1  0.750005  0.247501  0.000000  1
  Y  Y1  1  0.750003  0.752555  0.752536  1
  Y  Y2  1  0.750003  0.000019  0.247464  1
  Y  Y3  1  0.250005  0.752499  0.000000  1
  Y  Y4  1  0.250003  0.247445  0.247464  1
  Y  Y5  1  0.250003  0.999981  0.752536  1
  Er  Er6  1  0.499988  0.333334  0.666678  1
  Er  Er7  1  0.499988  0.666656  0.333322  1
  Er  Er8  1  0.999988  0.666666  0.333322  1
  Er  Er9  1  0.999988  0.333344  0.666678  1
  Sb  Sb10  1  0.750003  0.611162  0.000000  1
  Sb  Sb11  1  0.750006  0.388861  0.388861  1
  Sb  Sb12  1  0.750006  0.000000  0.611139  1
  Sb  Sb13  1  0.250003  0.388838  0.000000  1
  Sb  Sb14  1  0.250006  0.611139  0.611139  1
  Sb  Sb15  1  0.250006  0.000000  0.388861  1
