# generated using pymatgen
data_Y20Ir9Pd2Ru
_symmetry_space_group_name_H-M   'P 1'
_cell_length_a   10.99289644
_cell_length_b   10.98231687
_cell_length_c   6.40004169
_cell_angle_alpha   89.99750806
_cell_angle_beta   89.89514013
_cell_angle_gamma   89.91729036
_symmetry_Int_Tables_number   1
_chemical_formula_structural   Y20Ir9Pd2Ru
_chemical_formula_sum   'Y20 Ir9 Pd2 Ru1'
_cell_volume   772.65875463
_cell_formula_units_Z   1
loop_
 _symmetry_equiv_pos_site_id
 _symmetry_equiv_pos_as_xyz
  1  'x, y, z'
loop_
 _atom_site_type_symbol
 _atom_site_label
 _atom_site_symmetry_multiplicity
 _atom_site_fract_x
 _atom_site_fract_y
 _atom_site_fract_z
 _atom_site_occupancy
  Y  Y0  1  0.291874  0.087553  0.377101  1
  Y  Y1  1  0.292997  0.912548  0.879768  1
  Y  Y2  1  0.701250  0.090838  0.874251  1
  Y  Y3  1  0.702097  0.909290  0.370991  1
  Y  Y4  1  0.581847  0.791481  0.881248  1
  Y  Y5  1  0.580798  0.209010  0.379188  1
  Y  Y6  1  0.410173  0.792344  0.378931  1
  Y  Y7  1  0.410019  0.207071  0.881102  1
  Y  Y8  1  0.210039  0.409888  0.619728  1
  Y  Y9  1  0.209614  0.589340  0.119179  1
  Y  Y10  1  0.790236  0.417143  0.121732  1
  Y  Y11  1  0.790027  0.583414  0.622013  1
  Y  Y12  1  0.914171  0.706626  0.128377  1
  Y  Y13  1  0.914559  0.293437  0.628775  1
  Y  Y14  1  0.095194  0.705634  0.621057  1
  Y  Y15  1  0.094363  0.294489  0.120316  1
  Y  Y16  1  0.004274  0.998883  0.498366  1
  Y  Y17  1  0.004049  0.001296  0.998792  1
  Y  Y18  1  0.500088  0.498779  0.998436  1
  Y  Y19  1  0.499969  0.501090  0.498529  1
  Ir  Ir20  1  0.151603  0.153490  0.749362  1
  Ir  Ir21  1  0.151949  0.845435  0.249170  1
  Ir  Ir22  1  0.655634  0.346299  0.748558  1
  Ir  Ir23  1  0.656444  0.653036  0.247782  1
  Ir  Ir24  1  0.347418  0.346738  0.250577  1
  Ir  Ir25  1  0.347606  0.653664  0.750629  1
  Ir  Ir26  1  0.501091  0.000245  0.626518  1
  Ir  Ir27  1  0.999545  0.500601  0.874993  1
  Ir  Ir28  1  0.999641  0.499324  0.375152  1
  Pd  Pd29  1  0.844965  0.153913  0.249714  1
  Pd  Pd30  1  0.844909  0.846992  0.749347  1
  Ru  Ru31  1  0.501556  0.000112  0.130313  1
