# generated using pymatgen
data_ThCoSiGe
_symmetry_space_group_name_H-M   'P 1'
_cell_length_a   8.56942403
_cell_length_b   8.56942425
_cell_length_c   4.18898900
_cell_angle_alpha   90.00000000
_cell_angle_beta   90.00000000
_cell_angle_gamma   152.01958901
_symmetry_Int_Tables_number   1
_chemical_formula_structural   ThCoSiGe
_chemical_formula_sum   'Th2 Co2 Si2 Ge2'
_cell_volume   144.32528325
_cell_formula_units_Z   2
loop_
 _symmetry_equiv_pos_site_id
 _symmetry_equiv_pos_as_xyz
  1  'x, y, z'
loop_
 _atom_site_type_symbol
 _atom_site_label
 _atom_site_symmetry_multiplicity
 _atom_site_fract_x
 _atom_site_fract_y
 _atom_site_fract_z
 _atom_site_occupancy
  Th  Th0  1  0.611502  0.388498  0.750000  1
  Th  Th1  1  0.388498  0.611502  0.250000  1
  Co  Co2  1  0.816011  0.183989  0.750000  1
  Co  Co3  1  0.183989  0.816011  0.250000  1
  Si  Si4  1  0.250528  0.749472  0.750000  1
  Si  Si5  1  0.749472  0.250528  0.250000  1
  Ge  Ge6  1  0.956850  0.043150  0.750000  1
  Ge  Ge7  1  0.043150  0.956850  0.250000  1
