# generated using pymatgen
data_Zr8Si3P9Ir16
_symmetry_space_group_name_H-M   'P 1'
_cell_length_a   12.83769700
_cell_length_b   12.83769649
_cell_length_c   3.92451900
_cell_angle_alpha   90.00000000
_cell_angle_beta   90.00000000
_cell_angle_gamma   119.99999360
_symmetry_Int_Tables_number   1
_chemical_formula_structural   Zr8Si3P9Ir16
_chemical_formula_sum   'Zr8 Si3 P9 Ir16'
_cell_volume   560.13320740
_cell_formula_units_Z   1
loop_
 _symmetry_equiv_pos_site_id
 _symmetry_equiv_pos_as_xyz
  1  'x, y, z'
loop_
 _atom_site_type_symbol
 _atom_site_label
 _atom_site_symmetry_multiplicity
 _atom_site_fract_x
 _atom_site_fract_y
 _atom_site_fract_z
 _atom_site_occupancy
  Zr  Zr0  1  0.443210  0.449424  0.000000  1
  Zr  Zr1  1  0.550576  0.993785  0.000000  1
  Zr  Zr2  1  0.006215  0.556790  0.000000  1
  Zr  Zr3  1  0.666667  0.333333  0.000000  1
  Zr  Zr4  1  0.333333  0.666667  0.000000  1
  Zr  Zr5  1  0.816781  0.812914  0.500000  1
  Zr  Zr6  1  0.187086  0.003867  0.500000  1
  Zr  Zr7  1  0.996133  0.183219  0.500000  1
  Si  Si8  1  0.485992  0.314955  0.500000  1
  Si  Si9  1  0.685045  0.171036  0.500000  1
  Si  Si10  1  0.828964  0.514008  0.500000  1
  P  P11  1  0.653928  0.646496  0.000000  1
  P  P12  1  0.353504  0.007433  0.000000  1
  P  P13  1  0.992567  0.346072  0.000000  1
  P  P14  1  0.519144  0.829178  0.500000  1
  P  P15  1  0.170822  0.689967  0.500000  1
  P  P16  1  0.826422  0.999341  0.000000  1
  P  P17  1  0.000659  0.827081  0.000000  1
  P  P18  1  0.310033  0.480856  0.500000  1
  P  P19  1  0.172919  0.173578  0.000000  1
  Ir  Ir20  1  0.182519  0.365820  0.000000  1
  Ir  Ir21  1  0.183300  0.817481  0.000000  1
  Ir  Ir22  1  0.825840  0.629641  0.000000  1
  Ir  Ir23  1  0.803802  0.174160  0.000000  1
  Ir  Ir24  1  0.370359  0.196198  0.000000  1
  Ir  Ir25  1  0.142535  0.500358  0.500000  1
  Ir  Ir26  1  0.357823  0.857465  0.500000  1
  Ir  Ir27  1  0.499642  0.642177  0.500000  1
  Ir  Ir28  1  0.644087  0.519624  0.500000  1
  Ir  Ir29  1  0.875536  0.355913  0.500000  1
  Ir  Ir30  1  0.480376  0.124464  0.500000  1
  Ir  Ir31  1  0.000000  0.000000  0.000000  1
  Ir  Ir32  1  0.723491  0.995592  0.500000  1
  Ir  Ir33  1  0.004408  0.727899  0.500000  1
  Ir  Ir34  1  0.634180  0.816700  0.000000  1
  Ir  Ir35  1  0.272101  0.276509  0.500000  1
