# generated using pymatgen
data_Dy2Lu2B12OsW
_symmetry_space_group_name_H-M   'P 1'
_cell_length_a   3.59921700
_cell_length_b   9.16402056
_cell_length_c   11.56779912
_cell_angle_alpha   89.84647270
_cell_angle_beta   90.00000000
_cell_angle_gamma   90.00000000
_symmetry_Int_Tables_number   1
_chemical_formula_structural   Dy2Lu2B12OsW
_chemical_formula_sum   'Dy4 Lu4 B24 Os2 W2'
_cell_volume   381.54280248
_cell_formula_units_Z   2
loop_
 _symmetry_equiv_pos_site_id
 _symmetry_equiv_pos_as_xyz
  1  'x, y, z'
loop_
 _atom_site_type_symbol
 _atom_site_label
 _atom_site_symmetry_multiplicity
 _atom_site_fract_x
 _atom_site_fract_y
 _atom_site_fract_z
 _atom_site_occupancy
  Dy  Dy0  1  0.000000  0.321011  0.413741  1
  Dy  Dy1  1  0.000000  0.678989  0.586259  1
  Dy  Dy2  1  0.000000  0.821227  0.086202  1
  Dy  Dy3  1  0.000000  0.178773  0.913798  1
  Lu  Lu4  1  0.000000  0.945109  0.371653  1
  Lu  Lu5  1  0.000000  0.054891  0.628347  1
  Lu  Lu6  1  0.000000  0.442352  0.127595  1
  Lu  Lu7  1  0.000000  0.557648  0.872405  1
  B  B8  1  0.500000  0.551306  0.434392  1
  B  B9  1  0.500000  0.448694  0.565608  1
  B  B10  1  0.500000  0.054165  0.067057  1
  B  B11  1  0.500000  0.945835  0.932943  1
  B  B12  1  0.500000  0.753184  0.421085  1
  B  B13  1  0.500000  0.246816  0.578915  1
  B  B14  1  0.500000  0.249790  0.081632  1
  B  B15  1  0.500000  0.750210  0.918368  1
  B  B16  1  0.500000  0.796507  0.263372  1
  B  B17  1  0.500000  0.203493  0.736627  1
  B  B18  1  0.500000  0.290643  0.233326  1
  B  B19  1  0.500000  0.709357  0.766675  1
  B  B20  1  0.500000  0.631026  0.180899  1
  B  B21  1  0.500000  0.368974  0.819101  1
  B  B22  1  0.500000  0.129807  0.313768  1
  B  B23  1  0.500000  0.870193  0.686232  1
  B  B24  1  0.500000  0.983308  0.212106  1
  B  B25  1  0.500000  0.016692  0.787894  1
  B  B26  1  0.500000  0.477215  0.285268  1
  B  B27  1  0.500000  0.522785  0.714732  1
  B  B28  1  0.500000  0.601041  0.027147  1
  B  B29  1  0.500000  0.398959  0.972853  1
  B  B30  1  0.500000  0.100572  0.471199  1
  B  B31  1  0.500000  0.899428  0.528801  1
  Os  Os32  1  0.000000  0.138321  0.178695  1
  Os  Os33  1  0.000000  0.861679  0.821305  1
  W  W34  1  0.000000  0.639296  0.319037  1
  W  W35  1  0.000000  0.360704  0.680963  1
