# generated using pymatgen
data_Ca2Nd2Sb6Rh7
_symmetry_space_group_name_H-M   'P 1'
_cell_length_a   7.68672690
_cell_length_b   7.68396462
_cell_length_c   7.68396350
_cell_angle_alpha   109.40071062
_cell_angle_beta   109.49920212
_cell_angle_gamma   109.49919915
_symmetry_Int_Tables_number   1
_chemical_formula_structural   Ca2Nd2Sb6Rh7
_chemical_formula_sum   'Ca2 Nd2 Sb6 Rh7'
_cell_volume   349.43616483
_cell_formula_units_Z   1
loop_
 _symmetry_equiv_pos_site_id
 _symmetry_equiv_pos_as_xyz
  1  'x, y, z'
loop_
 _atom_site_type_symbol
 _atom_site_label
 _atom_site_symmetry_multiplicity
 _atom_site_fract_x
 _atom_site_fract_y
 _atom_site_fract_z
 _atom_site_occupancy
  Ca  Ca0  1  0.500000  0.000000  0.000000  1
  Ca  Ca1  1  0.500000  0.500000  0.500000  1
  Nd  Nd2  1  0.000000  0.500000  0.000000  1
  Nd  Nd3  1  0.000000  0.000000  0.500000  1
  Sb  Sb4  1  0.000000  0.321293  0.321293  1
  Sb  Sb5  1  0.674249  0.995050  0.679199  1
  Sb  Sb6  1  0.674249  0.679199  0.995050  1
  Sb  Sb7  1  0.000000  0.678707  0.678707  1
  Sb  Sb8  1  0.325751  0.004950  0.320801  1
  Sb  Sb9  1  0.325751  0.320801  0.004950  1
  Rh  Rh10  1  0.000000  0.000000  0.000000  1
  Rh  Rh11  1  0.500000  0.750000  0.250000  1
  Rh  Rh12  1  0.752276  0.502426  0.249850  1
  Rh  Rh13  1  0.247724  0.750150  0.497574  1
  Rh  Rh14  1  0.247724  0.497574  0.750150  1
  Rh  Rh15  1  0.500000  0.250000  0.750000  1
  Rh  Rh16  1  0.752276  0.249850  0.502426  1
