# generated using pymatgen
data_Mg6BeP3Rh10
_symmetry_space_group_name_H-M   'P 1'
_cell_length_a   9.61287171
_cell_length_b   9.61287171
_cell_length_c   3.22758700
_cell_angle_alpha   90.00000000
_cell_angle_beta   90.00000000
_cell_angle_gamma   89.66650777
_symmetry_Int_Tables_number   1
_chemical_formula_structural   Mg6BeP3Rh10
_chemical_formula_sum   'Mg6 Be1 P3 Rh10'
_cell_volume   298.24755604
_cell_formula_units_Z   1
loop_
 _symmetry_equiv_pos_site_id
 _symmetry_equiv_pos_as_xyz
  1  'x, y, z'
loop_
 _atom_site_type_symbol
 _atom_site_label
 _atom_site_symmetry_multiplicity
 _atom_site_fract_x
 _atom_site_fract_y
 _atom_site_fract_z
 _atom_site_occupancy
  Mg  Mg0  1  0.674961  0.174961  0.000000  1
  Mg  Mg1  1  0.315878  0.815878  0.000000  1
  Mg  Mg2  1  0.180119  0.342237  0.000000  1
  Mg  Mg3  1  0.842237  0.680119  0.000000  1
  Mg  Mg4  1  0.002262  0.992619  0.000000  1
  Mg  Mg5  1  0.492619  0.502262  0.000000  1
  Be  Be6  1  0.129296  0.629296  0.000000  1
  P  P7  1  0.876004  0.376004  0.000000  1
  P  P8  1  0.628367  0.869009  0.000000  1
  P  P9  1  0.369009  0.128367  0.000000  1
  Rh  Rh10  1  0.495535  0.995535  0.500000  1
  Rh  Rh11  1  0.998754  0.498754  0.500000  1
  Rh  Rh12  1  0.210762  0.076988  0.500000  1
  Rh  Rh13  1  0.784178  0.931855  0.500000  1
  Rh  Rh14  1  0.068732  0.783985  0.500000  1
  Rh  Rh15  1  0.712048  0.426411  0.500000  1
  Rh  Rh16  1  0.926411  0.212048  0.500000  1
  Rh  Rh17  1  0.283985  0.568732  0.500000  1
  Rh  Rh18  1  0.576988  0.710762  0.500000  1
  Rh  Rh19  1  0.431855  0.284178  0.500000  1
