# generated using pymatgen
data_Pr2Y4CoBr10
_symmetry_space_group_name_H-M   'P 1'
_cell_length_a   7.43358867
_cell_length_b   9.28776247
_cell_length_c   9.30280539
_cell_angle_alpha   108.53675527
_cell_angle_beta   96.89828619
_cell_angle_gamma   104.21767257
_symmetry_Int_Tables_number   1
_chemical_formula_structural   Pr2Y4CoBr10
_chemical_formula_sum   'Pr2 Y4 Co1 Br10'
_cell_volume   576.41678004
_cell_formula_units_Z   1
loop_
 _symmetry_equiv_pos_site_id
 _symmetry_equiv_pos_as_xyz
  1  'x, y, z'
loop_
 _atom_site_type_symbol
 _atom_site_label
 _atom_site_symmetry_multiplicity
 _atom_site_fract_x
 _atom_site_fract_y
 _atom_site_fract_z
 _atom_site_occupancy
  Pr  Pr0  1  0.465627  0.787546  0.590843  1
  Pr  Pr1  1  0.534373  0.212454  0.409157  1
  Y  Y2  1  0.378108  0.456503  0.747018  1
  Y  Y3  1  0.621892  0.543497  0.252982  1
  Y  Y4  1  0.854893  0.628557  0.677198  1
  Y  Y5  1  0.145107  0.371443  0.322802  1
  Co  Co6  1  0.500000  0.500000  0.500000  1
  Br  Br7  1  0.409436  0.139287  0.681431  1
  Br  Br8  1  0.590564  0.860713  0.318569  1
  Br  Br9  1  0.039270  0.674173  0.413817  1
  Br  Br10  1  0.960730  0.325827  0.586183  1
  Br  Br11  1  0.271456  0.748121  0.852126  1
  Br  Br12  1  0.728544  0.251879  0.147874  1
  Br  Br13  1  0.252118  0.415384  0.042052  1
  Br  Br14  1  0.747882  0.584616  0.957948  1
  Br  Br15  1  0.860506  0.945995  0.772936  1
  Br  Br16  1  0.139494  0.054005  0.227064  1
