# generated using pymatgen
data_HoBeSiIrRh
_symmetry_space_group_name_H-M   'P 1'
_cell_length_a   4.06193800
_cell_length_b   4.06193800
_cell_length_c   9.50926900
_cell_angle_alpha   90.00000000
_cell_angle_beta   90.00000000
_cell_angle_gamma   90.00000000
_symmetry_Int_Tables_number   1
_chemical_formula_structural   HoBeSiIrRh
_chemical_formula_sum   'Ho2 Be2 Si2 Ir2 Rh2'
_cell_volume   156.89666539
_cell_formula_units_Z   2
loop_
 _symmetry_equiv_pos_site_id
 _symmetry_equiv_pos_as_xyz
  1  'x, y, z'
loop_
 _atom_site_type_symbol
 _atom_site_label
 _atom_site_symmetry_multiplicity
 _atom_site_fract_x
 _atom_site_fract_y
 _atom_site_fract_z
 _atom_site_occupancy
  Ho  Ho0  1  0.000000  0.500000  0.261728  1
  Ho  Ho1  1  0.500000  0.000000  0.738272  1
  Be  Be2  1  0.000000  0.000000  0.500000  1
  Be  Be3  1  0.500000  0.500000  0.500000  1
  Si  Si4  1  0.000000  0.500000  0.862796  1
  Si  Si5  1  0.500000  0.000000  0.137204  1
  Ir  Ir6  1  0.000000  0.500000  0.610832  1
  Ir  Ir7  1  0.500000  0.000000  0.389168  1
  Rh  Rh8  1  0.000000  0.000000  0.000000  1
  Rh  Rh9  1  0.500000  0.500000  0.000000  1
