# generated using pymatgen
data_Ac2P7(IrRu5)2
_symmetry_space_group_name_H-M   'P 1'
_cell_length_a   9.59163999
_cell_length_b   9.63748137
_cell_length_c   4.01528300
_cell_angle_alpha   90.00000000
_cell_angle_beta   90.00000000
_cell_angle_gamma   120.11887924
_symmetry_Int_Tables_number   1
_chemical_formula_structural   Ac2P7(IrRu5)2
_chemical_formula_sum   'Ac2 P7 Ir2 Ru10'
_cell_volume   321.05668806
_cell_formula_units_Z   1
loop_
 _symmetry_equiv_pos_site_id
 _symmetry_equiv_pos_as_xyz
  1  'x, y, z'
loop_
 _atom_site_type_symbol
 _atom_site_label
 _atom_site_symmetry_multiplicity
 _atom_site_fract_x
 _atom_site_fract_y
 _atom_site_fract_z
 _atom_site_occupancy
  Ac  Ac0  1  0.668254  0.334451  0.500000  1
  Ac  Ac1  1  0.331398  0.665761  0.000000  1
  P  P2  1  0.609156  0.711752  0.500000  1
  P  P3  1  0.999657  0.000332  0.000000  1
  P  P4  1  0.282809  0.892779  0.500000  1
  P  P5  1  0.100826  0.392634  0.500000  1
  P  P6  1  0.896186  0.584328  0.000000  1
  P  P7  1  0.416645  0.306230  0.000000  1
  P  P8  1  0.693230  0.108657  0.000000  1
  Ir  Ir9  1  0.560695  0.949350  0.500000  1
  Ir  Ir10  1  0.387788  0.437378  0.500000  1
  Ru  Ru11  1  0.913797  0.121538  0.500000  1
  Ru  Ru12  1  0.209961  0.087906  0.500000  1
  Ru  Ru13  1  0.878507  0.794246  0.500000  1
  Ru  Ru14  1  0.731533  0.892153  0.000000  1
  Ru  Ru15  1  0.108823  0.842949  0.000000  1
  Ru  Ru16  1  0.160681  0.266901  0.000000  1
  Ru  Ru17  1  0.424955  0.063252  0.000000  1
  Ru  Ru18  1  0.937539  0.358893  0.000000  1
  Ru  Ru19  1  0.639672  0.576101  0.000000  1
  Ru  Ru20  1  0.047889  0.612410  0.500000  1
