# generated using pymatgen
data_LiDy4Hg3C
_symmetry_space_group_name_H-M   'P 1'
_cell_length_a   8.83570300
_cell_length_b   8.83570303
_cell_length_c   6.17222500
_cell_angle_alpha   90.00000000
_cell_angle_beta   90.00000000
_cell_angle_gamma   120.00000365
_symmetry_Int_Tables_number   1
_chemical_formula_structural   LiDy4Hg3C
_chemical_formula_sum   'Li2 Dy8 Hg6 C2'
_cell_volume   417.30595751
_cell_formula_units_Z   2
loop_
 _symmetry_equiv_pos_site_id
 _symmetry_equiv_pos_as_xyz
  1  'x, y, z'
loop_
 _atom_site_type_symbol
 _atom_site_label
 _atom_site_symmetry_multiplicity
 _atom_site_fract_x
 _atom_site_fract_y
 _atom_site_fract_z
 _atom_site_occupancy
  Li  Li0  1  0.666667  0.333333  0.000000  1
  Li  Li1  1  0.333333  0.666667  0.000000  1
  Dy  Dy2  1  0.333333  0.666667  0.500000  1
  Dy  Dy3  1  0.666667  0.333333  0.500000  1
  Dy  Dy4  1  0.783755  0.783755  0.752512  1
  Dy  Dy5  1  0.216245  0.000000  0.752512  1
  Dy  Dy6  1  0.000000  0.216245  0.752512  1
  Dy  Dy7  1  0.216245  0.216245  0.247488  1
  Dy  Dy8  1  0.783755  0.000000  0.247488  1
  Dy  Dy9  1  0.000000  0.783755  0.247488  1
  Hg  Hg10  1  0.414399  0.414399  0.778922  1
  Hg  Hg11  1  0.585601  0.000000  0.778922  1
  Hg  Hg12  1  0.000000  0.585601  0.778922  1
  Hg  Hg13  1  0.585601  0.585601  0.221078  1
  Hg  Hg14  1  0.414399  0.000000  0.221078  1
  Hg  Hg15  1  0.000000  0.414399  0.221078  1
  C  C16  1  0.000000  0.000000  0.000000  1
  C  C17  1  0.000000  0.000000  0.500000  1
