# generated using pymatgen
data_LaEr7(Si4Tc3)4
_symmetry_space_group_name_H-M   'P 1'
_cell_length_a   6.75858121
_cell_length_b   6.75645481
_cell_length_c   12.62719200
_cell_angle_alpha   89.85098656
_cell_angle_beta   90.01429304
_cell_angle_gamma   90.25127950
_symmetry_Int_Tables_number   1
_chemical_formula_structural   LaEr7(Si4Tc3)4
_chemical_formula_sum   'La1 Er7 Si16 Tc12'
_cell_volume   576.60119644
_cell_formula_units_Z   1
loop_
 _symmetry_equiv_pos_site_id
 _symmetry_equiv_pos_as_xyz
  1  'x, y, z'
loop_
 _atom_site_type_symbol
 _atom_site_label
 _atom_site_symmetry_multiplicity
 _atom_site_fract_x
 _atom_site_fract_y
 _atom_site_fract_z
 _atom_site_occupancy
  La  La0  1  0.332070  0.002858  0.471310  1
  Er  Er1  1  0.002436  0.661760  0.029901  1
  Er  Er2  1  0.996188  0.340041  0.530874  1
  Er  Er3  1  0.660488  0.003435  0.969701  1
  Er  Er4  1  0.164713  0.496528  0.781265  1
  Er  Er5  1  0.838335  0.507539  0.279334  1
  Er  Er6  1  0.495516  0.165329  0.218842  1
  Er  Er7  1  0.506772  0.838442  0.719179  1
  Si  Si8  1  0.015335  0.727440  0.437631  1
  Si  Si9  1  0.973272  0.279725  0.934725  1
  Si  Si10  1  0.740773  0.016167  0.562270  1
  Si  Si11  1  0.219809  0.476490  0.183669  1
  Si  Si12  1  0.777158  0.520325  0.688630  1
  Si  Si13  1  0.476995  0.222369  0.815484  1
  Si  Si14  1  0.523843  0.779563  0.310827  1
  Si  Si15  1  0.279062  0.973348  0.065612  1
  Si  Si16  1  0.882486  0.804447  0.815462  1
  Si  Si17  1  0.112344  0.198957  0.309218  1
  Si  Si18  1  0.804321  0.882973  0.184620  1
  Si  Si19  1  0.310644  0.606543  0.564252  1
  Si  Si20  1  0.692803  0.382054  0.062415  1
  Si  Si21  1  0.617268  0.313547  0.435507  1
  Si  Si22  1  0.382638  0.692671  0.937687  1
  Si  Si23  1  0.192259  0.114682  0.691825  1
  Tc  Tc24  1  0.316946  0.489810  0.373790  1
  Tc  Tc25  1  0.812555  0.024699  0.366799  1
  Tc  Tc26  1  0.979589  0.178420  0.124577  1
  Tc  Tc27  1  0.024337  0.807432  0.633846  1
  Tc  Tc28  1  0.681734  0.520517  0.879044  1
  Tc  Tc29  1  0.488322  0.313824  0.625021  1
  Tc  Tc30  1  0.518585  0.677809  0.122092  1
  Tc  Tc31  1  0.176920  0.979739  0.876376  1
  Tc  Tc32  1  0.669461  0.664530  0.500735  1
  Tc  Tc33  1  0.836511  0.166118  0.751896  1
  Tc  Tc34  1  0.164230  0.835981  0.245605  1
  Tc  Tc35  1  0.333283  0.333889  0.999977  1
