# generated using pymatgen
data_AsBr37
_symmetry_space_group_name_H-M   'P 1'
_cell_length_a   14.20848141
_cell_length_b   15.29732181
_cell_length_c   14.42416200
_cell_angle_alpha   103.00376457
_cell_angle_beta   48.80056783
_cell_angle_gamma   81.50743146
_symmetry_Int_Tables_number   1
_chemical_formula_structural   AsBr37
_chemical_formula_sum   'As1 Br37'
_cell_volume   2102.91272627
_cell_formula_units_Z   1
loop_
 _symmetry_equiv_pos_site_id
 _symmetry_equiv_pos_as_xyz
  1  'x, y, z'
loop_
 _atom_site_type_symbol
 _atom_site_label
 _atom_site_symmetry_multiplicity
 _atom_site_fract_x
 _atom_site_fract_y
 _atom_site_fract_z
 _atom_site_occupancy
  As  As0  1  0.500000  0.000000  0.000000  1
  Br  Br1  1  0.798246  0.302759  0.134910  1
  Br  Br2  1  0.201754  0.697241  0.865090  1
  Br  Br3  1  0.750186  0.082747  0.359746  1
  Br  Br4  1  0.249814  0.917253  0.640254  1
  Br  Br5  1  0.111562  0.348278  0.170709  1
  Br  Br6  1  0.888438  0.651722  0.829291  1
  Br  Br7  1  0.869241  0.539659  0.248509  1
  Br  Br8  1  0.130759  0.460341  0.751491  1
  Br  Br9  1  0.687493  0.275716  0.520513  1
  Br  Br10  1  0.312507  0.724284  0.479487  1
  Br  Br11  1  0.049411  0.148778  0.483987  1
  Br  Br12  1  0.950589  0.851222  0.516013  1
  Br  Br13  1  0.987035  0.007920  0.276375  1
  Br  Br14  1  0.012965  0.992080  0.723625  1
  Br  Br15  1  0.950866  0.344335  0.605416  1
  Br  Br16  1  0.049134  0.655665  0.394584  1
  Br  Br17  1  0.587773  0.428818  0.233786  1
  Br  Br18  1  0.412227  0.571182  0.766214  1
  Br  Br19  1  0.173353  0.473861  0.273613  1
  Br  Br20  1  0.826647  0.526139  0.726387  1
  Br  Br21  1  0.000000  0.500000  0.000000  1
  Br  Br22  1  0.571229  0.960249  0.124904  1
  Br  Br23  1  0.428771  0.039751  0.875096  1
  Br  Br24  1  0.310813  0.058566  0.300932  1
  Br  Br25  1  0.689187  0.941434  0.699068  1
  Br  Br26  1  0.536017  0.128742  0.412069  1
  Br  Br27  1  0.463983  0.871258  0.587931  1
  Br  Br28  1  0.089630  0.214373  0.068207  1
  Br  Br29  1  0.910370  0.785627  0.931793  1
  Br  Br30  1  0.664091  0.697639  0.403246  1
  Br  Br31  1  0.335909  0.302361  0.596754  1
  Br  Br32  1  0.901478  0.147950  0.926811  1
  Br  Br33  1  0.098522  0.852050  0.073189  1
  Br  Br34  1  0.528763  0.160063  0.032955  1
  Br  Br35  1  0.471237  0.839937  0.967045  1
  Br  Br36  1  0.645483  0.432593  0.651038  1
  Br  Br37  1  0.354517  0.567407  0.348962  1
