# generated using pymatgen
data_Tm3Lu7(Tl2Sb)2
_symmetry_space_group_name_H-M   'P 1'
_cell_length_a   6.45326500
_cell_length_b   8.81341265
_cell_length_c   8.79419800
_cell_angle_alpha   119.77110450
_cell_angle_beta   90.00071029
_cell_angle_gamma   89.99956280
_symmetry_Int_Tables_number   1
_chemical_formula_structural   Tm3Lu7(Tl2Sb)2
_chemical_formula_sum   'Tm3 Lu7 Tl4 Sb2'
_cell_volume   434.15775518
_cell_formula_units_Z   1
loop_
 _symmetry_equiv_pos_site_id
 _symmetry_equiv_pos_as_xyz
  1  'x, y, z'
loop_
 _atom_site_type_symbol
 _atom_site_label
 _atom_site_symmetry_multiplicity
 _atom_site_fract_x
 _atom_site_fract_y
 _atom_site_fract_z
 _atom_site_occupancy
  Tm  Tm0  1  0.749985  0.232326  0.995224  1
  Tm  Tm1  1  0.750019  0.766887  0.761188  1
  Tm  Tm2  1  0.250026  0.764625  0.000945  1
  Lu  Lu3  1  0.495276  0.333695  0.668067  1
  Lu  Lu4  1  0.495678  0.666077  0.334452  1
  Lu  Lu5  1  0.004328  0.666115  0.334487  1
  Lu  Lu6  1  0.004706  0.333660  0.668085  1
  Lu  Lu7  1  0.750048  0.000020  0.236668  1
  Lu  Lu8  1  0.250018  0.235134  0.236120  1
  Lu  Lu9  1  0.249968  0.000191  0.764285  1
  Tl  Tl10  1  0.749977  0.000316  0.596629  1
  Tl  Tl11  1  0.250036  0.395235  0.002073  1
  Tl  Tl12  1  0.249937  0.604396  0.605604  1
  Tl  Tl13  1  0.249996  0.000505  0.399218  1
  Sb  Sb14  1  0.749997  0.606079  0.001130  1
  Sb  Sb15  1  0.750004  0.394741  0.395825  1
