# generated using pymatgen
data_Tb4Dy3Lu9(CdNi)4
_symmetry_space_group_name_H-M   'P 1'
_cell_length_a   9.42936433
_cell_length_b   9.43105598
_cell_length_c   9.41595871
_cell_angle_alpha   60.04106025
_cell_angle_beta   59.97890771
_cell_angle_gamma   59.90004298
_symmetry_Int_Tables_number   1
_chemical_formula_structural   Tb4Dy3Lu9(CdNi)4
_chemical_formula_sum   'Tb4 Dy3 Lu9 Cd4 Ni4'
_cell_volume   591.73642323
_cell_formula_units_Z   1
loop_
 _symmetry_equiv_pos_site_id
 _symmetry_equiv_pos_as_xyz
  1  'x, y, z'
loop_
 _atom_site_type_symbol
 _atom_site_label
 _atom_site_symmetry_multiplicity
 _atom_site_fract_x
 _atom_site_fract_y
 _atom_site_fract_z
 _atom_site_occupancy
  Tb  Tb0  1  0.599438  0.598249  0.600017  1
  Tb  Tb1  1  0.604054  0.600427  0.195586  1
  Tb  Tb2  1  0.600017  0.202298  0.599438  1
  Tb  Tb3  1  0.195586  0.599935  0.604054  1
  Dy  Dy4  1  0.188014  0.811986  0.188014  1
  Dy  Dy5  1  0.815030  0.815679  0.184188  1
  Dy  Dy6  1  0.184188  0.185103  0.815030  1
  Lu  Lu7  1  0.063536  0.435211  0.438128  1
  Lu  Lu8  1  0.438128  0.063126  0.063536  1
  Lu  Lu9  1  0.437605  0.062395  0.437605  1
  Lu  Lu10  1  0.065661  0.434339  0.065661  1
  Lu  Lu11  1  0.437669  0.434372  0.064236  1
  Lu  Lu12  1  0.064236  0.063723  0.437669  1
  Lu  Lu13  1  0.186984  0.812793  0.812393  1
  Lu  Lu14  1  0.812393  0.187831  0.186984  1
  Lu  Lu15  1  0.814333  0.185667  0.814333  1
  Cd  Cd16  1  0.831956  0.834599  0.829044  1
  Cd  Cd17  1  0.829154  0.833672  0.504822  1
  Cd  Cd18  1  0.829044  0.504403  0.831956  1
  Cd  Cd19  1  0.504822  0.832352  0.829154  1
  Ni  Ni20  1  0.392348  0.394139  0.389415  1
  Ni  Ni21  1  0.390410  0.392884  0.825982  1
  Ni  Ni22  1  0.389415  0.824098  0.392348  1
  Ni  Ni23  1  0.825982  0.390723  0.390410  1
