# generated using pymatgen
data_Er8Si12Ni3Au
_symmetry_space_group_name_H-M   'P 1'
_cell_length_a   7.97816600
_cell_length_b   7.97816513
_cell_length_c   7.98000600
_cell_angle_alpha   90.00000000
_cell_angle_beta   90.00000000
_cell_angle_gamma   119.99999533
_symmetry_Int_Tables_number   1
_chemical_formula_structural   Er8Si12Ni3Au
_chemical_formula_sum   'Er8 Si12 Ni3 Au1'
_cell_volume   439.88581665
_cell_formula_units_Z   1
loop_
 _symmetry_equiv_pos_site_id
 _symmetry_equiv_pos_as_xyz
  1  'x, y, z'
loop_
 _atom_site_type_symbol
 _atom_site_label
 _atom_site_symmetry_multiplicity
 _atom_site_fract_x
 _atom_site_fract_y
 _atom_site_fract_z
 _atom_site_occupancy
  Er  Er0  1  0.502924  0.005851  0.246166  1
  Er  Er1  1  0.502981  0.005961  0.753887  1
  Er  Er2  1  0.994149  0.497076  0.246166  1
  Er  Er3  1  0.994039  0.497019  0.753887  1
  Er  Er4  1  0.502924  0.497076  0.246166  1
  Er  Er5  1  0.502981  0.497019  0.753887  1
  Er  Er6  1  0.000000  0.000000  0.246822  1
  Er  Er7  1  0.000000  0.000000  0.753171  1
  Si  Si8  1  0.171501  0.343003  0.000027  1
  Si  Si9  1  0.829647  0.659294  0.000105  1
  Si  Si10  1  0.656997  0.828499  0.000027  1
  Si  Si11  1  0.826577  0.653155  0.500023  1
  Si  Si12  1  0.340706  0.170353  0.000105  1
  Si  Si13  1  0.160508  0.321016  0.499886  1
  Si  Si14  1  0.171501  0.828499  0.000027  1
  Si  Si15  1  0.346845  0.173423  0.500023  1
  Si  Si16  1  0.829647  0.170353  0.000105  1
  Si  Si17  1  0.678984  0.839492  0.499886  1
  Si  Si18  1  0.826577  0.173423  0.500023  1
  Si  Si19  1  0.160508  0.839492  0.499886  1
  Ni  Ni20  1  0.333333  0.666667  0.999598  1
  Ni  Ni21  1  0.666667  0.333333  0.999742  1
  Ni  Ni22  1  0.666667  0.333333  0.500043  1
  Au  Au23  1  0.333333  0.666667  0.500340  1
