# generated using pymatgen
data_Tb3YGa18Co5Pd
_symmetry_space_group_name_H-M   'P 1'
_cell_length_a   7.40926641
_cell_length_b   7.40916332
_cell_length_c   9.48849408
_cell_angle_alpha   90.12255758
_cell_angle_beta   90.12307009
_cell_angle_gamma   119.65672812
_symmetry_Int_Tables_number   1
_chemical_formula_structural   Tb3YGa18Co5Pd
_chemical_formula_sum   'Tb3 Y1 Ga18 Co5 Pd1'
_cell_volume   452.64760106
_cell_formula_units_Z   1
loop_
 _symmetry_equiv_pos_site_id
 _symmetry_equiv_pos_as_xyz
  1  'x, y, z'
loop_
 _atom_site_type_symbol
 _atom_site_label
 _atom_site_symmetry_multiplicity
 _atom_site_fract_x
 _atom_site_fract_y
 _atom_site_fract_z
 _atom_site_occupancy
  Tb  Tb0  1  0.672233  0.996545  0.748789  1
  Tb  Tb1  1  0.327741  0.003440  0.251205  1
  Tb  Tb2  1  0.996558  0.672198  0.748791  1
  Y  Y3  1  0.003543  0.327730  0.251206  1
  Ga  Ga4  1  0.999496  0.655743  0.075336  1
  Ga  Ga5  1  0.664774  0.001544  0.429083  1
  Ga  Ga6  1  0.001481  0.664593  0.429105  1
  Ga  Ga7  1  0.000577  0.344210  0.924641  1
  Ga  Ga8  1  0.655875  0.999434  0.075331  1
  Ga  Ga9  1  0.344138  0.000499  0.924665  1
  Ga  Ga10  1  0.666532  0.666558  0.556558  1
  Ga  Ga11  1  0.343903  0.343988  0.063034  1
  Ga  Ga12  1  0.656025  0.656107  0.936974  1
  Ga  Ga13  1  0.333368  0.333491  0.443420  1
  Ga  Ga14  1  0.130448  0.130491  0.741526  1
  Ga  Ga15  1  0.869608  0.869564  0.258480  1
  Ga  Ga16  1  0.663725  0.447675  0.251690  1
  Ga  Ga17  1  0.336212  0.552259  0.748334  1
  Ga  Ga18  1  0.447688  0.663834  0.251655  1
  Ga  Ga19  1  0.552255  0.336246  0.748318  1
  Ga  Ga20  1  0.335315  0.998492  0.570909  1
  Ga  Ga21  1  0.998517  0.335330  0.570892  1
  Co  Co22  1  0.670649  0.329333  0.000040  1
  Co  Co23  1  0.329277  0.670756  0.499959  1
  Co  Co24  1  0.329316  0.670621  0.000042  1
  Co  Co25  1  0.670707  0.329258  0.499970  1
  Co  Co26  1  0.000019  0.000006  0.499984  1
  Pd  Pd27  1  0.000020  0.000058  0.000062  1
