# generated using pymatgen
data_PrYZn5Si
_symmetry_space_group_name_H-M   'P 1'
_cell_length_a   8.28233021
_cell_length_b   8.28233086
_cell_length_c   8.80381200
_cell_angle_alpha   90.00000000
_cell_angle_beta   90.00000000
_cell_angle_gamma   149.41220570
_symmetry_Int_Tables_number   1
_chemical_formula_structural   PrYZn5Si
_chemical_formula_sum   'Pr2 Y2 Zn10 Si2'
_cell_volume   307.30704615
_cell_formula_units_Z   2
loop_
 _symmetry_equiv_pos_site_id
 _symmetry_equiv_pos_as_xyz
  1  'x, y, z'
loop_
 _atom_site_type_symbol
 _atom_site_label
 _atom_site_symmetry_multiplicity
 _atom_site_fract_x
 _atom_site_fract_y
 _atom_site_fract_z
 _atom_site_occupancy
  Pr  Pr0  1  0.000000  0.000000  0.500000  1
  Pr  Pr1  1  0.000000  0.000000  0.000000  1
  Y  Y2  1  0.201060  0.798940  0.250000  1
  Y  Y3  1  0.798940  0.201060  0.750000  1
  Zn  Zn4  1  0.812490  0.187510  0.392743  1
  Zn  Zn5  1  0.187510  0.812490  0.607257  1
  Zn  Zn6  1  0.812490  0.187510  0.107257  1
  Zn  Zn7  1  0.187510  0.812490  0.892743  1
  Zn  Zn8  1  0.651375  0.348625  0.474918  1
  Zn  Zn9  1  0.348625  0.651375  0.525082  1
  Zn  Zn10  1  0.651375  0.348625  0.025082  1
  Zn  Zn11  1  0.348625  0.651375  0.974918  1
  Zn  Zn12  1  0.403431  0.596569  0.250000  1
  Zn  Zn13  1  0.596569  0.403431  0.750000  1
  Si  Si14  1  0.557995  0.442005  0.250000  1
  Si  Si15  1  0.442005  0.557995  0.750000  1
