# generated using pymatgen
data_RbV6InTe6
_symmetry_space_group_name_H-M   'P 1'
_cell_length_a   4.50335800
_cell_length_b   9.68685993
_cell_length_c   9.72149797
_cell_angle_alpha   119.32382858
_cell_angle_beta   90.00000000
_cell_angle_gamma   90.00000000
_symmetry_Int_Tables_number   1
_chemical_formula_structural   RbV6InTe6
_chemical_formula_sum   'Rb1 V6 In1 Te6'
_cell_volume   369.74495765
_cell_formula_units_Z   1
loop_
 _symmetry_equiv_pos_site_id
 _symmetry_equiv_pos_as_xyz
  1  'x, y, z'
loop_
 _atom_site_type_symbol
 _atom_site_label
 _atom_site_symmetry_multiplicity
 _atom_site_fract_x
 _atom_site_fract_y
 _atom_site_fract_z
 _atom_site_occupancy
  Rb  Rb0  1  0.750000  0.667467  0.327916  1
  V  V1  1  0.750000  0.962507  0.815911  1
  V  V2  1  0.750000  0.179816  0.155672  1
  V  V3  1  0.750000  0.894263  0.020259  1
  V  V4  1  0.250000  0.039065  0.186349  1
  V  V5  1  0.250000  0.818409  0.842162  1
  V  V6  1  0.250000  0.105951  0.979664  1
  In  In7  1  0.250000  0.323998  0.664034  1
  Te  Te8  1  0.750000  0.639867  0.704756  1
  Te  Te9  1  0.750000  0.280502  0.938854  1
  Te  Te10  1  0.750000  0.064648  0.362308  1
  Te  Te11  1  0.250000  0.355991  0.300759  1
  Te  Te12  1  0.250000  0.718410  0.054670  1
  Te  Te13  1  0.250000  0.949109  0.646686  1
