# generated using pymatgen
data_La3GeBr3
_symmetry_space_group_name_H-M   'P 1'
_cell_length_a   10.70744911
_cell_length_b   10.70727921
_cell_length_c   10.70735700
_cell_angle_alpha   109.47062644
_cell_angle_beta   109.47068282
_cell_angle_gamma   109.47155882
_symmetry_Int_Tables_number   1
_chemical_formula_structural   La3GeBr3
_chemical_formula_sum   'La12 Ge4 Br12'
_cell_volume   944.99561537
_cell_formula_units_Z   4
loop_
 _symmetry_equiv_pos_site_id
 _symmetry_equiv_pos_as_xyz
  1  'x, y, z'
loop_
 _atom_site_type_symbol
 _atom_site_label
 _atom_site_symmetry_multiplicity
 _atom_site_fract_x
 _atom_site_fract_y
 _atom_site_fract_z
 _atom_site_occupancy
  La  La0  1  0.480730  0.490320  0.240314  1
  La  La1  1  0.750013  0.240358  0.259590  1
  La  La2  1  0.749981  0.009613  0.490389  1
  La  La3  1  0.240275  0.480700  0.490341  1
  La  La4  1  0.259614  0.749969  0.240337  1
  La  La5  1  0.019275  0.259608  0.009625  1
  La  La6  1  0.009652  0.019272  0.259628  1
  La  La7  1  0.490369  0.749997  0.009615  1
  La  La8  1  0.490356  0.240380  0.480756  1
  La  La9  1  0.009636  0.490356  0.750001  1
  La  La10  1  0.259574  0.009605  0.019223  1
  La  La11  1  0.240392  0.259672  0.750004  1
  Ge  Ge12  1  0.250102  0.250065  0.250104  1
  Ge  Ge13  1  0.500248  0.000267  0.250237  1
  Ge  Ge14  1  0.000042  0.250048  0.500132  1
  Ge  Ge15  1  0.250150  0.500148  0.000166  1
  Br  Br16  1  0.249964  0.752481  0.747444  1
  Br  Br17  1  0.504997  0.502494  0.752479  1
  Br  Br18  1  0.994931  0.747456  0.997446  1
  Br  Br19  1  0.747458  0.249968  0.752492  1
  Br  Br20  1  0.997451  0.994943  0.747452  1
  Br  Br21  1  0.249963  0.997454  0.502477  1
  Br  Br22  1  0.752486  0.505005  0.502486  1
  Br  Br23  1  0.502475  0.249953  0.997432  1
  Br  Br24  1  0.752485  0.747463  0.249961  1
  Br  Br25  1  0.747458  0.997443  0.994921  1
  Br  Br26  1  0.997444  0.502487  0.249956  1
  Br  Br27  1  0.502478  0.752477  0.504994  1
