# generated using pymatgen
data_Ho3Mg2AlSi2Pd
_symmetry_space_group_name_H-M   'P 1'
_cell_length_a   7.12682426
_cell_length_b   7.06671687
_cell_length_c   4.24205800
_cell_angle_alpha   90.00000000
_cell_angle_beta   90.00000000
_cell_angle_gamma   119.72139691
_symmetry_Int_Tables_number   1
_chemical_formula_structural   Ho3Mg2AlSi2Pd
_chemical_formula_sum   'Ho3 Mg2 Al1 Si2 Pd1'
_cell_volume   185.53821558
_cell_formula_units_Z   1
loop_
 _symmetry_equiv_pos_site_id
 _symmetry_equiv_pos_as_xyz
  1  'x, y, z'
loop_
 _atom_site_type_symbol
 _atom_site_label
 _atom_site_symmetry_multiplicity
 _atom_site_fract_x
 _atom_site_fract_y
 _atom_site_fract_z
 _atom_site_occupancy
  Ho  Ho0  1  0.416533  0.001093  0.000000  1
  Ho  Ho1  1  0.000000  0.421077  0.000000  1
  Ho  Ho2  1  0.583467  0.584559  0.000000  1
  Mg  Mg3  1  0.757714  0.998382  0.499999  1
  Mg  Mg4  1  0.242286  0.240667  0.499999  1
  Al  Al5  1  0.000000  0.756852  0.499999  1
  Si  Si6  1  0.675928  0.345062  0.499999  1
  Si  Si7  1  0.324071  0.669133  0.499999  1
  Pd  Pd8  1  0.000000  0.983172  0.000000  1
