# generated using pymatgen
data_Nd2Ta5WO18
_symmetry_space_group_name_H-M   'P 1'
_cell_length_a   7.60686814
_cell_length_b   5.44161415
_cell_length_c   8.33110862
_cell_angle_alpha   87.61552772
_cell_angle_beta   89.90201335
_cell_angle_gamma   90.17541591
_symmetry_Int_Tables_number   1
_chemical_formula_structural   Nd2Ta5WO18
_chemical_formula_sum   'Nd2 Ta5 W1 O18'
_cell_volume   344.55412906
_cell_formula_units_Z   1
loop_
 _symmetry_equiv_pos_site_id
 _symmetry_equiv_pos_as_xyz
  1  'x, y, z'
loop_
 _atom_site_type_symbol
 _atom_site_label
 _atom_site_symmetry_multiplicity
 _atom_site_fract_x
 _atom_site_fract_y
 _atom_site_fract_z
 _atom_site_occupancy
  Nd  Nd0  1  0.748082  0.034251  0.565307  1
  Nd  Nd1  1  0.251918  0.965749  0.434693  1
  Ta  Ta2  1  0.492363  0.528776  0.698057  1
  Ta  Ta3  1  0.994270  0.474775  0.302660  1
  Ta  Ta4  1  0.000000  0.000000  0.000000  1
  Ta  Ta5  1  0.005730  0.525225  0.697340  1
  Ta  Ta6  1  0.507637  0.471224  0.301943  1
  W  W7  1  0.500000  0.000000  0.000000  1
  O  O8  1  0.750416  0.438355  0.686953  1
  O  O9  1  0.249584  0.561645  0.313047  1
  O  O10  1  0.746666  0.079769  0.017428  1
  O  O11  1  0.253334  0.920231  0.982572  1
  O  O12  1  0.249062  0.648577  0.661334  1
  O  O13  1  0.750938  0.351423  0.338666  1
  O  O14  1  0.038309  0.265109  0.531866  1
  O  O15  1  0.538131  0.734278  0.468667  1
  O  O16  1  0.559559  0.847368  0.783733  1
  O  O17  1  0.055117  0.156445  0.210244  1
  O  O18  1  0.440441  0.152632  0.216267  1
  O  O19  1  0.944883  0.843555  0.789756  1
  O  O20  1  0.045652  0.315847  0.877058  1
  O  O21  1  0.548241  0.680366  0.125136  1
  O  O22  1  0.954348  0.684153  0.122942  1
  O  O23  1  0.451759  0.319634  0.874864  1
  O  O24  1  0.461869  0.265722  0.531333  1
  O  O25  1  0.961691  0.734891  0.468134  1
