# generated using pymatgen
data_Tm8Zr11Si16Mo
_symmetry_space_group_name_H-M   'P 1'
_cell_length_a   7.05263800
_cell_length_b   7.22463367
_cell_length_c   13.81919300
_cell_angle_alpha   90.13817522
_cell_angle_beta   89.60217974
_cell_angle_gamma   89.77205506
_symmetry_Int_Tables_number   1
_chemical_formula_structural   Tm8Zr11Si16Mo
_chemical_formula_sum   'Tm8 Zr11 Si16 Mo1'
_cell_volume   704.10091418
_cell_formula_units_Z   1
loop_
 _symmetry_equiv_pos_site_id
 _symmetry_equiv_pos_as_xyz
  1  'x, y, z'
loop_
 _atom_site_type_symbol
 _atom_site_label
 _atom_site_symmetry_multiplicity
 _atom_site_fract_x
 _atom_site_fract_y
 _atom_site_fract_z
 _atom_site_occupancy
  Tm  Tm0  1  0.013670  0.176885  0.096691  1
  Tm  Tm1  1  0.988079  0.825043  0.899733  1
  Tm  Tm2  1  0.485129  0.677443  0.899344  1
  Tm  Tm3  1  0.990074  0.825573  0.596029  1
  Tm  Tm4  1  0.514073  0.324030  0.096576  1
  Tm  Tm5  1  0.011035  0.177702  0.402457  1
  Tm  Tm6  1  0.508915  0.322726  0.408441  1
  Tm  Tm7  1  0.488411  0.672172  0.596544  1
  Zr  Zr8  1  0.160486  0.495200  0.745885  1
  Zr  Zr9  1  0.843081  0.502397  0.250900  1
  Zr  Zr10  1  0.342009  0.999572  0.251648  1
  Zr  Zr11  1  0.655786  0.003083  0.747262  1
  Zr  Zr12  1  0.666704  0.827594  0.378823  1
  Zr  Zr13  1  0.168804  0.680361  0.378545  1
  Zr  Zr14  1  0.670708  0.820840  0.124506  1
  Zr  Zr15  1  0.831901  0.321124  0.622442  1
  Zr  Zr16  1  0.328720  0.177721  0.875082  1
  Zr  Zr17  1  0.830389  0.320654  0.873199  1
  Zr  Zr18  1  0.171479  0.677630  0.124781  1
  Si  Si19  1  0.040026  0.116926  0.745872  1
  Si  Si20  1  0.966073  0.885303  0.250972  1
  Si  Si21  1  0.466682  0.616625  0.251979  1
  Si  Si22  1  0.532218  0.378081  0.746322  1
  Si  Si23  1  0.285091  0.874719  0.746429  1
  Si  Si24  1  0.715224  0.130739  0.250991  1
  Si  Si25  1  0.217486  0.371706  0.251055  1
  Si  Si26  1  0.783851  0.626506  0.747329  1
  Si  Si27  1  0.169413  0.457122  0.541117  1
  Si  Si28  1  0.841977  0.530281  0.459855  1
  Si  Si29  1  0.333581  0.971751  0.469620  1
  Si  Si30  1  0.843902  0.531159  0.038129  1
  Si  Si31  1  0.644526  0.032991  0.544927  1
  Si  Si32  1  0.155337  0.470427  0.958932  1
  Si  Si33  1  0.658200  0.030877  0.959757  1
  Si  Si34  1  0.345206  0.968464  0.039704  1
  Mo  Mo35  1  0.331758  0.178570  0.628122  1
