# generated using pymatgen
data_Zr3Hg3Ir2
_symmetry_space_group_name_H-M   'P 1'
_cell_length_a   7.58065400
_cell_length_b   7.58065405
_cell_length_c   3.25356500
_cell_angle_alpha   90.00000000
_cell_angle_beta   90.00000000
_cell_angle_gamma   119.99999978
_symmetry_Int_Tables_number   1
_chemical_formula_structural   Zr3Hg3Ir2
_chemical_formula_sum   'Zr3 Hg3 Ir2'
_cell_volume   161.92111014
_cell_formula_units_Z   1
loop_
 _symmetry_equiv_pos_site_id
 _symmetry_equiv_pos_as_xyz
  1  'x, y, z'
loop_
 _atom_site_type_symbol
 _atom_site_label
 _atom_site_symmetry_multiplicity
 _atom_site_fract_x
 _atom_site_fract_y
 _atom_site_fract_z
 _atom_site_occupancy
  Zr  Zr0  1  0.580170  0.000000  0.499999  1
  Zr  Zr1  1  0.419830  0.419829  0.499999  1
  Zr  Zr2  1  0.000000  0.580171  0.499999  1
  Hg  Hg3  1  0.230118  0.000000  0.000000  1
  Hg  Hg4  1  0.000000  0.230119  0.000000  1
  Hg  Hg5  1  0.769882  0.769882  0.000000  1
  Ir  Ir6  1  0.666666  0.333333  0.000000  1
  Ir  Ir7  1  0.333333  0.666667  0.000000  1
