# generated using pymatgen
data_DyEr3(MgRh)4
_symmetry_space_group_name_H-M   'P 1'
_cell_length_a   4.08606300
_cell_length_b   7.06040682
_cell_length_c   8.52173708
_cell_angle_alpha   90.02761861
_cell_angle_beta   90.00000000
_cell_angle_gamma   90.00000000
_symmetry_Int_Tables_number   1
_chemical_formula_structural   DyEr3(MgRh)4
_chemical_formula_sum   'Dy1 Er3 Mg4 Rh4'
_cell_volume   245.84584037
_cell_formula_units_Z   1
loop_
 _symmetry_equiv_pos_site_id
 _symmetry_equiv_pos_as_xyz
  1  'x, y, z'
loop_
 _atom_site_type_symbol
 _atom_site_label
 _atom_site_symmetry_multiplicity
 _atom_site_fract_x
 _atom_site_fract_y
 _atom_site_fract_z
 _atom_site_occupancy
  Dy  Dy0  1  0.750000  0.963884  0.676560  1
  Er  Er1  1  0.250000  0.536649  0.176050  1
  Er  Er2  1  0.750000  0.464275  0.824407  1
  Er  Er3  1  0.250000  0.035425  0.323234  1
  Mg  Mg4  1  0.250000  0.138899  0.940809  1
  Mg  Mg5  1  0.750000  0.862807  0.060194  1
  Mg  Mg6  1  0.250000  0.636460  0.559349  1
  Mg  Mg7  1  0.750000  0.361762  0.439584  1
  Rh  Rh8  1  0.750000  0.747424  0.369743  1
  Rh  Rh9  1  0.250000  0.252615  0.629218  1
  Rh  Rh10  1  0.750000  0.249275  0.129359  1
  Rh  Rh11  1  0.250000  0.750525  0.871494  1
