# generated using pymatgen
data_Nd2Mg3Cu9P7
_symmetry_space_group_name_H-M   'P 1'
_cell_length_a   9.74047900
_cell_length_b   9.74048076
_cell_length_c   3.89390100
_cell_angle_alpha   90.00000000
_cell_angle_beta   90.00000000
_cell_angle_gamma   119.99999743
_symmetry_Int_Tables_number   1
_chemical_formula_structural   Nd2Mg3Cu9P7
_chemical_formula_sum   'Nd2 Mg3 Cu9 P7'
_cell_volume   319.94568379
_cell_formula_units_Z   1
loop_
 _symmetry_equiv_pos_site_id
 _symmetry_equiv_pos_as_xyz
  1  'x, y, z'
loop_
 _atom_site_type_symbol
 _atom_site_label
 _atom_site_symmetry_multiplicity
 _atom_site_fract_x
 _atom_site_fract_y
 _atom_site_fract_z
 _atom_site_occupancy
  Nd  Nd0  1  0.666667  0.333333  0.000000  1
  Nd  Nd1  1  0.333333  0.666667  0.500000  1
  Mg  Mg2  1  0.104206  0.879265  0.500000  1
  Mg  Mg3  1  0.775059  0.895794  0.500000  1
  Mg  Mg4  1  0.120735  0.224941  0.500000  1
  Cu  Cu5  1  0.051156  0.627010  0.000000  1
  Cu  Cu6  1  0.575854  0.948844  0.000000  1
  Cu  Cu7  1  0.372990  0.424146  0.000000  1
  Cu  Cu8  1  0.284152  0.122023  0.000000  1
  Cu  Cu9  1  0.837871  0.715848  0.000000  1
  Cu  Cu10  1  0.877977  0.162129  0.000000  1
  Cu  Cu11  1  0.431449  0.046243  0.500000  1
  Cu  Cu12  1  0.614794  0.568551  0.500000  1
  Cu  Cu13  1  0.953757  0.385206  0.500000  1
  P  P14  1  0.301513  0.880289  0.000000  1
  P  P15  1  0.578777  0.698487  0.000000  1
  P  P16  1  0.119711  0.421223  0.000000  1
  P  P17  1  0.415483  0.292331  0.500000  1
  P  P18  1  0.876848  0.584517  0.500000  1
  P  P19  1  0.707669  0.123152  0.500000  1
  P  P20  1  0.000000  0.000000  0.000000  1
