# generated using pymatgen
data_Sr3Te2(IO3)2
_symmetry_space_group_name_H-M   'P 1'
_cell_length_a   9.52172556
_cell_length_b   9.52172475
_cell_length_c   11.65823606
_cell_angle_alpha   71.90919659
_cell_angle_beta   71.90919961
_cell_angle_gamma   35.68741755
_symmetry_Int_Tables_number   1
_chemical_formula_structural   Sr3Te2(IO3)2
_chemical_formula_sum   'Sr6 Te4 I4 O12'
_cell_volume   582.86819258
_cell_formula_units_Z   2
loop_
 _symmetry_equiv_pos_site_id
 _symmetry_equiv_pos_as_xyz
  1  'x, y, z'
loop_
 _atom_site_type_symbol
 _atom_site_label
 _atom_site_symmetry_multiplicity
 _atom_site_fract_x
 _atom_site_fract_y
 _atom_site_fract_z
 _atom_site_occupancy
  Sr  Sr0  1  0.247443  0.247443  0.777620  1
  Sr  Sr1  1  0.752557  0.752557  0.222380  1
  Sr  Sr2  1  0.024586  0.024586  0.814923  1
  Sr  Sr3  1  0.975414  0.975414  0.185077  1
  Sr  Sr4  1  0.670396  0.670396  0.606538  1
  Sr  Sr5  1  0.329604  0.329604  0.393462  1
  Te  Te6  1  0.599001  0.599001  0.940758  1
  Te  Te7  1  0.400999  0.400999  0.059242  1
  Te  Te8  1  0.870214  0.870214  0.565022  1
  Te  Te9  1  0.129786  0.129786  0.434978  1
  I  I10  1  0.819997  0.819997  0.897477  1
  I  I11  1  0.180003  0.180003  0.102523  1
  I  I12  1  0.468241  0.468241  0.690947  1
  I  I13  1  0.531759  0.531759  0.309053  1
  O  O14  1  0.861174  0.404090  0.813132  1
  O  O15  1  0.404090  0.861174  0.813132  1
  O  O16  1  0.138826  0.595910  0.186868  1
  O  O17  1  0.595910  0.138826  0.186868  1
  O  O18  1  0.713659  0.286341  0.000000  1
  O  O19  1  0.286341  0.713659  0.000000  1
  O  O20  1  0.890086  0.890086  0.396667  1
  O  O21  1  0.109914  0.109914  0.603333  1
  O  O22  1  0.035878  0.554547  0.597133  1
  O  O23  1  0.554547  0.035878  0.597133  1
  O  O24  1  0.964122  0.445453  0.402867  1
  O  O25  1  0.445453  0.964122  0.402867  1
