# generated using pymatgen
data_Ho6Al24Re3Pt5
_symmetry_space_group_name_H-M   'P 1'
_cell_length_a   8.87152200
_cell_length_b   8.91724826
_cell_length_c   9.58406500
_cell_angle_alpha   90.43403153
_cell_angle_beta   90.00000000
_cell_angle_gamma   119.83052417
_symmetry_Int_Tables_number   1
_chemical_formula_structural   Ho6Al24Re3Pt5
_chemical_formula_sum   'Ho6 Al24 Re3 Pt5'
_cell_volume   657.70622413
_cell_formula_units_Z   1
loop_
 _symmetry_equiv_pos_site_id
 _symmetry_equiv_pos_as_xyz
  1  'x, y, z'
loop_
 _atom_site_type_symbol
 _atom_site_label
 _atom_site_symmetry_multiplicity
 _atom_site_fract_x
 _atom_site_fract_y
 _atom_site_fract_z
 _atom_site_occupancy
  Ho  Ho0  1  0.383613  0.187908  0.247928  1
  Ho  Ho1  1  0.804295  0.187908  0.247928  1
  Ho  Ho2  1  0.809330  0.618662  0.249081  1
  Ho  Ho3  1  0.616387  0.812092  0.752072  1
  Ho  Ho4  1  0.195705  0.812092  0.752072  1
  Ho  Ho5  1  0.190670  0.381338  0.750919  1
  Al  Al6  1  0.435971  0.871942  0.247842  1
  Al  Al7  1  0.126914  0.564048  0.250544  1
  Al  Al8  1  0.437134  0.564048  0.250544  1
  Al  Al9  1  0.564029  0.128058  0.752158  1
  Al  Al10  1  0.873086  0.435952  0.749456  1
  Al  Al11  1  0.562866  0.435952  0.749456  1
  Al  Al12  1  0.161115  0.836469  0.421090  1
  Al  Al13  1  0.161558  0.323118  0.422600  1
  Al  Al14  1  0.675353  0.836469  0.421090  1
  Al  Al15  1  0.838885  0.163531  0.578910  1
  Al  Al16  1  0.838442  0.676882  0.577400  1
  Al  Al17  1  0.324647  0.163531  0.578910  1
  Al  Al18  1  0.832331  0.158059  0.923679  1
  Al  Al19  1  0.837613  0.675225  0.923812  1
  Al  Al20  1  0.325729  0.158059  0.923679  1
  Al  Al21  1  0.167669  0.841941  0.076321  1
  Al  Al22  1  0.162387  0.324775  0.076188  1
  Al  Al23  1  0.674271  0.841941  0.076321  1
  Al  Al24  1  0.333049  0.666099  0.533497  1
  Al  Al25  1  0.666951  0.333901  0.466503  1
  Al  Al26  1  0.664704  0.329407  0.030740  1
  Al  Al27  1  0.335296  0.670593  0.969260  1
  Al  Al28  1  0.998900  0.997801  0.249853  1
  Al  Al29  1  0.001100  0.002199  0.750147  1
  Re  Re30  1  0.000000  0.000000  0.500000  1
  Re  Re31  1  0.000000  0.000000  0.000000  1
  Re  Re32  1  0.500000  0.000000  0.000000  1
  Pt  Pt33  1  0.500000  0.000000  0.500000  1
  Pt  Pt34  1  0.000000  0.500000  0.500000  1
  Pt  Pt35  1  0.500000  0.500000  0.500000  1
  Pt  Pt36  1  0.000000  0.500000  0.000000  1
  Pt  Pt37  1  0.500000  0.500000  0.000000  1
