# generated using pymatgen
data_TaMn4Nb2MoP4
_symmetry_space_group_name_H-M   'P 1'
_cell_length_a   3.56750700
_cell_length_b   6.15697940
_cell_length_c   7.11551012
_cell_angle_alpha   90.98007912
_cell_angle_beta   90.00000000
_cell_angle_gamma   90.00000000
_symmetry_Int_Tables_number   1
_chemical_formula_structural   TaMn4Nb2MoP4
_chemical_formula_sum   'Ta1 Mn4 Nb2 Mo1 P4'
_cell_volume   156.26979204
_cell_formula_units_Z   1
loop_
 _symmetry_equiv_pos_site_id
 _symmetry_equiv_pos_as_xyz
  1  'x, y, z'
loop_
 _atom_site_type_symbol
 _atom_site_label
 _atom_site_symmetry_multiplicity
 _atom_site_fract_x
 _atom_site_fract_y
 _atom_site_fract_z
 _atom_site_occupancy
  Ta  Ta0  1  0.250000  0.027144  0.169891  1
  Mn  Mn1  1  0.750000  0.351806  0.057134  1
  Mn  Mn2  1  0.250000  0.643673  0.940387  1
  Mn  Mn3  1  0.750000  0.860218  0.439044  1
  Mn  Mn4  1  0.250000  0.140694  0.561059  1
  Nb  Nb5  1  0.250000  0.529534  0.324424  1
  Nb  Nb6  1  0.750000  0.473271  0.676671  1
  Mo  Mo7  1  0.750000  0.971900  0.833134  1
  P  P8  1  0.250000  0.775546  0.636043  1
  P  P9  1  0.750000  0.229644  0.368191  1
  P  P10  1  0.250000  0.274812  0.876772  1
  P  P11  1  0.750000  0.721757  0.117250  1
