# generated using pymatgen
data_TbNd2(SiIr)2
_symmetry_space_group_name_H-M   'P 1'
_cell_length_a   5.77336100
_cell_length_b   5.77336138
_cell_length_c   13.33204400
_cell_angle_alpha   90.00000000
_cell_angle_beta   90.00000000
_cell_angle_gamma   138.03794716
_symmetry_Int_Tables_number   1
_chemical_formula_structural   TbNd2(SiIr)2
_chemical_formula_sum   'Tb2 Nd4 Si4 Ir4'
_cell_volume   297.12926378
_cell_formula_units_Z   2
loop_
 _symmetry_equiv_pos_site_id
 _symmetry_equiv_pos_as_xyz
  1  'x, y, z'
loop_
 _atom_site_type_symbol
 _atom_site_label
 _atom_site_symmetry_multiplicity
 _atom_site_fract_x
 _atom_site_fract_y
 _atom_site_fract_z
 _atom_site_occupancy
  Tb  Tb0  1  0.514998  0.485002  0.250000  1
  Tb  Tb1  1  0.485002  0.514998  0.750000  1
  Nd  Nd2  1  0.773307  0.226693  0.603506  1
  Nd  Nd3  1  0.226693  0.773307  0.396494  1
  Nd  Nd4  1  0.773307  0.226693  0.896494  1
  Nd  Nd5  1  0.226693  0.773307  0.103506  1
  Si  Si6  1  0.059511  0.940489  0.589673  1
  Si  Si7  1  0.059511  0.940489  0.910327  1
  Si  Si8  1  0.940489  0.059511  0.410327  1
  Si  Si9  1  0.940489  0.059511  0.089673  1
  Ir  Ir10  1  0.817950  0.182050  0.250000  1
  Ir  Ir11  1  0.182050  0.817950  0.750000  1
  Ir  Ir12  1  0.500000  0.500000  0.000000  1
  Ir  Ir13  1  0.500000  0.500000  0.500000  1
