# generated using pymatgen
data_Tb5In4PdRh
_symmetry_space_group_name_H-M   'P 1'
_cell_length_a   8.16970359
_cell_length_b   18.30260334
_cell_length_c   3.65436800
_cell_angle_alpha   90.00000000
_cell_angle_beta   90.00000000
_cell_angle_gamma   89.95619675
_symmetry_Int_Tables_number   1
_chemical_formula_structural   Tb5In4PdRh
_chemical_formula_sum   'Tb10 In8 Pd2 Rh2'
_cell_volume   546.42595532
_cell_formula_units_Z   2
loop_
 _symmetry_equiv_pos_site_id
 _symmetry_equiv_pos_as_xyz
  1  'x, y, z'
loop_
 _atom_site_type_symbol
 _atom_site_label
 _atom_site_symmetry_multiplicity
 _atom_site_fract_x
 _atom_site_fract_y
 _atom_site_fract_z
 _atom_site_occupancy
  Tb  Tb0  1  0.500000  0.500000  0.000000  1
  Tb  Tb1  1  0.000000  0.000000  0.000000  1
  Tb  Tb2  1  0.733466  0.278643  0.000000  1
  Tb  Tb3  1  0.266534  0.721357  0.000000  1
  Tb  Tb4  1  0.747416  0.779816  0.000000  1
  Tb  Tb5  1  0.252584  0.220184  0.000000  1
  Tb  Tb6  1  0.615738  0.086942  0.000000  1
  Tb  Tb7  1  0.384262  0.913058  0.000000  1
  Tb  Tb8  1  0.882258  0.585047  0.000000  1
  Tb  Tb9  1  0.117742  0.414953  0.000000  1
  In  In10  1  0.708034  0.931530  0.500000  1
  In  In11  1  0.291966  0.068470  0.500000  1
  In  In12  1  0.792298  0.432122  0.500000  1
  In  In13  1  0.207702  0.567878  0.500000  1
  In  In14  1  0.574256  0.649476  0.500000  1
  In  In15  1  0.425744  0.350524  0.500000  1
  In  In16  1  0.925340  0.150484  0.500000  1
  In  In17  1  0.074660  0.849516  0.500000  1
  Pd  Pd18  1  0.979738  0.695949  0.500000  1
  Pd  Pd19  1  0.020262  0.304051  0.500000  1
  Rh  Rh20  1  0.521268  0.195082  0.500000  1
  Rh  Rh21  1  0.478732  0.804918  0.500000  1
