# generated using pymatgen
data_Sm6Zn21Ag2P
_symmetry_space_group_name_H-M   'P 1'
_cell_length_a   9.06393276
_cell_length_b   9.06067071
_cell_length_c   9.06067000
_cell_angle_alpha   60.00079119
_cell_angle_beta   60.01231577
_cell_angle_gamma   60.01231974
_symmetry_Int_Tables_number   1
_chemical_formula_structural   Sm6Zn21Ag2P
_chemical_formula_sum   'Sm6 Zn21 Ag2 P1'
_cell_volume   526.26655238
_cell_formula_units_Z   1
loop_
 _symmetry_equiv_pos_site_id
 _symmetry_equiv_pos_as_xyz
  1  'x, y, z'
loop_
 _atom_site_type_symbol
 _atom_site_label
 _atom_site_symmetry_multiplicity
 _atom_site_fract_x
 _atom_site_fract_y
 _atom_site_fract_z
 _atom_site_occupancy
  Sm  Sm0  1  0.713322  0.286822  0.286822  1
  Sm  Sm1  1  0.713323  0.286823  0.713032  1
  Sm  Sm2  1  0.713323  0.713032  0.286823  1
  Sm  Sm3  1  0.283852  0.715855  0.715855  1
  Sm  Sm4  1  0.283851  0.715852  0.284442  1
  Sm  Sm5  1  0.283851  0.284442  0.715852  1
  Zn  Zn6  1  0.124569  0.621186  0.127120  1
  Zn  Zn7  1  0.124569  0.127120  0.621186  1
  Zn  Zn8  1  0.124579  0.127124  0.127124  1
  Zn  Zn9  1  0.382065  0.872647  0.872647  1
  Zn  Zn10  1  0.871255  0.374255  0.877241  1
  Zn  Zn11  1  0.871255  0.877241  0.374255  1
  Zn  Zn12  1  0.871254  0.877244  0.877244  1
  Zn  Zn13  1  0.497333  0.999463  0.999463  1
  Zn  Zn14  1  0.497335  0.999465  0.503736  1
  Zn  Zn15  1  0.497335  0.503736  0.999465  1
  Zn  Zn16  1  0.998927  0.500572  0.500572  1
  Zn  Zn17  1  0.998926  0.500572  0.999928  1
  Zn  Zn18  1  0.998926  0.999928  0.500572  1
  Zn  Zn19  1  0.014031  0.328657  0.328657  1
  Zn  Zn20  1  0.328741  0.013330  0.328967  1
  Zn  Zn21  1  0.328741  0.328967  0.013330  1
  Zn  Zn22  1  0.328738  0.328961  0.328961  1
  Zn  Zn23  1  0.985901  0.671367  0.671367  1
  Zn  Zn24  1  0.671843  0.985348  0.671401  1
  Zn  Zn25  1  0.671843  0.671401  0.985348  1
  Zn  Zn26  1  0.671847  0.671410  0.671410  1
  Ag  Ag27  1  0.634515  0.121825  0.121825  1
  Ag  Ag28  1  0.016940  0.994358  0.994358  1
  P  P29  1  0.497009  0.500997  0.500997  1
