# generated using pymatgen
data_Dy6PaSn23Os6
_symmetry_space_group_name_H-M   'P 1'
_cell_length_a   9.86284805
_cell_length_b   9.86418582
_cell_length_c   10.14901800
_cell_angle_alpha   90.00000000
_cell_angle_beta   90.36218029
_cell_angle_gamma   120.00449072
_symmetry_Int_Tables_number   1
_chemical_formula_structural   Dy6PaSn23Os6
_chemical_formula_sum   'Dy6 Pa1 Sn23 Os6'
_cell_volume   855.04115130
_cell_formula_units_Z   1
loop_
 _symmetry_equiv_pos_site_id
 _symmetry_equiv_pos_as_xyz
  1  'x, y, z'
loop_
 _atom_site_type_symbol
 _atom_site_label
 _atom_site_symmetry_multiplicity
 _atom_site_fract_x
 _atom_site_fract_y
 _atom_site_fract_z
 _atom_site_occupancy
  Dy  Dy0  1  0.001930  0.000965  0.997043  1
  Dy  Dy1  1  0.484325  0.967189  0.303559  1
  Dy  Dy2  1  0.484325  0.517135  0.303559  1
  Dy  Dy3  1  0.968044  0.484023  0.696742  1
  Dy  Dy4  1  0.514747  0.030051  0.696813  1
  Dy  Dy5  1  0.514747  0.484697  0.696813  1
  Pa  Pa6  1  0.022590  0.511296  0.298627  1
  Sn  Sn7  1  0.997886  0.998942  0.499725  1
  Sn  Sn8  1  0.120528  0.885296  0.277454  1
  Sn  Sn9  1  0.769400  0.884700  0.275594  1
  Sn  Sn10  1  0.120528  0.235233  0.277454  1
  Sn  Sn11  1  0.882556  0.115927  0.723051  1
  Sn  Sn12  1  0.234175  0.117088  0.723323  1
  Sn  Sn13  1  0.882556  0.766629  0.723051  1
  Sn  Sn14  1  0.350989  0.000638  0.999303  1
  Sn  Sn15  1  0.651778  0.649999  0.001252  1
  Sn  Sn16  1  0.001620  0.350138  0.997384  1
  Sn  Sn17  1  0.350989  0.350351  0.999303  1
  Sn  Sn18  1  0.001620  0.651482  0.997384  1
  Sn  Sn19  1  0.651778  0.001779  0.001252  1
  Sn  Sn20  1  0.777567  0.559458  0.465084  1
  Sn  Sn21  1  0.777567  0.218110  0.465084  1
  Sn  Sn22  1  0.438655  0.219328  0.461327  1
  Sn  Sn23  1  0.216952  0.439773  0.538584  1
  Sn  Sn24  1  0.216952  0.777178  0.538584  1
  Sn  Sn25  1  0.561056  0.780527  0.539533  1
  Sn  Sn26  1  0.661483  0.330741  0.174638  1
  Sn  Sn27  1  0.334834  0.667418  0.823433  1
  Sn  Sn28  1  0.665462  0.332730  0.870940  1
  Sn  Sn29  1  0.330404  0.665202  0.128747  1
  Os  Os30  1  0.169557  0.830259  0.798390  1
  Os  Os31  1  0.661235  0.830618  0.800216  1
  Os  Os32  1  0.169557  0.339298  0.798390  1
  Os  Os33  1  0.835565  0.180722  0.203960  1
  Os  Os34  1  0.340475  0.170238  0.200446  1
  Os  Os35  1  0.835565  0.654843  0.203960  1
