# generated using pymatgen
data_CeSmHgRh2
_symmetry_space_group_name_H-M   'P 1'
_cell_length_a   7.72058376
_cell_length_b   7.72058399
_cell_length_c   3.69441400
_cell_angle_alpha   90.00000000
_cell_angle_beta   90.00000000
_cell_angle_gamma   93.54278050
_symmetry_Int_Tables_number   1
_chemical_formula_structural   CeSmHgRh2
_chemical_formula_sum   'Ce2 Sm2 Hg2 Rh4'
_cell_volume   219.79362636
_cell_formula_units_Z   2
loop_
 _symmetry_equiv_pos_site_id
 _symmetry_equiv_pos_as_xyz
  1  'x, y, z'
loop_
 _atom_site_type_symbol
 _atom_site_label
 _atom_site_symmetry_multiplicity
 _atom_site_fract_x
 _atom_site_fract_y
 _atom_site_fract_z
 _atom_site_occupancy
  Ce  Ce0  1  0.668918  0.168918  0.500000  1
  Ce  Ce1  1  0.331082  0.831082  0.500000  1
  Sm  Sm2  1  0.168252  0.331748  0.500000  1
  Sm  Sm3  1  0.831748  0.668252  0.500000  1
  Hg  Hg4  1  0.000000  0.000000  0.000000  1
  Hg  Hg5  1  0.500000  0.500000  0.000000  1
  Rh  Rh6  1  0.143549  0.643549  0.000000  1
  Rh  Rh7  1  0.856451  0.356451  0.000000  1
  Rh  Rh8  1  0.627403  0.872597  0.000000  1
  Rh  Rh9  1  0.372597  0.127403  0.000000  1
