# generated using pymatgen
data_Sc4Al4TcMo3
_symmetry_space_group_name_H-M   'P 1'
_cell_length_a   5.41084013
_cell_length_b   5.39580947
_cell_length_c   8.58472000
_cell_angle_alpha   90.00000000
_cell_angle_beta   90.00000000
_cell_angle_gamma   120.12063996
_symmetry_Int_Tables_number   1
_chemical_formula_structural   Sc4Al4TcMo3
_chemical_formula_sum   'Sc4 Al4 Tc1 Mo3'
_cell_volume   216.79478973
_cell_formula_units_Z   1
loop_
 _symmetry_equiv_pos_site_id
 _symmetry_equiv_pos_as_xyz
  1  'x, y, z'
loop_
 _atom_site_type_symbol
 _atom_site_label
 _atom_site_symmetry_multiplicity
 _atom_site_fract_x
 _atom_site_fract_y
 _atom_site_fract_z
 _atom_site_occupancy
  Sc  Sc0  1  0.331636  0.664632  0.442060  1
  Sc  Sc1  1  0.668542  0.333879  0.557710  1
  Sc  Sc2  1  0.668542  0.333879  0.942290  1
  Sc  Sc3  1  0.331636  0.664632  0.057940  1
  Al  Al4  1  0.840710  0.653593  0.250000  1
  Al  Al5  1  0.335358  0.155309  0.250000  1
  Al  Al6  1  0.184087  0.846065  0.750000  1
  Al  Al7  1  0.194476  0.351639  0.750000  1
  Tc  Tc8  1  0.673030  0.844208  0.750000  1
  Mo  Mo9  1  0.970434  0.998159  0.502937  1
  Mo  Mo10  1  0.970434  0.998159  0.997063  1
  Mo  Mo11  1  0.831119  0.155846  0.250000  1
