# generated using pymatgen
data_Dy3Zr(WN2)4
_symmetry_space_group_name_H-M   'P 1'
_cell_length_a   3.17770500
_cell_length_b   5.69496797
_cell_length_c   10.54057659
_cell_angle_alpha   90.20333339
_cell_angle_beta   90.00000000
_cell_angle_gamma   90.00000000
_symmetry_Int_Tables_number   1
_chemical_formula_structural   Dy3Zr(WN2)4
_chemical_formula_sum   'Dy3 Zr1 W4 N8'
_cell_volume   190.75085639
_cell_formula_units_Z   1
loop_
 _symmetry_equiv_pos_site_id
 _symmetry_equiv_pos_as_xyz
  1  'x, y, z'
loop_
 _atom_site_type_symbol
 _atom_site_label
 _atom_site_symmetry_multiplicity
 _atom_site_fract_x
 _atom_site_fract_y
 _atom_site_fract_z
 _atom_site_occupancy
  Dy  Dy0  1  0.250000  0.081821  0.146931  1
  Dy  Dy1  1  0.750000  0.418393  0.646168  1
  Dy  Dy2  1  0.750000  0.919912  0.853125  1
  Zr  Zr3  1  0.250000  0.582517  0.349901  1
  W  W4  1  0.250000  0.929963  0.593334  1
  W  W5  1  0.250000  0.433100  0.904598  1
  W  W6  1  0.750000  0.064521  0.407743  1
  W  W7  1  0.750000  0.569008  0.095824  1
  N  N8  1  0.250000  0.667201  0.746456  1
  N  N9  1  0.250000  0.163636  0.749166  1
  N  N10  1  0.750000  0.345783  0.258686  1
  N  N11  1  0.750000  0.825520  0.253379  1
  N  N12  1  0.250000  0.268735  0.489231  1
  N  N13  1  0.250000  0.761588  0.008384  1
  N  N14  1  0.750000  0.730711  0.501120  1
  N  N15  1  0.750000  0.237591  0.995954  1
