# generated using pymatgen
data_YbThSi4Tc3
_symmetry_space_group_name_H-M   'P 1'
_cell_length_a   8.13908100
_cell_length_b   5.70148859
_cell_length_c   6.92983537
_cell_angle_alpha   76.27872312
_cell_angle_beta   90.00000000
_cell_angle_gamma   90.00000000
_symmetry_Int_Tables_number   1
_chemical_formula_structural   YbThSi4Tc3
_chemical_formula_sum   'Yb2 Th2 Si8 Tc6'
_cell_volume   312.40067475
_cell_formula_units_Z   2
loop_
 _symmetry_equiv_pos_site_id
 _symmetry_equiv_pos_as_xyz
  1  'x, y, z'
loop_
 _atom_site_type_symbol
 _atom_site_label
 _atom_site_symmetry_multiplicity
 _atom_site_fract_x
 _atom_site_fract_y
 _atom_site_fract_z
 _atom_site_occupancy
  Yb  Yb0  1  0.432468  0.937119  0.748562  1
  Yb  Yb1  1  0.932468  0.562881  0.251438  1
  Th  Th2  1  0.561379  0.067351  0.250019  1
  Th  Th3  1  0.061379  0.432649  0.749981  1
  Si  Si4  1  0.745658  0.209394  0.591143  1
  Si  Si5  1  0.245658  0.290606  0.408857  1
  Si  Si6  1  0.249365  0.775168  0.412608  1
  Si  Si7  1  0.749365  0.724832  0.587392  1
  Si  Si8  1  0.091344  0.884308  0.887616  1
  Si  Si9  1  0.591344  0.615692  0.112384  1
  Si  Si10  1  0.411986  0.397108  0.874008  1
  Si  Si11  1  0.911986  0.102892  0.125992  1
  Tc  Tc12  1  0.500697  0.499539  0.502387  1
  Tc  Tc13  1  0.000697  0.000461  0.497613  1
  Tc  Tc14  1  0.793955  0.885101  0.888043  1
  Tc  Tc15  1  0.293955  0.614899  0.111957  1
  Tc  Tc16  1  0.713148  0.386755  0.884895  1
  Tc  Tc17  1  0.213148  0.113245  0.115105  1
