# generated using pymatgen
data_K2VH2F8
_symmetry_space_group_name_H-M   'P 1'
_cell_length_a   5.93620298
_cell_length_b   6.04278042
_cell_length_c   6.04355968
_cell_angle_alpha   98.29654530
_cell_angle_beta   105.58210011
_cell_angle_gamma   105.58968593
_symmetry_Int_Tables_number   1
_chemical_formula_structural   K2VH2F8
_chemical_formula_sum   'K2 V1 H2 F8'
_cell_volume   195.58745626
_cell_formula_units_Z   1
loop_
 _symmetry_equiv_pos_site_id
 _symmetry_equiv_pos_as_xyz
  1  'x, y, z'
loop_
 _atom_site_type_symbol
 _atom_site_label
 _atom_site_symmetry_multiplicity
 _atom_site_fract_x
 _atom_site_fract_y
 _atom_site_fract_z
 _atom_site_occupancy
  K  K0  1  0.499998  0.732277  0.267739  1
  K  K1  1  0.500000  0.267721  0.732259  1
  V  V2  1  0.000000  0.000000  0.000000  1
  H  H3  1  0.787696  0.324718  0.324721  1
  H  H4  1  0.212304  0.675283  0.675280  1
  F  F5  1  0.798437  0.703337  0.996748  1
  F  F6  1  0.800717  0.141802  0.141784  1
  F  F7  1  0.201619  0.003242  0.296728  1
  F  F8  1  0.737619  0.428999  0.429001  1
  F  F9  1  0.262381  0.571001  0.570999  1
  F  F10  1  0.798381  0.996759  0.703273  1
  F  F11  1  0.199283  0.858197  0.858215  1
  F  F12  1  0.201563  0.296664  0.003253  1
