# generated using pymatgen
data_Er9In(CoHg)4
_symmetry_space_group_name_H-M   'P 1'
_cell_length_a   7.69311689
_cell_length_b   7.69311716
_cell_length_c   15.11162500
_cell_angle_alpha   90.00000000
_cell_angle_beta   90.00000000
_cell_angle_gamma   152.22509859
_symmetry_Int_Tables_number   1
_chemical_formula_structural   Er9In(CoHg)4
_chemical_formula_sum   'Er9 In1 Co4 Hg4'
_cell_volume   416.77429463
_cell_formula_units_Z   1
loop_
 _symmetry_equiv_pos_site_id
 _symmetry_equiv_pos_as_xyz
  1  'x, y, z'
loop_
 _atom_site_type_symbol
 _atom_site_label
 _atom_site_symmetry_multiplicity
 _atom_site_fract_x
 _atom_site_fract_y
 _atom_site_fract_z
 _atom_site_occupancy
  Er  Er0  1  0.749055  0.250945  0.625469  1
  Er  Er1  1  0.966519  0.033481  0.133971  1
  Er  Er2  1  0.038942  0.961058  0.872954  1
  Er  Er3  1  0.392541  0.607459  0.750000  1
  Er  Er4  1  0.966519  0.033481  0.366029  1
  Er  Er5  1  0.038942  0.961058  0.627046  1
  Er  Er6  1  0.247564  0.752436  0.132432  1
  Er  Er7  1  0.247564  0.752436  0.367568  1
  Er  Er8  1  0.749055  0.250945  0.874531  1
  In  In9  1  0.607527  0.392473  0.250000  1
  Co  Co10  1  0.401854  0.598146  0.250000  1
  Co  Co11  1  0.595750  0.404250  0.750000  1
  Co  Co12  1  0.809998  0.190002  0.250000  1
  Co  Co13  1  0.190978  0.809022  0.750000  1
  Hg  Hg14  1  0.607670  0.392330  0.030647  1
  Hg  Hg15  1  0.607670  0.392330  0.469353  1
  Hg  Hg16  1  0.390926  0.609074  0.526241  1
  Hg  Hg17  1  0.390926  0.609074  0.973759  1
