# generated using pymatgen
data_DyEr2Tm5(ReC2)4
_symmetry_space_group_name_H-M   'P 1'
_cell_length_a   5.04953500
_cell_length_b   6.52962065
_cell_length_c   9.76603895
_cell_angle_alpha   89.86324621
_cell_angle_beta   90.00000000
_cell_angle_gamma   90.00000000
_symmetry_Int_Tables_number   1
_chemical_formula_structural   DyEr2Tm5(ReC2)4
_chemical_formula_sum   'Dy1 Er2 Tm5 Re4 C8'
_cell_volume   322.00050504
_cell_formula_units_Z   1
loop_
 _symmetry_equiv_pos_site_id
 _symmetry_equiv_pos_as_xyz
  1  'x, y, z'
loop_
 _atom_site_type_symbol
 _atom_site_label
 _atom_site_symmetry_multiplicity
 _atom_site_fract_x
 _atom_site_fract_y
 _atom_site_fract_z
 _atom_site_occupancy
  Dy  Dy0  1  0.750000  0.534018  0.783511  1
  Er  Er1  1  0.250000  0.465606  0.216861  1
  Er  Er2  1  0.750000  0.034285  0.716727  1
  Tm  Tm3  1  0.250000  0.965620  0.282856  1
  Tm  Tm4  1  0.750000  0.677295  0.441852  1
  Tm  Tm5  1  0.250000  0.823008  0.942361  1
  Tm  Tm6  1  0.750000  0.176920  0.058149  1
  Tm  Tm7  1  0.250000  0.322908  0.557662  1
  Re  Re8  1  0.250000  0.281310  0.868581  1
  Re  Re9  1  0.250000  0.782323  0.631274  1
  Re  Re10  1  0.750000  0.217642  0.368335  1
  Re  Re11  1  0.750000  0.718369  0.131816  1
  C  C12  1  0.250000  0.674568  0.447221  1
  C  C13  1  0.250000  0.549391  0.758811  1
  C  C14  1  0.750000  0.450461  0.240935  1
  C  C15  1  0.750000  0.827525  0.948094  1
  C  C16  1  0.250000  0.049285  0.740919  1
  C  C17  1  0.250000  0.172997  0.052885  1
  C  C18  1  0.750000  0.325933  0.551926  1
  C  C19  1  0.750000  0.950536  0.259226  1
