# generated using pymatgen
data_LiMgTaNb7B20
_symmetry_space_group_name_H-M   'P 1'
_cell_length_a   6.17388747
_cell_length_b   7.02736728
_cell_length_c   7.39950760
_cell_angle_alpha   94.09517375
_cell_angle_beta   102.09006043
_cell_angle_gamma   116.03078474
_symmetry_Int_Tables_number   1
_chemical_formula_structural   LiMgTaNb7B20
_chemical_formula_sum   'Li1 Mg1 Ta1 Nb7 B20'
_cell_volume   277.15498774
_cell_formula_units_Z   1
loop_
 _symmetry_equiv_pos_site_id
 _symmetry_equiv_pos_as_xyz
  1  'x, y, z'
loop_
 _atom_site_type_symbol
 _atom_site_label
 _atom_site_symmetry_multiplicity
 _atom_site_fract_x
 _atom_site_fract_y
 _atom_site_fract_z
 _atom_site_occupancy
  Li  Li0  1  0.999511  0.996275  0.997319  1
  Mg  Mg1  1  0.000489  0.605656  0.803865  1
  Ta  Ta2  1  0.000752  0.203231  0.598907  1
  Nb  Nb3  1  0.499630  0.999885  0.001077  1
  Nb  Nb4  1  0.500869  0.800143  0.399604  1
  Nb  Nb5  1  0.999600  0.395777  0.201936  1
  Nb  Nb6  1  0.502047  0.200717  0.600272  1
  Nb  Nb7  1  0.999518  0.800442  0.398592  1
  Nb  Nb8  1  0.500554  0.600622  0.799659  1
  Nb  Nb9  1  0.496726  0.398209  0.198884  1
  B  B10  1  0.329151  0.229846  0.869167  1
  B  B11  1  0.331439  0.632245  0.065743  1
  B  B12  1  0.164871  0.363894  0.934484  1
  B  B13  1  0.329490  0.032654  0.261230  1
  B  B14  1  0.163893  0.767241  0.130546  1
  B  B15  1  0.835140  0.232300  0.867156  1
  B  B16  1  0.165217  0.164672  0.328877  1
  B  B17  1  0.835713  0.635483  0.064870  1
  B  B18  1  0.333273  0.433029  0.465983  1
  B  B19  1  0.668014  0.367739  0.932316  1
  B  B20  1  0.834391  0.031845  0.262788  1
  B  B21  1  0.669200  0.768842  0.129904  1
  B  B22  1  0.333171  0.833491  0.668177  1
  B  B23  1  0.166254  0.567940  0.535966  1
  B  B24  1  0.666197  0.165335  0.334700  1
  B  B25  1  0.834295  0.434408  0.469579  1
  B  B26  1  0.164056  0.966838  0.735559  1
  B  B27  1  0.836391  0.835396  0.670131  1
  B  B28  1  0.668743  0.568141  0.535926  1
  B  B29  1  0.671407  0.967708  0.736787  1
