# generated using pymatgen
data_Dy2MnNiO6
_symmetry_space_group_name_H-M   'P 1'
_cell_length_a   5.27223694
_cell_length_b   5.59221100
_cell_length_c   7.57017000
_cell_angle_alpha   90.00053849
_cell_angle_beta   89.58967528
_cell_angle_gamma   89.99983651
_symmetry_Int_Tables_number   1
_chemical_formula_structural   Dy2MnNiO6
_chemical_formula_sum   'Dy4 Mn2 Ni2 O12'
_cell_volume   223.18909147
_cell_formula_units_Z   2
loop_
 _symmetry_equiv_pos_site_id
 _symmetry_equiv_pos_as_xyz
  1  'x, y, z'
loop_
 _atom_site_type_symbol
 _atom_site_label
 _atom_site_symmetry_multiplicity
 _atom_site_fract_x
 _atom_site_fract_y
 _atom_site_fract_z
 _atom_site_occupancy
  Dy  Dy0  1  0.480900  0.429294  0.748706  1
  Dy  Dy1  1  0.019098  0.929295  0.751296  1
  Dy  Dy2  1  0.519100  0.570706  0.251294  1
  Dy  Dy3  1  0.980902  0.070705  0.248704  1
  Mn  Mn4  1  0.500000  0.000001  0.000000  1
  Mn  Mn5  1  0.000000  0.500001  0.500001  1
  Ni  Ni6  1  0.500000  0.000000  0.500000  1
  Ni  Ni7  1  0.000000  0.500000  0.000000  1
  O  O8  1  0.202040  0.187946  0.947413  1
  O  O9  1  0.297960  0.687946  0.552588  1
  O  O10  1  0.797960  0.812054  0.052588  1
  O  O11  1  0.702040  0.312054  0.447412  1
  O  O12  1  0.183497  0.207241  0.557611  1
  O  O13  1  0.316502  0.707241  0.942389  1
  O  O14  1  0.816502  0.792759  0.442389  1
  O  O15  1  0.683498  0.292759  0.057611  1
  O  O16  1  0.108243  0.462746  0.257666  1
  O  O17  1  0.391757  0.962747  0.242334  1
  O  O18  1  0.891756  0.537254  0.742333  1
  O  O19  1  0.608243  0.037253  0.757666  1
