# generated using pymatgen
data_DyEr3ReB12Os
_symmetry_space_group_name_H-M   'P 1'
_cell_length_a   3.65050000
_cell_length_b   9.12567683
_cell_length_c   11.50806402
_cell_angle_alpha   90.13265638
_cell_angle_beta   90.00000000
_cell_angle_gamma   90.00000000
_symmetry_Int_Tables_number   1
_chemical_formula_structural   DyEr3ReB12Os
_chemical_formula_sum   'Dy2 Er6 Re2 B24 Os2'
_cell_volume   383.37036919
_cell_formula_units_Z   2
loop_
 _symmetry_equiv_pos_site_id
 _symmetry_equiv_pos_as_xyz
  1  'x, y, z'
loop_
 _atom_site_type_symbol
 _atom_site_label
 _atom_site_symmetry_multiplicity
 _atom_site_fract_x
 _atom_site_fract_y
 _atom_site_fract_z
 _atom_site_occupancy
  Dy  Dy0  1  0.000000  0.320782  0.412461  1
  Dy  Dy1  1  0.000000  0.679218  0.587539  1
  Er  Er2  1  0.000000  0.824536  0.084628  1
  Er  Er3  1  0.000000  0.175464  0.915372  1
  Er  Er4  1  0.000000  0.943349  0.370564  1
  Er  Er5  1  0.000000  0.056651  0.629436  1
  Er  Er6  1  0.000000  0.442676  0.128575  1
  Er  Er7  1  0.000000  0.557324  0.871425  1
  Re  Re8  1  0.000000  0.138334  0.179398  1
  Re  Re9  1  0.000000  0.861666  0.820602  1
  B  B10  1  0.500000  0.553840  0.432941  1
  B  B11  1  0.500000  0.446160  0.567059  1
  B  B12  1  0.500000  0.052979  0.066663  1
  B  B13  1  0.500000  0.947021  0.933337  1
  B  B14  1  0.500000  0.749131  0.418641  1
  B  B15  1  0.500000  0.250869  0.581359  1
  B  B16  1  0.500000  0.249041  0.080697  1
  B  B17  1  0.500000  0.750959  0.919303  1
  B  B18  1  0.500000  0.791120  0.265628  1
  B  B19  1  0.500000  0.208880  0.734372  1
  B  B20  1  0.500000  0.291910  0.234429  1
  B  B21  1  0.500000  0.708090  0.765571  1
  B  B22  1  0.500000  0.630927  0.185698  1
  B  B23  1  0.500000  0.369073  0.814302  1
  B  B24  1  0.500000  0.131043  0.314836  1
  B  B25  1  0.500000  0.868957  0.685164  1
  B  B26  1  0.500000  0.982168  0.212443  1
  B  B27  1  0.500000  0.017832  0.787557  1
  B  B28  1  0.500000  0.482971  0.287710  1
  B  B29  1  0.500000  0.517029  0.712290  1
  B  B30  1  0.500000  0.603051  0.028796  1
  B  B31  1  0.500000  0.396949  0.971204  1
  B  B32  1  0.500000  0.102739  0.471684  1
  B  B33  1  0.500000  0.897261  0.528316  1
  Os  Os34  1  0.000000  0.637918  0.321342  1
  Os  Os35  1  0.000000  0.362082  0.678658  1
