# generated using pymatgen
data_Ba4La4TbNd3Se16
_symmetry_space_group_name_H-M   'P 1'
_cell_length_a   4.38203500
_cell_length_b   12.98110986
_cell_length_c   15.68777913
_cell_angle_alpha   89.83202520
_cell_angle_beta   90.00000000
_cell_angle_gamma   90.00000000
_symmetry_Int_Tables_number   1
_chemical_formula_structural   Ba4La4TbNd3Se16
_chemical_formula_sum   'Ba4 La4 Tb1 Nd3 Se16'
_cell_volume   892.37473759
_cell_formula_units_Z   1
loop_
 _symmetry_equiv_pos_site_id
 _symmetry_equiv_pos_as_xyz
  1  'x, y, z'
loop_
 _atom_site_type_symbol
 _atom_site_label
 _atom_site_symmetry_multiplicity
 _atom_site_fract_x
 _atom_site_fract_y
 _atom_site_fract_z
 _atom_site_occupancy
  Ba  Ba0  1  0.250000  0.754021  0.342701  1
  Ba  Ba1  1  0.250000  0.254548  0.160275  1
  Ba  Ba2  1  0.750000  0.243076  0.655230  1
  Ba  Ba3  1  0.750000  0.745772  0.841476  1
  La  La4  1  0.250000  0.420198  0.392194  1
  La  La5  1  0.250000  0.924783  0.111600  1
  La  La6  1  0.750000  0.576510  0.610243  1
  La  La7  1  0.750000  0.077439  0.890388  1
  Tb  Tb8  1  0.750000  0.075711  0.396239  1
  Nd  Nd9  1  0.250000  0.422761  0.897990  1
  Nd  Nd10  1  0.250000  0.926020  0.599867  1
  Nd  Nd11  1  0.750000  0.576070  0.102905  1
  Se  Se12  1  0.250000  0.213557  0.818522  1
  Se  Se13  1  0.250000  0.715476  0.677869  1
  Se  Se14  1  0.750000  0.786383  0.181008  1
  Se  Se15  1  0.750000  0.281973  0.323310  1
  Se  Se16  1  0.250000  0.133136  0.515206  1
  Se  Se17  1  0.250000  0.632270  0.978664  1
  Se  Se18  1  0.750000  0.871840  0.475183  1
  Se  Se19  1  0.750000  0.366646  0.022202  1
  Se  Se20  1  0.250000  0.514742  0.215908  1
  Se  Se21  1  0.250000  0.019393  0.287923  1
  Se  Se22  1  0.750000  0.484034  0.785725  1
  Se  Se23  1  0.750000  0.984655  0.713388  1
  Se  Se24  1  0.250000  0.419498  0.582238  1
  Se  Se25  1  0.250000  0.920478  0.920559  1
  Se  Se26  1  0.750000  0.578264  0.420017  1
  Se  Se27  1  0.750000  0.080747  0.081169  1
