# generated using pymatgen
data_Tb20Dy(LuTe4)3
_symmetry_space_group_name_H-M   'P 1'
_cell_length_a   4.08995600
_cell_length_b   11.57398015
_cell_length_c   22.18275121
_cell_angle_alpha   89.94892186
_cell_angle_beta   90.00000000
_cell_angle_gamma   90.00000000
_symmetry_Int_Tables_number   1
_chemical_formula_structural   Tb20Dy(LuTe4)3
_chemical_formula_sum   'Tb20 Dy1 Lu3 Te12'
_cell_volume   1050.06601944
_cell_formula_units_Z   1
loop_
 _symmetry_equiv_pos_site_id
 _symmetry_equiv_pos_as_xyz
  1  'x, y, z'
loop_
 _atom_site_type_symbol
 _atom_site_label
 _atom_site_symmetry_multiplicity
 _atom_site_fract_x
 _atom_site_fract_y
 _atom_site_fract_z
 _atom_site_occupancy
  Tb  Tb0  1  0.250000  0.151404  0.392115  1
  Tb  Tb1  1  0.750000  0.848329  0.608067  1
  Tb  Tb2  1  0.750000  0.651383  0.107693  1
  Tb  Tb3  1  0.250000  0.348571  0.892254  1
  Tb  Tb4  1  0.250000  0.455688  0.340227  1
  Tb  Tb5  1  0.750000  0.544083  0.659804  1
  Tb  Tb6  1  0.750000  0.955744  0.159739  1
  Tb  Tb7  1  0.250000  0.044337  0.840272  1
  Tb  Tb8  1  0.250000  0.734683  0.233510  1
  Tb  Tb9  1  0.750000  0.265309  0.766412  1
  Tb  Tb10  1  0.750000  0.234666  0.266388  1
  Tb  Tb11  1  0.250000  0.765217  0.733645  1
  Tb  Tb12  1  0.250000  0.115900  0.034464  1
  Tb  Tb13  1  0.750000  0.884114  0.965547  1
  Tb  Tb14  1  0.750000  0.615453  0.465568  1
  Tb  Tb15  1  0.250000  0.384037  0.534453  1
  Tb  Tb16  1  0.250000  0.414393  0.146381  1
  Tb  Tb17  1  0.750000  0.585575  0.853634  1
  Tb  Tb18  1  0.750000  0.914248  0.353079  1
  Tb  Tb19  1  0.250000  0.085687  0.646374  1
  Dy  Dy20  1  0.250000  0.888836  0.483190  1
  Lu  Lu21  1  0.250000  0.611514  0.982698  1
  Lu  Lu22  1  0.750000  0.388494  0.017302  1
  Lu  Lu23  1  0.750000  0.112776  0.517492  1
  Te  Te24  1  0.250000  0.849775  0.068718  1
  Te  Te25  1  0.750000  0.150209  0.931271  1
  Te  Te26  1  0.750000  0.349973  0.431345  1
  Te  Te27  1  0.250000  0.650021  0.568789  1
  Te  Te28  1  0.250000  0.712223  0.372800  1
  Te  Te29  1  0.750000  0.287374  0.626872  1
  Te  Te30  1  0.750000  0.212623  0.126902  1
  Te  Te31  1  0.250000  0.787418  0.873096  1
  Te  Te32  1  0.250000  0.020570  0.261095  1
  Te  Te33  1  0.750000  0.979361  0.738835  1
  Te  Te34  1  0.750000  0.520564  0.238768  1
  Te  Te35  1  0.250000  0.479450  0.761196  1
