# generated using pymatgen
data_NiIr(Ru2W)2
_symmetry_space_group_name_H-M   'P 1'
_cell_length_a   5.50870500
_cell_length_b   5.45896941
_cell_length_c   4.35900300
_cell_angle_alpha   90.00000000
_cell_angle_beta   90.00000000
_cell_angle_gamma   120.30184940
_symmetry_Int_Tables_number   1
_chemical_formula_structural   NiIr(Ru2W)2
_chemical_formula_sum   'Ni1 Ir1 Ru4 W2'
_cell_volume   113.17459763
_cell_formula_units_Z   1
loop_
 _symmetry_equiv_pos_site_id
 _symmetry_equiv_pos_as_xyz
  1  'x, y, z'
loop_
 _atom_site_type_symbol
 _atom_site_label
 _atom_site_symmetry_multiplicity
 _atom_site_fract_x
 _atom_site_fract_y
 _atom_site_fract_z
 _atom_site_occupancy
  Ni  Ni0  1  0.165762  0.331526  0.250000  1
  Ir  Ir1  1  0.834684  0.669369  0.750000  1
  Ru  Ru2  1  0.665509  0.835008  0.250000  1
  Ru  Ru3  1  0.169500  0.835008  0.250000  1
  Ru  Ru4  1  0.326321  0.169018  0.750000  1
  Ru  Ru5  1  0.842698  0.169018  0.750000  1
  W  W6  1  0.331593  0.663185  0.750000  1
  W  W7  1  0.663934  0.327866  0.250000  1
