# generated using pymatgen
data_Rb2Mn(WO4)3
_symmetry_space_group_name_H-M   'P 1'
_cell_length_a   7.21164849
_cell_length_b   7.21164859
_cell_length_c   7.21164878
_cell_angle_alpha   61.36799793
_cell_angle_beta   61.36799263
_cell_angle_gamma   61.36800193
_symmetry_Int_Tables_number   1
_chemical_formula_structural   Rb2Mn(WO4)3
_chemical_formula_sum   'Rb2 Mn1 W3 O12'
_cell_volume   273.36081355
_cell_formula_units_Z   1
loop_
 _symmetry_equiv_pos_site_id
 _symmetry_equiv_pos_as_xyz
  1  'x, y, z'
loop_
 _atom_site_type_symbol
 _atom_site_label
 _atom_site_symmetry_multiplicity
 _atom_site_fract_x
 _atom_site_fract_y
 _atom_site_fract_z
 _atom_site_occupancy
  Rb  Rb0  1  0.633203  0.633203  0.633203  1
  Rb  Rb1  1  0.366797  0.366797  0.366797  1
  Mn  Mn2  1  0.000000  0.000000  0.000000  1
  W  W3  1  0.500000  0.000000  0.000000  1
  W  W4  1  0.000000  0.000000  0.500000  1
  W  W5  1  0.000000  0.500000  0.000000  1
  O  O6  1  0.941877  0.315814  0.315814  1
  O  O7  1  0.308362  0.939853  0.939853  1
  O  O8  1  0.315814  0.315814  0.941877  1
  O  O9  1  0.939853  0.939853  0.308362  1
  O  O10  1  0.939853  0.308362  0.939853  1
  O  O11  1  0.315814  0.941877  0.315814  1
  O  O12  1  0.058123  0.684186  0.684186  1
  O  O13  1  0.691638  0.060147  0.060147  1
  O  O14  1  0.684186  0.684186  0.058123  1
  O  O15  1  0.060147  0.060147  0.691638  1
  O  O16  1  0.060147  0.691638  0.060147  1
  O  O17  1  0.684186  0.058123  0.684186  1
