# generated using pymatgen
data_Ho3Tm(MgPt)4
_symmetry_space_group_name_H-M   'P 1'
_cell_length_a   4.16351300
_cell_length_b   7.11844477
_cell_length_c   8.63597900
_cell_angle_alpha   89.70590734
_cell_angle_beta   90.00000000
_cell_angle_gamma   90.00000000
_symmetry_Int_Tables_number   1
_chemical_formula_structural   Ho3Tm(MgPt)4
_chemical_formula_sum   'Ho3 Tm1 Mg4 Pt4'
_cell_volume   255.94750568
_cell_formula_units_Z   1
loop_
 _symmetry_equiv_pos_site_id
 _symmetry_equiv_pos_as_xyz
  1  'x, y, z'
loop_
 _atom_site_type_symbol
 _atom_site_label
 _atom_site_symmetry_multiplicity
 _atom_site_fract_x
 _atom_site_fract_y
 _atom_site_fract_z
 _atom_site_occupancy
  Ho  Ho0  1  0.250000  0.538418  0.174798  1
  Ho  Ho1  1  0.750000  0.961306  0.674244  1
  Ho  Ho2  1  0.750000  0.460769  0.825590  1
  Tm  Tm3  1  0.250000  0.039856  0.325920  1
  Mg  Mg4  1  0.250000  0.134718  0.940003  1
  Mg  Mg5  1  0.250000  0.635646  0.559750  1
  Mg  Mg6  1  0.750000  0.865289  0.060716  1
  Mg  Mg7  1  0.750000  0.364711  0.439239  1
  Pt  Pt8  1  0.250000  0.245760  0.625882  1
  Pt  Pt9  1  0.250000  0.745575  0.872815  1
  Pt  Pt10  1  0.750000  0.756131  0.372705  1
  Pt  Pt11  1  0.750000  0.251819  0.128338  1
