# generated using pymatgen
data_Yb6PrY(Si3Pd)4
_symmetry_space_group_name_H-M   'P 1'
_cell_length_a   8.25384300
_cell_length_b   8.25384350
_cell_length_c   8.25383700
_cell_angle_alpha   90.00000000
_cell_angle_beta   90.00000000
_cell_angle_gamma   120.00000202
_symmetry_Int_Tables_number   1
_chemical_formula_structural   Yb6PrY(Si3Pd)4
_chemical_formula_sum   'Yb6 Pr1 Y1 Si12 Pd4'
_cell_volume   486.96634146
_cell_formula_units_Z   1
loop_
 _symmetry_equiv_pos_site_id
 _symmetry_equiv_pos_as_xyz
  1  'x, y, z'
loop_
 _atom_site_type_symbol
 _atom_site_label
 _atom_site_symmetry_multiplicity
 _atom_site_fract_x
 _atom_site_fract_y
 _atom_site_fract_z
 _atom_site_occupancy
  Yb  Yb0  1  0.499485  0.500515  0.750000  1
  Yb  Yb1  1  0.500512  0.499488  0.250000  1
  Yb  Yb2  1  0.001030  0.500515  0.750000  1
  Yb  Yb3  1  0.998975  0.499488  0.250000  1
  Yb  Yb4  1  0.499485  0.998970  0.750000  1
  Yb  Yb5  1  0.500512  0.001025  0.250000  1
  Pr  Pr6  1  0.000000  0.000000  0.250000  1
  Y  Y7  1  0.000000  0.000000  0.750000  1
  Si  Si8  1  0.835030  0.164970  0.995978  1
  Si  Si9  1  0.164965  0.835035  0.996413  1
  Si  Si10  1  0.329940  0.164970  0.995978  1
  Si  Si11  1  0.164965  0.835035  0.503587  1
  Si  Si12  1  0.670071  0.835035  0.996413  1
  Si  Si13  1  0.835030  0.164970  0.504022  1
  Si  Si14  1  0.835030  0.670060  0.995978  1
  Si  Si15  1  0.670071  0.835035  0.503587  1
  Si  Si16  1  0.164965  0.329929  0.996413  1
  Si  Si17  1  0.329940  0.164970  0.504022  1
  Si  Si18  1  0.164965  0.329929  0.503587  1
  Si  Si19  1  0.835030  0.670060  0.504022  1
  Pd  Pd20  1  0.666667  0.333333  0.998374  1
  Pd  Pd21  1  0.333333  0.666667  0.000615  1
  Pd  Pd22  1  0.333333  0.666667  0.499385  1
  Pd  Pd23  1  0.666667  0.333333  0.501626  1
