# generated using pymatgen
data_ThTa2(MoC2)2
_symmetry_space_group_name_H-M   'P 1'
_cell_length_a   6.40825641
_cell_length_b   6.40825627
_cell_length_c   6.19043535
_cell_angle_alpha   93.09883819
_cell_angle_beta   94.70372877
_cell_angle_gamma   150.29206858
_symmetry_Int_Tables_number   1
_chemical_formula_structural   ThTa2(MoC2)2
_chemical_formula_sum   'Th1 Ta2 Mo2 C4'
_cell_volume   121.45271102
_cell_formula_units_Z   1
loop_
 _symmetry_equiv_pos_site_id
 _symmetry_equiv_pos_as_xyz
  1  'x, y, z'
loop_
 _atom_site_type_symbol
 _atom_site_label
 _atom_site_symmetry_multiplicity
 _atom_site_fract_x
 _atom_site_fract_y
 _atom_site_fract_z
 _atom_site_occupancy
  Th  Th0  1  0.000000  0.000000  0.000000  1
  Ta  Ta1  1  0.833106  0.375041  0.208147  1
  Ta  Ta2  1  0.166894  0.624959  0.791853  1
  Mo  Mo3  1  0.633596  0.818232  0.451827  1
  Mo  Mo4  1  0.366404  0.181768  0.548173  1
  C  C5  1  0.272096  0.400582  0.672678  1
  C  C6  1  0.727904  0.599418  0.327322  1
  C  C7  1  0.399669  0.726931  0.126601  1
  C  C8  1  0.600331  0.273069  0.873399  1
