# generated using pymatgen
data_Y4Er4Si8Pd5Pt3
_symmetry_space_group_name_H-M   'P 1'
_cell_length_a   4.26688700
_cell_length_b   7.53138712
_cell_length_c   13.96903000
_cell_angle_alpha   90.01056452
_cell_angle_beta   90.00000000
_cell_angle_gamma   90.00000000
_symmetry_Int_Tables_number   1
_chemical_formula_structural   Y4Er4Si8Pd5Pt3
_chemical_formula_sum   'Y4 Er4 Si8 Pd5 Pt3'
_cell_volume   448.90284259
_cell_formula_units_Z   1
loop_
 _symmetry_equiv_pos_site_id
 _symmetry_equiv_pos_as_xyz
  1  'x, y, z'
loop_
 _atom_site_type_symbol
 _atom_site_label
 _atom_site_symmetry_multiplicity
 _atom_site_fract_x
 _atom_site_fract_y
 _atom_site_fract_z
 _atom_site_occupancy
  Y  Y0  1  0.000000  0.303213  0.000056  1
  Y  Y1  1  0.500000  0.698050  0.500260  1
  Y  Y2  1  0.000000  0.291415  0.499902  1
  Y  Y3  1  0.500000  0.709064  0.999938  1
  Er  Er4  1  0.000000  0.203323  0.250568  1
  Er  Er5  1  0.500000  0.795715  0.249810  1
  Er  Er6  1  0.000000  0.202876  0.749543  1
  Er  Er7  1  0.500000  0.796755  0.750600  1
  Si  Si8  1  0.000000  0.905616  0.592947  1
  Si  Si9  1  0.500000  0.094106  0.908404  1
  Si  Si10  1  0.000000  0.905092  0.406569  1
  Si  Si11  1  0.500000  0.097100  0.094045  1
  Si  Si12  1  0.000000  0.596943  0.144281  1
  Si  Si13  1  0.500000  0.401792  0.356468  1
  Si  Si14  1  0.000000  0.598206  0.856313  1
  Si  Si15  1  0.500000  0.401443  0.643397  1
  Pd  Pd16  1  0.000000  0.927016  0.107903  1
  Pd  Pd17  1  0.500000  0.422886  0.161128  1
  Pd  Pd18  1  0.000000  0.577581  0.338220  1
  Pd  Pd19  1  0.500000  0.422597  0.838869  1
  Pd  Pd20  1  0.000000  0.577148  0.661696  1
  Pt  Pt21  1  0.500000  0.072284  0.609777  1
  Pt  Pt22  1  0.000000  0.927675  0.889623  1
  Pt  Pt23  1  0.500000  0.072102  0.389686  1
