# generated using pymatgen
data_Nd5Zr3(Co4P3)4
_symmetry_space_group_name_H-M   'P 1'
_cell_length_a   12.45923900
_cell_length_b   12.45923796
_cell_length_c   3.77359000
_cell_angle_alpha   90.00000000
_cell_angle_beta   90.00000000
_cell_angle_gamma   120.00000541
_symmetry_Int_Tables_number   1
_chemical_formula_structural   Nd5Zr3(Co4P3)4
_chemical_formula_sum   'Nd5 Zr3 Co16 P12'
_cell_volume   507.30403640
_cell_formula_units_Z   1
loop_
 _symmetry_equiv_pos_site_id
 _symmetry_equiv_pos_as_xyz
  1  'x, y, z'
loop_
 _atom_site_type_symbol
 _atom_site_label
 _atom_site_symmetry_multiplicity
 _atom_site_fract_x
 _atom_site_fract_y
 _atom_site_fract_z
 _atom_site_occupancy
  Nd  Nd0  1  0.182950  0.182950  0.500000  1
  Nd  Nd1  1  0.817050  0.000000  0.500000  1
  Nd  Nd2  1  0.000000  0.817050  0.500000  1
  Nd  Nd3  1  0.333333  0.666667  0.000000  1
  Nd  Nd4  1  0.666667  0.333333  0.000000  1
  Zr  Zr5  1  0.560839  0.560839  0.000000  1
  Zr  Zr6  1  0.439161  0.000000  0.000000  1
  Zr  Zr7  1  0.000000  0.439161  0.000000  1
  Co  Co8  1  0.721294  0.721294  0.500000  1
  Co  Co9  1  0.278706  0.000000  0.500000  1
  Co  Co10  1  0.000000  0.278706  0.500000  1
  Co  Co11  1  0.178560  0.374012  0.000000  1
  Co  Co12  1  0.625988  0.804548  0.000000  1
  Co  Co13  1  0.195452  0.821440  0.000000  1
  Co  Co14  1  0.804548  0.625988  0.000000  1
  Co  Co15  1  0.821440  0.195452  0.000000  1
  Co  Co16  1  0.374012  0.178560  0.000000  1
  Co  Co17  1  0.355234  0.477755  0.500000  1
  Co  Co18  1  0.522245  0.877479  0.500000  1
  Co  Co19  1  0.122521  0.644766  0.500000  1
  Co  Co20  1  0.877479  0.522245  0.500000  1
  Co  Co21  1  0.644766  0.122521  0.500000  1
  Co  Co22  1  0.477755  0.355234  0.500000  1
  Co  Co23  1  0.000000  0.000000  0.000000  1
  P  P24  1  0.818926  0.818926  0.000000  1
  P  P25  1  0.181074  0.000000  0.000000  1
  P  P26  1  0.000000  0.181074  0.000000  1
  P  P27  1  0.170374  0.474122  0.500000  1
  P  P28  1  0.525878  0.696252  0.500000  1
  P  P29  1  0.303748  0.829626  0.500000  1
  P  P30  1  0.696252  0.525878  0.500000  1
  P  P31  1  0.829626  0.303748  0.500000  1
  P  P32  1  0.474122  0.170374  0.500000  1
  P  P33  1  0.355374  0.355374  0.000000  1
  P  P34  1  0.644626  0.000000  0.000000  1
  P  P35  1  0.000000  0.644626  0.000000  1
