# generated using pymatgen
data_CrPd8
_symmetry_space_group_name_H-M   'P 1'
_cell_length_a   6.22185461
_cell_length_b   6.22185411
_cell_length_c   6.22184141
_cell_angle_alpha   95.72883088
_cell_angle_beta   95.72921153
_cell_angle_gamma   143.16381219
_symmetry_Int_Tables_number   1
_chemical_formula_structural   CrPd8
_chemical_formula_sum   'Cr1 Pd8'
_cell_volume   137.00382877
_cell_formula_units_Z   1
loop_
 _symmetry_equiv_pos_site_id
 _symmetry_equiv_pos_as_xyz
  1  'x, y, z'
loop_
 _atom_site_type_symbol
 _atom_site_label
 _atom_site_symmetry_multiplicity
 _atom_site_fract_x
 _atom_site_fract_y
 _atom_site_fract_z
 _atom_site_occupancy
  Cr  Cr0  1  0.000000  0.000000  0.000000  1
  Pd  Pd1  1  0.663996  0.336001  0.999998  1
  Pd  Pd2  1  0.336003  0.663998  0.000002  1
  Pd  Pd3  1  0.329869  0.999983  0.329852  1
  Pd  Pd4  1  0.999983  0.329867  0.329849  1
  Pd  Pd5  1  0.663983  0.663985  0.327969  1
  Pd  Pd6  1  0.336016  0.336014  0.672031  1
  Pd  Pd7  1  0.670131  0.000017  0.670148  1
  Pd  Pd8  1  0.000017  0.670133  0.670151  1
