# generated using pymatgen
data_Zr8Ga3Si13Mo12
_symmetry_space_group_name_H-M   'P 1'
_cell_length_a   6.65706712
_cell_length_b   6.77185221
_cell_length_c   12.80986397
_cell_angle_alpha   90.08729633
_cell_angle_beta   89.97784485
_cell_angle_gamma   90.28545504
_symmetry_Int_Tables_number   1
_chemical_formula_structural   Zr8Ga3Si13Mo12
_chemical_formula_sum   'Zr8 Ga3 Si13 Mo12'
_cell_volume   577.46943216
_cell_formula_units_Z   1
loop_
 _symmetry_equiv_pos_site_id
 _symmetry_equiv_pos_as_xyz
  1  'x, y, z'
loop_
 _atom_site_type_symbol
 _atom_site_label
 _atom_site_symmetry_multiplicity
 _atom_site_fract_x
 _atom_site_fract_y
 _atom_site_fract_z
 _atom_site_occupancy
  Zr  Zr0  1  0.995849  0.174748  0.091016  1
  Zr  Zr1  1  0.004196  0.827115  0.908770  1
  Zr  Zr2  1  0.502728  0.669442  0.908378  1
  Zr  Zr3  1  0.005638  0.829636  0.591183  1
  Zr  Zr4  1  0.496833  0.330628  0.091851  1
  Zr  Zr5  1  0.992182  0.170698  0.407601  1
  Zr  Zr6  1  0.499111  0.329778  0.406310  1
  Zr  Zr7  1  0.508385  0.671310  0.592625  1
  Ga  Ga8  1  0.032105  0.126384  0.749492  1
  Ga  Ga9  1  0.966441  0.877239  0.247896  1
  Ga  Ga10  1  0.171632  0.455517  0.544305  1
  Si  Si11  1  0.465660  0.624956  0.249689  1
  Si  Si12  1  0.531384  0.375731  0.750665  1
  Si  Si13  1  0.301386  0.860230  0.750646  1
  Si  Si14  1  0.697942  0.137890  0.248745  1
  Si  Si15  1  0.198253  0.358916  0.250637  1
  Si  Si16  1  0.803146  0.641151  0.750117  1
  Si  Si17  1  0.835438  0.544742  0.455599  1
  Si  Si18  1  0.331017  0.958801  0.457569  1
  Si  Si19  1  0.834926  0.544696  0.044040  1
  Si  Si20  1  0.669414  0.041091  0.542719  1
  Si  Si21  1  0.165391  0.454856  0.956284  1
  Si  Si22  1  0.668766  0.041158  0.957039  1
  Si  Si23  1  0.329924  0.958338  0.043446  1
  Mo  Mo24  1  0.166849  0.509048  0.753044  1
  Mo  Mo25  1  0.832435  0.490854  0.249927  1
  Mo  Mo26  1  0.337876  0.008356  0.249888  1
  Mo  Mo27  1  0.662781  0.990822  0.750962  1
  Mo  Mo28  1  0.344097  0.156885  0.625297  1
  Mo  Mo29  1  0.660473  0.835976  0.376971  1
  Mo  Mo30  1  0.170359  0.664254  0.373702  1
  Mo  Mo31  1  0.658148  0.834721  0.121697  1
  Mo  Mo32  1  0.820510  0.341868  0.623264  1
  Mo  Mo33  1  0.339770  0.163575  0.878713  1
  Mo  Mo34  1  0.826245  0.342196  0.877980  1
  Mo  Mo35  1  0.172712  0.656390  0.121934  1
