# generated using pymatgen
data_BaPaI6
_symmetry_space_group_name_H-M   'P 1'
_cell_length_a   8.46928047
_cell_length_b   8.46928121
_cell_length_c   15.35745261
_cell_angle_alpha   84.28946282
_cell_angle_beta   84.28946478
_cell_angle_gamma   120.34984284
_symmetry_Int_Tables_number   1
_chemical_formula_structural   BaPaI6
_chemical_formula_sum   'Ba2 Pa2 I12'
_cell_volume   931.38848745
_cell_formula_units_Z   2
loop_
 _symmetry_equiv_pos_site_id
 _symmetry_equiv_pos_as_xyz
  1  'x, y, z'
loop_
 _atom_site_type_symbol
 _atom_site_label
 _atom_site_symmetry_multiplicity
 _atom_site_fract_x
 _atom_site_fract_y
 _atom_site_fract_z
 _atom_site_occupancy
  Ba  Ba0  1  0.171008  0.335711  0.996487  1
  Ba  Ba1  1  0.335711  0.171008  0.496487  1
  Pa  Pa2  1  0.666789  0.840333  0.499381  1
  Pa  Pa3  1  0.840333  0.666789  0.999381  1
  I  I4  1  0.590994  0.713668  0.882354  1
  I  I5  1  0.713668  0.590994  0.382354  1
  I  I6  1  0.888744  0.425827  0.876654  1
  I  I7  1  0.609085  0.077646  0.621057  1
  I  I8  1  0.425827  0.888744  0.376654  1
  I  I9  1  0.003800  0.188283  0.386218  1
  I  I10  1  0.188283  0.003800  0.886218  1
  I  I11  1  0.919013  0.802037  0.617096  1
  I  I12  1  0.077646  0.609085  0.121057  1
  I  I13  1  0.497577  0.329483  0.115353  1
  I  I14  1  0.329483  0.497577  0.615353  1
  I  I15  1  0.802037  0.919013  0.117096  1
