# generated using pymatgen
data_Ta8Tc3Mo4Ir
_symmetry_space_group_name_H-M   'P 1'
_cell_length_a   6.43890501
_cell_length_b   6.43856801
_cell_length_c   6.39965300
_cell_angle_alpha   89.99745615
_cell_angle_beta   90.00018736
_cell_angle_gamma   89.99546171
_symmetry_Int_Tables_number   1
_chemical_formula_structural   Ta8Tc3Mo4Ir
_chemical_formula_sum   'Ta8 Tc3 Mo4 Ir1'
_cell_volume   265.31251096
_cell_formula_units_Z   1
loop_
 _symmetry_equiv_pos_site_id
 _symmetry_equiv_pos_as_xyz
  1  'x, y, z'
loop_
 _atom_site_type_symbol
 _atom_site_label
 _atom_site_symmetry_multiplicity
 _atom_site_fract_x
 _atom_site_fract_y
 _atom_site_fract_z
 _atom_site_occupancy
  Ta  Ta0  1  0.001871  0.501972  0.251765  1
  Ta  Ta1  1  0.001856  0.998048  0.251763  1
  Ta  Ta2  1  0.497952  0.501945  0.251772  1
  Ta  Ta3  1  0.497941  0.998032  0.251773  1
  Ta  Ta4  1  0.498132  0.501969  0.748223  1
  Ta  Ta5  1  0.498138  0.998047  0.748222  1
  Ta  Ta6  1  0.002053  0.501946  0.748239  1
  Ta  Ta7  1  0.002063  0.998035  0.748241  1
  Tc  Tc8  1  0.250017  0.749999  0.999999  1
  Tc  Tc9  1  0.249984  0.749999  0.499995  1
  Tc  Tc10  1  0.750017  0.249999  0.500005  1
  Mo  Mo11  1  0.249996  0.249999  0.999998  1
  Mo  Mo12  1  0.750004  0.749999  0.000002  1
  Mo  Mo13  1  0.250006  0.249999  0.499995  1
  Mo  Mo14  1  0.749994  0.750000  0.500005  1
  Ir  Ir15  1  0.749980  0.249999  0.000001  1
