# generated using pymatgen
data_Zr3BeGeAsOs3
_symmetry_space_group_name_H-M   'P 1'
_cell_length_a   6.78216200
_cell_length_b   6.78216236
_cell_length_c   3.60804600
_cell_angle_alpha   90.00000000
_cell_angle_beta   90.00000000
_cell_angle_gamma   119.99999825
_symmetry_Int_Tables_number   1
_chemical_formula_structural   Zr3BeGeAsOs3
_chemical_formula_sum   'Zr3 Be1 Ge1 As1 Os3'
_cell_volume   143.72722702
_cell_formula_units_Z   1
loop_
 _symmetry_equiv_pos_site_id
 _symmetry_equiv_pos_as_xyz
  1  'x, y, z'
loop_
 _atom_site_type_symbol
 _atom_site_label
 _atom_site_symmetry_multiplicity
 _atom_site_fract_x
 _atom_site_fract_y
 _atom_site_fract_z
 _atom_site_occupancy
  Zr  Zr0  1  0.395315  0.396922  0.500000  1
  Zr  Zr1  1  0.603078  0.998393  0.500000  1
  Zr  Zr2  1  0.001607  0.604685  0.500000  1
  Be  Be3  1  0.000000  0.000000  0.500000  1
  Ge  Ge4  1  0.333333  0.666667  0.000000  1
  As  As5  1  0.666667  0.333333  0.000000  1
  Os  Os6  1  0.764833  0.765254  0.000000  1
  Os  Os7  1  0.234746  0.999580  0.000000  1
  Os  Os8  1  0.000420  0.235167  0.000000  1
