# generated using pymatgen
data_Er16Hf4(Ir3Rh)3
_symmetry_space_group_name_H-M   'P 1'
_cell_length_a   10.75165200
_cell_length_b   10.75165200
_cell_length_c   6.21922300
_cell_angle_alpha   90.00000000
_cell_angle_beta   90.00000000
_cell_angle_gamma   90.00000000
_symmetry_Int_Tables_number   1
_chemical_formula_structural   Er16Hf4(Ir3Rh)3
_chemical_formula_sum   'Er16 Hf4 Ir9 Rh3'
_cell_volume   718.92986927
_cell_formula_units_Z   1
loop_
 _symmetry_equiv_pos_site_id
 _symmetry_equiv_pos_as_xyz
  1  'x, y, z'
loop_
 _atom_site_type_symbol
 _atom_site_label
 _atom_site_symmetry_multiplicity
 _atom_site_fract_x
 _atom_site_fract_y
 _atom_site_fract_z
 _atom_site_occupancy
  Er  Er0  1  0.288913  0.086453  0.374704  1
  Er  Er1  1  0.288954  0.913364  0.874674  1
  Er  Er2  1  0.711046  0.086636  0.874674  1
  Er  Er3  1  0.711087  0.913547  0.374704  1
  Er  Er4  1  0.586636  0.788954  0.874674  1
  Er  Er5  1  0.586453  0.211087  0.374704  1
  Er  Er6  1  0.413547  0.788913  0.374704  1
  Er  Er7  1  0.413364  0.211046  0.874674  1
  Er  Er8  1  0.210640  0.413531  0.624593  1
  Er  Er9  1  0.210909  0.586609  0.126062  1
  Er  Er10  1  0.789091  0.413391  0.126062  1
  Er  Er11  1  0.789360  0.586469  0.624593  1
  Er  Er12  1  0.913391  0.710909  0.126062  1
  Er  Er13  1  0.913531  0.289360  0.624593  1
  Er  Er14  1  0.086469  0.710640  0.624593  1
  Er  Er15  1  0.086609  0.289091  0.126062  1
  Hf  Hf16  1  0.000000  0.000000  0.500083  1
  Hf  Hf17  1  0.000000  0.000000  0.999910  1
  Hf  Hf18  1  0.500000  0.500000  0.999910  1
  Hf  Hf19  1  0.500000  0.500000  0.500083  1
  Ir  Ir20  1  0.854891  0.144385  0.249764  1
  Ir  Ir21  1  0.854946  0.855439  0.749967  1
  Ir  Ir22  1  0.145054  0.144561  0.749967  1
  Ir  Ir23  1  0.145109  0.855615  0.249764  1
  Ir  Ir24  1  0.644561  0.354946  0.749967  1
  Ir  Ir25  1  0.644385  0.645109  0.249764  1
  Ir  Ir26  1  0.355615  0.354891  0.249764  1
  Ir  Ir27  1  0.355439  0.645054  0.749967  1
  Ir  Ir28  1  0.000000  0.500000  0.378155  1
  Rh  Rh29  1  0.500000  0.000000  0.122040  1
  Rh  Rh30  1  0.500000  0.000000  0.621913  1
  Rh  Rh31  1  0.000000  0.500000  0.878845  1
