# generated using pymatgen
data_Tb4HoEr2FeI12
_symmetry_space_group_name_H-M   'P 1'
_cell_length_a   9.70666792
_cell_length_b   9.75698594
_cell_length_c   9.77574365
_cell_angle_alpha   107.03350533
_cell_angle_beta   107.15169593
_cell_angle_gamma   106.83618895
_symmetry_Int_Tables_number   1
_chemical_formula_structural   Tb4HoEr2FeI12
_chemical_formula_sum   'Tb4 Ho1 Er2 Fe1 I12'
_cell_volume   770.89327513
_cell_formula_units_Z   1
loop_
 _symmetry_equiv_pos_site_id
 _symmetry_equiv_pos_as_xyz
  1  'x, y, z'
loop_
 _atom_site_type_symbol
 _atom_site_label
 _atom_site_symmetry_multiplicity
 _atom_site_fract_x
 _atom_site_fract_y
 _atom_site_fract_z
 _atom_site_occupancy
  Tb  Tb0  1  0.280599  0.021761  0.090338  1
  Tb  Tb1  1  0.906292  0.706123  0.977427  1
  Tb  Tb2  1  0.978376  0.906716  0.706374  1
  Tb  Tb3  1  0.719780  0.978964  0.910730  1
  Ho  Ho4  1  0.021964  0.093943  0.290667  1
  Er  Er5  1  0.499941  0.500386  0.500110  1
  Er  Er6  1  0.092132  0.289023  0.022391  1
  Fe  Fe7  1  0.000099  0.999696  0.999883  1
  I  I8  1  0.462513  0.386520  0.162527  1
  I  I9  1  0.161316  0.463996  0.385948  1
  I  I10  1  0.386556  0.162736  0.463548  1
  I  I11  1  0.534865  0.613638  0.836759  1
  I  I12  1  0.837807  0.534382  0.611896  1
  I  I13  1  0.611787  0.837830  0.536717  1
  I  I14  1  0.775543  0.320007  0.928176  1
  I  I15  1  0.928593  0.776295  0.321829  1
  I  I16  1  0.321220  0.929334  0.776957  1
  I  I17  1  0.226955  0.679150  0.072446  1
  I  I18  1  0.072587  0.227877  0.680328  1
  I  I19  1  0.681074  0.071623  0.224946  1
