# generated using pymatgen
data_La3Nd13(HoIr3)4
_symmetry_space_group_name_H-M   'P 1'
_cell_length_a   11.21653012
_cell_length_b   11.22974762
_cell_length_c   6.52911903
_cell_angle_alpha   90.00099994
_cell_angle_beta   89.90965822
_cell_angle_gamma   90.09210750
_symmetry_Int_Tables_number   1
_chemical_formula_structural   La3Nd13(HoIr3)4
_chemical_formula_sum   'La3 Nd13 Ho4 Ir12'
_cell_volume   822.39792850
_cell_formula_units_Z   1
loop_
 _symmetry_equiv_pos_site_id
 _symmetry_equiv_pos_as_xyz
  1  'x, y, z'
loop_
 _atom_site_type_symbol
 _atom_site_label
 _atom_site_symmetry_multiplicity
 _atom_site_fract_x
 _atom_site_fract_y
 _atom_site_fract_z
 _atom_site_occupancy
  La  La0  1  0.289078  0.089667  0.382858  1
  La  La1  1  0.288833  0.910219  0.882971  1
  La  La2  1  0.710915  0.088631  0.882901  1
  Nd  Nd3  1  0.710347  0.910843  0.381947  1
  Nd  Nd4  1  0.589051  0.787548  0.881025  1
  Nd  Nd5  1  0.588355  0.211793  0.381632  1
  Nd  Nd6  1  0.413504  0.787523  0.381757  1
  Nd  Nd7  1  0.411813  0.213229  0.881226  1
  Nd  Nd8  1  0.210822  0.413268  0.618521  1
  Nd  Nd9  1  0.210741  0.586878  0.118705  1
  Nd  Nd10  1  0.789214  0.413306  0.118439  1
  Nd  Nd11  1  0.789138  0.587301  0.617649  1
  Nd  Nd12  1  0.912085  0.710850  0.117908  1
  Nd  Nd13  1  0.912705  0.289725  0.616313  1
  Nd  Nd14  1  0.087067  0.710184  0.617353  1
  Nd  Nd15  1  0.087250  0.289774  0.116367  1
  Ho  Ho16  1  0.998795  0.999219  0.499575  1
  Ho  Ho17  1  0.999743  0.000135  0.000355  1
  Ho  Ho18  1  0.500076  0.500071  0.001217  1
  Ho  Ho19  1  0.500470  0.499927  0.501247  1
  Ir  Ir20  1  0.850534  0.148051  0.249616  1
  Ir  Ir21  1  0.851781  0.850706  0.749391  1
  Ir  Ir22  1  0.148605  0.149053  0.748192  1
  Ir  Ir23  1  0.148909  0.851095  0.249020  1
  Ir  Ir24  1  0.648463  0.352014  0.750220  1
  Ir  Ir25  1  0.648454  0.648517  0.250017  1
  Ir  Ir26  1  0.351511  0.352178  0.250646  1
  Ir  Ir27  1  0.351907  0.648209  0.750385  1
  Ir  Ir28  1  0.499524  0.000266  0.119165  1
  Ir  Ir29  1  0.500426  0.999763  0.620421  1
  Ir  Ir30  1  0.000010  0.499827  0.881313  1
  Ir  Ir31  1  0.999874  0.500231  0.381645  1
