# generated using pymatgen
data_Mg4Ni2As6Ir4Ru
_symmetry_space_group_name_H-M   'P 1'
_cell_length_a   7.02550758
_cell_length_b   6.98090656
_cell_length_c   6.98090482
_cell_angle_alpha   108.84041417
_cell_angle_beta   109.65673034
_cell_angle_gamma   109.65672466
_symmetry_Int_Tables_number   1
_chemical_formula_structural   Mg4Ni2As6Ir4Ru
_chemical_formula_sum   'Mg4 Ni2 As6 Ir4 Ru1'
_cell_volume   264.38815993
_cell_formula_units_Z   1
loop_
 _symmetry_equiv_pos_site_id
 _symmetry_equiv_pos_as_xyz
  1  'x, y, z'
loop_
 _atom_site_type_symbol
 _atom_site_label
 _atom_site_symmetry_multiplicity
 _atom_site_fract_x
 _atom_site_fract_y
 _atom_site_fract_z
 _atom_site_occupancy
  Mg  Mg0  1  0.000000  0.993318  0.500059  1
  Mg  Mg1  1  0.500000  0.002702  0.997298  1
  Mg  Mg2  1  0.000000  0.499941  0.006682  1
  Mg  Mg3  1  0.500000  0.502702  0.497298  1
  Ni  Ni4  1  0.244233  0.494766  0.749467  1
  Ni  Ni5  1  0.755767  0.250533  0.505234  1
  As  As6  1  0.687360  0.690210  0.997150  1
  As  As7  1  0.308723  0.313728  0.994995  1
  As  As8  1  0.000000  0.678961  0.690983  1
  As  As9  1  0.000000  0.309017  0.321039  1
  As  As10  1  0.691277  0.005005  0.686272  1
  As  As11  1  0.312640  0.002850  0.309790  1
  Ir  Ir12  1  0.500000  0.256701  0.743299  1
  Ir  Ir13  1  0.500000  0.756701  0.243299  1
  Ir  Ir14  1  0.744481  0.492870  0.251611  1
  Ir  Ir15  1  0.255519  0.748389  0.507130  1
  Ru  Ru16  1  0.000000  0.001606  0.998394  1
