# generated using pymatgen
data_La11Nd7(BiO)10
_symmetry_space_group_name_H-M   'P 1'
_cell_length_a   10.50502514
_cell_length_b   10.50637917
_cell_length_c   9.43313409
_cell_angle_alpha   89.98699566
_cell_angle_beta   90.00935501
_cell_angle_gamma   89.98397188
_symmetry_Int_Tables_number   1
_chemical_formula_structural   La11Nd7(BiO)10
_chemical_formula_sum   'La11 Nd7 Bi10 O10'
_cell_volume   1041.13282748
_cell_formula_units_Z   1
loop_
 _symmetry_equiv_pos_site_id
 _symmetry_equiv_pos_as_xyz
  1  'x, y, z'
loop_
 _atom_site_type_symbol
 _atom_site_label
 _atom_site_symmetry_multiplicity
 _atom_site_fract_x
 _atom_site_fract_y
 _atom_site_fract_z
 _atom_site_occupancy
  La  La0  1  0.999249  0.499712  0.328152  1
  La  La1  1  0.500684  0.999924  0.671723  1
  La  La2  1  0.295579  0.604622  0.657389  1
  La  La3  1  0.080565  0.728259  0.997556  1
  La  La4  1  0.227630  0.419156  0.998088  1
  La  La5  1  0.771689  0.580554  0.996595  1
  La  La6  1  0.919119  0.271514  0.996968  1
  La  La7  1  0.419471  0.772334  0.004114  1
  La  La8  1  0.271778  0.080757  0.002574  1
  La  La9  1  0.728502  0.919401  0.002889  1
  La  La10  1  0.580514  0.228230  0.002963  1
  Nd  Nd11  1  0.795157  0.104649  0.342532  1
  Nd  Nd12  1  0.605518  0.705036  0.342273  1
  Nd  Nd13  1  0.395667  0.294360  0.342268  1
  Nd  Nd14  1  0.204425  0.896471  0.342167  1
  Nd  Nd15  1  0.704521  0.394728  0.657519  1
  Nd  Nd16  1  0.895375  0.795805  0.657673  1
  Nd  Nd17  1  0.104148  0.204784  0.657658  1
  Bi  Bi18  1  0.998079  0.499490  0.689723  1
  Bi  Bi19  1  0.500034  0.999826  0.310949  1
  Bi  Bi20  1  0.693749  0.402702  0.302952  1
  Bi  Bi21  1  0.902807  0.806268  0.303096  1
  Bi  Bi22  1  0.097208  0.193911  0.302889  1
  Bi  Bi23  1  0.306269  0.597182  0.299506  1
  Bi  Bi24  1  0.806264  0.097257  0.696982  1
  Bi  Bi25  1  0.599362  0.694516  0.697355  1
  Bi  Bi26  1  0.403006  0.303981  0.697647  1
  Bi  Bi27  1  0.193369  0.904661  0.697533  1
  O  O28  1  0.000001  0.500059  0.074047  1
  O  O29  1  0.500138  0.999641  0.926529  1
  O  O30  1  0.879199  0.776182  0.910737  1
  O  O31  1  0.276185  0.621143  0.909090  1
  O  O32  1  0.723723  0.378673  0.910535  1
  O  O33  1  0.121115  0.224205  0.910819  1
  O  O34  1  0.621398  0.724093  0.089572  1
  O  O35  1  0.223872  0.878964  0.089796  1
  O  O36  1  0.775986  0.121131  0.089548  1
  O  O37  1  0.378644  0.275823  0.089592  1
