# generated using pymatgen
data_HoErPa2(B4Os)4
_symmetry_space_group_name_H-M   'P 1'
_cell_length_a   3.58127600
_cell_length_b   5.98086507
_cell_length_c   11.59280918
_cell_angle_alpha   89.85099088
_cell_angle_beta   90.00000000
_cell_angle_gamma   90.00000000
_symmetry_Int_Tables_number   1
_chemical_formula_structural   HoErPa2(B4Os)4
_chemical_formula_sum   'Ho1 Er1 Pa2 B16 Os4'
_cell_volume   248.30703008
_cell_formula_units_Z   1
loop_
 _symmetry_equiv_pos_site_id
 _symmetry_equiv_pos_as_xyz
  1  'x, y, z'
loop_
 _atom_site_type_symbol
 _atom_site_label
 _atom_site_symmetry_multiplicity
 _atom_site_fract_x
 _atom_site_fract_y
 _atom_site_fract_z
 _atom_site_occupancy
  Ho  Ho0  1  0.000000  0.128917  0.147720  1
  Er  Er1  1  0.000000  0.871053  0.852200  1
  Pa  Pa2  1  0.000000  0.628958  0.348978  1
  Pa  Pa3  1  0.000000  0.371032  0.651063  1
  B  B4  1  0.500000  0.790582  0.185792  1
  B  B5  1  0.500000  0.209137  0.814209  1
  B  B6  1  0.500000  0.290482  0.312087  1
  B  B7  1  0.500000  0.709579  0.688031  1
  B  B8  1  0.500000  0.863785  0.030804  1
  B  B9  1  0.500000  0.136053  0.968994  1
  B  B10  1  0.500000  0.365862  0.467416  1
  B  B11  1  0.500000  0.634131  0.532602  1
  B  B12  1  0.500000  0.887416  0.453432  1
  B  B13  1  0.500000  0.112587  0.546587  1
  B  B14  1  0.500000  0.386242  0.045350  1
  B  B15  1  0.500000  0.614102  0.954504  1
  B  B16  1  0.500000  0.973295  0.307743  1
  B  B17  1  0.500000  0.026621  0.692413  1
  B  B18  1  0.500000  0.470882  0.189689  1
  B  B19  1  0.500000  0.529349  0.810317  1
  Os  Os20  1  0.000000  0.640459  0.095077  1
  Os  Os21  1  0.000000  0.359472  0.904773  1
  Os  Os22  1  0.000000  0.141473  0.404298  1
  Os  Os23  1  0.000000  0.858533  0.595922  1
