# generated using pymatgen
data_Nd4CrB16W3
_symmetry_space_group_name_H-M   'P 1'
_cell_length_a   3.66571100
_cell_length_b   6.10917221
_cell_length_c   11.81649934
_cell_angle_alpha   89.92790253
_cell_angle_beta   90.00000000
_cell_angle_gamma   90.00000000
_symmetry_Int_Tables_number   1
_chemical_formula_structural   Nd4CrB16W3
_chemical_formula_sum   'Nd4 Cr1 B16 W3'
_cell_volume   264.62390954
_cell_formula_units_Z   1
loop_
 _symmetry_equiv_pos_site_id
 _symmetry_equiv_pos_as_xyz
  1  'x, y, z'
loop_
 _atom_site_type_symbol
 _atom_site_label
 _atom_site_symmetry_multiplicity
 _atom_site_fract_x
 _atom_site_fract_y
 _atom_site_fract_z
 _atom_site_occupancy
  Nd  Nd0  1  0.000000  0.624769  0.351796  1
  Nd  Nd1  1  0.000000  0.377968  0.649408  1
  Nd  Nd2  1  0.000000  0.124817  0.151053  1
  Nd  Nd3  1  0.000000  0.875053  0.846379  1
  Cr  Cr4  1  0.000000  0.876241  0.579966  1
  B  B5  1  0.500000  0.781718  0.185890  1
  B  B6  1  0.500000  0.217402  0.813757  1
  B  B7  1  0.500000  0.280919  0.315989  1
  B  B8  1  0.500000  0.724184  0.680987  1
  B  B9  1  0.500000  0.863355  0.032055  1
  B  B10  1  0.500000  0.136389  0.967252  1
  B  B11  1  0.500000  0.362038  0.468948  1
  B  B12  1  0.500000  0.640988  0.533964  1
  B  B13  1  0.500000  0.885096  0.456863  1
  B  B14  1  0.500000  0.108395  0.548363  1
  B  B15  1  0.500000  0.387514  0.045848  1
  B  B16  1  0.500000  0.612595  0.953415  1
  B  B17  1  0.500000  0.973639  0.310355  1
  B  B18  1  0.500000  0.022081  0.689100  1
  B  B19  1  0.500000  0.474110  0.191501  1
  B  B20  1  0.500000  0.526281  0.807988  1
  W  W21  1  0.000000  0.628251  0.083658  1
  W  W22  1  0.000000  0.371902  0.915621  1
  W  W23  1  0.000000  0.124292  0.419845  1
