# generated using pymatgen
data_Pr2Gd2AgRh
_symmetry_space_group_name_H-M   'P 1'
_cell_length_a   9.66358639
_cell_length_b   9.66358724
_cell_length_c   9.66425700
_cell_angle_alpha   59.99771072
_cell_angle_beta   59.99770782
_cell_angle_gamma   60.00457943
_symmetry_Int_Tables_number   1
_chemical_formula_structural   Pr2Gd2AgRh
_chemical_formula_sum   'Pr8 Gd8 Ag4 Rh4'
_cell_volume   638.16086418
_cell_formula_units_Z   4
loop_
 _symmetry_equiv_pos_site_id
 _symmetry_equiv_pos_as_xyz
  1  'x, y, z'
loop_
 _atom_site_type_symbol
 _atom_site_label
 _atom_site_symmetry_multiplicity
 _atom_site_fract_x
 _atom_site_fract_y
 _atom_site_fract_z
 _atom_site_occupancy
  Pr  Pr0  1  0.188394  0.188619  0.809309  1
  Pr  Pr1  1  0.810781  0.810980  0.187887  1
  Pr  Pr2  1  0.938016  0.563079  0.561946  1
  Pr  Pr3  1  0.560859  0.939543  0.938984  1
  Pr  Pr4  1  0.562332  0.937644  0.561776  1
  Pr  Pr5  1  0.940104  0.561454  0.937864  1
  Pr  Pr6  1  0.561487  0.561531  0.938208  1
  Pr  Pr7  1  0.940045  0.939925  0.560643  1
  Gd  Gd8  1  0.351315  0.351172  0.350773  1
  Gd  Gd9  1  0.352139  0.352683  0.944998  1
  Gd  Gd10  1  0.350369  0.944963  0.353158  1
  Gd  Gd11  1  0.945301  0.350487  0.352931  1
  Gd  Gd12  1  0.808745  0.189354  0.189508  1
  Gd  Gd13  1  0.189143  0.810266  0.811050  1
  Gd  Gd14  1  0.189466  0.809046  0.189232  1
  Gd  Gd15  1  0.810750  0.188322  0.810581  1
  Ag  Ag16  1  0.578854  0.579287  0.581790  1
  Ag  Ag17  1  0.578889  0.578712  0.262787  1
  Ag  Ag18  1  0.580254  0.263163  0.578478  1
  Ag  Ag19  1  0.263088  0.580898  0.578572  1
  Rh  Rh20  1  0.140585  0.140605  0.146391  1
  Rh  Rh21  1  0.142621  0.140753  0.569328  1
  Rh  Rh22  1  0.147701  0.569351  0.141470  1
  Rh  Rh23  1  0.568764  0.148166  0.142336  1
