# generated using pymatgen
data_Ac3La(Sn2Ir)4
_symmetry_space_group_name_H-M   'P 1'
_cell_length_a   9.03896802
_cell_length_b   9.03896678
_cell_length_c   9.79981800
_cell_angle_alpha   90.00000000
_cell_angle_beta   90.00000000
_cell_angle_gamma   149.22354234
_symmetry_Int_Tables_number   1
_chemical_formula_structural   Ac3La(Sn2Ir)4
_chemical_formula_sum   'Ac3 La1 Sn8 Ir4'
_cell_volume   409.69671342
_cell_formula_units_Z   1
loop_
 _symmetry_equiv_pos_site_id
 _symmetry_equiv_pos_as_xyz
  1  'x, y, z'
loop_
 _atom_site_type_symbol
 _atom_site_label
 _atom_site_symmetry_multiplicity
 _atom_site_fract_x
 _atom_site_fract_y
 _atom_site_fract_z
 _atom_site_occupancy
  Ac  Ac0  1  0.499793  0.500207  0.500840  1
  Ac  Ac1  1  0.499793  0.500207  0.999160  1
  Ac  Ac2  1  0.297110  0.702890  0.250000  1
  La  La3  1  0.703907  0.296093  0.750000  1
  Sn  Sn4  1  0.908556  0.091444  0.750000  1
  Sn  Sn5  1  0.926252  0.073748  0.250000  1
  Sn  Sn6  1  0.092310  0.907690  0.250000  1
  Sn  Sn7  1  0.077209  0.922791  0.750000  1
  Sn  Sn8  1  0.697016  0.302984  0.411711  1
  Sn  Sn9  1  0.301149  0.698851  0.593151  1
  Sn  Sn10  1  0.301149  0.698851  0.906849  1
  Sn  Sn11  1  0.697016  0.302984  0.088289  1
  Ir  Ir12  1  0.148318  0.851682  0.504675  1
  Ir  Ir13  1  0.851051  0.148949  0.002754  1
  Ir  Ir14  1  0.148318  0.851682  0.995325  1
  Ir  Ir15  1  0.851051  0.148949  0.497246  1
