# generated using pymatgen
data_Sc12Mn2PtI16
_symmetry_space_group_name_H-M   'P 1'
_cell_length_a   8.94890564
_cell_length_b   11.87231351
_cell_length_c   12.51760647
_cell_angle_alpha   117.33723193
_cell_angle_beta   100.92184459
_cell_angle_gamma   100.56758494
_symmetry_Int_Tables_number   1
_chemical_formula_structural   Sc12Mn2PtI16
_chemical_formula_sum   'Sc12 Mn2 Pt1 I16'
_cell_volume   1102.84541052
_cell_formula_units_Z   1
loop_
 _symmetry_equiv_pos_site_id
 _symmetry_equiv_pos_as_xyz
  1  'x, y, z'
loop_
 _atom_site_type_symbol
 _atom_site_label
 _atom_site_symmetry_multiplicity
 _atom_site_fract_x
 _atom_site_fract_y
 _atom_site_fract_z
 _atom_site_occupancy
  Sc  Sc0  1  0.097317  0.275078  0.361564  1
  Sc  Sc1  1  0.902683  0.724922  0.638436  1
  Sc  Sc2  1  0.775376  0.534652  0.333950  1
  Sc  Sc3  1  0.224624  0.465348  0.666050  1
  Sc  Sc4  1  0.280421  0.725536  0.637696  1
  Sc  Sc5  1  0.719579  0.274464  0.362304  1
  Sc  Sc6  1  0.153346  0.535064  0.333408  1
  Sc  Sc7  1  0.846654  0.464936  0.666592  1
  Sc  Sc8  1  0.403547  0.355019  0.267718  1
  Sc  Sc9  1  0.596453  0.644981  0.732282  1
  Sc  Sc10  1  0.457327  0.302580  0.521667  1
  Sc  Sc11  1  0.542673  0.697420  0.478333  1
  Mn  Mn12  1  0.378114  0.500243  0.499680  1
  Mn  Mn13  1  0.621887  0.499757  0.500320  1
  Pt  Pt14  1  0.000000  0.500000  0.500000  1
  I  I15  1  0.389179  0.742791  0.888199  1
  I  I16  1  0.610821  0.257209  0.111801  1
  I  I17  1  0.187535  0.964080  0.781967  1
  I  I18  1  0.812465  0.035920  0.218033  1
  I  I19  1  0.333924  0.088810  0.247496  1
  I  I20  1  0.666076  0.911190  0.752504  1
  I  I21  1  0.561709  0.436574  0.804163  1
  I  I22  1  0.438291  0.563426  0.195837  1
  I  I23  1  0.301172  0.831397  0.462373  1
  I  I24  1  0.698828  0.168603  0.537627  1
  I  I25  1  0.157958  0.169379  0.535888  1
  I  I26  1  0.842042  0.830621  0.464112  1
  I  I27  1  0.927082  0.576196  0.161237  1
  I  I28  1  0.072918  0.423804  0.838763  1
  I  I29  1  0.933328  0.741811  0.888742  1
  I  I30  1  0.066672  0.258189  0.111258  1
