# generated using pymatgen
data_BaMgP3N5O2
_symmetry_space_group_name_H-M   'P 1'
_cell_length_a   6.80356700
_cell_length_b   7.16014526
_cell_length_c   14.34329554
_cell_angle_alpha   60.75079517
_cell_angle_beta   90.00000000
_cell_angle_gamma   90.00000000
_symmetry_Int_Tables_number   1
_chemical_formula_structural   BaMgP3N5O2
_chemical_formula_sum   'Ba4 Mg4 P12 N20 O8'
_cell_volume   609.64114475
_cell_formula_units_Z   4
loop_
 _symmetry_equiv_pos_site_id
 _symmetry_equiv_pos_as_xyz
  1  'x, y, z'
loop_
 _atom_site_type_symbol
 _atom_site_label
 _atom_site_symmetry_multiplicity
 _atom_site_fract_x
 _atom_site_fract_y
 _atom_site_fract_z
 _atom_site_occupancy
  Ba  Ba0  1  0.748276  0.504821  0.615419  1
  Ba  Ba1  1  0.248276  0.495179  0.884581  1
  Ba  Ba2  1  0.251724  0.495179  0.384581  1
  Ba  Ba3  1  0.751724  0.504821  0.115419  1
  Mg  Mg4  1  0.511214  0.987123  0.883489  1
  Mg  Mg5  1  0.011214  0.012877  0.616511  1
  Mg  Mg6  1  0.488786  0.012877  0.116511  1
  Mg  Mg7  1  0.988786  0.987123  0.383489  1
  P  P8  1  0.015449  0.955965  0.874859  1
  P  P9  1  0.515449  0.044035  0.625141  1
  P  P10  1  0.984551  0.044035  0.125141  1
  P  P11  1  0.484551  0.955965  0.374859  1
  P  P12  1  0.283560  0.741356  0.584492  1
  P  P13  1  0.783560  0.258644  0.915508  1
  P  P14  1  0.716440  0.258644  0.415508  1
  P  P15  1  0.216440  0.741356  0.084492  1
  P  P16  1  0.765080  0.731551  0.795110  1
  P  P17  1  0.265080  0.268449  0.704890  1
  P  P18  1  0.234920  0.268449  0.204890  1
  P  P19  1  0.734920  0.731551  0.295110  1
  N  N20  1  0.313605  0.921256  0.622625  1
  N  N21  1  0.813605  0.078744  0.877375  1
  N  N22  1  0.686395  0.078744  0.377375  1
  N  N23  1  0.186395  0.921256  0.122625  1
  N  N24  1  0.705626  0.882338  0.667661  1
  N  N25  1  0.205626  0.117662  0.832339  1
  N  N26  1  0.294374  0.117662  0.332339  1
  N  N27  1  0.794374  0.882338  0.167661  1
  N  N28  1  0.972704  0.846118  0.799603  1
  N  N29  1  0.472704  0.153882  0.700397  1
  N  N30  1  0.027296  0.153882  0.200397  1
  N  N31  1  0.527296  0.846118  0.299603  1
  N  N32  1  0.811937  0.494395  0.811201  1
  N  N33  1  0.311937  0.505605  0.688799  1
  N  N34  1  0.188063  0.505605  0.188799  1
  N  N35  1  0.688063  0.494395  0.311201  1
  N  N36  1  0.571319  0.246211  0.507943  1
  N  N37  1  0.071319  0.753789  0.992057  1
  N  N38  1  0.428681  0.753789  0.492057  1
  N  N39  1  0.928681  0.246211  0.007943  1
  O  O40  1  0.062551  0.785587  0.545546  1
  O  O41  1  0.562551  0.214413  0.954454  1
  O  O42  1  0.937449  0.214413  0.454454  1
  O  O43  1  0.437449  0.785587  0.045546  1
  O  O44  1  0.604596  0.721062  0.875345  1
  O  O45  1  0.104596  0.278938  0.624655  1
  O  O46  1  0.395404  0.278938  0.124655  1
  O  O47  1  0.895404  0.721062  0.375345  1
