# generated using pymatgen
data_Eu4Mn3SbO12
_symmetry_space_group_name_H-M   'P 1'
_cell_length_a   5.56805126
_cell_length_b   5.74421878
_cell_length_c   7.85758900
_cell_angle_alpha   90.21239775
_cell_angle_beta   90.33864902
_cell_angle_gamma   90.20247090
_symmetry_Int_Tables_number   1
_chemical_formula_structural   Eu4Mn3SbO12
_chemical_formula_sum   'Eu4 Mn3 Sb1 O12'
_cell_volume   251.31024328
_cell_formula_units_Z   1
loop_
 _symmetry_equiv_pos_site_id
 _symmetry_equiv_pos_as_xyz
  1  'x, y, z'
loop_
 _atom_site_type_symbol
 _atom_site_label
 _atom_site_symmetry_multiplicity
 _atom_site_fract_x
 _atom_site_fract_y
 _atom_site_fract_z
 _atom_site_occupancy
  Eu  Eu0  1  0.984933  0.057931  0.263928  1
  Eu  Eu1  1  0.495000  0.452876  0.736591  1
  Eu  Eu2  1  0.505000  0.547124  0.263409  1
  Eu  Eu3  1  0.015067  0.942069  0.736072  1
  Mn  Mn4  1  0.500000  0.000000  0.500000  1
  Mn  Mn5  1  0.000000  0.500000  0.000000  1
  Mn  Mn6  1  0.000000  0.500000  0.500000  1
  Sb  Sb7  1  0.500000  0.000000  0.000000  1
  O  O8  1  0.598039  0.029679  0.755912  1
  O  O9  1  0.217106  0.195291  0.538658  1
  O  O10  1  0.209409  0.192574  0.945797  1
  O  O11  1  0.689704  0.290688  0.054830  1
  O  O12  1  0.712997  0.302844  0.461540  1
  O  O13  1  0.083268  0.472652  0.245383  1
  O  O14  1  0.916732  0.527348  0.754617  1
  O  O15  1  0.310296  0.709312  0.945170  1
  O  O16  1  0.287003  0.697156  0.538460  1
  O  O17  1  0.790591  0.807426  0.054203  1
  O  O18  1  0.782894  0.804709  0.461342  1
  O  O19  1  0.401961  0.970321  0.244088  1
