# generated using pymatgen
data_DyLuFe3Re14C3
_symmetry_space_group_name_H-M   'P 1'
_cell_length_a   6.92060313
_cell_length_b   6.92060387
_cell_length_c   6.92060315
_cell_angle_alpha   82.50985783
_cell_angle_beta   82.50985790
_cell_angle_gamma   82.50984977
_symmetry_Int_Tables_number   1
_chemical_formula_structural   DyLuFe3Re14C3
_chemical_formula_sum   'Dy1 Lu1 Fe3 Re14 C3'
_cell_volume   323.65430160
_cell_formula_units_Z   1
loop_
 _symmetry_equiv_pos_site_id
 _symmetry_equiv_pos_as_xyz
  1  'x, y, z'
loop_
 _atom_site_type_symbol
 _atom_site_label
 _atom_site_symmetry_multiplicity
 _atom_site_fract_x
 _atom_site_fract_y
 _atom_site_fract_z
 _atom_site_occupancy
  Dy  Dy0  1  0.350958  0.350958  0.350958  1
  Lu  Lu1  1  0.649358  0.649358  0.649358  1
  Fe  Fe2  1  0.000275  0.000275  0.499732  1
  Fe  Fe3  1  0.000275  0.499732  0.000275  1
  Fe  Fe4  1  0.499732  0.000275  0.000275  1
  Re  Re5  1  0.102224  0.102224  0.102224  1
  Re  Re6  1  0.897392  0.897392  0.897392  1
  Re  Re7  1  0.722360  0.277785  0.999871  1
  Re  Re8  1  0.277785  0.999871  0.722360  1
  Re  Re9  1  0.999871  0.722360  0.277785  1
  Re  Re10  1  0.277785  0.722360  0.999871  1
  Re  Re11  1  0.722360  0.999871  0.277785  1
  Re  Re12  1  0.999871  0.277785  0.722360  1
  Re  Re13  1  0.139153  0.653588  0.653588  1
  Re  Re14  1  0.653588  0.653588  0.139153  1
  Re  Re15  1  0.653588  0.139153  0.653588  1
  Re  Re16  1  0.347117  0.859399  0.347117  1
  Re  Re17  1  0.347117  0.347117  0.859399  1
  Re  Re18  1  0.859399  0.347117  0.347117  1
  C  C19  1  0.501471  0.501471  0.996849  1
  C  C20  1  0.501471  0.996849  0.501471  1
  C  C21  1  0.996849  0.501471  0.501471  1
