# generated using pymatgen
data_Dy3Y2Zr2P12Ir17
_symmetry_space_group_name_H-M   'P 1'
_cell_length_a   12.66035300
_cell_length_b   12.89340325
_cell_length_c   3.99022200
_cell_angle_alpha   90.00000000
_cell_angle_beta   90.00000000
_cell_angle_gamma   119.40385593
_symmetry_Int_Tables_number   1
_chemical_formula_structural   Dy3Y2Zr2P12Ir17
_chemical_formula_sum   'Dy3 Y2 Zr2 P12 Ir17'
_cell_volume   567.43839842
_cell_formula_units_Z   1
loop_
 _symmetry_equiv_pos_site_id
 _symmetry_equiv_pos_as_xyz
  1  'x, y, z'
loop_
 _atom_site_type_symbol
 _atom_site_label
 _atom_site_symmetry_multiplicity
 _atom_site_fract_x
 _atom_site_fract_y
 _atom_site_fract_z
 _atom_site_occupancy
  Dy  Dy0  1  0.330167  0.661494  0.500000  1
  Dy  Dy1  1  0.668674  0.338506  0.500000  1
  Dy  Dy2  1  0.812813  0.000000  0.000000  1
  Y  Y3  1  0.000510  0.815534  0.000000  1
  Y  Y4  1  0.184976  0.184466  0.000000  1
  Zr  Zr5  1  0.997647  0.446951  0.500000  1
  Zr  Zr6  1  0.550695  0.553049  0.500000  1
  P  P7  1  0.005895  0.650787  0.500000  1
  P  P8  1  0.355108  0.349213  0.500000  1
  P  P9  1  0.644858  0.000000  0.500000  1
  P  P10  1  0.514863  0.686409  0.000000  1
  P  P11  1  0.309643  0.825221  0.000000  1
  P  P12  1  0.164587  0.480879  0.000000  1
  P  P13  1  0.484421  0.174779  0.000000  1
  P  P14  1  0.683708  0.519121  0.000000  1
  P  P15  1  0.828454  0.313591  0.000000  1
  P  P16  1  0.999184  0.174094  0.500000  1
  P  P17  1  0.825090  0.825906  0.500000  1
  P  P18  1  0.181739  0.000000  0.500000  1
  Ir  Ir19  1  0.504890  0.864775  0.000000  1
  Ir  Ir20  1  0.127919  0.644098  0.000000  1
  Ir  Ir21  1  0.354950  0.495721  0.000000  1
  Ir  Ir22  1  0.483821  0.355902  0.000000  1
  Ir  Ir23  1  0.859230  0.504279  0.000000  1
  Ir  Ir24  1  0.640116  0.135225  0.000000  1
  Ir  Ir25  1  0.464704  0.000000  0.500000  1
  Ir  Ir26  1  0.996688  0.277585  0.000000  1
  Ir  Ir27  1  0.719103  0.722415  0.000000  1
  Ir  Ir28  1  0.290457  0.000000  0.000000  1
  Ir  Ir29  1  0.624019  0.808492  0.500000  1
  Ir  Ir30  1  0.204117  0.825803  0.500000  1
  Ir  Ir31  1  0.177749  0.365845  0.500000  1
  Ir  Ir32  1  0.378314  0.174197  0.500000  1
  Ir  Ir33  1  0.811904  0.634155  0.500000  1
  Ir  Ir34  1  0.815527  0.191508  0.500000  1
  Ir  Ir35  1  0.003461  0.000000  0.500000  1
