# generated using pymatgen
data_Eu3Sc2(ReN4)3
_symmetry_space_group_name_H-M   'P 1'
_cell_length_a   11.23671431
_cell_length_b   11.23671435
_cell_length_c   11.23671400
_cell_angle_alpha   109.47121820
_cell_angle_beta   109.47121828
_cell_angle_gamma   109.47122291
_symmetry_Int_Tables_number   1
_chemical_formula_structural   Eu3Sc2(ReN4)3
_chemical_formula_sum   'Eu12 Sc8 Re12 N48'
_cell_volume   1092.18480421
_cell_formula_units_Z   4
loop_
 _symmetry_equiv_pos_site_id
 _symmetry_equiv_pos_as_xyz
  1  'x, y, z'
loop_
 _atom_site_type_symbol
 _atom_site_label
 _atom_site_symmetry_multiplicity
 _atom_site_fract_x
 _atom_site_fract_y
 _atom_site_fract_z
 _atom_site_occupancy
  Eu  Eu0  1  0.250000  0.375000  0.125000  1
  Eu  Eu1  1  0.375000  0.750000  0.125000  1
  Eu  Eu2  1  0.375000  0.125000  0.250000  1
  Eu  Eu3  1  0.875000  0.625000  0.250000  1
  Eu  Eu4  1  0.750000  0.125000  0.375000  1
  Eu  Eu5  1  0.125000  0.250000  0.375000  1
  Eu  Eu6  1  0.875000  0.750000  0.625000  1
  Eu  Eu7  1  0.250000  0.875000  0.625000  1
  Eu  Eu8  1  0.125000  0.375000  0.750000  1
  Eu  Eu9  1  0.625000  0.875000  0.750000  1
  Eu  Eu10  1  0.625000  0.250000  0.875000  1
  Eu  Eu11  1  0.750000  0.625000  0.875000  1
  Sc  Sc12  1  0.000000  0.000000  0.000000  1
  Sc  Sc13  1  0.500000  0.000000  0.000000  1
  Sc  Sc14  1  0.000000  0.500000  0.000000  1
  Sc  Sc15  1  0.500000  0.500000  0.000000  1
  Sc  Sc16  1  0.000000  0.000000  0.500000  1
  Sc  Sc17  1  0.500000  0.000000  0.500000  1
  Sc  Sc18  1  0.000000  0.500000  0.500000  1
  Sc  Sc19  1  0.500000  0.500000  0.500000  1
  Re  Re20  1  0.875000  0.250000  0.125000  1
  Re  Re21  1  0.750000  0.875000  0.125000  1
  Re  Re22  1  0.625000  0.375000  0.250000  1
  Re  Re23  1  0.125000  0.875000  0.250000  1
  Re  Re24  1  0.250000  0.625000  0.375000  1
  Re  Re25  1  0.625000  0.750000  0.375000  1
  Re  Re26  1  0.375000  0.250000  0.625000  1
  Re  Re27  1  0.750000  0.375000  0.625000  1
  Re  Re28  1  0.875000  0.125000  0.750000  1
  Re  Re29  1  0.375000  0.625000  0.750000  1
  Re  Re30  1  0.250000  0.125000  0.875000  1
  Re  Re31  1  0.125000  0.750000  0.875000  1
  N  N32  1  0.211286  0.121004  0.019729  1
  N  N33  1  0.308443  0.898725  0.019729  1
  N  N34  1  0.711286  0.691557  0.090282  1
  N  N35  1  0.878996  0.398725  0.090282  1
  N  N36  1  0.980271  0.691557  0.101275  1
  N  N37  1  0.621004  0.409718  0.101275  1
  N  N38  1  0.601275  0.909718  0.121004  1
  N  N39  1  0.019729  0.211286  0.121004  1
  N  N40  1  0.211286  0.590282  0.191557  1
  N  N41  1  0.480271  0.601275  0.191557  1
  N  N42  1  0.121004  0.019729  0.211286  1
  N  N43  1  0.590282  0.191557  0.211286  1
  N  N44  1  0.480271  0.378996  0.288714  1
  N  N45  1  0.308443  0.909718  0.288714  1
  N  N46  1  0.909718  0.288714  0.308443  1
  N  N47  1  0.898725  0.019729  0.308443  1
  N  N48  1  0.288714  0.480271  0.378996  1
  N  N49  1  0.590282  0.898725  0.378996  1
  N  N50  1  0.808443  0.519729  0.398725  1
  N  N51  1  0.090282  0.878996  0.398725  1
  N  N52  1  0.808443  0.788714  0.409718  1
  N  N53  1  0.101275  0.621004  0.409718  1
  N  N54  1  0.601275  0.191557  0.480271  1
  N  N55  1  0.378996  0.288714  0.480271  1
  N  N56  1  0.398725  0.808443  0.519729  1
  N  N57  1  0.621004  0.711286  0.519729  1
  N  N58  1  0.191557  0.211286  0.590282  1
  N  N59  1  0.898725  0.378996  0.590282  1
  N  N60  1  0.191557  0.480271  0.601275  1
  N  N61  1  0.909718  0.121004  0.601275  1
  N  N62  1  0.409718  0.101275  0.621004  1
  N  N63  1  0.711286  0.519729  0.621004  1
  N  N64  1  0.090282  0.711286  0.691557  1
  N  N65  1  0.101275  0.980271  0.691557  1
  N  N66  1  0.691557  0.090282  0.711286  1
  N  N67  1  0.519729  0.621004  0.711286  1
  N  N68  1  0.409718  0.808443  0.788714  1
  N  N69  1  0.878996  0.980271  0.788714  1
  N  N70  1  0.519729  0.398725  0.808443  1
  N  N71  1  0.788714  0.409718  0.808443  1
  N  N72  1  0.398725  0.090282  0.878996  1
  N  N73  1  0.980271  0.788714  0.878996  1
  N  N74  1  0.378996  0.590282  0.898725  1
  N  N75  1  0.019729  0.308443  0.898725  1
  N  N76  1  0.288714  0.308443  0.909718  1
  N  N77  1  0.121004  0.601275  0.909718  1
  N  N78  1  0.691557  0.101275  0.980271  1
  N  N79  1  0.788714  0.878996  0.980271  1
