# generated using pymatgen
data_Dy2Hf3Si4
_symmetry_space_group_name_H-M   'P 1'
_cell_length_a   7.28035200
_cell_length_b   7.28035200
_cell_length_c   13.36786200
_cell_angle_alpha   90.00000000
_cell_angle_beta   90.00000000
_cell_angle_gamma   90.00000000
_symmetry_Int_Tables_number   1
_chemical_formula_structural   Dy2Hf3Si4
_chemical_formula_sum   'Dy8 Hf12 Si16'
_cell_volume   708.54381097
_cell_formula_units_Z   4
loop_
 _symmetry_equiv_pos_site_id
 _symmetry_equiv_pos_as_xyz
  1  'x, y, z'
loop_
 _atom_site_type_symbol
 _atom_site_label
 _atom_site_symmetry_multiplicity
 _atom_site_fract_x
 _atom_site_fract_y
 _atom_site_fract_z
 _atom_site_occupancy
  Dy  Dy0  1  0.495442  0.153546  0.534823  1
  Dy  Dy1  1  0.504558  0.846454  0.034823  1
  Dy  Dy2  1  0.653546  0.004558  0.284823  1
  Dy  Dy3  1  0.346454  0.995442  0.784823  1
  Dy  Dy4  1  0.846454  0.504558  0.965177  1
  Dy  Dy5  1  0.153546  0.495442  0.465177  1
  Dy  Dy6  1  0.004558  0.653546  0.715177  1
  Dy  Dy7  1  0.995442  0.346454  0.215177  1
  Hf  Hf8  1  0.676315  0.323685  0.750000  1
  Hf  Hf9  1  0.323685  0.676315  0.250000  1
  Hf  Hf10  1  0.823685  0.823685  0.500000  1
  Hf  Hf11  1  0.176315  0.176315  0.000000  1
  Hf  Hf12  1  0.495946  0.352647  0.125228  1
  Hf  Hf13  1  0.504054  0.647353  0.625228  1
  Hf  Hf14  1  0.852647  0.004054  0.875228  1
  Hf  Hf15  1  0.147353  0.995946  0.375228  1
  Hf  Hf16  1  0.647353  0.504054  0.374772  1
  Hf  Hf17  1  0.352647  0.495946  0.874772  1
  Hf  Hf18  1  0.004054  0.852647  0.124772  1
  Hf  Hf19  1  0.995946  0.147353  0.624772  1
  Si  Si20  1  0.795380  0.139925  0.067684  1
  Si  Si21  1  0.204620  0.860075  0.567684  1
  Si  Si22  1  0.639925  0.704620  0.817684  1
  Si  Si23  1  0.360075  0.295380  0.317684  1
  Si  Si24  1  0.860075  0.204620  0.432316  1
  Si  Si25  1  0.139925  0.795380  0.932316  1
  Si  Si26  1  0.704620  0.639925  0.182316  1
  Si  Si27  1  0.295380  0.360075  0.682316  1
  Si  Si28  1  0.550910  0.206324  0.936021  1
  Si  Si29  1  0.449090  0.793676  0.436021  1
  Si  Si30  1  0.706324  0.949090  0.686021  1
  Si  Si31  1  0.293676  0.050910  0.186021  1
  Si  Si32  1  0.793676  0.449090  0.563979  1
  Si  Si33  1  0.206324  0.550910  0.063979  1
  Si  Si34  1  0.949090  0.706324  0.313979  1
  Si  Si35  1  0.050910  0.293676  0.813979  1
