# generated using pymatgen
data_EuTh(TcO4)6
_symmetry_space_group_name_H-M   'P 1'
_cell_length_a   10.33166100
_cell_length_b   10.33166135
_cell_length_c   6.31533100
_cell_angle_alpha   90.00000000
_cell_angle_beta   90.00000000
_cell_angle_gamma   120.00000209
_symmetry_Int_Tables_number   1
_chemical_formula_structural   EuTh(TcO4)6
_chemical_formula_sum   'Eu1 Th1 Tc6 O24'
_cell_volume   583.80397865
_cell_formula_units_Z   1
loop_
 _symmetry_equiv_pos_site_id
 _symmetry_equiv_pos_as_xyz
  1  'x, y, z'
loop_
 _atom_site_type_symbol
 _atom_site_label
 _atom_site_symmetry_multiplicity
 _atom_site_fract_x
 _atom_site_fract_y
 _atom_site_fract_z
 _atom_site_occupancy
  Eu  Eu0  1  0.333333  0.666667  0.250000  1
  Th  Th1  1  0.666667  0.333333  0.750000  1
  Tc  Tc2  1  0.086238  0.393328  0.750000  1
  Tc  Tc3  1  0.391230  0.300297  0.250000  1
  Tc  Tc4  1  0.606672  0.692908  0.750000  1
  Tc  Tc5  1  0.909065  0.608770  0.250000  1
  Tc  Tc6  1  0.307092  0.913762  0.750000  1
  Tc  Tc7  1  0.699703  0.090935  0.250000  1
  O  O8  1  0.493803  0.649014  0.526150  1
  O  O9  1  0.350986  0.844789  0.526150  1
  O  O10  1  0.849911  0.736458  0.250000  1
  O  O11  1  0.120291  0.856495  0.750000  1
  O  O12  1  0.263542  0.113452  0.250000  1
  O  O13  1  0.143505  0.263796  0.750000  1
  O  O14  1  0.507058  0.346621  0.024151  1
  O  O15  1  0.886548  0.150089  0.250000  1
  O  O16  1  0.102278  0.700192  0.250000  1
  O  O17  1  0.155211  0.506197  0.973850  1
  O  O18  1  0.155211  0.506197  0.526150  1
  O  O19  1  0.888970  0.306082  0.750000  1
  O  O20  1  0.299808  0.402085  0.250000  1
  O  O21  1  0.693918  0.582889  0.750000  1
  O  O22  1  0.839563  0.492942  0.475849  1
  O  O23  1  0.417111  0.111030  0.750000  1
  O  O24  1  0.653379  0.160437  0.024151  1
  O  O25  1  0.493803  0.649014  0.973850  1
  O  O26  1  0.350986  0.844789  0.973850  1
  O  O27  1  0.653379  0.160437  0.475849  1
  O  O28  1  0.507058  0.346621  0.475849  1
  O  O29  1  0.839563  0.492942  0.024151  1
  O  O30  1  0.736204  0.879709  0.750000  1
  O  O31  1  0.597915  0.897722  0.250000  1
