# generated using pymatgen
data_CuF15
_symmetry_space_group_name_H-M   'P 1'
_cell_length_a   9.15339993
_cell_length_b   9.15339977
_cell_length_c   7.24516600
_cell_angle_alpha   90.00000000
_cell_angle_beta   90.00000000
_cell_angle_gamma   86.32448659
_symmetry_Int_Tables_number   1
_chemical_formula_structural   CuF15
_chemical_formula_sum   'Cu2 F30'
_cell_volume   605.78566386
_cell_formula_units_Z   2
loop_
 _symmetry_equiv_pos_site_id
 _symmetry_equiv_pos_as_xyz
  1  'x, y, z'
loop_
 _atom_site_type_symbol
 _atom_site_label
 _atom_site_symmetry_multiplicity
 _atom_site_fract_x
 _atom_site_fract_y
 _atom_site_fract_z
 _atom_site_occupancy
  Cu  Cu0  1  0.880428  0.119572  0.065787  1
  Cu  Cu1  1  0.119572  0.880428  0.565787  1
  F  F2  1  0.295637  0.287114  0.206832  1
  F  F3  1  0.287114  0.295637  0.706832  1
  F  F4  1  0.339278  0.660722  0.071661  1
  F  F5  1  0.660722  0.339278  0.571661  1
  F  F6  1  0.712886  0.704363  0.206832  1
  F  F7  1  0.704363  0.712886  0.706832  1
  F  F8  1  0.071616  0.120913  0.122875  1
  F  F9  1  0.120913  0.071616  0.622875  1
  F  F10  1  0.070400  0.397897  0.385842  1
  F  F11  1  0.397897  0.070400  0.885842  1
  F  F12  1  0.339687  0.430153  0.769877  1
  F  F13  1  0.430153  0.339687  0.269877  1
  F  F14  1  0.070043  0.557633  0.959384  1
  F  F15  1  0.557633  0.070043  0.459384  1
  F  F16  1  0.665794  0.334206  0.767846  1
  F  F17  1  0.334206  0.665794  0.267846  1
  F  F18  1  0.929957  0.442367  0.459384  1
  F  F19  1  0.442367  0.929957  0.959384  1
  F  F20  1  0.660313  0.569847  0.269877  1
  F  F21  1  0.569847  0.660313  0.769877  1
  F  F22  1  0.929600  0.602103  0.885842  1
  F  F23  1  0.602103  0.929600  0.385842  1
  F  F24  1  0.879087  0.928384  0.122875  1
  F  F25  1  0.928384  0.879087  0.622875  1
  F  F26  1  0.124737  0.689344  0.542801  1
  F  F27  1  0.689344  0.124737  0.042801  1
  F  F28  1  0.930288  0.069712  0.800845  1
  F  F29  1  0.069712  0.930288  0.300845  1
  F  F30  1  0.875263  0.310656  0.042801  1
  F  F31  1  0.310656  0.875263  0.542801  1
