# generated using pymatgen
data_Dy3Ho3Tm2(CdIr)2
_symmetry_space_group_name_H-M   'P 1'
_cell_length_a   9.58753983
_cell_length_b   9.58376519
_cell_length_c   9.58376574
_cell_angle_alpha   60.02605204
_cell_angle_beta   59.98696816
_cell_angle_gamma   59.98697503
_symmetry_Int_Tables_number   1
_chemical_formula_structural   Dy3Ho3Tm2(CdIr)2
_chemical_formula_sum   'Dy6 Ho6 Tm4 Cd4 Ir4'
_cell_volume   622.67924089
_cell_formula_units_Z   2
loop_
 _symmetry_equiv_pos_site_id
 _symmetry_equiv_pos_as_xyz
  1  'x, y, z'
loop_
 _atom_site_type_symbol
 _atom_site_label
 _atom_site_symmetry_multiplicity
 _atom_site_fract_x
 _atom_site_fract_y
 _atom_site_fract_z
 _atom_site_occupancy
  Dy  Dy0  1  0.188683  0.811317  0.811317  1
  Dy  Dy1  1  0.811317  0.188683  0.188683  1
  Dy  Dy2  1  0.811355  0.188645  0.811355  1
  Dy  Dy3  1  0.188645  0.811355  0.188645  1
  Dy  Dy4  1  0.811355  0.811355  0.188645  1
  Dy  Dy5  1  0.188645  0.188645  0.811355  1
  Ho  Ho6  1  0.598716  0.599191  0.599191  1
  Ho  Ho7  1  0.599191  0.598716  0.202903  1
  Ho  Ho8  1  0.599191  0.202903  0.598716  1
  Ho  Ho9  1  0.202903  0.599191  0.599191  1
  Ho  Ho10  1  0.061573  0.438427  0.438427  1
  Ho  Ho11  1  0.438427  0.061573  0.061573  1
  Tm  Tm12  1  0.438615  0.061385  0.438615  1
  Tm  Tm13  1  0.061385  0.438615  0.061385  1
  Tm  Tm14  1  0.438615  0.438615  0.061385  1
  Tm  Tm15  1  0.061385  0.061385  0.438615  1
  Cd  Cd16  1  0.830853  0.830688  0.830688  1
  Cd  Cd17  1  0.830688  0.830853  0.507772  1
  Cd  Cd18  1  0.830688  0.507772  0.830853  1
  Cd  Cd19  1  0.507772  0.830688  0.830688  1
  Ir  Ir20  1  0.391908  0.391238  0.391238  1
  Ir  Ir21  1  0.391238  0.391908  0.825616  1
  Ir  Ir22  1  0.391238  0.825616  0.391908  1
  Ir  Ir23  1  0.825616  0.391238  0.391238  1
