# generated using pymatgen
data_Tb4Dy3Y5ZnCo4Sn
_symmetry_space_group_name_H-M   'P 1'
_cell_length_a   8.34543200
_cell_length_b   8.35062557
_cell_length_c   8.34543290
_cell_angle_alpha   112.01661975
_cell_angle_beta   109.06299541
_cell_angle_gamma   107.34340380
_symmetry_Int_Tables_number   1
_chemical_formula_structural   Tb4Dy3Y5ZnCo4Sn
_chemical_formula_sum   'Tb4 Dy3 Y5 Zn1 Co4 Sn1'
_cell_volume   447.08205331
_cell_formula_units_Z   1
loop_
 _symmetry_equiv_pos_site_id
 _symmetry_equiv_pos_as_xyz
  1  'x, y, z'
loop_
 _atom_site_type_symbol
 _atom_site_label
 _atom_site_symmetry_multiplicity
 _atom_site_fract_x
 _atom_site_fract_y
 _atom_site_fract_z
 _atom_site_occupancy
  Tb  Tb0  1  0.428751  0.228076  0.200251  1
  Tb  Tb1  1  0.571472  0.771781  0.799768  1
  Tb  Tb2  1  0.027824  0.228076  0.799325  1
  Tb  Tb3  1  0.972014  0.771781  0.200309  1
  Dy  Dy4  1  0.675348  0.362687  0.687339  1
  Dy  Dy5  1  0.324654  0.011778  0.687124  1
  Dy  Dy6  1  0.675565  0.988396  0.312831  1
  Y  Y7  1  0.181049  0.283791  0.465134  1
  Y  Y8  1  0.819003  0.716086  0.534981  1
  Y  Y9  1  0.181106  0.716086  0.897083  1
  Y  Y10  1  0.818656  0.283791  0.102742  1
  Y  Y11  1  0.324566  0.636074  0.311508  1
  Zn  Zn12  1  0.000080  0.000173  0.000093  1
  Co  Co13  1  0.344234  0.000743  0.344361  1
  Co  Co14  1  0.656381  0.000743  0.656509  1
  Co  Co15  1  0.114006  0.614627  0.500620  1
  Co  Co16  1  0.885383  0.385348  0.499966  1
  Sn  Sn17  1  0.499908  0.499965  0.000057  1
