# generated using pymatgen
data_CePr3Zn34
_symmetry_space_group_name_H-M   'P 1'
_cell_length_a   6.78293237
_cell_length_b   6.78293430
_cell_length_c   13.87369894
_cell_angle_alpha   82.61733606
_cell_angle_beta   82.61734506
_cell_angle_gamma   82.73153954
_symmetry_Int_Tables_number   1
_chemical_formula_structural   CePr3Zn34
_chemical_formula_sum   'Ce1 Pr3 Zn34'
_cell_volume   623.82515008
_cell_formula_units_Z   1
loop_
 _symmetry_equiv_pos_site_id
 _symmetry_equiv_pos_as_xyz
  1  'x, y, z'
loop_
 _atom_site_type_symbol
 _atom_site_label
 _atom_site_symmetry_multiplicity
 _atom_site_fract_x
 _atom_site_fract_y
 _atom_site_fract_z
 _atom_site_occupancy
  Ce  Ce0  1  0.334984  0.334984  0.669146  1
  Pr  Pr1  1  0.332784  0.332784  0.168958  1
  Pr  Pr2  1  0.665797  0.665797  0.830340  1
  Pr  Pr3  1  0.666293  0.666294  0.331639  1
  Zn  Zn4  1  0.349014  0.349014  0.423108  1
  Zn  Zn5  1  0.099286  0.099286  0.552145  1
  Zn  Zn6  1  0.096790  0.096790  0.050827  1
  Zn  Zn7  1  0.903142  0.903142  0.948446  1
  Zn  Zn8  1  0.903942  0.903942  0.450173  1
  Zn  Zn9  1  0.999058  0.999058  0.750752  1
  Zn  Zn10  1  0.999368  0.999368  0.250206  1
  Zn  Zn11  1  0.999701  0.500491  0.499813  1
  Zn  Zn12  1  0.000034  0.499782  0.999808  1
  Zn  Zn13  1  0.499782  0.000034  0.999808  1
  Zn  Zn14  1  0.500491  0.999701  0.499813  1
  Zn  Zn15  1  0.703553  0.294598  0.501240  1
  Zn  Zn16  1  0.708115  0.292205  0.999308  1
  Zn  Zn17  1  0.293111  0.000725  0.852948  1
  Zn  Zn18  1  0.290728  0.997054  0.354721  1
  Zn  Zn19  1  0.002096  0.706824  0.646489  1
  Zn  Zn20  1  0.001177  0.708100  0.145687  1
  Zn  Zn21  1  0.706824  0.002096  0.646489  1
  Zn  Zn22  1  0.708100  0.001177  0.145687  1
  Zn  Zn23  1  0.000725  0.293111  0.852948  1
  Zn  Zn24  1  0.997054  0.290728  0.354721  1
  Zn  Zn25  1  0.292205  0.708115  0.999308  1
  Zn  Zn26  1  0.294598  0.703553  0.501240  1
  Zn  Zn27  1  0.648600  0.648600  0.578866  1
  Zn  Zn28  1  0.649081  0.649081  0.077631  1
  Zn  Zn29  1  0.646836  0.163549  0.823290  1
  Zn  Zn30  1  0.648163  0.161703  0.324472  1
  Zn  Zn31  1  0.163549  0.646836  0.823290  1
  Zn  Zn32  1  0.161703  0.648163  0.324472  1
  Zn  Zn33  1  0.350915  0.350915  0.921540  1
  Zn  Zn34  1  0.350496  0.842676  0.675108  1
  Zn  Zn35  1  0.350847  0.838383  0.175227  1
  Zn  Zn36  1  0.842676  0.350496  0.675108  1
  Zn  Zn37  1  0.838383  0.350847  0.175227  1
