# generated using pymatgen
data_PrHo3(Si5Pt3)2
_symmetry_space_group_name_H-M   'P 1'
_cell_length_a   8.17707387
_cell_length_b   8.18570233
_cell_length_c   8.18570141
_cell_angle_alpha   136.34077821
_cell_angle_beta   104.84684614
_cell_angle_gamma   91.18019835
_symmetry_Int_Tables_number   1
_chemical_formula_structural   PrHo3(Si5Pt3)2
_chemical_formula_sum   'Pr1 Ho3 Si10 Pt6'
_cell_volume   347.77872287
_cell_formula_units_Z   1
loop_
 _symmetry_equiv_pos_site_id
 _symmetry_equiv_pos_as_xyz
  1  'x, y, z'
loop_
 _atom_site_type_symbol
 _atom_site_label
 _atom_site_symmetry_multiplicity
 _atom_site_fract_x
 _atom_site_fract_y
 _atom_site_fract_z
 _atom_site_occupancy
  Pr  Pr0  1  0.603086  0.871222  0.731864  1
  Ho  Ho1  1  0.858709  0.628926  0.229783  1
  Ho  Ho2  1  0.140814  0.370981  0.769833  1
  Ho  Ho3  1  0.398496  0.128884  0.269612  1
  Si  Si4  1  0.499723  0.751098  0.250153  1
  Si  Si5  1  0.499723  0.249570  0.748625  1
  Si  Si6  1  0.227549  0.978481  0.749026  1
  Si  Si7  1  0.771115  0.520722  0.750386  1
  Si  Si8  1  0.771115  0.020729  0.250393  1
  Si  Si9  1  0.227549  0.478523  0.249068  1
  Si  Si10  1  0.037690  0.887596  0.150094  1
  Si  Si11  1  0.965483  0.115326  0.850157  1
  Si  Si12  1  0.736693  0.387411  0.349282  1
  Si  Si13  1  0.261827  0.610681  0.651146  1
  Pt  Pt14  1  0.001447  0.749673  0.750290  1
  Pt  Pt15  1  0.001447  0.251157  0.251774  1
  Pt  Pt16  1  0.248687  0.862612  0.386076  1
  Pt  Pt17  1  0.751791  0.138967  0.612823  1
  Pt  Pt18  1  0.474164  0.362934  0.111230  1
  Pt  Pt19  1  0.522891  0.634507  0.888384  1
