# generated using pymatgen
data_LiSm8Sc10Si16Ag
_symmetry_space_group_name_H-M   'P 1'
_cell_length_a   7.08201723
_cell_length_b   7.49390450
_cell_length_c   14.15129500
_cell_angle_alpha   90.00000000
_cell_angle_beta   90.00000000
_cell_angle_gamma   89.80214630
_symmetry_Int_Tables_number   1
_chemical_formula_structural   LiSm8Sc10Si16Ag
_chemical_formula_sum   'Li1 Sm8 Sc10 Si16 Ag1'
_cell_volume   751.03249572
_cell_formula_units_Z   1
loop_
 _symmetry_equiv_pos_site_id
 _symmetry_equiv_pos_as_xyz
  1  'x, y, z'
loop_
 _atom_site_type_symbol
 _atom_site_label
 _atom_site_symmetry_multiplicity
 _atom_site_fract_x
 _atom_site_fract_y
 _atom_site_fract_z
 _atom_site_occupancy
  Li  Li0  1  0.842455  0.499044  0.250000  1
  Sm  Sm1  1  0.009826  0.179916  0.099287  1
  Sm  Sm2  1  0.990563  0.817076  0.900014  1
  Sm  Sm3  1  0.482255  0.673417  0.900164  1
  Sm  Sm4  1  0.990563  0.817076  0.599986  1
  Sm  Sm5  1  0.516834  0.326036  0.098701  1
  Sm  Sm6  1  0.009826  0.179916  0.400713  1
  Sm  Sm7  1  0.516834  0.326036  0.401299  1
  Sm  Sm8  1  0.482255  0.673417  0.599836  1
  Sc  Sc9  1  0.340921  0.000301  0.250000  1
  Sc  Sc10  1  0.658649  0.001486  0.750000  1
  Sc  Sc11  1  0.326129  0.184319  0.625779  1
  Sc  Sc12  1  0.672973  0.817204  0.374627  1
  Sc  Sc13  1  0.167208  0.674960  0.373150  1
  Sc  Sc14  1  0.672973  0.817204  0.125373  1
  Sc  Sc15  1  0.834267  0.326662  0.626307  1
  Sc  Sc16  1  0.326129  0.184319  0.874221  1
  Sc  Sc17  1  0.834267  0.326662  0.873693  1
  Sc  Sc18  1  0.167208  0.674960  0.126850  1
  Si  Si19  1  0.029366  0.106646  0.750000  1
  Si  Si20  1  0.968766  0.890598  0.250000  1
  Si  Si21  1  0.462958  0.618752  0.250000  1
  Si  Si22  1  0.539519  0.380400  0.750000  1
  Si  Si23  1  0.290525  0.894324  0.750000  1
  Si  Si24  1  0.710341  0.108986  0.250000  1
  Si  Si25  1  0.219439  0.379049  0.250000  1
  Si  Si26  1  0.778099  0.623083  0.750000  1
  Si  Si27  1  0.156971  0.459184  0.531286  1
  Si  Si28  1  0.845062  0.539130  0.466088  1
  Si  Si29  1  0.346308  0.965746  0.461841  1
  Si  Si30  1  0.845062  0.539130  0.033912  1
  Si  Si31  1  0.654496  0.033696  0.539385  1
  Si  Si32  1  0.156971  0.459184  0.968714  1
  Si  Si33  1  0.654496  0.033696  0.960615  1
  Si  Si34  1  0.346308  0.965746  0.038159  1
  Ag  Ag35  1  0.153180  0.502638  0.750000  1
