# generated using pymatgen
data_Ba14PrBi11
_symmetry_space_group_name_H-M   'P 1'
_cell_length_a   18.69209710
_cell_length_b   18.69209659
_cell_length_c   18.69209700
_cell_angle_alpha   117.45216392
_cell_angle_beta   117.45216311
_cell_angle_gamma   94.47270914
_symmetry_Int_Tables_number   1
_chemical_formula_structural   Ba14PrBi11
_chemical_formula_sum   'Ba56 Pr4 Bi44'
_cell_volume   4780.14041685
_cell_formula_units_Z   4
loop_
 _symmetry_equiv_pos_site_id
 _symmetry_equiv_pos_as_xyz
  1  'x, y, z'
loop_
 _atom_site_type_symbol
 _atom_site_label
 _atom_site_symmetry_multiplicity
 _atom_site_fract_x
 _atom_site_fract_y
 _atom_site_fract_z
 _atom_site_occupancy
  Ba  Ba0  1  0.591361  0.871263  0.368187  1
  Ba  Ba1  1  0.123076  0.962680  0.520874  1
  Ba  Ba2  1  0.770468  0.375000  0.895468  1
  Ba  Ba3  1  0.125000  0.729532  0.104532  1
  Ba  Ba4  1  0.852202  0.191806  0.979126  1
  Ba  Ba5  1  0.126924  0.147798  0.339604  1
  Ba  Ba6  1  0.354747  0.750016  0.343727  1
  Ba  Ba7  1  0.897798  0.058194  0.520874  1
  Ba  Ba8  1  0.941806  0.462680  0.839604  1
  Ba  Ba9  1  0.037320  0.558194  0.160396  1
  Ba  Ba10  1  0.158639  0.378737  0.131813  1
  Ba  Ba11  1  0.003077  0.371263  0.279901  1
  Ba  Ba12  1  0.441806  0.602202  0.479126  1
  Ba  Ba13  1  0.308194  0.647798  0.020874  1
  Ba  Ba14  1  0.621263  0.753077  0.779901  1
  Ba  Ba15  1  0.246923  0.026825  0.868187  1
  Ba  Ba16  1  0.125000  0.229532  0.604532  1
  Ba  Ba17  1  0.488979  0.093711  0.343727  1
  Ba  Ba18  1  0.406289  0.011021  0.656273  1
  Ba  Ba19  1  0.343711  0.238979  0.843727  1
  Ba  Ba20  1  0.623076  0.102202  0.160396  1
  Ba  Ba21  1  0.479532  0.875000  0.104532  1
  Ba  Ba22  1  0.276825  0.996923  0.368187  1
  Ba  Ba23  1  0.761021  0.604747  0.104732  1
  Ba  Ba24  1  0.625000  0.020468  0.895468  1
  Ba  Ba25  1  0.500016  0.656289  0.895268  1
  Ba  Ba26  1  0.973175  0.841361  0.220099  1
  Ba  Ba27  1  0.988979  0.645253  0.395268  1
  Ba  Ba28  1  0.261021  0.156289  0.156273  1
  Ba  Ba29  1  0.397798  0.876924  0.839604  1
  Ba  Ba30  1  0.625000  0.520468  0.395468  1
  Ba  Ba31  1  0.000016  0.104747  0.843727  1
  Ba  Ba32  1  0.658639  0.526825  0.779901  1
  Ba  Ba33  1  0.628737  0.908639  0.631813  1
  Ba  Ba34  1  0.776825  0.408639  0.279901  1
  Ba  Ba35  1  0.212680  0.873076  0.020874  1
  Ba  Ba36  1  0.906289  0.250016  0.395268  1
  Ba  Ba37  1  0.808194  0.787320  0.660396  1
  Ba  Ba38  1  0.854747  0.511021  0.604732  1
  Ba  Ba39  1  0.746923  0.878737  0.220099  1
  Ba  Ba40  1  0.626924  0.287320  0.979126  1
  Ba  Ba41  1  0.749984  0.145253  0.656273  1
  Ba  Ba42  1  0.128737  0.496923  0.720099  1
  Ba  Ba43  1  0.979532  0.875000  0.604532  1
  Ba  Ba44  1  0.091361  0.723175  0.720099  1
  Ba  Ba45  1  0.121263  0.341361  0.868187  1
  Ba  Ba46  1  0.249984  0.593711  0.604732  1
  Ba  Ba47  1  0.395253  0.499984  0.156273  1
  Ba  Ba48  1  0.352202  0.373076  0.660396  1
  Ba  Ba49  1  0.843711  0.999984  0.104732  1
  Ba  Ba50  1  0.473175  0.253077  0.131813  1
  Ba  Ba51  1  0.270468  0.375000  0.395468  1
  Ba  Ba52  1  0.503077  0.223175  0.631813  1
  Ba  Ba53  1  0.537320  0.376924  0.479126  1
  Ba  Ba54  1  0.895253  0.738979  0.895268  1
  Ba  Ba55  1  0.712680  0.691806  0.339604  1
  Pr  Pr56  1  0.000000  0.000000  0.000000  1
  Pr  Pr57  1  0.250000  0.750000  0.500000  1
  Pr  Pr58  1  0.750000  0.250000  0.500000  1
  Pr  Pr59  1  0.500000  0.500000  0.000000  1
  Bi  Bi60  1  0.553646  0.697430  0.408192  1
  Bi  Bi61  1  0.131063  0.368937  0.500000  1
  Bi  Bi62  1  0.454574  0.819022  0.644425  1
  Bi  Bi63  1  0.060150  0.924598  0.855575  1
  Bi  Bi64  1  0.295426  0.430978  0.855575  1
  Bi  Bi65  1  0.854546  0.446354  0.143783  1
  Bi  Bi66  1  0.368937  0.868937  0.237875  1
  Bi  Bi67  1  0.250000  0.250000  0.000000  1
  Bi  Bi68  1  0.075402  0.930978  0.135553  1
  Bi  Bi69  1  0.960763  0.052570  0.356217  1
  Bi  Bi70  1  0.302570  0.710763  0.856217  1
  Bi  Bi71  1  0.631063  0.131063  0.762125  1
  Bi  Bi72  1  0.789237  0.197430  0.143783  1
  Bi  Bi73  1  0.881063  0.618937  0.000000  1
  Bi  Bi74  1  0.447430  0.539237  0.643783  1
  Bi  Bi75  1  0.395454  0.039237  0.091808  1
  Bi  Bi76  1  0.289237  0.145454  0.591808  1
  Bi  Bi77  1  0.560150  0.704574  0.135553  1
  Bi  Bi78  1  0.954574  0.310150  0.635553  1
  Bi  Bi79  1  0.689850  0.325402  0.644425  1
  Bi  Bi80  1  0.500000  0.000000  0.500000  1
  Bi  Bi81  1  0.618937  0.881063  0.000000  1
  Bi  Bi82  1  0.460763  0.104546  0.908192  1
  Bi  Bi83  1  0.947430  0.303646  0.908192  1
  Bi  Bi84  1  0.381063  0.381063  0.262125  1
  Bi  Bi85  1  0.180978  0.825402  0.635553  1
  Bi  Bi86  1  0.196354  0.552570  0.091808  1
  Bi  Bi87  1  0.802570  0.946354  0.591808  1
  Bi  Bi88  1  0.680978  0.045426  0.355575  1
  Bi  Bi89  1  0.696354  0.604546  0.643783  1
  Bi  Bi90  1  0.575402  0.439850  0.144425  1
  Bi  Bi91  1  0.895454  0.803646  0.356217  1
  Bi  Bi92  1  0.053646  0.645454  0.856217  1
  Bi  Bi93  1  0.674598  0.319022  0.364447  1
  Bi  Bi94  1  0.795426  0.939850  0.864447  1
  Bi  Bi95  1  0.069022  0.204574  0.144425  1
  Bi  Bi96  1  0.569022  0.424598  0.864447  1
  Bi  Bi97  1  0.174598  0.810150  0.355575  1
  Bi  Bi98  1  0.868937  0.631063  0.500000  1
  Bi  Bi99  1  0.750000  0.750000  0.000000  1
  Bi  Bi100  1  0.118937  0.118937  0.737875  1
  Bi  Bi101  1  0.189850  0.545426  0.364447  1
  Bi  Bi102  1  0.000000  0.500000  0.500000  1
  Bi  Bi103  1  0.354546  0.210763  0.408192  1
