# generated using pymatgen
data_Tb16CdNi(HgIr)3
_symmetry_space_group_name_H-M   'P 1'
_cell_length_a   9.59793873
_cell_length_b   9.60663739
_cell_length_c   9.60663856
_cell_angle_alpha   60.37307610
_cell_angle_beta   60.35109819
_cell_angle_gamma   60.35109302
_symmetry_Int_Tables_number   1
_chemical_formula_structural   Tb16CdNi(HgIr)3
_chemical_formula_sum   'Tb16 Cd1 Ni1 Hg3 Ir3'
_cell_volume   631.41186993
_cell_formula_units_Z   1
loop_
 _symmetry_equiv_pos_site_id
 _symmetry_equiv_pos_as_xyz
  1  'x, y, z'
loop_
 _atom_site_type_symbol
 _atom_site_label
 _atom_site_symmetry_multiplicity
 _atom_site_fract_x
 _atom_site_fract_y
 _atom_site_fract_z
 _atom_site_occupancy
  Tb  Tb0  1  0.599689  0.599139  0.599139  1
  Tb  Tb1  1  0.600165  0.599602  0.199347  1
  Tb  Tb2  1  0.600165  0.199347  0.599602  1
  Tb  Tb3  1  0.196837  0.600637  0.600637  1
  Tb  Tb4  1  0.059661  0.441174  0.441174  1
  Tb  Tb5  1  0.437375  0.060151  0.060151  1
  Tb  Tb6  1  0.439841  0.060613  0.440749  1
  Tb  Tb7  1  0.059215  0.438801  0.059435  1
  Tb  Tb8  1  0.439841  0.440749  0.060613  1
  Tb  Tb9  1  0.059215  0.059435  0.438801  1
  Tb  Tb10  1  0.189267  0.811423  0.811423  1
  Tb  Tb11  1  0.812948  0.187935  0.187935  1
  Tb  Tb12  1  0.810415  0.190137  0.811372  1
  Tb  Tb13  1  0.187036  0.813432  0.188318  1
  Tb  Tb14  1  0.810415  0.811372  0.190137  1
  Tb  Tb15  1  0.187036  0.188318  0.813432  1
  Cd  Cd16  1  0.508299  0.830899  0.830899  1
  Ni  Ni17  1  0.391897  0.392303  0.392303  1
  Hg  Hg18  1  0.833124  0.834861  0.834861  1
  Hg  Hg19  1  0.834640  0.836640  0.493961  1
  Hg  Hg20  1  0.834640  0.493961  0.836640  1
  Ir  Ir21  1  0.392217  0.392762  0.823768  1
  Ir  Ir22  1  0.392217  0.823768  0.392762  1
  Ir  Ir23  1  0.823848  0.392544  0.392544  1
