# generated using pymatgen
data_TbNd6Ho3(In2Pd)4
_symmetry_space_group_name_H-M   'P 1'
_cell_length_a   3.73277800
_cell_length_b   8.30291518
_cell_length_c   18.47936840
_cell_angle_alpha   89.97616410
_cell_angle_beta   90.00000000
_cell_angle_gamma   90.00000000
_symmetry_Int_Tables_number   1
_chemical_formula_structural   TbNd6Ho3(In2Pd)4
_chemical_formula_sum   'Tb1 Nd6 Ho3 In8 Pd4'
_cell_volume   572.72989020
_cell_formula_units_Z   1
loop_
 _symmetry_equiv_pos_site_id
 _symmetry_equiv_pos_as_xyz
  1  'x, y, z'
loop_
 _atom_site_type_symbol
 _atom_site_label
 _atom_site_symmetry_multiplicity
 _atom_site_fract_x
 _atom_site_fract_y
 _atom_site_fract_z
 _atom_site_occupancy
  Tb  Tb0  1  0.000000  0.618565  0.084570  1
  Nd  Nd1  1  0.000000  0.500017  0.500022  1
  Nd  Nd2  1  0.000000  0.999993  0.999958  1
  Nd  Nd3  1  0.000000  0.736454  0.285191  1
  Nd  Nd4  1  0.000000  0.263604  0.714933  1
  Nd  Nd5  1  0.000000  0.763686  0.785037  1
  Nd  Nd6  1  0.000000  0.236256  0.215152  1
  Ho  Ho7  1  0.000000  0.381923  0.914765  1
  Ho  Ho8  1  0.000000  0.881999  0.585157  1
  Ho  Ho9  1  0.000000  0.118057  0.414922  1
  In  In10  1  0.500000  0.696784  0.936227  1
  In  In11  1  0.500000  0.302402  0.063254  1
  In  In12  1  0.500000  0.803558  0.436843  1
  In  In13  1  0.500000  0.196577  0.563161  1
  In  In14  1  0.500000  0.589404  0.652118  1
  In  In15  1  0.500000  0.410492  0.347966  1
  In  In16  1  0.500000  0.911478  0.152362  1
  In  In17  1  0.500000  0.089278  0.847888  1
  Pd  Pd18  1  0.500000  0.524284  0.193810  1
  Pd  Pd19  1  0.500000  0.475189  0.806657  1
  Pd  Pd20  1  0.500000  0.975235  0.693294  1
  Pd  Pd21  1  0.500000  0.024766  0.306712  1
