# generated using pymatgen
data_PrSmB2Pt7Au
_symmetry_space_group_name_H-M   'P 1'
_cell_length_a   5.52097100
_cell_length_b   5.52097200
_cell_length_c   7.74998500
_cell_angle_alpha   90.00000000
_cell_angle_beta   90.00000000
_cell_angle_gamma   120.00000003
_symmetry_Int_Tables_number   1
_chemical_formula_structural   PrSmB2Pt7Au
_chemical_formula_sum   'Pr1 Sm1 B2 Pt7 Au1'
_cell_volume   204.57968409
_cell_formula_units_Z   1
loop_
 _symmetry_equiv_pos_site_id
 _symmetry_equiv_pos_as_xyz
  1  'x, y, z'
loop_
 _atom_site_type_symbol
 _atom_site_label
 _atom_site_symmetry_multiplicity
 _atom_site_fract_x
 _atom_site_fract_y
 _atom_site_fract_z
 _atom_site_occupancy
  Pr  Pr0  1  0.000000  0.000000  0.000000  1
  Sm  Sm1  1  0.000000  0.000000  0.500000  1
  B  B2  1  0.666667  0.333333  0.500000  1
  B  B3  1  0.333333  0.666667  0.500000  1
  Pt  Pt4  1  0.499296  0.500704  0.304371  1
  Pt  Pt5  1  0.499296  0.998591  0.304371  1
  Pt  Pt6  1  0.499296  0.998591  0.695629  1
  Pt  Pt7  1  0.499296  0.500704  0.695629  1
  Pt  Pt8  1  0.001409  0.500704  0.695629  1
  Pt  Pt9  1  0.333333  0.666667  0.000000  1
  Pt  Pt10  1  0.001409  0.500704  0.304371  1
  Au  Au11  1  0.666667  0.333333  0.000000  1
