# generated using pymatgen
data_Nd2Mn2Co10P7
_symmetry_space_group_name_H-M   'P 1'
_cell_length_a   9.13195973
_cell_length_b   9.10998724
_cell_length_c   3.64328200
_cell_angle_alpha   90.00000000
_cell_angle_beta   90.00000000
_cell_angle_gamma   119.99772637
_symmetry_Int_Tables_number   1
_chemical_formula_structural   Nd2Mn2Co10P7
_chemical_formula_sum   'Nd2 Mn2 Co10 P7'
_cell_volume   262.49142790
_cell_formula_units_Z   1
loop_
 _symmetry_equiv_pos_site_id
 _symmetry_equiv_pos_as_xyz
  1  'x, y, z'
loop_
 _atom_site_type_symbol
 _atom_site_label
 _atom_site_symmetry_multiplicity
 _atom_site_fract_x
 _atom_site_fract_y
 _atom_site_fract_z
 _atom_site_occupancy
  Nd  Nd0  1  0.332714  0.664976  0.000000  1
  Nd  Nd1  1  0.999414  0.999646  0.500000  1
  Mn  Mn2  1  0.767741  0.551523  0.500000  1
  Mn  Mn3  1  0.448542  0.215445  0.500000  1
  Co  Co4  1  0.035419  0.275029  0.000000  1
  Co  Co5  1  0.725359  0.762949  0.000000  1
  Co  Co6  1  0.237731  0.962756  0.000000  1
  Co  Co7  1  0.549321  0.061544  0.000000  1
  Co  Co8  1  0.938212  0.485877  0.000000  1
  Co  Co9  1  0.511482  0.450218  0.000000  1
  Co  Co10  1  0.618862  0.902267  0.500000  1
  Co  Co11  1  0.099641  0.715862  0.500000  1
  Co  Co12  1  0.281765  0.382389  0.500000  1
  Co  Co13  1  0.790167  0.238251  0.500000  1
  P  P14  1  0.773890  0.035505  0.000000  1
  P  P15  1  0.966192  0.739639  0.000000  1
  P  P16  1  0.258276  0.226433  0.000000  1
  P  P17  1  0.374893  0.930722  0.500000  1
  P  P18  1  0.063941  0.440824  0.500000  1
  P  P19  1  0.558748  0.624697  0.500000  1
  P  P20  1  0.667688  0.333448  0.000000  1
