# generated using pymatgen
data_RbLa6RuBr12
_symmetry_space_group_name_H-M   'P 1'
_cell_length_a   9.71375126
_cell_length_b   9.70871643
_cell_length_c   9.71314639
_cell_angle_alpha   104.57939793
_cell_angle_beta   104.65878100
_cell_angle_gamma   104.58090810
_symmetry_Int_Tables_number   1
_chemical_formula_structural   RbLa6RuBr12
_chemical_formula_sum   'Rb1 La6 Ru1 Br12'
_cell_volume   807.53273128
_cell_formula_units_Z   1
loop_
 _symmetry_equiv_pos_site_id
 _symmetry_equiv_pos_as_xyz
  1  'x, y, z'
loop_
 _atom_site_type_symbol
 _atom_site_label
 _atom_site_symmetry_multiplicity
 _atom_site_fract_x
 _atom_site_fract_y
 _atom_site_fract_z
 _atom_site_occupancy
  Rb  Rb0  1  0.500000  0.500000  0.500000  1
  La  La1  1  0.101179  0.306840  0.009941  1
  La  La2  1  0.307894  0.009997  0.101829  1
  La  La3  1  0.009718  0.101607  0.307335  1
  La  La4  1  0.990283  0.898393  0.692666  1
  La  La5  1  0.692106  0.990004  0.898171  1
  La  La6  1  0.898821  0.693160  0.990059  1
  Ru  Ru7  1  0.000000  0.000000  0.000000  1
  Br  Br8  1  0.215563  0.672390  0.074849  1
  Br  Br9  1  0.426707  0.334674  0.114120  1
  Br  Br10  1  0.672188  0.074771  0.215214  1
  Br  Br11  1  0.925155  0.784618  0.327555  1
  Br  Br12  1  0.114211  0.426902  0.334580  1
  Br  Br13  1  0.334348  0.114006  0.426624  1
  Br  Br14  1  0.665652  0.885994  0.573377  1
  Br  Br15  1  0.885790  0.573098  0.665420  1
  Br  Br16  1  0.074846  0.215382  0.672446  1
  Br  Br17  1  0.327813  0.925230  0.784786  1
  Br  Br18  1  0.573293  0.665326  0.885881  1
  Br  Br19  1  0.784437  0.327610  0.925151  1
