# generated using pymatgen
data_Tb8Hf11ZrSi15Ir
_symmetry_space_group_name_H-M   'P 1'
_cell_length_a   7.29856622
_cell_length_b   7.30613656
_cell_length_c   13.44303126
_cell_angle_alpha   89.87653360
_cell_angle_beta   89.90531181
_cell_angle_gamma   90.05488458
_symmetry_Int_Tables_number   1
_chemical_formula_structural   Tb8Hf11ZrSi15Ir
_chemical_formula_sum   'Tb8 Hf11 Zr1 Si15 Ir1'
_cell_volume   716.83754527
_cell_formula_units_Z   1
loop_
 _symmetry_equiv_pos_site_id
 _symmetry_equiv_pos_as_xyz
  1  'x, y, z'
loop_
 _atom_site_type_symbol
 _atom_site_label
 _atom_site_symmetry_multiplicity
 _atom_site_fract_x
 _atom_site_fract_y
 _atom_site_fract_z
 _atom_site_occupancy
  Tb  Tb0  1  0.995074  0.346576  0.214656  1
  Tb  Tb1  1  0.004300  0.655343  0.714530  1
  Tb  Tb2  1  0.157764  0.494291  0.463546  1
  Tb  Tb3  1  0.503547  0.842998  0.034319  1
  Tb  Tb4  1  0.844670  0.502806  0.965013  1
  Tb  Tb5  1  0.496213  0.157116  0.535592  1
  Tb  Tb6  1  0.343820  0.996815  0.785157  1
  Tb  Tb7  1  0.657145  0.000627  0.284837  1
  Hf  Hf8  1  0.827097  0.825564  0.500525  1
  Hf  Hf9  1  0.325667  0.667570  0.252911  1
  Hf  Hf10  1  0.674359  0.325457  0.750121  1
  Hf  Hf11  1  0.153805  0.004963  0.373691  1
  Hf  Hf12  1  0.850716  0.003958  0.874480  1
  Hf  Hf13  1  0.503641  0.650533  0.625559  1
  Hf  Hf14  1  0.351349  0.495607  0.873725  1
  Hf  Hf15  1  0.494349  0.346787  0.126424  1
  Hf  Hf16  1  0.646121  0.502008  0.378874  1
  Hf  Hf17  1  0.997006  0.148556  0.626098  1
  Hf  Hf18  1  0.000349  0.848649  0.124478  1
  Zr  Zr19  1  0.175030  0.174941  0.998601  1
  Si  Si20  1  0.638156  0.705058  0.818348  1
  Si  Si21  1  0.204850  0.862016  0.566707  1
  Si  Si22  1  0.137603  0.793423  0.932696  1
  Si  Si23  1  0.795273  0.136759  0.066030  1
  Si  Si24  1  0.860756  0.199694  0.435719  1
  Si  Si25  1  0.296005  0.362349  0.683418  1
  Si  Si26  1  0.703571  0.639396  0.182866  1
  Si  Si27  1  0.291256  0.044322  0.184926  1
  Si  Si28  1  0.705809  0.951362  0.685730  1
  Si  Si29  1  0.451941  0.797746  0.438265  1
  Si  Si30  1  0.205946  0.552236  0.061685  1
  Si  Si31  1  0.550162  0.205180  0.934958  1
  Si  Si32  1  0.794948  0.451212  0.566269  1
  Si  Si33  1  0.047318  0.295987  0.813432  1
  Si  Si34  1  0.949156  0.709487  0.313926  1
  Ir  Ir35  1  0.365227  0.302606  0.311888  1
