# generated using pymatgen
data_Cs4ScWBr12
_symmetry_space_group_name_H-M   'P 1'
_cell_length_a   7.94630720
_cell_length_b   7.96748122
_cell_length_c   11.21879200
_cell_angle_alpha   90.00000000
_cell_angle_beta   90.00000000
_cell_angle_gamma   89.52921186
_symmetry_Int_Tables_number   1
_chemical_formula_structural   Cs4ScWBr12
_chemical_formula_sum   'Cs4 Sc1 W1 Br12'
_cell_volume   710.26078021
_cell_formula_units_Z   1
loop_
 _symmetry_equiv_pos_site_id
 _symmetry_equiv_pos_as_xyz
  1  'x, y, z'
loop_
 _atom_site_type_symbol
 _atom_site_label
 _atom_site_symmetry_multiplicity
 _atom_site_fract_x
 _atom_site_fract_y
 _atom_site_fract_z
 _atom_site_occupancy
  Cs  Cs0  1  0.500000  0.000000  0.775834  1
  Cs  Cs1  1  0.000000  0.500000  0.224090  1
  Cs  Cs2  1  0.500000  0.000000  0.224166  1
  Cs  Cs3  1  0.000000  0.500000  0.775910  1
  Sc  Sc4  1  0.000000  0.000000  0.000000  1
  W  W5  1  0.500000  0.500000  0.500000  1
  Br  Br6  1  0.000000  0.000000  0.760585  1
  Br  Br7  1  0.500000  0.500000  0.275904  1
  Br  Br8  1  0.723538  0.723316  0.500000  1
  Br  Br9  1  0.237942  0.237462  0.000000  1
  Br  Br10  1  0.724767  0.275334  0.500000  1
  Br  Br11  1  0.238983  0.761425  0.000000  1
  Br  Br12  1  0.000000  0.000000  0.239415  1
  Br  Br13  1  0.500000  0.500000  0.724096  1
  Br  Br14  1  0.276462  0.276684  0.500000  1
  Br  Br15  1  0.762058  0.762538  0.000000  1
  Br  Br16  1  0.275233  0.724666  0.500000  1
  Br  Br17  1  0.761017  0.238575  0.000000  1
