# generated using pymatgen
data_Ac2Eu(AgPb)3
_symmetry_space_group_name_H-M   'P 1'
_cell_length_a   5.08285900
_cell_length_b   5.08285873
_cell_length_c   11.99501900
_cell_angle_alpha   90.00000000
_cell_angle_beta   90.00000000
_cell_angle_gamma   119.99999522
_symmetry_Int_Tables_number   1
_chemical_formula_structural   Ac2Eu(AgPb)3
_chemical_formula_sum   'Ac2 Eu1 Ag3 Pb3'
_cell_volume   268.37848378
_cell_formula_units_Z   1
loop_
 _symmetry_equiv_pos_site_id
 _symmetry_equiv_pos_as_xyz
  1  'x, y, z'
loop_
 _atom_site_type_symbol
 _atom_site_label
 _atom_site_symmetry_multiplicity
 _atom_site_fract_x
 _atom_site_fract_y
 _atom_site_fract_z
 _atom_site_occupancy
  Ac  Ac0  1  0.666667  0.333333  0.825957  1
  Ac  Ac1  1  0.666667  0.333333  0.169471  1
  Eu  Eu2  1  0.666667  0.333333  0.497636  1
  Ag  Ag3  1  0.333333  0.666667  0.996435  1
  Ag  Ag4  1  0.000000  0.000000  0.668378  1
  Ag  Ag5  1  0.000000  0.000000  0.325587  1
  Pb  Pb6  1  0.333333  0.666667  0.646212  1
  Pb  Pb7  1  0.333333  0.666667  0.349584  1
  Pb  Pb8  1  0.000000  0.000000  0.998641  1
