# generated using pymatgen
data_Ho3Tm7AlSb5
_symmetry_space_group_name_H-M   'P 1'
_cell_length_a   8.82877100
_cell_length_b   8.83798392
_cell_length_c   6.30258500
_cell_angle_alpha   90.00000000
_cell_angle_beta   90.00000000
_cell_angle_gamma   119.96552664
_symmetry_Int_Tables_number   1
_chemical_formula_structural   Ho3Tm7AlSb5
_chemical_formula_sum   'Ho3 Tm7 Al1 Sb5'
_cell_volume   426.04312497
_cell_formula_units_Z   1
loop_
 _symmetry_equiv_pos_site_id
 _symmetry_equiv_pos_as_xyz
  1  'x, y, z'
loop_
 _atom_site_type_symbol
 _atom_site_label
 _atom_site_symmetry_multiplicity
 _atom_site_fract_x
 _atom_site_fract_y
 _atom_site_fract_z
 _atom_site_occupancy
  Ho  Ho0  1  0.755272  0.756085  0.250000  1
  Ho  Ho1  1  0.999187  0.243915  0.250000  1
  Ho  Ho2  1  0.241647  0.000000  0.250000  1
  Tm  Tm3  1  0.334965  0.673896  0.998425  1
  Tm  Tm4  1  0.661070  0.326104  0.501575  1
  Tm  Tm5  1  0.661070  0.326104  0.998425  1
  Tm  Tm6  1  0.334965  0.673896  0.501575  1
  Tm  Tm7  1  0.752686  0.000000  0.750000  1
  Tm  Tm8  1  0.009922  0.764446  0.750000  1
  Tm  Tm9  1  0.245476  0.235554  0.750000  1
  Al  Al10  1  0.397278  0.000000  0.750000  1
  Sb  Sb11  1  0.390091  0.393396  0.250000  1
  Sb  Sb12  1  0.996695  0.606604  0.250000  1
  Sb  Sb13  1  0.002108  0.390797  0.750000  1
  Sb  Sb14  1  0.611311  0.609203  0.750000  1
  Sb  Sb15  1  0.606256  0.000000  0.250000  1
