# generated using pymatgen
data_NdSmY4RhI10
_symmetry_space_group_name_H-M   'P 1'
_cell_length_a   7.81319237
_cell_length_b   9.80331898
_cell_length_c   9.85646882
_cell_angle_alpha   107.33633412
_cell_angle_beta   96.81820214
_cell_angle_gamma   103.93256383
_symmetry_Int_Tables_number   1
_chemical_formula_structural   NdSmY4RhI10
_chemical_formula_sum   'Nd1 Sm1 Y4 Rh1 I10'
_cell_volume   684.51993366
_cell_formula_units_Z   1
loop_
 _symmetry_equiv_pos_site_id
 _symmetry_equiv_pos_as_xyz
  1  'x, y, z'
loop_
 _atom_site_type_symbol
 _atom_site_label
 _atom_site_symmetry_multiplicity
 _atom_site_fract_x
 _atom_site_fract_y
 _atom_site_fract_z
 _atom_site_occupancy
  Nd  Nd0  1  0.533963  0.217967  0.414904  1
  Sm  Sm1  1  0.465733  0.776929  0.583606  1
  Y  Y2  1  0.152011  0.378342  0.333094  1
  Y  Y3  1  0.848414  0.623369  0.667318  1
  Y  Y4  1  0.616320  0.541944  0.256860  1
  Y  Y5  1  0.384851  0.457431  0.743496  1
  Rh  Rh6  1  0.500306  0.499623  0.500067  1
  I  I7  1  0.144148  0.053459  0.227900  1
  I  I8  1  0.849241  0.945886  0.770381  1
  I  I9  1  0.246658  0.415173  0.038946  1
  I  I10  1  0.754968  0.587059  0.961447  1
  I  I11  1  0.732658  0.250273  0.150625  1
  I  I12  1  0.270014  0.751931  0.847648  1
  I  I13  1  0.043006  0.683452  0.408924  1
  I  I14  1  0.958988  0.319186  0.592686  1
  I  I15  1  0.411690  0.130673  0.684555  1
  I  I16  1  0.587030  0.867304  0.317543  1
