# generated using pymatgen
data_Tb7Pa(Ta3Ge4)4
_symmetry_space_group_name_H-M   'P 1'
_cell_length_a   7.01162936
_cell_length_b   7.18039306
_cell_length_c   13.55991200
_cell_angle_alpha   89.99304190
_cell_angle_beta   90.01835327
_cell_angle_gamma   89.99677852
_symmetry_Int_Tables_number   1
_chemical_formula_structural   Tb7Pa(Ta3Ge4)4
_chemical_formula_sum   'Tb7 Pa1 Ta12 Ge16'
_cell_volume   682.69074380
_cell_formula_units_Z   1
loop_
 _symmetry_equiv_pos_site_id
 _symmetry_equiv_pos_as_xyz
  1  'x, y, z'
loop_
 _atom_site_type_symbol
 _atom_site_label
 _atom_site_symmetry_multiplicity
 _atom_site_fract_x
 _atom_site_fract_y
 _atom_site_fract_z
 _atom_site_occupancy
  Tb  Tb0  1  0.493610  0.326457  0.094337  1
  Tb  Tb1  1  0.995578  0.173565  0.406009  1
  Tb  Tb2  1  0.504383  0.673474  0.594453  1
  Tb  Tb3  1  0.004000  0.827166  0.905386  1
  Tb  Tb4  1  0.504396  0.673438  0.904694  1
  Tb  Tb5  1  0.003972  0.826446  0.594538  1
  Tb  Tb6  1  0.495644  0.326129  0.406376  1
  Pa  Pa7  1  0.995630  0.173859  0.093904  1
  Ta  Ta8  1  0.663864  0.013896  0.749821  1
  Ta  Ta9  1  0.165535  0.485975  0.750407  1
  Ta  Ta10  1  0.332651  0.987686  0.248912  1
  Ta  Ta11  1  0.836071  0.510627  0.248617  1
  Ta  Ta12  1  0.840489  0.330771  0.626838  1
  Ta  Ta13  1  0.339301  0.168356  0.873866  1
  Ta  Ta14  1  0.158968  0.668173  0.126863  1
  Ta  Ta15  1  0.658845  0.829281  0.372821  1
  Ta  Ta16  1  0.160575  0.668964  0.373429  1
  Ta  Ta17  1  0.663580  0.834740  0.126142  1
  Ta  Ta18  1  0.842777  0.329155  0.875406  1
  Ta  Ta19  1  0.340649  0.169407  0.626595  1
  Ge  Ge20  1  0.806104  0.638851  0.749880  1
  Ge  Ge21  1  0.305201  0.861090  0.749790  1
  Ge  Ge22  1  0.194738  0.361893  0.251557  1
  Ge  Ge23  1  0.691823  0.139116  0.250889  1
  Ge  Ge24  1  0.540379  0.378166  0.750297  1
  Ge  Ge25  1  0.039187  0.121362  0.749768  1
  Ge  Ge26  1  0.460855  0.622582  0.249244  1
  Ge  Ge27  1  0.960992  0.878481  0.250719  1
  Ge  Ge28  1  0.675037  0.039625  0.542563  1
  Ge  Ge29  1  0.175958  0.460642  0.956817  1
  Ge  Ge30  1  0.326466  0.957600  0.042032  1
  Ge  Ge31  1  0.824992  0.539766  0.457521  1
  Ge  Ge32  1  0.325014  0.960282  0.457560  1
  Ge  Ge33  1  0.822256  0.542176  0.042541  1
  Ge  Ge34  1  0.675378  0.040399  0.956660  1
  Ge  Ge35  1  0.175100  0.460402  0.542747  1
