# generated using pymatgen
data_Pr2Mn3Co9As7
_symmetry_space_group_name_H-M   'P 1'
_cell_length_a   9.52916700
_cell_length_b   9.52916714
_cell_length_c   3.80187400
_cell_angle_alpha   90.00000000
_cell_angle_beta   90.00000000
_cell_angle_gamma   120.00000991
_symmetry_Int_Tables_number   1
_chemical_formula_structural   Pr2Mn3Co9As7
_chemical_formula_sum   'Pr2 Mn3 Co9 As7'
_cell_volume   298.97728287
_cell_formula_units_Z   1
loop_
 _symmetry_equiv_pos_site_id
 _symmetry_equiv_pos_as_xyz
  1  'x, y, z'
loop_
 _atom_site_type_symbol
 _atom_site_label
 _atom_site_symmetry_multiplicity
 _atom_site_fract_x
 _atom_site_fract_y
 _atom_site_fract_z
 _atom_site_occupancy
  Pr  Pr0  1  0.666667  0.333333  0.000000  1
  Pr  Pr1  1  0.333333  0.666667  0.500000  1
  Mn  Mn2  1  0.219899  0.106670  0.000000  1
  Mn  Mn3  1  0.893330  0.113231  0.000000  1
  Mn  Mn4  1  0.886769  0.780101  0.000000  1
  Co  Co5  1  0.426988  0.057725  0.500000  1
  Co  Co6  1  0.942275  0.369264  0.500000  1
  Co  Co7  1  0.630736  0.573012  0.500000  1
  Co  Co8  1  0.156105  0.275148  0.500000  1
  Co  Co9  1  0.724852  0.880957  0.500000  1
  Co  Co10  1  0.119043  0.843895  0.500000  1
  Co  Co11  1  0.383460  0.433050  0.000000  1
  Co  Co12  1  0.566950  0.950410  0.000000  1
  Co  Co13  1  0.049590  0.616540  0.000000  1
  As  As14  1  0.112967  0.403722  0.000000  1
  As  As15  1  0.596278  0.709244  0.000000  1
  As  As16  1  0.290756  0.887033  0.000000  1
  As  As17  1  0.000000  0.000000  0.500000  1
  As  As18  1  0.411014  0.302045  0.500000  1
  As  As19  1  0.697955  0.108967  0.500000  1
  As  As20  1  0.891033  0.588986  0.500000  1
