# generated using pymatgen
data_Zr4Ti4Ga15Ru7
_symmetry_space_group_name_H-M   'P 1'
_cell_length_a   8.80791667
_cell_length_b   8.81404262
_cell_length_c   8.79900200
_cell_angle_alpha   120.56091207
_cell_angle_beta   119.78008255
_cell_angle_gamma   89.74365069
_symmetry_Int_Tables_number   1
_chemical_formula_structural   Zr4Ti4Ga15Ru7
_chemical_formula_sum   'Zr4 Ti4 Ga15 Ru7'
_cell_volume   481.58551958
_cell_formula_units_Z   1
loop_
 _symmetry_equiv_pos_site_id
 _symmetry_equiv_pos_as_xyz
  1  'x, y, z'
loop_
 _atom_site_type_symbol
 _atom_site_label
 _atom_site_symmetry_multiplicity
 _atom_site_fract_x
 _atom_site_fract_y
 _atom_site_fract_z
 _atom_site_occupancy
  Zr  Zr0  1  0.795373  0.277710  0.060325  1
  Zr  Zr1  1  0.214181  0.283707  0.486022  1
  Zr  Zr2  1  0.208229  0.704552  0.499608  1
  Zr  Zr3  1  0.220619  0.732355  0.940310  1
  Ti  Ti4  1  0.795485  0.733267  0.514695  1
  Ti  Ti5  1  0.774283  0.270859  0.500101  1
  Ti  Ti6  1  0.376353  0.123821  0.747679  1
  Ti  Ti7  1  0.383498  0.632532  0.257623  1
  Ga  Ga8  1  0.978438  0.491681  0.500310  1
  Ga  Ga9  1  0.162310  0.343360  0.179341  1
  Ga  Ga10  1  0.154700  0.971532  0.810234  1
  Ga  Ga11  1  0.153310  0.348661  0.806714  1
  Ga  Ga12  1  0.552718  0.354851  0.202786  1
  Ga  Ga13  1  0.844944  0.646912  0.795355  1
  Ga  Ga14  1  0.842369  0.038754  0.194875  1
  Ga  Ga15  1  0.841099  0.655024  0.191699  1
  Ga  Ga16  1  0.473396  0.657862  0.817752  1
  Ga  Ga17  1  0.383884  0.129259  0.257070  1
  Ga  Ga18  1  0.867949  0.120398  0.738134  1
  Ga  Ga19  1  0.622641  0.872195  0.259205  1
  Ga  Ga20  1  0.618720  0.366703  0.746143  1
  Ga  Ga21  1  0.613754  0.872370  0.734100  1
  Ga  Ga22  1  0.135461  0.873903  0.262679  1
  Ru  Ru23  1  0.997060  0.001348  0.501140  1
  Ru  Ru24  1  0.498724  0.002809  0.003038  1
  Ru  Ru25  1  0.497342  0.498586  0.001709  1
  Ru  Ru26  1  0.500949  0.498726  0.498904  1
  Ru  Ru27  1  0.995650  0.496631  0.994965  1
  Ru  Ru28  1  0.997386  0.998844  0.997524  1
  Ru  Ru29  1  0.499170  0.000788  0.499961  1
