# generated using pymatgen
data_Yb5Dy4YRu4
_symmetry_space_group_name_H-M   'P 1'
_cell_length_a   8.51667522
_cell_length_b   8.48248264
_cell_length_c   7.41281198
_cell_angle_alpha   83.37600924
_cell_angle_beta   83.42871699
_cell_angle_gamma   43.78438565
_symmetry_Int_Tables_number   1
_chemical_formula_structural   Yb5Dy4YRu4
_chemical_formula_sum   'Yb5 Dy4 Y1 Ru4'
_cell_volume   367.69942185
_cell_formula_units_Z   1
loop_
 _symmetry_equiv_pos_site_id
 _symmetry_equiv_pos_as_xyz
  1  'x, y, z'
loop_
 _atom_site_type_symbol
 _atom_site_label
 _atom_site_symmetry_multiplicity
 _atom_site_fract_x
 _atom_site_fract_y
 _atom_site_fract_z
 _atom_site_occupancy
  Yb  Yb0  1  0.022267  0.795778  0.918251  1
  Yb  Yb1  1  0.202725  0.365236  0.317461  1
  Yb  Yb2  1  0.632782  0.799886  0.184157  1
  Yb  Yb3  1  0.803679  0.627512  0.678986  1
  Yb  Yb4  1  0.370573  0.196400  0.820585  1
  Dy  Dy5  1  0.971762  0.196905  0.081507  1
  Dy  Dy6  1  0.796674  0.030128  0.418335  1
  Dy  Dy7  1  0.567935  0.430779  0.752434  1
  Dy  Dy8  1  0.420260  0.580554  0.247143  1
  Y  Y9  1  0.196561  0.973351  0.586335  1
  Ru  Ru10  1  0.178774  0.616847  0.570797  1
  Ru  Ru11  1  0.396381  0.824813  0.921408  1
  Ru  Ru12  1  0.820190  0.381144  0.421266  1
  Ru  Ru13  1  0.619434  0.180669  0.081333  1
