# generated using pymatgen
data_Tb2HfZrPt2
_symmetry_space_group_name_H-M   'P 1'
_cell_length_a   4.68090900
_cell_length_b   7.18396996
_cell_length_c   8.23925284
_cell_angle_alpha   89.60077521
_cell_angle_beta   90.00000000
_cell_angle_gamma   90.00000000
_symmetry_Int_Tables_number   1
_chemical_formula_structural   Tb2HfZrPt2
_chemical_formula_sum   'Tb4 Hf2 Zr2 Pt4'
_cell_volume   277.05882845
_cell_formula_units_Z   2
loop_
 _symmetry_equiv_pos_site_id
 _symmetry_equiv_pos_as_xyz
  1  'x, y, z'
loop_
 _atom_site_type_symbol
 _atom_site_label
 _atom_site_symmetry_multiplicity
 _atom_site_fract_x
 _atom_site_fract_y
 _atom_site_fract_z
 _atom_site_occupancy
  Tb  Tb0  1  0.750000  0.515064  0.823155  1
  Tb  Tb1  1  0.250000  0.484936  0.176845  1
  Tb  Tb2  1  0.750000  0.017188  0.678620  1
  Tb  Tb3  1  0.250000  0.982812  0.321380  1
  Hf  Hf4  1  0.750000  0.644644  0.422122  1
  Hf  Hf5  1  0.250000  0.355356  0.577878  1
  Zr  Zr6  1  0.750000  0.148067  0.080132  1
  Zr  Zr7  1  0.250000  0.851933  0.919868  1
  Pt  Pt8  1  0.750000  0.274745  0.410404  1
  Pt  Pt9  1  0.250000  0.725255  0.589596  1
  Pt  Pt10  1  0.750000  0.772617  0.098329  1
  Pt  Pt11  1  0.250000  0.227383  0.901671  1
