# generated using pymatgen
data_Ca3PrLu4(B6Os)4
_symmetry_space_group_name_H-M   'P 1'
_cell_length_a   3.63064500
_cell_length_b   9.13316919
_cell_length_c   11.56072651
_cell_angle_alpha   89.94145456
_cell_angle_beta   90.00000000
_cell_angle_gamma   90.00000000
_symmetry_Int_Tables_number   1
_chemical_formula_structural   Ca3PrLu4(B6Os)4
_chemical_formula_sum   'Ca3 Pr1 Lu4 B24 Os4'
_cell_volume   383.34534130
_cell_formula_units_Z   1
loop_
 _symmetry_equiv_pos_site_id
 _symmetry_equiv_pos_as_xyz
  1  'x, y, z'
loop_
 _atom_site_type_symbol
 _atom_site_label
 _atom_site_symmetry_multiplicity
 _atom_site_fract_x
 _atom_site_fract_y
 _atom_site_fract_z
 _atom_site_occupancy
  Ca  Ca0  1  0.000000  0.324432  0.414798  1
  Ca  Ca1  1  0.000000  0.676122  0.584215  1
  Ca  Ca2  1  0.000000  0.822554  0.086146  1
  Pr  Pr3  1  0.000000  0.176373  0.915182  1
  Lu  Lu4  1  0.000000  0.941896  0.368426  1
  Lu  Lu5  1  0.000000  0.056846  0.630094  1
  Lu  Lu6  1  0.000000  0.444447  0.133008  1
  Lu  Lu7  1  0.000000  0.557861  0.868136  1
  B  B8  1  0.500000  0.554464  0.432163  1
  B  B9  1  0.500000  0.445815  0.567418  1
  B  B10  1  0.500000  0.054110  0.070427  1
  B  B11  1  0.500000  0.942491  0.931742  1
  B  B12  1  0.500000  0.750143  0.416764  1
  B  B13  1  0.500000  0.249846  0.582196  1
  B  B14  1  0.500000  0.250853  0.086021  1
  B  B15  1  0.500000  0.748925  0.916801  1
  B  B16  1  0.500000  0.792305  0.264741  1
  B  B17  1  0.500000  0.208629  0.733269  1
  B  B18  1  0.500000  0.292734  0.236558  1
  B  B19  1  0.500000  0.707804  0.764245  1
  B  B20  1  0.500000  0.630831  0.185666  1
  B  B21  1  0.500000  0.370961  0.813318  1
  B  B22  1  0.500000  0.130479  0.315362  1
  B  B23  1  0.500000  0.868739  0.683859  1
  B  B24  1  0.500000  0.983006  0.213054  1
  B  B25  1  0.500000  0.013868  0.786117  1
  B  B26  1  0.500000  0.484343  0.288520  1
  B  B27  1  0.500000  0.516691  0.711451  1
  B  B28  1  0.500000  0.597094  0.026525  1
  B  B29  1  0.500000  0.405845  0.974588  1
  B  B30  1  0.500000  0.095397  0.473528  1
  B  B31  1  0.500000  0.903988  0.525522  1
  Os  Os32  1  0.000000  0.640681  0.319081  1
  Os  Os33  1  0.000000  0.359647  0.680717  1
  Os  Os34  1  0.000000  0.140226  0.182423  1
  Os  Os35  1  0.000000  0.859553  0.817919  1
