# generated using pymatgen
data_Ho11Tm9CoBi8Ru3
_symmetry_space_group_name_H-M   'P 1'
_cell_length_a   7.90961666
_cell_length_b   8.95320100
_cell_length_c   12.36761945
_cell_angle_alpha   90.00000000
_cell_angle_beta   89.82954225
_cell_angle_gamma   90.00000000
_symmetry_Int_Tables_number   1
_chemical_formula_structural   Ho11Tm9CoBi8Ru3
_chemical_formula_sum   'Ho11 Tm9 Co1 Bi8 Ru3'
_cell_volume   875.82625944
_cell_formula_units_Z   1
loop_
 _symmetry_equiv_pos_site_id
 _symmetry_equiv_pos_as_xyz
  1  'x, y, z'
loop_
 _atom_site_type_symbol
 _atom_site_label
 _atom_site_symmetry_multiplicity
 _atom_site_fract_x
 _atom_site_fract_y
 _atom_site_fract_z
 _atom_site_occupancy
  Ho  Ho0  1  0.345396  0.750000  0.701507  1
  Ho  Ho1  1  0.843639  0.250000  0.792311  1
  Ho  Ho2  1  0.155103  0.750000  0.206040  1
  Ho  Ho3  1  0.879870  0.750000  0.807107  1
  Ho  Ho4  1  0.119340  0.250000  0.192358  1
  Ho  Ho5  1  0.379627  0.250000  0.691814  1
  Ho  Ho6  1  0.615991  0.750000  0.312719  1
  Ho  Ho7  1  0.054933  0.750000  0.496913  1
  Ho  Ho8  1  0.946565  0.250000  0.503151  1
  Ho  Ho9  1  0.554737  0.250000  0.003666  1
  Ho  Ho10  1  0.445777  0.750000  0.995832  1
  Tm  Tm11  1  0.656203  0.250000  0.293825  1
  Tm  Tm12  1  0.674264  0.543674  0.563450  1
  Tm  Tm13  1  0.326561  0.461403  0.437038  1
  Tm  Tm14  1  0.174604  0.457659  0.935849  1
  Tm  Tm15  1  0.326561  0.038597  0.437038  1
  Tm  Tm16  1  0.824979  0.542980  0.064344  1
  Tm  Tm17  1  0.674264  0.956326  0.563450  1
  Tm  Tm18  1  0.824979  0.957020  0.064344  1
  Tm  Tm19  1  0.174604  0.042341  0.935849  1
  Co  Co20  1  0.429963  0.750000  0.491292  1
  Bi  Bi21  1  0.570498  0.508543  0.827012  1
  Bi  Bi22  1  0.429477  0.491864  0.173208  1
  Bi  Bi23  1  0.071524  0.491875  0.672298  1
  Bi  Bi24  1  0.429477  0.008136  0.173208  1
  Bi  Bi25  1  0.928801  0.508377  0.328058  1
  Bi  Bi26  1  0.570498  0.991457  0.827012  1
  Bi  Bi27  1  0.928801  0.991623  0.328058  1
  Bi  Bi28  1  0.071524  0.008125  0.672298  1
  Ru  Ru29  1  0.072951  0.750000  0.989382  1
  Ru  Ru30  1  0.926279  0.250000  0.010249  1
  Ru  Ru31  1  0.572209  0.250000  0.509320  1
