# generated using pymatgen
data_Cs2AuSe16
_symmetry_space_group_name_H-M   'P 1'
_cell_length_a   13.30607100
_cell_length_b   13.30607100
_cell_length_c   7.25050800
_cell_angle_alpha   90.00000000
_cell_angle_beta   90.00000000
_cell_angle_gamma   90.00000000
_symmetry_Int_Tables_number   1
_chemical_formula_structural   Cs2AuSe16
_chemical_formula_sum   'Cs4 Au2 Se32'
_cell_volume   1283.71350174
_cell_formula_units_Z   2
loop_
 _symmetry_equiv_pos_site_id
 _symmetry_equiv_pos_as_xyz
  1  'x, y, z'
loop_
 _atom_site_type_symbol
 _atom_site_label
 _atom_site_symmetry_multiplicity
 _atom_site_fract_x
 _atom_site_fract_y
 _atom_site_fract_z
 _atom_site_occupancy
  Cs  Cs0  1  0.500000  0.000000  0.000000  1
  Cs  Cs1  1  0.000000  0.500000  0.000000  1
  Cs  Cs2  1  0.500000  0.500000  0.500000  1
  Cs  Cs3  1  0.000000  0.000000  0.500000  1
  Au  Au4  1  0.000000  0.000000  0.000000  1
  Au  Au5  1  0.500000  0.500000  0.000000  1
  Se  Se6  1  0.186886  0.424578  0.584020  1
  Se  Se7  1  0.813114  0.575422  0.584020  1
  Se  Se8  1  0.575422  0.186886  0.415980  1
  Se  Se9  1  0.424578  0.813114  0.415980  1
  Se  Se10  1  0.313114  0.924578  0.584020  1
  Se  Se11  1  0.075422  0.313114  0.415980  1
  Se  Se12  1  0.810708  0.961441  0.959463  1
  Se  Se13  1  0.038559  0.810708  0.040537  1
  Se  Se14  1  0.961441  0.189292  0.040537  1
  Se  Se15  1  0.189292  0.038559  0.959463  1
  Se  Se16  1  0.538559  0.689292  0.040537  1
  Se  Se17  1  0.461441  0.310708  0.040537  1
  Se  Se18  1  0.689292  0.461441  0.959463  1
  Se  Se19  1  0.310708  0.538559  0.959463  1
  Se  Se20  1  0.789585  0.206034  0.123926  1
  Se  Se21  1  0.793966  0.789585  0.876074  1
  Se  Se22  1  0.206034  0.210415  0.876074  1
  Se  Se23  1  0.210415  0.793966  0.123926  1
  Se  Se24  1  0.293966  0.710415  0.876074  1
  Se  Se25  1  0.706034  0.289585  0.876074  1
  Se  Se26  1  0.710415  0.706034  0.123926  1
  Se  Se27  1  0.289585  0.293966  0.123926  1
  Se  Se28  1  0.921219  0.312229  0.584631  1
  Se  Se29  1  0.687771  0.921219  0.415369  1
  Se  Se30  1  0.312229  0.078781  0.415369  1
  Se  Se31  1  0.078781  0.687771  0.584631  1
  Se  Se32  1  0.187771  0.578781  0.415369  1
  Se  Se33  1  0.812229  0.421219  0.415369  1
  Se  Se34  1  0.578781  0.812229  0.584631  1
  Se  Se35  1  0.421219  0.187771  0.584631  1
  Se  Se36  1  0.686886  0.075422  0.584020  1
  Se  Se37  1  0.924578  0.686886  0.415980  1
