# generated using pymatgen
data_NdPa7F30
_symmetry_space_group_name_H-M   'P 1'
_cell_length_a   8.82244404
_cell_length_b   8.81983701
_cell_length_c   8.82244526
_cell_angle_alpha   100.28951668
_cell_angle_beta   100.22826736
_cell_angle_gamma   100.28950901
_symmetry_Int_Tables_number   1
_chemical_formula_structural   NdPa7F30
_chemical_formula_sum   'Nd1 Pa7 F30'
_cell_volume   648.84868932
_cell_formula_units_Z   1
loop_
 _symmetry_equiv_pos_site_id
 _symmetry_equiv_pos_as_xyz
  1  'x, y, z'
loop_
 _atom_site_type_symbol
 _atom_site_label
 _atom_site_symmetry_multiplicity
 _atom_site_fract_x
 _atom_site_fract_y
 _atom_site_fract_z
 _atom_site_occupancy
  Nd  Nd0  1  0.822196  0.250000  0.677804  1
  Pa  Pa1  1  0.249957  0.250000  0.250043  1
  Pa  Pa2  1  0.178432  0.750000  0.321568  1
  Pa  Pa3  1  0.248854  0.676509  0.821274  1
  Pa  Pa4  1  0.678726  0.823491  0.251146  1
  Pa  Pa5  1  0.750246  0.750000  0.749754  1
  Pa  Pa6  1  0.322015  0.178180  0.749440  1
  Pa  Pa7  1  0.750560  0.321820  0.177985  1
  F  F8  1  0.966427  0.535432  0.250651  1
  F  F9  1  0.813416  0.346094  0.441281  1
  F  F10  1  0.490341  0.723629  0.721486  1
  F  F11  1  0.348481  0.449129  0.816424  1
  F  F12  1  0.010020  0.779925  0.775888  1
  F  F13  1  0.748999  0.031739  0.460210  1
  F  F14  1  0.948865  0.845538  0.313745  1
  F  F15  1  0.220685  0.224995  0.992867  1
  F  F16  1  0.776912  0.006484  0.777271  1
  F  F17  1  0.314025  0.947255  0.844522  1
  F  F18  1  0.276077  0.280869  0.508600  1
  F  F19  1  0.447887  0.814547  0.346162  1
  F  F20  1  0.530406  0.250000  0.969594  1
  F  F21  1  0.279987  0.509194  0.274618  1
  F  F22  1  0.153838  0.685453  0.052113  1
  F  F23  1  0.840656  0.316555  0.954100  1
  F  F24  1  0.722729  0.493516  0.723088  1
  F  F25  1  0.463659  0.750000  0.036341  1
  F  F26  1  0.545900  0.183445  0.659344  1
  F  F27  1  0.724112  0.720075  0.489980  1
  F  F28  1  0.683576  0.050871  0.151519  1
  F  F29  1  0.225382  0.990806  0.220013  1
  F  F30  1  0.778514  0.776371  0.009659  1
  F  F31  1  0.058719  0.153906  0.686584  1
  F  F32  1  0.249349  0.964568  0.533573  1
  F  F33  1  0.991400  0.219131  0.223923  1
  F  F34  1  0.655478  0.552745  0.185975  1
  F  F35  1  0.507133  0.275005  0.279315  1
  F  F36  1  0.186255  0.654462  0.551135  1
  F  F37  1  0.039790  0.468261  0.751001  1
