# generated using pymatgen
data_BaSr11(GeI2)4
_symmetry_space_group_name_H-M   'P 1'
_cell_length_a   15.86557344
_cell_length_b   15.10317749
_cell_length_c   8.40507938
_cell_angle_alpha   79.18820016
_cell_angle_beta   69.49246603
_cell_angle_gamma   31.50469702
_symmetry_Int_Tables_number   1
_chemical_formula_structural   BaSr11(GeI2)4
_chemical_formula_sum   'Ba1 Sr11 Ge4 I8'
_cell_volume   960.03490301
_cell_formula_units_Z   1
loop_
 _symmetry_equiv_pos_site_id
 _symmetry_equiv_pos_as_xyz
  1  'x, y, z'
loop_
 _atom_site_type_symbol
 _atom_site_label
 _atom_site_symmetry_multiplicity
 _atom_site_fract_x
 _atom_site_fract_y
 _atom_site_fract_z
 _atom_site_occupancy
  Ba  Ba0  1  0.662262  0.156566  0.871015  1
  Sr  Sr1  1  0.044691  0.452911  0.455857  1
  Sr  Sr2  1  0.800480  0.200621  0.201823  1
  Sr  Sr3  1  0.094776  0.588722  0.955645  1
  Sr  Sr4  1  0.885997  0.299481  0.661571  1
  Sr  Sr5  1  0.588551  0.095620  0.364882  1
  Sr  Sr6  1  0.154330  0.659464  0.304791  1
  Sr  Sr7  1  0.300302  0.885403  0.151884  1
  Sr  Sr8  1  0.363714  0.950887  0.588647  1
  Sr  Sr9  1  0.202129  0.797805  0.800884  1
  Sr  Sr10  1  0.449110  0.049500  0.051086  1
  Sr  Sr11  1  0.950633  0.364234  0.097158  1
  Ge  Ge12  1  0.331423  0.335011  0.169586  1
  Ge  Ge13  1  0.165365  0.166112  0.334499  1
  Ge  Ge14  1  0.083966  0.084312  0.915676  1
  Ge  Ge15  1  0.917446  0.914424  0.087140  1
  I  I16  1  0.577932  0.576389  0.423431  1
  I  I17  1  0.671780  0.673342  0.827932  1
  I  I18  1  0.256257  0.255095  0.745164  1
  I  I19  1  0.414240  0.431778  0.570929  1
  I  I20  1  0.007742  0.986991  0.495229  1
  I  I21  1  0.743182  0.744769  0.255797  1
  I  I22  1  0.829560  0.819158  0.671461  1
  I  I23  1  0.504131  0.511407  0.997914  1
