# generated using pymatgen
data_Th2Co9Mo3As7
_symmetry_space_group_name_H-M   'P 1'
_cell_length_a   3.92100400
_cell_length_b   9.47915408
_cell_length_c   9.47915400
_cell_angle_alpha   119.99999690
_cell_angle_beta   90.00000000
_cell_angle_gamma   90.00000000
_symmetry_Int_Tables_number   1
_chemical_formula_structural   Th2Co9Mo3As7
_chemical_formula_sum   'Th2 Co9 Mo3 As7'
_cell_volume   305.11748249
_cell_formula_units_Z   1
loop_
 _symmetry_equiv_pos_site_id
 _symmetry_equiv_pos_as_xyz
  1  'x, y, z'
loop_
 _atom_site_type_symbol
 _atom_site_label
 _atom_site_symmetry_multiplicity
 _atom_site_fract_x
 _atom_site_fract_y
 _atom_site_fract_z
 _atom_site_occupancy
  Th  Th0  1  0.000000  0.666667  0.333333  1
  Th  Th1  1  0.500000  0.333333  0.666667  1
  Co  Co2  1  0.000000  0.568239  0.933716  1
  Co  Co3  1  0.000000  0.365477  0.431761  1
  Co  Co4  1  0.000000  0.066284  0.634523  1
  Co  Co5  1  0.000000  0.870374  0.151774  1
  Co  Co6  1  0.000000  0.281400  0.129626  1
  Co  Co7  1  0.000000  0.848226  0.718600  1
  Co  Co8  1  0.500000  0.943552  0.377795  1
  Co  Co9  1  0.500000  0.434242  0.056448  1
  Co  Co10  1  0.500000  0.622205  0.565758  1
  Mo  Mo11  1  0.500000  0.784193  0.897025  1
  Mo  Mo12  1  0.500000  0.112831  0.215807  1
  Mo  Mo13  1  0.500000  0.102975  0.887169  1
  As  As14  1  0.000000  0.000000  0.000000  1
  As  As15  1  0.500000  0.704872  0.108676  1
  As  As16  1  0.500000  0.403805  0.295128  1
  As  As17  1  0.500000  0.891324  0.596195  1
  As  As18  1  0.000000  0.593357  0.696593  1
  As  As19  1  0.000000  0.103237  0.406643  1
  As  As20  1  0.000000  0.303407  0.896763  1
