# generated using pymatgen
data_Tb3Nd2Bi3P
_symmetry_space_group_name_H-M   'P 1'
_cell_length_a   9.35333800
_cell_length_b   9.35333772
_cell_length_c   6.78367800
_cell_angle_alpha   90.00000000
_cell_angle_beta   90.00000000
_cell_angle_gamma   120.00000097
_symmetry_Int_Tables_number   1
_chemical_formula_structural   Tb3Nd2Bi3P
_chemical_formula_sum   'Tb6 Nd4 Bi6 P2'
_cell_volume   513.95973567
_cell_formula_units_Z   2
loop_
 _symmetry_equiv_pos_site_id
 _symmetry_equiv_pos_as_xyz
  1  'x, y, z'
loop_
 _atom_site_type_symbol
 _atom_site_label
 _atom_site_symmetry_multiplicity
 _atom_site_fract_x
 _atom_site_fract_y
 _atom_site_fract_z
 _atom_site_occupancy
  Tb  Tb0  1  0.763831  0.763831  0.750000  1
  Tb  Tb1  1  0.236169  0.000000  0.750000  1
  Tb  Tb2  1  0.000000  0.236169  0.750000  1
  Tb  Tb3  1  0.236169  0.236169  0.250000  1
  Tb  Tb4  1  0.763831  0.000000  0.250000  1
  Tb  Tb5  1  0.000000  0.763831  0.250000  1
  Nd  Nd6  1  0.666667  0.333333  0.000000  1
  Nd  Nd7  1  0.333333  0.666667  0.000000  1
  Nd  Nd8  1  0.333333  0.666667  0.500000  1
  Nd  Nd9  1  0.666667  0.333333  0.500000  1
  Bi  Bi10  1  0.395332  0.395332  0.750000  1
  Bi  Bi11  1  0.604668  0.000000  0.750000  1
  Bi  Bi12  1  0.000000  0.604668  0.750000  1
  Bi  Bi13  1  0.604668  0.604668  0.250000  1
  Bi  Bi14  1  0.395332  0.000000  0.250000  1
  Bi  Bi15  1  0.000000  0.395332  0.250000  1
  P  P16  1  0.000000  0.000000  0.000000  1
  P  P17  1  0.000000  0.000000  0.500000  1
