# generated using pymatgen
data_Er4Ga4Ir3Pt
_symmetry_space_group_name_H-M   'P 1'
_cell_length_a   4.38545300
_cell_length_b   6.76139805
_cell_length_c   7.68493821
_cell_angle_alpha   90.06409228
_cell_angle_beta   90.00000000
_cell_angle_gamma   90.00000000
_symmetry_Int_Tables_number   1
_chemical_formula_structural   Er4Ga4Ir3Pt
_chemical_formula_sum   'Er4 Ga4 Ir3 Pt1'
_cell_volume   227.87205726
_cell_formula_units_Z   1
loop_
 _symmetry_equiv_pos_site_id
 _symmetry_equiv_pos_as_xyz
  1  'x, y, z'
loop_
 _atom_site_type_symbol
 _atom_site_label
 _atom_site_symmetry_multiplicity
 _atom_site_fract_x
 _atom_site_fract_y
 _atom_site_fract_z
 _atom_site_occupancy
  Er  Er0  1  0.250000  0.982445  0.307905  1
  Er  Er1  1  0.250000  0.483860  0.195295  1
  Er  Er2  1  0.750000  0.016788  0.689988  1
  Er  Er3  1  0.750000  0.522356  0.807300  1
  Ga  Ga4  1  0.250000  0.336518  0.569591  1
  Ga  Ga5  1  0.250000  0.831986  0.928074  1
  Ga  Ga6  1  0.750000  0.664321  0.427448  1
  Ga  Ga7  1  0.750000  0.163266  0.073750  1
  Ir  Ir8  1  0.250000  0.728836  0.604853  1
  Ir  Ir9  1  0.750000  0.771296  0.103798  1
  Ir  Ir10  1  0.750000  0.271077  0.395966  1
  Pt  Pt11  1  0.250000  0.227251  0.896031  1
