# generated using pymatgen
data_Er3ScIn2(Ni7B2)2
_symmetry_space_group_name_H-M   'P 1'
_cell_length_a   4.96376400
_cell_length_b   4.96376287
_cell_length_c   14.15812200
_cell_angle_alpha   90.00000000
_cell_angle_beta   90.00000000
_cell_angle_gamma   119.99999417
_symmetry_Int_Tables_number   1
_chemical_formula_structural   Er3ScIn2(Ni7B2)2
_chemical_formula_sum   'Er3 Sc1 In2 Ni14 B4'
_cell_volume   302.10537969
_cell_formula_units_Z   1
loop_
 _symmetry_equiv_pos_site_id
 _symmetry_equiv_pos_as_xyz
  1  'x, y, z'
loop_
 _atom_site_type_symbol
 _atom_site_label
 _atom_site_symmetry_multiplicity
 _atom_site_fract_x
 _atom_site_fract_y
 _atom_site_fract_z
 _atom_site_occupancy
  Er  Er0  1  0.333333  0.666667  0.032317  1
  Er  Er1  1  0.666667  0.333333  0.751099  1
  Er  Er2  1  0.333333  0.666667  0.257148  1
  Sc  Sc3  1  0.666667  0.333333  0.528959  1
  In  In4  1  0.333333  0.666667  0.473788  1
  In  In5  1  0.666667  0.333333  0.967935  1
  Ni  Ni6  1  0.833266  0.166734  0.354925  1
  Ni  Ni7  1  0.833266  0.666534  0.354925  1
  Ni  Ni8  1  0.000000  0.000000  0.998168  1
  Ni  Ni9  1  0.000000  0.000000  0.498851  1
  Ni  Ni10  1  0.833788  0.667576  0.147939  1
  Ni  Ni11  1  0.166152  0.833848  0.644893  1
  Ni  Ni12  1  0.667697  0.833848  0.644893  1
  Ni  Ni13  1  0.332424  0.166212  0.147939  1
  Ni  Ni14  1  0.833788  0.166212  0.147939  1
  Ni  Ni15  1  0.166195  0.332390  0.851421  1
  Ni  Ni16  1  0.166195  0.833805  0.851421  1
  Ni  Ni17  1  0.166152  0.332303  0.644893  1
  Ni  Ni18  1  0.667610  0.833805  0.851421  1
  Ni  Ni19  1  0.333466  0.166734  0.354925  1
  B  B20  1  0.666667  0.333333  0.250707  1
  B  B21  1  0.333333  0.666667  0.747959  1
  B  B22  1  0.000000  0.000000  0.746246  1
  B  B23  1  0.000000  0.000000  0.249296  1
