# generated using pymatgen
data_Tb3Ce(MoN2)4
_symmetry_space_group_name_H-M   'P 1'
_cell_length_a   3.24011300
_cell_length_b   5.73641445
_cell_length_c   10.68141579
_cell_angle_alpha   89.67942341
_cell_angle_beta   90.00000000
_cell_angle_gamma   90.00000000
_symmetry_Int_Tables_number   1
_chemical_formula_structural   Tb3Ce(MoN2)4
_chemical_formula_sum   'Tb3 Ce1 Mo4 N8'
_cell_volume   198.52842672
_cell_formula_units_Z   1
loop_
 _symmetry_equiv_pos_site_id
 _symmetry_equiv_pos_as_xyz
  1  'x, y, z'
loop_
 _atom_site_type_symbol
 _atom_site_label
 _atom_site_symmetry_multiplicity
 _atom_site_fract_x
 _atom_site_fract_y
 _atom_site_fract_z
 _atom_site_occupancy
  Tb  Tb0  1  0.250000  0.576540  0.644266  1
  Tb  Tb1  1  0.750000  0.922311  0.149026  1
  Tb  Tb2  1  0.750000  0.420834  0.352881  1
  Ce  Ce3  1  0.250000  0.076454  0.854153  1
  Mo  Mo4  1  0.250000  0.435929  0.094364  1
  Mo  Mo5  1  0.250000  0.933576  0.406726  1
  Mo  Mo6  1  0.750000  0.569910  0.905617  1
  Mo  Mo7  1  0.750000  0.064139  0.590609  1
  N  N8  1  0.250000  0.164987  0.249166  1
  N  N9  1  0.250000  0.665655  0.250749  1
  N  N10  1  0.750000  0.834311  0.750701  1
  N  N11  1  0.750000  0.332273  0.749350  1
  N  N12  1  0.250000  0.755756  0.993458  1
  N  N13  1  0.250000  0.254896  0.506410  1
  N  N14  1  0.750000  0.249942  0.009639  1
  N  N15  1  0.750000  0.742487  0.492886  1
