# generated using pymatgen
data_Tb3Y3(Ho3Rh2)2
_symmetry_space_group_name_H-M   'P 1'
_cell_length_a   6.27514796
_cell_length_b   7.18977900
_cell_length_c   9.50105268
_cell_angle_alpha   90.00317142
_cell_angle_beta   89.82074863
_cell_angle_gamma   89.86876883
_symmetry_Int_Tables_number   1
_chemical_formula_structural   Tb3Y3(Ho3Rh2)2
_chemical_formula_sum   'Tb3 Y3 Ho6 Rh4'
_cell_volume   428.65507758
_cell_formula_units_Z   1
loop_
 _symmetry_equiv_pos_site_id
 _symmetry_equiv_pos_as_xyz
  1  'x, y, z'
loop_
 _atom_site_type_symbol
 _atom_site_label
 _atom_site_symmetry_multiplicity
 _atom_site_fract_x
 _atom_site_fract_y
 _atom_site_fract_z
 _atom_site_occupancy
  Tb  Tb0  1  0.330050  0.676658  0.437251  1
  Tb  Tb1  1  0.170737  0.177018  0.062660  1
  Tb  Tb2  1  0.366032  0.966936  0.750068  1
  Y  Y3  1  0.865640  0.532818  0.249886  1
  Y  Y4  1  0.634437  0.032693  0.250069  1
  Y  Y5  1  0.133423  0.467690  0.749941  1
  Ho  Ho6  1  0.330230  0.676709  0.063007  1
  Ho  Ho7  1  0.170330  0.176870  0.436977  1
  Ho  Ho8  1  0.669807  0.322749  0.564094  1
  Ho  Ho9  1  0.829320  0.822857  0.936602  1
  Ho  Ho10  1  0.669690  0.323126  0.936008  1
  Ho  Ho11  1  0.829643  0.823443  0.563478  1
  Rh  Rh12  1  0.063274  0.882722  0.250169  1
  Rh  Rh13  1  0.436182  0.382437  0.249801  1
  Rh  Rh14  1  0.937086  0.116712  0.749198  1
  Rh  Rh15  1  0.564120  0.618562  0.750791  1
