# generated using pymatgen
data_Ho5Fe3(Ni4As3)4
_symmetry_space_group_name_H-M   'P 1'
_cell_length_a   12.53997700
_cell_length_b   12.53997533
_cell_length_c   3.85918200
_cell_angle_alpha   90.00000000
_cell_angle_beta   90.00000000
_cell_angle_gamma   120.00000178
_symmetry_Int_Tables_number   1
_chemical_formula_structural   Ho5Fe3(Ni4As3)4
_chemical_formula_sum   'Ho5 Fe3 Ni16 As12'
_cell_volume   525.55637239
_cell_formula_units_Z   1
loop_
 _symmetry_equiv_pos_site_id
 _symmetry_equiv_pos_as_xyz
  1  'x, y, z'
loop_
 _atom_site_type_symbol
 _atom_site_label
 _atom_site_symmetry_multiplicity
 _atom_site_fract_x
 _atom_site_fract_y
 _atom_site_fract_z
 _atom_site_occupancy
  Ho  Ho0  1  0.187802  0.187802  0.500000  1
  Ho  Ho1  1  0.812198  0.000000  0.500000  1
  Ho  Ho2  1  0.000000  0.812198  0.500000  1
  Ho  Ho3  1  0.333333  0.666667  0.000000  1
  Ho  Ho4  1  0.666667  0.333333  0.000000  1
  Fe  Fe5  1  0.559665  0.559665  0.000000  1
  Fe  Fe6  1  0.440335  0.000000  0.000000  1
  Fe  Fe7  1  0.000000  0.440335  0.000000  1
  Ni  Ni8  1  0.716925  0.716925  0.500000  1
  Ni  Ni9  1  0.283075  0.000000  0.500000  1
  Ni  Ni10  1  0.000000  0.283075  0.500000  1
  Ni  Ni11  1  0.182540  0.379192  0.000000  1
  Ni  Ni12  1  0.620808  0.803349  0.000000  1
  Ni  Ni13  1  0.196651  0.817460  0.000000  1
  Ni  Ni14  1  0.803349  0.620808  0.000000  1
  Ni  Ni15  1  0.817460  0.196651  0.000000  1
  Ni  Ni16  1  0.379192  0.182540  0.000000  1
  Ni  Ni17  1  0.358572  0.481753  0.500000  1
  Ni  Ni18  1  0.518247  0.876820  0.500000  1
  Ni  Ni19  1  0.123180  0.641428  0.500000  1
  Ni  Ni20  1  0.876820  0.518247  0.500000  1
  Ni  Ni21  1  0.641428  0.123180  0.500000  1
  Ni  Ni22  1  0.481753  0.358572  0.500000  1
  Ni  Ni23  1  0.000000  0.000000  0.000000  1
  As  As24  1  0.822052  0.822052  0.000000  1
  As  As25  1  0.177948  0.000000  0.000000  1
  As  As26  1  0.000000  0.177948  0.000000  1
  As  As27  1  0.166004  0.481319  0.500000  1
  As  As28  1  0.518681  0.684685  0.500000  1
  As  As29  1  0.315315  0.833996  0.500000  1
  As  As30  1  0.684685  0.518681  0.500000  1
  As  As31  1  0.833996  0.315315  0.500000  1
  As  As32  1  0.481319  0.166004  0.500000  1
  As  As33  1  0.366518  0.366518  0.000000  1
  As  As34  1  0.633482  0.000000  0.000000  1
  As  As35  1  0.000000  0.633482  0.000000  1
