# generated using pymatgen
data_Ca2Hg3Pd4
_symmetry_space_group_name_H-M   'P 1'
_cell_length_a   5.51131417
_cell_length_b   5.51462583
_cell_length_c   14.01266300
_cell_angle_alpha   90.00000000
_cell_angle_beta   90.00000000
_cell_angle_gamma   119.63150536
_symmetry_Int_Tables_number   1
_chemical_formula_structural   Ca2Hg3Pd4
_chemical_formula_sum   'Ca4 Hg6 Pd8'
_cell_volume   370.18873841
_cell_formula_units_Z   2
loop_
 _symmetry_equiv_pos_site_id
 _symmetry_equiv_pos_as_xyz
  1  'x, y, z'
loop_
 _atom_site_type_symbol
 _atom_site_label
 _atom_site_symmetry_multiplicity
 _atom_site_fract_x
 _atom_site_fract_y
 _atom_site_fract_z
 _atom_site_occupancy
  Ca  Ca0  1  0.317948  0.323581  0.125645  1
  Ca  Ca1  1  0.682052  0.676419  0.625645  1
  Ca  Ca2  1  0.320269  0.321162  0.371216  1
  Ca  Ca3  1  0.679731  0.678838  0.871216  1
  Hg  Hg4  1  0.971453  0.657326  0.081874  1
  Hg  Hg5  1  0.028547  0.342674  0.581874  1
  Hg  Hg6  1  0.646582  0.987419  0.422133  1
  Hg  Hg7  1  0.353418  0.012581  0.922133  1
  Hg  Hg8  1  0.006936  0.327413  0.920675  1
  Hg  Hg9  1  0.993064  0.672587  0.420675  1
  Pd  Pd10  1  0.826371  0.833853  0.251039  1
  Pd  Pd11  1  0.173629  0.166147  0.751039  1
  Pd  Pd12  1  0.824001  0.328435  0.251194  1
  Pd  Pd13  1  0.175999  0.671565  0.751194  1
  Pd  Pd14  1  0.328806  0.827833  0.246286  1
  Pd  Pd15  1  0.671194  0.172167  0.746286  1
  Pd  Pd16  1  0.327187  0.006022  0.579936  1
  Pd  Pd17  1  0.672813  0.993978  0.079936  1
