# generated using pymatgen
data_Sc7Co4Si12Pt
_symmetry_space_group_name_H-M   'P 1'
_cell_length_a   9.57174900
_cell_length_b   9.57174900
_cell_length_c   3.83181900
_cell_angle_alpha   90.00000000
_cell_angle_beta   90.00000000
_cell_angle_gamma   90.00000000
_symmetry_Int_Tables_number   1
_chemical_formula_structural   Sc7Co4Si12Pt
_chemical_formula_sum   'Sc7 Co4 Si12 Pt1'
_cell_volume   351.06504509
_cell_formula_units_Z   1
loop_
 _symmetry_equiv_pos_site_id
 _symmetry_equiv_pos_as_xyz
  1  'x, y, z'
loop_
 _atom_site_type_symbol
 _atom_site_label
 _atom_site_symmetry_multiplicity
 _atom_site_fract_x
 _atom_site_fract_y
 _atom_site_fract_z
 _atom_site_occupancy
  Sc  Sc0  1  0.328562  0.674457  0.499998  1
  Sc  Sc1  1  0.671404  0.325590  0.500002  1
  Sc  Sc2  1  0.674634  0.671502  0.500001  1
  Sc  Sc3  1  0.325361  0.328475  0.499998  1
  Sc  Sc4  1  0.499982  0.000012  0.500000  1
  Sc  Sc5  1  0.000003  0.499992  0.500000  1
  Sc  Sc6  1  0.000027  0.999992  0.000000  1
  Co  Co7  1  0.117476  0.713821  0.000004  1
  Co  Co8  1  0.882544  0.286162  0.999999  1
  Co  Co9  1  0.713657  0.882617  0.000001  1
  Co  Co10  1  0.286288  0.117410  0.000001  1
  Si  Si11  1  0.508009  0.773276  0.000000  1
  Si  Si12  1  0.492003  0.226722  0.000003  1
  Si  Si13  1  0.773358  0.491880  0.000002  1
  Si  Si14  1  0.226662  0.508106  0.000001  1
  Si  Si15  1  0.285125  0.884231  0.999998  1
  Si  Si16  1  0.714909  0.115772  0.000004  1
  Si  Si17  1  0.884321  0.714819  0.999995  1
  Si  Si18  1  0.115676  0.285183  0.000007  1
  Si  Si19  1  0.193831  0.060417  0.500003  1
  Si  Si20  1  0.806174  0.939563  0.500000  1
  Si  Si21  1  0.059947  0.805887  0.500002  1
  Si  Si22  1  0.940046  0.194114  0.500001  1
  Pt  Pt23  1  0.499999  0.499999  0.000000  1
