# generated using pymatgen
data_Tb3(Ag2Pd)2
_symmetry_space_group_name_H-M   'P 1'
_cell_length_a   7.66934600
_cell_length_b   7.66934733
_cell_length_c   3.84345900
_cell_angle_alpha   90.00000000
_cell_angle_beta   90.00000000
_cell_angle_gamma   119.99999427
_symmetry_Int_Tables_number   1
_chemical_formula_structural   Tb3(Ag2Pd)2
_chemical_formula_sum   'Tb3 Ag4 Pd2'
_cell_volume   195.78059638
_cell_formula_units_Z   1
loop_
 _symmetry_equiv_pos_site_id
 _symmetry_equiv_pos_as_xyz
  1  'x, y, z'
loop_
 _atom_site_type_symbol
 _atom_site_label
 _atom_site_symmetry_multiplicity
 _atom_site_fract_x
 _atom_site_fract_y
 _atom_site_fract_z
 _atom_site_occupancy
  Tb  Tb0  1  0.000000  0.409364  0.000000  1
  Tb  Tb1  1  0.590636  0.590636  0.000000  1
  Tb  Tb2  1  0.409364  0.000000  0.000000  1
  Ag  Ag3  1  0.000000  0.736293  0.500000  1
  Ag  Ag4  1  0.263707  0.263707  0.500000  1
  Ag  Ag5  1  0.736293  0.000000  0.500000  1
  Ag  Ag6  1  0.000000  0.000000  0.000000  1
  Pd  Pd7  1  0.333333  0.666667  0.500000  1
  Pd  Pd8  1  0.666667  0.333333  0.500000  1
