# generated using pymatgen
data_Tb8Sc12Ga15Te
_symmetry_space_group_name_H-M   'P 1'
_cell_length_a   7.31716668
_cell_length_b   7.61052412
_cell_length_c   14.50583957
_cell_angle_alpha   90.11294368
_cell_angle_beta   89.73683638
_cell_angle_gamma   89.92830963
_symmetry_Int_Tables_number   1
_chemical_formula_structural   Tb8Sc12Ga15Te
_chemical_formula_sum   'Tb8 Sc12 Ga15 Te1'
_cell_volume   807.78282573
_cell_formula_units_Z   1
loop_
 _symmetry_equiv_pos_site_id
 _symmetry_equiv_pos_as_xyz
  1  'x, y, z'
loop_
 _atom_site_type_symbol
 _atom_site_label
 _atom_site_symmetry_multiplicity
 _atom_site_fract_x
 _atom_site_fract_y
 _atom_site_fract_z
 _atom_site_occupancy
  Tb  Tb0  1  0.012407  0.179531  0.095160  1
  Tb  Tb1  1  0.988898  0.821500  0.905561  1
  Tb  Tb2  1  0.488524  0.677358  0.905835  1
  Tb  Tb3  1  0.985775  0.828116  0.595304  1
  Tb  Tb4  1  0.512468  0.321393  0.094647  1
  Tb  Tb5  1  0.005938  0.174307  0.401495  1
  Tb  Tb6  1  0.514213  0.313952  0.402966  1
  Tb  Tb7  1  0.502673  0.683931  0.597784  1
  Sc  Sc8  1  0.164325  0.503218  0.756673  1
  Sc  Sc9  1  0.837314  0.497565  0.248558  1
  Sc  Sc10  1  0.335859  0.003949  0.249094  1
  Sc  Sc11  1  0.665557  0.998223  0.752018  1
  Sc  Sc12  1  0.337640  0.158549  0.627866  1
  Sc  Sc13  1  0.667096  0.833834  0.374693  1
  Sc  Sc14  1  0.167748  0.680227  0.371304  1
  Sc  Sc15  1  0.672209  0.826936  0.123383  1
  Sc  Sc16  1  0.821165  0.324323  0.625025  1
  Sc  Sc17  1  0.328975  0.173322  0.876303  1
  Sc  Sc18  1  0.829616  0.327988  0.876517  1
  Sc  Sc19  1  0.170910  0.672262  0.124169  1
  Ga  Ga20  1  0.032292  0.119442  0.748090  1
  Ga  Ga21  1  0.967625  0.883282  0.248238  1
  Ga  Ga22  1  0.470294  0.617087  0.251389  1
  Ga  Ga23  1  0.531188  0.382105  0.750724  1
  Ga  Ga24  1  0.284432  0.869421  0.749937  1
  Ga  Ga25  1  0.715031  0.126625  0.249285  1
  Ga  Ga26  1  0.215270  0.373955  0.252595  1
  Ga  Ga27  1  0.787861  0.626682  0.748561  1
  Ga  Ga28  1  0.817994  0.540205  0.454648  1
  Ga  Ga29  1  0.336653  0.964396  0.459818  1
  Ga  Ga30  1  0.840222  0.534371  0.041282  1
  Ga  Ga31  1  0.660419  0.037765  0.540465  1
  Ga  Ga32  1  0.159235  0.464194  0.959629  1
  Ga  Ga33  1  0.659742  0.035359  0.958526  1
  Ga  Ga34  1  0.340992  0.963224  0.041361  1
  Te  Te35  1  0.171439  0.461401  0.541098  1
