# generated using pymatgen
data_NaCN5
_symmetry_space_group_name_H-M   'P 1'
_cell_length_a   4.04552813
_cell_length_b   9.53372539
_cell_length_c   4.84398845
_cell_angle_alpha   94.58628457
_cell_angle_beta   78.23018600
_cell_angle_gamma   105.07917633
_symmetry_Int_Tables_number   1
_chemical_formula_structural   NaCN5
_chemical_formula_sum   'Na1 C1 N5'
_cell_volume   176.53029080
_cell_formula_units_Z   1
loop_
 _symmetry_equiv_pos_site_id
 _symmetry_equiv_pos_as_xyz
  1  'x, y, z'
loop_
 _atom_site_type_symbol
 _atom_site_label
 _atom_site_symmetry_multiplicity
 _atom_site_fract_x
 _atom_site_fract_y
 _atom_site_fract_z
 _atom_site_occupancy
  Na  Na0  1  0.377893  0.289861  0.321463  1
  C  C1  1  0.682193  0.299432  0.826800  1
  N  N2  1  0.041303  0.009554  0.084337  1
  N  N3  1  0.827035  0.296724  0.589835  1
  N  N4  1  0.924362  0.940765  0.914933  1
  N  N5  1  0.367347  0.700687  0.581177  1
  N  N6  1  0.517966  0.660949  0.385697  1
