# generated using pymatgen
data_Tb8Ta2Ti8NbSi16Ir
_symmetry_space_group_name_H-M   'P 1'
_cell_length_a   7.05374551
_cell_length_b   7.05374593
_cell_length_c   12.93814400
_cell_angle_alpha   90.22318111
_cell_angle_beta   89.77681888
_cell_angle_gamma   89.68911923
_symmetry_Int_Tables_number   1
_chemical_formula_structural   Tb8Ta2Ti8NbSi16Ir
_chemical_formula_sum   'Tb8 Ta2 Ti8 Nb1 Si16 Ir1'
_cell_volume   643.72231085
_cell_formula_units_Z   1
loop_
 _symmetry_equiv_pos_site_id
 _symmetry_equiv_pos_as_xyz
  1  'x, y, z'
loop_
 _atom_site_type_symbol
 _atom_site_label
 _atom_site_symmetry_multiplicity
 _atom_site_fract_x
 _atom_site_fract_y
 _atom_site_fract_z
 _atom_site_occupancy
  Tb  Tb0  1  0.340238  0.003097  0.467668  1
  Tb  Tb1  1  0.497276  0.841381  0.718289  1
  Tb  Tb2  1  0.501396  0.158811  0.215383  1
  Tb  Tb3  1  0.841381  0.497276  0.281711  1
  Tb  Tb4  1  0.158811  0.501396  0.784617  1
  Tb  Tb5  1  0.658925  0.998440  0.968396  1
  Tb  Tb6  1  0.003097  0.340238  0.532332  1
  Tb  Tb7  1  0.998440  0.658925  0.031604  1
  Ta  Ta8  1  0.175427  0.826780  0.247552  1
  Ta  Ta9  1  0.826780  0.175427  0.752448  1
  Ti  Ti10  1  0.148436  0.003453  0.875364  1
  Ti  Ti11  1  0.490999  0.658465  0.125568  1
  Ti  Ti12  1  0.509333  0.348461  0.628639  1
  Ti  Ti13  1  0.658465  0.490999  0.874432  1
  Ti  Ti14  1  0.348461  0.509333  0.371361  1
  Ti  Ti15  1  0.847823  0.991457  0.374964  1
  Ti  Ti16  1  0.003453  0.148436  0.124636  1
  Ti  Ti17  1  0.991457  0.847823  0.625036  1
  Nb  Nb18  1  0.673812  0.673812  0.500000  1
  Si  Si19  1  0.201757  0.131214  0.685915  1
  Si  Si20  1  0.373346  0.699427  0.934921  1
  Si  Si21  1  0.629786  0.296415  0.435038  1
  Si  Si22  1  0.699427  0.373346  0.065079  1
  Si  Si23  1  0.296415  0.629786  0.564962  1
  Si  Si24  1  0.797245  0.869030  0.184756  1
  Si  Si25  1  0.131214  0.201757  0.314085  1
  Si  Si26  1  0.869030  0.797245  0.815244  1
  Si  Si27  1  0.287709  0.953080  0.061615  1
  Si  Si28  1  0.547284  0.792689  0.314578  1
  Si  Si29  1  0.448769  0.210092  0.818438  1
  Si  Si30  1  0.792689  0.547284  0.685422  1
  Si  Si31  1  0.210092  0.448769  0.181562  1
  Si  Si32  1  0.708403  0.048582  0.564924  1
  Si  Si33  1  0.953080  0.287709  0.938385  1
  Si  Si34  1  0.048582  0.708403  0.435076  1
  Ir  Ir35  1  0.331162  0.331162  0.000000  1
