# generated using pymatgen
data_YbDy2Th5(Pt2Pb)4
_symmetry_space_group_name_H-M   'P 1'
_cell_length_a   8.08565708
_cell_length_b   8.08565592
_cell_length_c   7.36476200
_cell_angle_alpha   90.00000000
_cell_angle_beta   90.00000000
_cell_angle_gamma   90.06653907
_symmetry_Int_Tables_number   1
_chemical_formula_structural   YbDy2Th5(Pt2Pb)4
_chemical_formula_sum   'Yb1 Dy2 Th5 Pt8 Pb4'
_cell_volume   481.49191433
_cell_formula_units_Z   1
loop_
 _symmetry_equiv_pos_site_id
 _symmetry_equiv_pos_as_xyz
  1  'x, y, z'
loop_
 _atom_site_type_symbol
 _atom_site_label
 _atom_site_symmetry_multiplicity
 _atom_site_fract_x
 _atom_site_fract_y
 _atom_site_fract_z
 _atom_site_occupancy
  Yb  Yb0  1  0.663237  0.663237  0.500000  1
  Dy  Dy1  1  0.839715  0.158671  0.000000  1
  Dy  Dy2  1  0.158671  0.839715  0.000000  1
  Th  Th3  1  0.676553  0.676553  0.000000  1
  Th  Th4  1  0.341239  0.341239  0.500000  1
  Th  Th5  1  0.824240  0.174156  0.500000  1
  Th  Th6  1  0.325768  0.325768  0.000000  1
  Th  Th7  1  0.174156  0.824240  0.500000  1
  Pt  Pt8  1  0.874392  0.874392  0.737430  1
  Pt  Pt9  1  0.130489  0.130489  0.737258  1
  Pt  Pt10  1  0.627844  0.369028  0.767542  1
  Pt  Pt11  1  0.627844  0.369028  0.232458  1
  Pt  Pt12  1  0.369028  0.627844  0.232458  1
  Pt  Pt13  1  0.130489  0.130489  0.262742  1
  Pt  Pt14  1  0.874392  0.874392  0.262570  1
  Pt  Pt15  1  0.369028  0.627844  0.767542  1
  Pb  Pb16  1  0.502195  0.994263  0.751928  1
  Pb  Pb17  1  0.502195  0.994263  0.248072  1
  Pb  Pb18  1  0.994263  0.502195  0.751928  1
  Pb  Pb19  1  0.994263  0.502195  0.248072  1
