# generated using pymatgen
data_Nd4Er12Cd4OsPt3
_symmetry_space_group_name_H-M   'P 1'
_cell_length_a   9.71745749
_cell_length_b   9.70823098
_cell_length_c   9.70823191
_cell_angle_alpha   59.79978885
_cell_angle_beta   59.64598320
_cell_angle_gamma   59.64597891
_symmetry_Int_Tables_number   1
_chemical_formula_structural   Nd4Er12Cd4OsPt3
_chemical_formula_sum   'Nd4 Er12 Cd4 Os1 Pt3'
_cell_volume   643.15967576
_cell_formula_units_Z   1
loop_
 _symmetry_equiv_pos_site_id
 _symmetry_equiv_pos_as_xyz
  1  'x, y, z'
loop_
 _atom_site_type_symbol
 _atom_site_label
 _atom_site_symmetry_multiplicity
 _atom_site_fract_x
 _atom_site_fract_y
 _atom_site_fract_z
 _atom_site_occupancy
  Nd  Nd0  1  0.567334  0.933800  0.566634  1
  Nd  Nd1  1  0.937735  0.560260  0.934870  1
  Nd  Nd2  1  0.567334  0.566634  0.933800  1
  Nd  Nd3  1  0.937735  0.934870  0.560260  1
  Er  Er4  1  0.353614  0.350383  0.350383  1
  Er  Er5  1  0.346925  0.352086  0.953116  1
  Er  Er6  1  0.346925  0.953116  0.352086  1
  Er  Er7  1  0.950049  0.347634  0.347634  1
  Er  Er8  1  0.818734  0.184830  0.184830  1
  Er  Er9  1  0.187254  0.811924  0.811924  1
  Er  Er10  1  0.188590  0.815044  0.188216  1
  Er  Er11  1  0.810371  0.184394  0.810356  1
  Er  Er12  1  0.188590  0.188216  0.815044  1
  Er  Er13  1  0.810371  0.810356  0.184394  1
  Er  Er14  1  0.943613  0.555192  0.555192  1
  Er  Er15  1  0.546808  0.947243  0.947243  1
  Cd  Cd16  1  0.583078  0.577742  0.577742  1
  Cd  Cd17  1  0.577559  0.583743  0.258292  1
  Cd  Cd18  1  0.577559  0.258292  0.583743  1
  Cd  Cd19  1  0.258214  0.579053  0.579053  1
  Os  Os20  1  0.148042  0.140343  0.140343  1
  Pt  Pt21  1  0.140143  0.148604  0.574163  1
  Pt  Pt22  1  0.140143  0.574163  0.148604  1
  Pt  Pt23  1  0.573283  0.142079  0.142079  1
