# generated using pymatgen
data_Tb3Nd4Dy(ReB6)4
_symmetry_space_group_name_H-M   'P 1'
_cell_length_a   3.74247400
_cell_length_b   9.27164700
_cell_length_c   11.72712500
_cell_angle_alpha   90.00280500
_cell_angle_beta   90.00000000
_cell_angle_gamma   90.00000000
_symmetry_Int_Tables_number   1
_chemical_formula_structural   Tb3Nd4Dy(ReB6)4
_chemical_formula_sum   'Tb3 Nd4 Dy1 Re4 B24'
_cell_volume   406.91831203
_cell_formula_units_Z   1
loop_
 _symmetry_equiv_pos_site_id
 _symmetry_equiv_pos_as_xyz
  1  'x, y, z'
loop_
 _atom_site_type_symbol
 _atom_site_label
 _atom_site_symmetry_multiplicity
 _atom_site_fract_x
 _atom_site_fract_y
 _atom_site_fract_z
 _atom_site_occupancy
  Tb  Tb0  1  0.000000  0.942062  0.369140  1
  Tb  Tb1  1  0.000000  0.058028  0.630851  1
  Tb  Tb2  1  0.000000  0.442111  0.130482  1
  Nd  Nd3  1  0.000000  0.322512  0.414412  1
  Nd  Nd4  1  0.000000  0.677473  0.585732  1
  Nd  Nd5  1  0.000000  0.822374  0.085607  1
  Nd  Nd6  1  0.000000  0.177510  0.914309  1
  Dy  Dy7  1  0.000000  0.558051  0.869011  1
  Re  Re8  1  0.000000  0.638396  0.319561  1
  Re  Re9  1  0.000000  0.361706  0.680913  1
  Re  Re10  1  0.000000  0.138465  0.180320  1
  Re  Re11  1  0.000000  0.861094  0.819590  1
  B  B12  1  0.500000  0.554436  0.430717  1
  B  B13  1  0.500000  0.445645  0.569467  1
  B  B14  1  0.500000  0.054304  0.069192  1
  B  B15  1  0.500000  0.945270  0.930737  1
  B  B16  1  0.500000  0.748331  0.415537  1
  B  B17  1  0.500000  0.251823  0.584635  1
  B  B18  1  0.500000  0.248329  0.084370  1
  B  B19  1  0.500000  0.751060  0.915588  1
  B  B20  1  0.500000  0.790163  0.265817  1
  B  B21  1  0.500000  0.210052  0.734308  1
  B  B22  1  0.500000  0.290200  0.234074  1
  B  B23  1  0.500000  0.709427  0.765926  1
  B  B24  1  0.500000  0.629312  0.186623  1
  B  B25  1  0.500000  0.371099  0.813644  1
  B  B26  1  0.500000  0.129383  0.313248  1
  B  B27  1  0.500000  0.870545  0.686774  1
  B  B28  1  0.500000  0.983814  0.212587  1
  B  B29  1  0.500000  0.016073  0.787472  1
  B  B30  1  0.500000  0.483772  0.287316  1
  B  B31  1  0.500000  0.516557  0.712917  1
  B  B32  1  0.500000  0.596478  0.026361  1
  B  B33  1  0.500000  0.404055  0.972653  1
  B  B34  1  0.500000  0.096573  0.473142  1
  B  B35  1  0.500000  0.903518  0.526967  1
