# generated using pymatgen
data_NdRe3Si2W
_symmetry_space_group_name_H-M   'P 1'
_cell_length_a   7.92348822
_cell_length_b   7.10696884
_cell_length_c   4.21155400
_cell_angle_alpha   90.00000000
_cell_angle_beta   90.00000000
_cell_angle_gamma   89.80130536
_symmetry_Int_Tables_number   1
_chemical_formula_structural   NdRe3Si2W
_chemical_formula_sum   'Nd2 Re6 Si4 W2'
_cell_volume   237.15953477
_cell_formula_units_Z   2
loop_
 _symmetry_equiv_pos_site_id
 _symmetry_equiv_pos_as_xyz
  1  'x, y, z'
loop_
 _atom_site_type_symbol
 _atom_site_label
 _atom_site_symmetry_multiplicity
 _atom_site_fract_x
 _atom_site_fract_y
 _atom_site_fract_z
 _atom_site_occupancy
  Nd  Nd0  1  0.500000  0.500000  0.000000  1
  Nd  Nd1  1  0.000000  0.000000  0.500000  1
  Re  Re2  1  0.109797  0.345513  0.000000  1
  Re  Re3  1  0.890203  0.654487  0.000000  1
  Re  Re4  1  0.157989  0.572410  0.500000  1
  Re  Re5  1  0.842011  0.427590  0.500000  1
  Re  Re6  1  0.334382  0.073975  0.000000  1
  Re  Re7  1  0.665618  0.926025  0.000000  1
  Si  Si8  1  0.689375  0.729646  0.500000  1
  Si  Si9  1  0.310625  0.270354  0.500000  1
  Si  Si10  1  0.187183  0.766643  0.000000  1
  Si  Si11  1  0.812817  0.233357  0.000000  1
  W  W12  1  0.612932  0.151745  0.500000  1
  W  W13  1  0.387068  0.848255  0.500000  1
