# generated using pymatgen
data_Ho12Ni4OsPb
_symmetry_space_group_name_H-M   'P 1'
_cell_length_a   8.27921699
_cell_length_b   8.27921625
_cell_length_c   8.27921644
_cell_angle_alpha   111.80277181
_cell_angle_beta   109.76945634
_cell_angle_gamma   106.87895852
_symmetry_Int_Tables_number   1
_chemical_formula_structural   Ho12Ni4OsPb
_chemical_formula_sum   'Ho12 Ni4 Os1 Pb1'
_cell_volume   436.05256021
_cell_formula_units_Z   1
loop_
 _symmetry_equiv_pos_site_id
 _symmetry_equiv_pos_as_xyz
  1  'x, y, z'
loop_
 _atom_site_type_symbol
 _atom_site_label
 _atom_site_symmetry_multiplicity
 _atom_site_fract_x
 _atom_site_fract_y
 _atom_site_fract_z
 _atom_site_occupancy
  Ho  Ho0  1  0.411546  0.220659  0.190888  1
  Ho  Ho1  1  0.588454  0.779341  0.809112  1
  Ho  Ho2  1  0.029771  0.220659  0.809112  1
  Ho  Ho3  1  0.970229  0.779341  0.190888  1
  Ho  Ho4  1  0.177931  0.280424  0.458353  1
  Ho  Ho5  1  0.822069  0.719576  0.541647  1
  Ho  Ho6  1  0.177931  0.719576  0.897506  1
  Ho  Ho7  1  0.822069  0.280424  0.102494  1
  Ho  Ho8  1  0.320987  0.629583  0.308597  1
  Ho  Ho9  1  0.679013  0.370417  0.691403  1
  Ho  Ho10  1  0.320987  0.012390  0.691403  1
  Ho  Ho11  1  0.679013  0.987610  0.308597  1
  Ni  Ni12  1  0.357228  0.000000  0.357228  1
  Ni  Ni13  1  0.642772  0.000000  0.642772  1
  Ni  Ni14  1  0.120537  0.620537  0.500000  1
  Ni  Ni15  1  0.879463  0.379463  0.500000  1
  Os  Os16  1  0.000000  0.000000  0.000000  1
  Pb  Pb17  1  0.500000  0.500000  0.000000  1
