# generated using pymatgen
data_Tm6Ti4Al3Pt16
_symmetry_space_group_name_H-M   'P 1'
_cell_length_a   9.05820299
_cell_length_b   9.05820305
_cell_length_c   9.05820318
_cell_angle_alpha   59.25296079
_cell_angle_beta   59.25295776
_cell_angle_gamma   59.25296634
_symmetry_Int_Tables_number   1
_chemical_formula_structural   Tm6Ti4Al3Pt16
_chemical_formula_sum   'Tm6 Ti4 Al3 Pt16'
_cell_volume   516.60439353
_cell_formula_units_Z   1
loop_
 _symmetry_equiv_pos_site_id
 _symmetry_equiv_pos_as_xyz
  1  'x, y, z'
loop_
 _atom_site_type_symbol
 _atom_site_label
 _atom_site_symmetry_multiplicity
 _atom_site_fract_x
 _atom_site_fract_y
 _atom_site_fract_z
 _atom_site_occupancy
  Tm  Tm0  1  0.722110  0.285823  0.285823  1
  Tm  Tm1  1  0.277890  0.714177  0.714177  1
  Tm  Tm2  1  0.285823  0.722110  0.285823  1
  Tm  Tm3  1  0.285823  0.285823  0.722110  1
  Tm  Tm4  1  0.714177  0.277890  0.714177  1
  Tm  Tm5  1  0.714177  0.714177  0.277890  1
  Ti  Ti6  1  0.000000  0.500000  0.500000  1
  Ti  Ti7  1  0.500000  0.000000  0.500000  1
  Ti  Ti8  1  0.500000  0.500000  0.000000  1
  Ti  Ti9  1  0.000000  0.000000  0.000000  1
  Al  Al10  1  0.500000  0.000000  0.000000  1
  Al  Al11  1  0.000000  0.500000  0.000000  1
  Al  Al12  1  0.000000  0.000000  0.500000  1
  Pt  Pt13  1  0.346075  0.346075  0.346075  1
  Pt  Pt14  1  0.336982  0.336982  0.988737  1
  Pt  Pt15  1  0.988737  0.336982  0.336982  1
  Pt  Pt16  1  0.336982  0.988737  0.336982  1
  Pt  Pt17  1  0.653925  0.653925  0.653925  1
  Pt  Pt18  1  0.663018  0.663018  0.011263  1
  Pt  Pt19  1  0.663018  0.011263  0.663018  1
  Pt  Pt20  1  0.011263  0.663018  0.663018  1
  Pt  Pt21  1  0.116835  0.116835  0.116835  1
  Pt  Pt22  1  0.125792  0.125792  0.639388  1
  Pt  Pt23  1  0.639388  0.125792  0.125792  1
  Pt  Pt24  1  0.125792  0.639388  0.125792  1
  Pt  Pt25  1  0.883165  0.883165  0.883165  1
  Pt  Pt26  1  0.874208  0.874208  0.360612  1
  Pt  Pt27  1  0.874208  0.360612  0.874208  1
  Pt  Pt28  1  0.360612  0.874208  0.874208  1
