# generated using pymatgen
data_Dy3Ho(Al3Rh)6
_symmetry_space_group_name_H-M   'P 1'
_cell_length_a   7.55514699
_cell_length_b   7.55396157
_cell_length_c   9.45550800
_cell_angle_alpha   90.00000000
_cell_angle_beta   90.00000000
_cell_angle_gamma   119.28047118
_symmetry_Int_Tables_number   1
_chemical_formula_structural   Dy3Ho(Al3Rh)6
_chemical_formula_sum   'Dy3 Ho1 Al18 Rh6'
_cell_volume   470.69173754
_cell_formula_units_Z   1
loop_
 _symmetry_equiv_pos_site_id
 _symmetry_equiv_pos_as_xyz
  1  'x, y, z'
loop_
 _atom_site_type_symbol
 _atom_site_label
 _atom_site_symmetry_multiplicity
 _atom_site_fract_x
 _atom_site_fract_y
 _atom_site_fract_z
 _atom_site_occupancy
  Dy  Dy0  1  0.005611  0.328838  0.250000  1
  Dy  Dy1  1  0.670936  0.994244  0.750000  1
  Dy  Dy2  1  0.328785  0.005495  0.250000  1
  Ho  Ho3  1  0.994432  0.670909  0.750000  1
  Al  Al4  1  0.128049  0.127804  0.750000  1
  Al  Al5  1  0.872357  0.872226  0.250000  1
  Al  Al6  1  0.001050  0.336002  0.574957  1
  Al  Al7  1  0.999062  0.664429  0.425435  1
  Al  Al8  1  0.999062  0.664429  0.074565  1
  Al  Al9  1  0.335406  0.000816  0.925142  1
  Al  Al10  1  0.001050  0.336002  0.925043  1
  Al  Al11  1  0.664339  0.998983  0.075050  1
  Al  Al12  1  0.664339  0.998983  0.424950  1
  Al  Al13  1  0.335406  0.000816  0.574858  1
  Al  Al14  1  0.332830  0.332833  0.049714  1
  Al  Al15  1  0.667365  0.667112  0.949840  1
  Al  Al16  1  0.667365  0.667112  0.550160  1
  Al  Al17  1  0.332830  0.332833  0.450286  1
  Al  Al18  1  0.338831  0.549264  0.750000  1
  Al  Al19  1  0.660860  0.450144  0.250000  1
  Al  Al20  1  0.549638  0.339498  0.750000  1
  Al  Al21  1  0.450101  0.660798  0.250000  1
  Rh  Rh22  1  0.672180  0.328233  0.500208  1
  Rh  Rh23  1  0.328282  0.672205  0.500254  1
  Rh  Rh24  1  0.328282  0.672205  0.999746  1
  Rh  Rh25  1  0.672180  0.328233  0.999792  1
  Rh  Rh26  1  0.999686  0.999775  0.500426  1
  Rh  Rh27  1  0.999686  0.999775  0.999574  1
