# generated using pymatgen
data_Yb2MnGaF10
_symmetry_space_group_name_H-M   'P 1'
_cell_length_a   5.48618570
_cell_length_b   5.54435281
_cell_length_c   7.74832825
_cell_angle_alpha   68.57345480
_cell_angle_beta   70.03556349
_cell_angle_gamma   70.81700034
_symmetry_Int_Tables_number   1
_chemical_formula_structural   Yb2MnGaF10
_chemical_formula_sum   'Yb2 Mn1 Ga1 F10'
_cell_volume   200.53486639
_cell_formula_units_Z   1
loop_
 _symmetry_equiv_pos_site_id
 _symmetry_equiv_pos_as_xyz
  1  'x, y, z'
loop_
 _atom_site_type_symbol
 _atom_site_label
 _atom_site_symmetry_multiplicity
 _atom_site_fract_x
 _atom_site_fract_y
 _atom_site_fract_z
 _atom_site_occupancy
  Yb  Yb0  1  0.543679  0.452206  0.755776  1
  Yb  Yb1  1  0.456321  0.547794  0.244224  1
  Mn  Mn2  1  0.000000  0.000000  0.500000  1
  Ga  Ga3  1  0.000000  0.000000  0.000000  1
  F  F4  1  0.092768  0.907411  0.239794  1
  F  F5  1  0.907232  0.092589  0.760206  1
  F  F6  1  0.211907  0.245720  0.382272  1
  F  F7  1  0.751737  0.786433  0.119492  1
  F  F8  1  0.710950  0.309105  0.035232  1
  F  F9  1  0.689711  0.288984  0.470791  1
  F  F10  1  0.289050  0.690895  0.964768  1
  F  F11  1  0.310289  0.711016  0.529209  1
  F  F12  1  0.248263  0.213567  0.880508  1
  F  F13  1  0.788093  0.754280  0.617728  1
