# generated using pymatgen
data_La4In4PtRh3
_symmetry_space_group_name_H-M   'P 1'
_cell_length_a   4.56393500
_cell_length_b   7.31095923
_cell_length_c   8.53849857
_cell_angle_alpha   89.96393326
_cell_angle_beta   90.00000000
_cell_angle_gamma   90.00000000
_symmetry_Int_Tables_number   1
_chemical_formula_structural   La4In4PtRh3
_chemical_formula_sum   'La4 In4 Pt1 Rh3'
_cell_volume   284.90182823
_cell_formula_units_Z   1
loop_
 _symmetry_equiv_pos_site_id
 _symmetry_equiv_pos_as_xyz
  1  'x, y, z'
loop_
 _atom_site_type_symbol
 _atom_site_label
 _atom_site_symmetry_multiplicity
 _atom_site_fract_x
 _atom_site_fract_y
 _atom_site_fract_z
 _atom_site_occupancy
  La  La0  1  0.250000  0.954808  0.324160  1
  La  La1  1  0.250000  0.457453  0.174186  1
  La  La2  1  0.750000  0.040989  0.680495  1
  La  La3  1  0.750000  0.542585  0.825962  1
  In  In4  1  0.250000  0.367376  0.568220  1
  In  In5  1  0.250000  0.863871  0.934809  1
  In  In6  1  0.750000  0.639324  0.435270  1
  In  In7  1  0.750000  0.131450  0.063030  1
  Pt  Pt8  1  0.750000  0.251449  0.379734  1
  Rh  Rh9  1  0.250000  0.252357  0.885109  1
  Rh  Rh10  1  0.250000  0.754368  0.614324  1
  Rh  Rh11  1  0.750000  0.743972  0.114703  1
