# generated using pymatgen
data_Tb4Tm6Si5Sn
_symmetry_space_group_name_H-M   'P 1'
_cell_length_a   8.50279752
_cell_length_b   8.50279581
_cell_length_c   6.33846000
_cell_angle_alpha   90.00000000
_cell_angle_beta   90.00000000
_cell_angle_gamma   120.29975739
_symmetry_Int_Tables_number   1
_chemical_formula_structural   Tb4Tm6Si5Sn
_chemical_formula_sum   'Tb4 Tm6 Si5 Sn1'
_cell_volume   395.65642428
_cell_formula_units_Z   1
loop_
 _symmetry_equiv_pos_site_id
 _symmetry_equiv_pos_as_xyz
  1  'x, y, z'
loop_
 _atom_site_type_symbol
 _atom_site_label
 _atom_site_symmetry_multiplicity
 _atom_site_fract_x
 _atom_site_fract_y
 _atom_site_fract_z
 _atom_site_occupancy
  Tb  Tb0  1  0.765378  0.765378  0.250000  1
  Tb  Tb1  1  0.241045  0.241045  0.750000  1
  Tb  Tb2  1  0.755297  0.999247  0.750000  1
  Tb  Tb3  1  0.999247  0.755297  0.750000  1
  Tm  Tm4  1  0.673785  0.331026  0.502439  1
  Tm  Tm5  1  0.331026  0.673785  0.502439  1
  Tm  Tm6  1  0.331026  0.673785  0.997561  1
  Tm  Tm7  1  0.673785  0.331026  0.997561  1
  Tm  Tm8  1  0.241463  0.989626  0.250000  1
  Tm  Tm9  1  0.989626  0.241463  0.250000  1
  Si  Si10  1  0.603593  0.999630  0.250000  1
  Si  Si11  1  0.999630  0.603593  0.250000  1
  Si  Si12  1  0.604271  0.604271  0.750000  1
  Si  Si13  1  0.395244  0.001588  0.750000  1
  Si  Si14  1  0.001588  0.395244  0.750000  1
  Sn  Sn15  1  0.393998  0.393998  0.250000  1
