# generated using pymatgen
data_Y6Tm4(SnSb)3
_symmetry_space_group_name_H-M   'P 1'
_cell_length_a   6.37747400
_cell_length_b   8.95135793
_cell_length_c   8.95122800
_cell_angle_alpha   120.00048478
_cell_angle_beta   90.00021416
_cell_angle_gamma   89.99958237
_symmetry_Int_Tables_number   1
_chemical_formula_structural   Y6Tm4(SnSb)3
_chemical_formula_sum   'Y6 Tm4 Sn3 Sb3'
_cell_volume   442.53614636
_cell_formula_units_Z   1
loop_
 _symmetry_equiv_pos_site_id
 _symmetry_equiv_pos_as_xyz
  1  'x, y, z'
loop_
 _atom_site_type_symbol
 _atom_site_label
 _atom_site_symmetry_multiplicity
 _atom_site_fract_x
 _atom_site_fract_y
 _atom_site_fract_z
 _atom_site_occupancy
  Y  Y0  1  0.750002  0.241911  0.000000  1
  Y  Y1  1  0.750001  0.758112  0.758107  1
  Y  Y2  1  0.750001  0.000004  0.241893  1
  Y  Y3  1  0.249994  0.757116  0.000000  1
  Y  Y4  1  0.250002  0.242862  0.242866  1
  Y  Y5  1  0.250002  0.999996  0.757134  1
  Tm  Tm6  1  0.501772  0.333333  0.666665  1
  Tm  Tm7  1  0.501772  0.666668  0.333335  1
  Tm  Tm8  1  0.998229  0.666667  0.333336  1
  Tm  Tm9  1  0.998229  0.333331  0.666664  1
  Sn  Sn10  1  0.749997  0.605906  0.000000  1
  Sn  Sn11  1  0.749999  0.394110  0.394105  1
  Sn  Sn12  1  0.749999  0.000003  0.605895  1
  Sb  Sb13  1  0.249996  0.392234  0.000000  1
  Sb  Sb14  1  0.250001  0.607754  0.607761  1
  Sb  Sb15  1  0.250001  0.999993  0.392239  1
