# generated using pymatgen
data_Ho2ZnCo2Ni5B2
_symmetry_space_group_name_H-M   'P 1'
_cell_length_a   5.01197980
_cell_length_b   5.01197850
_cell_length_c   6.87780338
_cell_angle_alpha   89.88262872
_cell_angle_beta   89.88262839
_cell_angle_gamma   119.68282100
_symmetry_Int_Tables_number   1
_chemical_formula_structural   Ho2ZnCo2Ni5B2
_chemical_formula_sum   'Ho2 Zn1 Co2 Ni5 B2'
_cell_volume   150.09785493
_cell_formula_units_Z   1
loop_
 _symmetry_equiv_pos_site_id
 _symmetry_equiv_pos_as_xyz
  1  'x, y, z'
loop_
 _atom_site_type_symbol
 _atom_site_label
 _atom_site_symmetry_multiplicity
 _atom_site_fract_x
 _atom_site_fract_y
 _atom_site_fract_z
 _atom_site_occupancy
  Ho  Ho0  1  0.999994  0.000006  0.500000  1
  Ho  Ho1  1  0.000100  0.999900  0.000000  1
  Zn  Zn2  1  0.332174  0.667826  0.500000  1
  Co  Co3  1  0.997209  0.497593  0.202541  1
  Co  Co4  1  0.502407  0.002791  0.797459  1
  Ni  Ni5  1  0.502546  0.501091  0.794331  1
  Ni  Ni6  1  0.998667  0.500343  0.792783  1
  Ni  Ni7  1  0.668935  0.331065  0.500000  1
  Ni  Ni8  1  0.499657  0.001333  0.207217  1
  Ni  Ni9  1  0.498909  0.497454  0.205669  1
  B  B10  1  0.329779  0.670221  0.000000  1
  B  B11  1  0.669625  0.330375  0.000000  1
