# generated using pymatgen
data_Dy10Tl7InAgPt3
_symmetry_space_group_name_H-M   'P 1'
_cell_length_a   3.64304600
_cell_length_b   8.27398425
_cell_length_c   18.49449100
_cell_angle_alpha   90.01405044
_cell_angle_beta   90.00000000
_cell_angle_gamma   90.00000000
_symmetry_Int_Tables_number   1
_chemical_formula_structural   Dy10Tl7InAgPt3
_chemical_formula_sum   'Dy10 Tl7 In1 Ag1 Pt3'
_cell_volume   557.47027478
_cell_formula_units_Z   1
loop_
 _symmetry_equiv_pos_site_id
 _symmetry_equiv_pos_as_xyz
  1  'x, y, z'
loop_
 _atom_site_type_symbol
 _atom_site_label
 _atom_site_symmetry_multiplicity
 _atom_site_fract_x
 _atom_site_fract_y
 _atom_site_fract_z
 _atom_site_occupancy
  Dy  Dy0  1  0.000000  0.119840  0.420677  1
  Dy  Dy1  1  0.000000  0.885436  0.587661  1
  Dy  Dy2  1  0.000000  0.386475  0.911931  1
  Dy  Dy3  1  0.000000  0.614839  0.085266  1
  Dy  Dy4  1  0.000000  0.259563  0.215494  1
  Dy  Dy5  1  0.000000  0.753977  0.779865  1
  Dy  Dy6  1  0.000000  0.254833  0.719994  1
  Dy  Dy7  1  0.000000  0.725508  0.280842  1
  Dy  Dy8  1  0.000000  0.999133  0.998895  1
  Dy  Dy9  1  0.000000  0.502476  0.500713  1
  Tl  Tl10  1  0.500000  0.418054  0.355298  1
  Tl  Tl11  1  0.500000  0.578665  0.646741  1
  Tl  Tl12  1  0.500000  0.078570  0.853331  1
  Tl  Tl13  1  0.500000  0.921954  0.147208  1
  Tl  Tl14  1  0.500000  0.292679  0.062330  1
  Tl  Tl15  1  0.500000  0.706805  0.934692  1
  Tl  Tl16  1  0.500000  0.207987  0.566019  1
  In  In17  1  0.500000  0.795541  0.434376  1
  Ag  Ag18  1  0.500000  0.025316  0.301608  1
  Pt  Pt19  1  0.500000  0.971739  0.697941  1
  Pt  Pt20  1  0.500000  0.471735  0.802082  1
  Pt  Pt21  1  0.500000  0.528874  0.197035  1
