# generated using pymatgen
data_Pr11Nd9(IrPb2)4
_symmetry_space_group_name_H-M   'P 1'
_cell_length_a   8.17535427
_cell_length_b   9.14521800
_cell_length_c   12.76446300
_cell_angle_alpha   90.00000000
_cell_angle_beta   90.01480164
_cell_angle_gamma   90.00000000
_symmetry_Int_Tables_number   1
_chemical_formula_structural   Pr11Nd9(IrPb2)4
_chemical_formula_sum   'Pr11 Nd9 Ir4 Pb8'
_cell_volume   954.34011251
_cell_formula_units_Z   1
loop_
 _symmetry_equiv_pos_site_id
 _symmetry_equiv_pos_as_xyz
  1  'x, y, z'
loop_
 _atom_site_type_symbol
 _atom_site_label
 _atom_site_symmetry_multiplicity
 _atom_site_fract_x
 _atom_site_fract_y
 _atom_site_fract_z
 _atom_site_occupancy
  Pr  Pr0  1  0.336409  0.250000  0.285191  1
  Pr  Pr1  1  0.162773  0.250000  0.785738  1
  Pr  Pr2  1  0.837401  0.750000  0.213815  1
  Pr  Pr3  1  0.130351  0.750000  0.805654  1
  Pr  Pr4  1  0.870039  0.250000  0.193689  1
  Pr  Pr5  1  0.630521  0.250000  0.693384  1
  Pr  Pr6  1  0.369485  0.750000  0.306947  1
  Pr  Pr7  1  0.554044  0.750000  0.998710  1
  Pr  Pr8  1  0.445796  0.250000  0.001072  1
  Pr  Pr9  1  0.052340  0.250000  0.501930  1
  Pr  Pr10  1  0.946705  0.750000  0.498455  1
  Nd  Nd11  1  0.663157  0.750000  0.714754  1
  Nd  Nd12  1  0.822748  0.460176  0.928327  1
  Nd  Nd13  1  0.177516  0.539989  0.071239  1
  Nd  Nd14  1  0.323865  0.539508  0.573216  1
  Nd  Nd15  1  0.177516  0.960011  0.071239  1
  Nd  Nd16  1  0.676138  0.460521  0.427393  1
  Nd  Nd17  1  0.822748  0.039824  0.928327  1
  Nd  Nd18  1  0.676138  0.039479  0.427393  1
  Nd  Nd19  1  0.323865  0.960492  0.573216  1
  Ir  Ir20  1  0.923828  0.750000  0.992063  1
  Ir  Ir21  1  0.076595  0.250000  0.007336  1
  Ir  Ir22  1  0.422647  0.250000  0.507249  1
  Ir  Ir23  1  0.577084  0.750000  0.493831  1
  Pb  Pb24  1  0.931374  0.005437  0.671681  1
  Pb  Pb25  1  0.067656  0.994115  0.328377  1
  Pb  Pb26  1  0.434251  0.993682  0.827679  1
  Pb  Pb27  1  0.067656  0.505885  0.328377  1
  Pb  Pb28  1  0.566864  0.005868  0.172178  1
  Pb  Pb29  1  0.931374  0.494563  0.671681  1
  Pb  Pb30  1  0.566864  0.494132  0.172178  1
  Pb  Pb31  1  0.434251  0.506318  0.827679  1
