# generated using pymatgen
data_VNi4Te6Mo
_symmetry_space_group_name_H-M   'P 1'
_cell_length_a   7.59233361
_cell_length_b   3.65597800
_cell_length_c   10.23329362
_cell_angle_alpha   90.00000000
_cell_angle_beta   108.99645875
_cell_angle_gamma   90.00000000
_symmetry_Int_Tables_number   1
_chemical_formula_structural   VNi4Te6Mo
_chemical_formula_sum   'V1 Ni4 Te6 Mo1'
_cell_volume   268.57995632
_cell_formula_units_Z   1
loop_
 _symmetry_equiv_pos_site_id
 _symmetry_equiv_pos_as_xyz
  1  'x, y, z'
loop_
 _atom_site_type_symbol
 _atom_site_label
 _atom_site_symmetry_multiplicity
 _atom_site_fract_x
 _atom_site_fract_y
 _atom_site_fract_z
 _atom_site_occupancy
  V  V0  1  0.213767  0.750001  0.700917  1
  Ni  Ni1  1  0.595753  0.750001  0.089223  1
  Ni  Ni2  1  0.046090  0.750001  0.434757  1
  Ni  Ni3  1  0.957894  0.250001  0.564829  1
  Ni  Ni4  1  0.405317  0.250001  0.911343  1
  Te  Te5  1  0.420372  0.250001  0.163971  1
  Te  Te6  1  0.946450  0.750001  0.171899  1
  Te  Te7  1  0.716826  0.750001  0.491408  1
  Te  Te8  1  0.284931  0.250001  0.515393  1
  Te  Te9  1  0.055339  0.250001  0.825193  1
  Te  Te10  1  0.572342  0.750001  0.831832  1
  Mo  Mo11  1  0.784919  0.250001  0.299236  1
