# generated using pymatgen
data_Nb6Ga4FeOsC2
_symmetry_space_group_name_H-M   'P 1'
_cell_length_a   8.28375082
_cell_length_b   8.28375148
_cell_length_c   8.28079400
_cell_angle_alpha   60.01180947
_cell_angle_beta   60.01180683
_cell_angle_gamma   60.06467546
_symmetry_Int_Tables_number   1
_chemical_formula_structural   Nb6Ga4FeOsC2
_chemical_formula_sum   'Nb12 Ga8 Fe2 Os2 C4'
_cell_volume   402.06888267
_cell_formula_units_Z   2
loop_
 _symmetry_equiv_pos_site_id
 _symmetry_equiv_pos_as_xyz
  1  'x, y, z'
loop_
 _atom_site_type_symbol
 _atom_site_label
 _atom_site_symmetry_multiplicity
 _atom_site_fract_x
 _atom_site_fract_y
 _atom_site_fract_z
 _atom_site_occupancy
  Nb  Nb0  1  0.694890  0.304510  0.696231  1
  Nb  Nb1  1  0.945490  0.555110  0.553769  1
  Nb  Nb2  1  0.555110  0.945490  0.945631  1
  Nb  Nb3  1  0.945490  0.555110  0.945631  1
  Nb  Nb4  1  0.554068  0.554068  0.945932  1
  Nb  Nb5  1  0.945564  0.945564  0.554436  1
  Nb  Nb6  1  0.695932  0.695932  0.304068  1
  Nb  Nb7  1  0.304510  0.694890  0.696231  1
  Nb  Nb8  1  0.694890  0.304510  0.304369  1
  Nb  Nb9  1  0.304436  0.304436  0.695564  1
  Nb  Nb10  1  0.555110  0.945490  0.553769  1
  Nb  Nb11  1  0.304510  0.694890  0.304369  1
  Ga  Ga12  1  0.331183  0.331183  0.343852  1
  Ga  Ga13  1  0.254606  0.922951  0.911221  1
  Ga  Ga14  1  0.922951  0.254606  0.911221  1
  Ga  Ga15  1  0.918817  0.918817  0.256216  1
  Ga  Ga16  1  0.327049  0.995394  0.338779  1
  Ga  Ga17  1  0.331183  0.331183  0.993784  1
  Ga  Ga18  1  0.995394  0.327049  0.338779  1
  Ga  Ga19  1  0.918817  0.918817  0.906148  1
  Fe  Fe20  1  0.125000  0.125000  0.125000  1
  Fe  Fe21  1  0.125000  0.125000  0.625000  1
  Os  Os22  1  0.625000  0.125000  0.125000  1
  Os  Os23  1  0.125000  0.625000  0.125000  1
  C  C24  1  0.625000  0.625000  0.625000  1
  C  C25  1  0.125000  0.625000  0.625000  1
  C  C26  1  0.625000  0.125000  0.625000  1
  C  C27  1  0.625000  0.625000  0.125000  1
