# generated using pymatgen
data_Ho5Fe3(Co4P3)4
_symmetry_space_group_name_H-M   'P 1'
_cell_length_a   11.97811500
_cell_length_b   11.97811672
_cell_length_c   3.66494200
_cell_angle_alpha   90.00000000
_cell_angle_beta   90.00000000
_cell_angle_gamma   120.00000353
_symmetry_Int_Tables_number   1
_chemical_formula_structural   Ho5Fe3(Co4P3)4
_chemical_formula_sum   'Ho5 Fe3 Co16 P12'
_cell_volume   455.38082691
_cell_formula_units_Z   1
loop_
 _symmetry_equiv_pos_site_id
 _symmetry_equiv_pos_as_xyz
  1  'x, y, z'
loop_
 _atom_site_type_symbol
 _atom_site_label
 _atom_site_symmetry_multiplicity
 _atom_site_fract_x
 _atom_site_fract_y
 _atom_site_fract_z
 _atom_site_occupancy
  Ho  Ho0  1  0.666667  0.333333  0.000000  1
  Ho  Ho1  1  0.333333  0.666667  0.000000  1
  Ho  Ho2  1  0.812568  0.812568  0.500000  1
  Ho  Ho3  1  0.187432  0.000000  0.500000  1
  Ho  Ho4  1  0.000000  0.187432  0.500000  1
  Fe  Fe5  1  0.446633  0.446633  0.000000  1
  Fe  Fe6  1  0.553367  0.000000  0.000000  1
  Fe  Fe7  1  0.000000  0.553367  0.000000  1
  Co  Co8  1  0.873958  0.357253  0.500000  1
  Co  Co9  1  0.642747  0.516705  0.500000  1
  Co  Co10  1  0.483295  0.126042  0.500000  1
  Co  Co11  1  0.357253  0.873958  0.500000  1
  Co  Co12  1  0.516705  0.642747  0.500000  1
  Co  Co13  1  0.126042  0.483295  0.500000  1
  Co  Co14  1  0.800133  0.177761  0.000000  1
  Co  Co15  1  0.822239  0.622371  0.000000  1
  Co  Co16  1  0.377629  0.199867  0.000000  1
  Co  Co17  1  0.177761  0.800133  0.000000  1
  Co  Co18  1  0.622371  0.822239  0.000000  1
  Co  Co19  1  0.199867  0.377629  0.000000  1
  Co  Co20  1  0.283604  0.283604  0.500000  1
  Co  Co21  1  0.716396  0.000000  0.500000  1
  Co  Co22  1  0.000000  0.716396  0.500000  1
  Co  Co23  1  0.000000  0.000000  0.000000  1
  P  P24  1  0.684507  0.164798  0.500000  1
  P  P25  1  0.835202  0.519709  0.500000  1
  P  P26  1  0.480291  0.315493  0.500000  1
  P  P27  1  0.164798  0.684507  0.500000  1
  P  P28  1  0.519709  0.835202  0.500000  1
  P  P29  1  0.315493  0.480291  0.500000  1
  P  P30  1  0.180660  0.180660  0.000000  1
  P  P31  1  0.819340  0.000000  0.000000  1
  P  P32  1  0.000000  0.819340  0.000000  1
  P  P33  1  0.631849  0.631849  0.000000  1
  P  P34  1  0.368151  0.000000  0.000000  1
  P  P35  1  0.000000  0.368151  0.000000  1
