# generated using pymatgen
data_HoEr3CoB16Ir3
_symmetry_space_group_name_H-M   'P 1'
_cell_length_a   3.51852400
_cell_length_b   5.93059426
_cell_length_c   11.49234318
_cell_angle_alpha   89.85660360
_cell_angle_beta   90.00000000
_cell_angle_gamma   90.00000000
_symmetry_Int_Tables_number   1
_chemical_formula_structural   HoEr3CoB16Ir3
_chemical_formula_sum   'Ho1 Er3 Co1 B16 Ir3'
_cell_volume   239.80926435
_cell_formula_units_Z   1
loop_
 _symmetry_equiv_pos_site_id
 _symmetry_equiv_pos_as_xyz
  1  'x, y, z'
loop_
 _atom_site_type_symbol
 _atom_site_label
 _atom_site_symmetry_multiplicity
 _atom_site_fract_x
 _atom_site_fract_y
 _atom_site_fract_z
 _atom_site_occupancy
  Ho  Ho0  1  0.500000  0.372017  0.147331  1
  Er  Er1  1  0.500000  0.630162  0.854497  1
  Er  Er2  1  0.500000  0.131293  0.649868  1
  Er  Er3  1  0.500000  0.868837  0.346109  1
  Co  Co4  1  0.500000  0.857533  0.095701  1
  B  B5  1  0.000000  0.111027  0.046954  1
  B  B6  1  0.000000  0.886471  0.954722  1
  B  B7  1  0.000000  0.387375  0.546884  1
  B  B8  1  0.000000  0.613391  0.451937  1
  B  B9  1  0.000000  0.135168  0.468664  1
  B  B10  1  0.000000  0.865048  0.529749  1
  B  B11  1  0.000000  0.364976  0.969849  1
  B  B12  1  0.000000  0.638868  0.032615  1
  B  B13  1  0.000000  0.019357  0.190344  1
  B  B14  1  0.000000  0.976507  0.808159  1
  B  B15  1  0.000000  0.474155  0.693281  1
  B  B16  1  0.000000  0.526479  0.305695  1
  B  B17  1  0.000000  0.208010  0.310744  1
  B  B18  1  0.000000  0.792054  0.688683  1
  B  B19  1  0.000000  0.290280  0.813965  1
  B  B20  1  0.000000  0.714130  0.184146  1
  Ir  Ir21  1  0.500000  0.356091  0.404078  1
  Ir  Ir22  1  0.500000  0.645468  0.597303  1
  Ir  Ir23  1  0.500000  0.135301  0.908726  1
