# generated using pymatgen
data_Yb3Eu7(CdAg2)2
_symmetry_space_group_name_H-M   'P 1'
_cell_length_a   9.60025928
_cell_length_b   9.57390310
_cell_length_c   9.54230500
_cell_angle_alpha   128.70623763
_cell_angle_beta   128.46983095
_cell_angle_gamma   75.40527837
_symmetry_Int_Tables_number   1
_chemical_formula_structural   Yb3Eu7(CdAg2)2
_chemical_formula_sum   'Yb3 Eu7 Cd2 Ag4'
_cell_volume   522.20280650
_cell_formula_units_Z   1
loop_
 _symmetry_equiv_pos_site_id
 _symmetry_equiv_pos_as_xyz
  1  'x, y, z'
loop_
 _atom_site_type_symbol
 _atom_site_label
 _atom_site_symmetry_multiplicity
 _atom_site_fract_x
 _atom_site_fract_y
 _atom_site_fract_z
 _atom_site_occupancy
  Yb  Yb0  1  0.498903  0.500063  0.000486  1
  Yb  Yb1  1  0.000061  0.998885  0.000414  1
  Yb  Yb2  1  0.528163  0.027416  0.833388  1
  Eu  Eu3  1  0.192082  0.692299  0.173106  1
  Eu  Eu4  1  0.022879  0.191904  0.501495  1
  Eu  Eu5  1  0.691605  0.521774  0.500580  1
  Eu  Eu6  1  0.476709  0.977353  0.166461  1
  Eu  Eu7  1  0.809508  0.309343  0.829431  1
  Eu  Eu8  1  0.975426  0.807416  0.497239  1
  Eu  Eu9  1  0.307638  0.476481  0.498115  1
  Cd  Cd10  1  0.253536  0.247932  0.998279  1
  Cd  Cd11  1  0.748042  0.753665  0.998509  1
  Ag  Ag12  1  0.126610  0.626988  0.754736  1
  Ag  Ag13  1  0.868022  0.367599  0.238895  1
  Ag  Ag14  1  0.626510  0.873775  0.504018  1
  Ag  Ag15  1  0.374306  0.127107  0.504849  1
