# generated using pymatgen
data_CsLiNpF6
_symmetry_space_group_name_H-M   'P 1'
_cell_length_a   11.89772600
_cell_length_b   6.24267904
_cell_length_c   10.05754500
_cell_angle_alpha   88.97802217
_cell_angle_beta   90.00000000
_cell_angle_gamma   90.00000000
_symmetry_Int_Tables_number   1
_chemical_formula_structural   CsLiNpF6
_chemical_formula_sum   'Cs4 Li4 Np4 F24'
_cell_volume   746.89209736
_cell_formula_units_Z   4
loop_
 _symmetry_equiv_pos_site_id
 _symmetry_equiv_pos_as_xyz
  1  'x, y, z'
loop_
 _atom_site_type_symbol
 _atom_site_label
 _atom_site_symmetry_multiplicity
 _atom_site_fract_x
 _atom_site_fract_y
 _atom_site_fract_z
 _atom_site_occupancy
  Cs  Cs0  1  0.682314  0.290163  0.505631  1
  Cs  Cs1  1  0.817686  0.290163  0.005631  1
  Cs  Cs2  1  0.317686  0.709837  0.494369  1
  Cs  Cs3  1  0.182314  0.709837  0.994369  1
  Li  Li4  1  0.896470  0.737263  0.681814  1
  Li  Li5  1  0.103530  0.262737  0.318186  1
  Li  Li6  1  0.396470  0.262737  0.818186  1
  Li  Li7  1  0.603530  0.737263  0.181814  1
  Np  Np8  1  0.912848  0.777987  0.284338  1
  Np  Np9  1  0.412848  0.222013  0.215662  1
  Np  Np10  1  0.087152  0.222013  0.715662  1
  Np  Np11  1  0.587152  0.777987  0.784338  1
  F  F12  1  0.245964  0.365577  0.250541  1
  F  F13  1  0.996676  0.524136  0.750842  1
  F  F14  1  0.070627  0.959828  0.303221  1
  F  F15  1  0.754036  0.634423  0.749459  1
  F  F16  1  0.503324  0.524136  0.250842  1
  F  F17  1  0.609433  0.697150  0.995742  1
  F  F18  1  0.929373  0.040172  0.696779  1
  F  F19  1  0.570627  0.040172  0.196779  1
  F  F20  1  0.830547  0.083887  0.299123  1
  F  F21  1  0.890567  0.697150  0.495742  1
  F  F22  1  0.169453  0.916113  0.700877  1
  F  F23  1  0.422806  0.183898  0.428570  1
  F  F24  1  0.577194  0.816102  0.571430  1
  F  F25  1  0.496676  0.475864  0.749158  1
  F  F26  1  0.254036  0.365577  0.750541  1
  F  F27  1  0.745964  0.634423  0.249459  1
  F  F28  1  0.330547  0.916113  0.200877  1
  F  F29  1  0.003324  0.475864  0.249158  1
  F  F30  1  0.390567  0.302850  0.004258  1
  F  F31  1  0.669453  0.083887  0.799123  1
  F  F32  1  0.109433  0.302850  0.504258  1
  F  F33  1  0.077194  0.183898  0.928570  1
  F  F34  1  0.922806  0.816102  0.071430  1
  F  F35  1  0.429373  0.959828  0.803221  1
