# generated using pymatgen
data_Gd12CdNi4Pb
_symmetry_space_group_name_H-M   'P 1'
_cell_length_a   8.53129426
_cell_length_b   8.53129309
_cell_length_c   8.53129400
_cell_angle_alpha   112.92382423
_cell_angle_beta   109.19621574
_cell_angle_gamma   106.36102488
_symmetry_Int_Tables_number   1
_chemical_formula_structural   Gd12CdNi4Pb
_chemical_formula_sum   'Gd12 Cd1 Ni4 Pb1'
_cell_volume   476.41009383
_cell_formula_units_Z   1
loop_
 _symmetry_equiv_pos_site_id
 _symmetry_equiv_pos_as_xyz
  1  'x, y, z'
loop_
 _atom_site_type_symbol
 _atom_site_label
 _atom_site_symmetry_multiplicity
 _atom_site_fract_x
 _atom_site_fract_y
 _atom_site_fract_z
 _atom_site_occupancy
  Gd  Gd0  1  0.323841  0.133172  0.809330  1
  Gd  Gd1  1  0.676159  0.485489  0.809330  1
  Gd  Gd2  1  0.433007  0.729137  0.703871  1
  Gd  Gd3  1  0.566993  0.270863  0.296129  1
  Gd  Gd4  1  0.974733  0.270863  0.703871  1
  Gd  Gd5  1  0.025267  0.729137  0.296129  1
  Gd  Gd6  1  0.323841  0.514511  0.190670  1
  Gd  Gd7  1  0.676159  0.866828  0.190670  1
  Gd  Gd8  1  0.180920  0.792470  0.973391  1
  Gd  Gd9  1  0.819080  0.792470  0.611549  1
  Gd  Gd10  1  0.180920  0.207530  0.388451  1
  Gd  Gd11  1  0.819080  0.207530  0.026609  1
  Cd  Cd12  1  0.000000  0.500000  0.500000  1
  Ni  Ni13  1  0.878348  0.878348  0.000000  1
  Ni  Ni14  1  0.121652  0.121652  0.000000  1
  Ni  Ni15  1  0.645848  0.500000  0.145848  1
  Ni  Ni16  1  0.354152  0.500000  0.854152  1
  Pb  Pb17  1  0.500000  0.000000  0.500000  1
