# generated using pymatgen
data_Pa3Cu2Ni7P6
_symmetry_space_group_name_H-M   'P 1'
_cell_length_a   3.82856807
_cell_length_b   10.56940869
_cell_length_c   12.41681090
_cell_angle_alpha   89.83664047
_cell_angle_beta   89.98117661
_cell_angle_gamma   89.98818950
_symmetry_Int_Tables_number   1
_chemical_formula_structural   Pa3Cu2Ni7P6
_chemical_formula_sum   'Pa6 Cu4 Ni14 P12'
_cell_volume   502.45287333
_cell_formula_units_Z   2
loop_
 _symmetry_equiv_pos_site_id
 _symmetry_equiv_pos_as_xyz
  1  'x, y, z'
loop_
 _atom_site_type_symbol
 _atom_site_label
 _atom_site_symmetry_multiplicity
 _atom_site_fract_x
 _atom_site_fract_y
 _atom_site_fract_z
 _atom_site_occupancy
  Pa  Pa0  1  0.751982  0.995648  0.479050  1
  Pa  Pa1  1  0.251810  0.502996  0.518888  1
  Pa  Pa2  1  0.251935  0.683958  0.793995  1
  Pa  Pa3  1  0.252005  0.318477  0.796482  1
  Pa  Pa4  1  0.751831  0.814020  0.206718  1
  Pa  Pa5  1  0.751719  0.185198  0.206403  1
  Cu  Cu6  1  0.751335  0.000089  0.016209  1
  Cu  Cu7  1  0.252372  0.200948  0.571148  1
  Cu  Cu8  1  0.251304  0.001431  0.841471  1
  Cu  Cu9  1  0.752454  0.499727  0.157124  1
  Ni  Ni10  1  0.251848  0.500100  0.980979  1
  Ni  Ni11  1  0.251368  0.796271  0.570325  1
  Ni  Ni12  1  0.751304  0.298248  0.430601  1
  Ni  Ni13  1  0.751868  0.700638  0.428975  1
  Ni  Ni14  1  0.251477  0.620771  0.290635  1
  Ni  Ni15  1  0.251589  0.379135  0.292119  1
  Ni  Ni16  1  0.751972  0.879405  0.707220  1
  Ni  Ni17  1  0.752211  0.121946  0.706000  1
  Ni  Ni18  1  0.251705  0.165659  0.002010  1
  Ni  Ni19  1  0.251883  0.834656  0.001732  1
  Ni  Ni20  1  0.751920  0.332840  0.001027  1
  Ni  Ni21  1  0.751700  0.667635  0.000250  1
  Ni  Ni22  1  0.252461  0.998450  0.302501  1
  Ni  Ni23  1  0.752212  0.502798  0.701314  1
  P  P24  1  0.251478  0.187034  0.384342  1
  P  P25  1  0.251774  0.810018  0.386493  1
  P  P26  1  0.752043  0.317735  0.615495  1
  P  P27  1  0.751702  0.688146  0.612990  1
  P  P28  1  0.251490  0.999657  0.125127  1
  P  P29  1  0.751959  0.500676  0.880500  1
  P  P30  1  0.251907  0.654163  0.103665  1
  P  P31  1  0.251713  0.345930  0.104316  1
  P  P32  1  0.751776  0.840456  0.892555  1
  P  P33  1  0.751835  0.160256  0.892421  1
  P  P34  1  0.251996  0.995318  0.654418  1
  P  P35  1  0.751665  0.499570  0.344502  1
