# generated using pymatgen
data_Y5In4IrPd
_symmetry_space_group_name_H-M   'P 1'
_cell_length_a   3.64910500
_cell_length_b   8.15397404
_cell_length_c   18.32615775
_cell_angle_alpha   90.17153591
_cell_angle_beta   90.00000000
_cell_angle_gamma   90.00000000
_symmetry_Int_Tables_number   1
_chemical_formula_structural   Y5In4IrPd
_chemical_formula_sum   'Y10 In8 Ir2 Pd2'
_cell_volume   545.28701853
_cell_formula_units_Z   2
loop_
 _symmetry_equiv_pos_site_id
 _symmetry_equiv_pos_as_xyz
  1  'x, y, z'
loop_
 _atom_site_type_symbol
 _atom_site_label
 _atom_site_symmetry_multiplicity
 _atom_site_fract_x
 _atom_site_fract_y
 _atom_site_fract_z
 _atom_site_occupancy
  Y  Y0  1  0.500000  0.229561  0.778428  1
  Y  Y1  1  0.500000  0.770439  0.221572  1
  Y  Y2  1  0.500000  0.246002  0.280528  1
  Y  Y3  1  0.500000  0.753998  0.719472  1
  Y  Y4  1  0.500000  0.115266  0.586673  1
  Y  Y5  1  0.500000  0.884734  0.413327  1
  Y  Y6  1  0.500000  0.382364  0.084348  1
  Y  Y7  1  0.500000  0.617636  0.915652  1
  Y  Y8  1  0.500000  0.000000  0.000000  1
  Y  Y9  1  0.500000  0.500000  0.500000  1
  In  In10  1  0.000000  0.077251  0.149277  1
  In  In11  1  0.000000  0.922749  0.850723  1
  In  In12  1  0.000000  0.423334  0.650812  1
  In  In13  1  0.000000  0.576666  0.349188  1
  In  In14  1  0.000000  0.208084  0.432038  1
  In  In15  1  0.000000  0.791916  0.567962  1
  In  In16  1  0.000000  0.292848  0.931868  1
  In  In17  1  0.000000  0.707152  0.068132  1
  Ir  Ir18  1  0.000000  0.020791  0.695597  1
  Ir  Ir19  1  0.000000  0.979209  0.304403  1
  Pd  Pd20  1  0.000000  0.478651  0.196212  1
  Pd  Pd21  1  0.000000  0.521349  0.803788  1
