# generated using pymatgen
data_Nd4Ga5(IrRh2)3
_symmetry_space_group_name_H-M   'P 1'
_cell_length_a   12.25407125
_cell_length_b   12.25407166
_cell_length_c   12.25407152
_cell_angle_alpha   26.65273940
_cell_angle_beta   26.65274610
_cell_angle_gamma   26.65274155
_symmetry_Int_Tables_number   1
_chemical_formula_structural   Nd4Ga5(IrRh2)3
_chemical_formula_sum   'Nd4 Ga5 Ir3 Rh6'
_cell_volume   326.44521053
_cell_formula_units_Z   1
loop_
 _symmetry_equiv_pos_site_id
 _symmetry_equiv_pos_as_xyz
  1  'x, y, z'
loop_
 _atom_site_type_symbol
 _atom_site_label
 _atom_site_symmetry_multiplicity
 _atom_site_fract_x
 _atom_site_fract_y
 _atom_site_fract_z
 _atom_site_occupancy
  Nd  Nd0  1  0.950663  0.950663  0.950663  1
  Nd  Nd1  1  0.050645  0.050645  0.050645  1
  Nd  Nd2  1  0.853099  0.853099  0.853099  1
  Nd  Nd3  1  0.146981  0.146981  0.146981  1
  Ga  Ga4  1  0.500171  0.500171  0.500171  1
  Ga  Ga5  1  0.720708  0.720708  0.720708  1
  Ga  Ga6  1  0.278162  0.278162  0.278162  1
  Ga  Ga7  1  0.611303  0.611303  0.611303  1
  Ga  Ga8  1  0.388392  0.388392  0.388392  1
  Ir  Ir9  1  0.613058  0.103787  0.613058  1
  Ir  Ir10  1  0.613058  0.613058  0.103787  1
  Ir  Ir11  1  0.103787  0.613058  0.613058  1
  Rh  Rh12  1  0.499362  0.499362  0.000161  1
  Rh  Rh13  1  0.000161  0.499362  0.499362  1
  Rh  Rh14  1  0.499362  0.000161  0.499362  1
  Rh  Rh15  1  0.388766  0.893553  0.388766  1
  Rh  Rh16  1  0.388766  0.388766  0.893553  1
  Rh  Rh17  1  0.893553  0.388766  0.388766  1
