# generated using pymatgen
data_SmHo2TeP2
_symmetry_space_group_name_H-M   'P 1'
_cell_length_a   4.10839200
_cell_length_b   10.22107377
_cell_length_c   7.09454200
_cell_angle_alpha   89.86645083
_cell_angle_beta   90.00000000
_cell_angle_gamma   90.00000000
_symmetry_Int_Tables_number   1
_chemical_formula_structural   SmHo2TeP2
_chemical_formula_sum   'Sm2 Ho4 Te2 P4'
_cell_volume   297.91445900
_cell_formula_units_Z   2
loop_
 _symmetry_equiv_pos_site_id
 _symmetry_equiv_pos_as_xyz
  1  'x, y, z'
loop_
 _atom_site_type_symbol
 _atom_site_label
 _atom_site_symmetry_multiplicity
 _atom_site_fract_x
 _atom_site_fract_y
 _atom_site_fract_z
 _atom_site_occupancy
  Sm  Sm0  1  0.250000  0.500215  0.249417  1
  Sm  Sm1  1  0.750000  0.499785  0.750583  1
  Ho  Ho2  1  0.250000  0.802623  0.916632  1
  Ho  Ho3  1  0.750000  0.197377  0.083368  1
  Ho  Ho4  1  0.750000  0.802027  0.417081  1
  Ho  Ho5  1  0.250000  0.197973  0.582919  1
  Te  Te6  1  0.750000  0.000289  0.749560  1
  Te  Te7  1  0.250000  0.999711  0.250440  1
  P  P8  1  0.250000  0.664416  0.584424  1
  P  P9  1  0.750000  0.335584  0.415576  1
  P  P10  1  0.750000  0.664916  0.084000  1
  P  P11  1  0.250000  0.335084  0.916000  1
