# generated using pymatgen
data_Yb3Ho15(ErRh6)2
_symmetry_space_group_name_H-M   'P 1'
_cell_length_a   10.82407448
_cell_length_b   10.86530489
_cell_length_c   6.32693500
_cell_angle_alpha   89.96014456
_cell_angle_beta   90.22231131
_cell_angle_gamma   90.01270495
_symmetry_Int_Tables_number   1
_chemical_formula_structural   Yb3Ho15(ErRh6)2
_chemical_formula_sum   'Yb3 Ho15 Er2 Rh12'
_cell_volume   744.08521892
_cell_formula_units_Z   1
loop_
 _symmetry_equiv_pos_site_id
 _symmetry_equiv_pos_as_xyz
  1  'x, y, z'
loop_
 _atom_site_type_symbol
 _atom_site_label
 _atom_site_symmetry_multiplicity
 _atom_site_fract_x
 _atom_site_fract_y
 _atom_site_fract_z
 _atom_site_occupancy
  Yb  Yb0  1  0.288462  0.087243  0.375631  1
  Yb  Yb1  1  0.290876  0.911026  0.876291  1
  Yb  Yb2  1  0.001612  0.999637  0.498874  1
  Ho  Ho3  1  0.708205  0.087884  0.879944  1
  Ho  Ho4  1  0.710336  0.913931  0.379332  1
  Ho  Ho5  1  0.588378  0.791732  0.877916  1
  Ho  Ho6  1  0.587082  0.207921  0.377407  1
  Ho  Ho7  1  0.412424  0.792501  0.378548  1
  Ho  Ho8  1  0.411308  0.207855  0.879432  1
  Ho  Ho9  1  0.209838  0.413111  0.624513  1
  Ho  Ho10  1  0.210423  0.588154  0.123287  1
  Ho  Ho11  1  0.790489  0.410920  0.120514  1
  Ho  Ho12  1  0.790754  0.587907  0.621254  1
  Ho  Ho13  1  0.911389  0.708997  0.121868  1
  Ho  Ho14  1  0.912833  0.289208  0.622732  1
  Ho  Ho15  1  0.086815  0.709885  0.621164  1
  Ho  Ho16  1  0.088595  0.292093  0.120627  1
  Ho  Ho17  1  0.000439  0.000708  0.999220  1
  Er  Er18  1  0.500061  0.499741  0.998041  1
  Er  Er19  1  0.499970  0.500175  0.498217  1
  Rh  Rh20  1  0.846769  0.156463  0.246410  1
  Rh  Rh21  1  0.846091  0.844361  0.754201  1
  Rh  Rh22  1  0.151336  0.161089  0.756970  1
  Rh  Rh23  1  0.150269  0.837453  0.248344  1
  Rh  Rh24  1  0.652001  0.345905  0.749127  1
  Rh  Rh25  1  0.651615  0.654463  0.251340  1
  Rh  Rh26  1  0.347440  0.350687  0.248415  1
  Rh  Rh27  1  0.347005  0.649076  0.745444  1
  Rh  Rh28  1  0.503450  0.000451  0.122852  1
  Rh  Rh29  1  0.503468  0.999404  0.622123  1
  Rh  Rh30  1  0.000112  0.500216  0.879509  1
  Rh  Rh31  1  0.000159  0.499803  0.380453  1
