# generated using pymatgen
data_Tb2Nd4Ho3Er7(CdPt)4
_symmetry_space_group_name_H-M   'P 1'
_cell_length_a   9.71754202
_cell_length_b   9.70963040
_cell_length_c   9.70872400
_cell_angle_alpha   60.00309480
_cell_angle_beta   60.03001993
_cell_angle_gamma   60.39720163
_symmetry_Int_Tables_number   1
_chemical_formula_structural   Tb2Nd4Ho3Er7(CdPt)4
_chemical_formula_sum   'Tb2 Nd4 Ho3 Er7 Cd4 Pt4'
_cell_volume   649.83378390
_cell_formula_units_Z   1
loop_
 _symmetry_equiv_pos_site_id
 _symmetry_equiv_pos_as_xyz
  1  'x, y, z'
loop_
 _atom_site_type_symbol
 _atom_site_label
 _atom_site_symmetry_multiplicity
 _atom_site_fract_x
 _atom_site_fract_y
 _atom_site_fract_z
 _atom_site_occupancy
  Tb  Tb0  1  0.556136  0.556539  0.943663  1
  Tb  Tb1  1  0.942504  0.943659  0.556919  1
  Nd  Nd2  1  0.936254  0.563701  0.565396  1
  Nd  Nd3  1  0.563822  0.935796  0.935749  1
  Nd  Nd4  1  0.563822  0.935796  0.564634  1
  Nd  Nd5  1  0.936254  0.563701  0.934649  1
  Ho  Ho6  1  0.350810  0.350456  0.352064  1
  Ho  Ho7  1  0.350810  0.350456  0.946668  1
  Ho  Ho8  1  0.354165  0.945203  0.350316  1
  Er  Er9  1  0.945482  0.354285  0.350116  1
  Er  Er10  1  0.812512  0.187675  0.188644  1
  Er  Er11  1  0.186658  0.812764  0.811738  1
  Er  Er12  1  0.186658  0.812764  0.188841  1
  Er  Er13  1  0.812512  0.187675  0.811170  1
  Er  Er14  1  0.187225  0.186606  0.813085  1
  Er  Er15  1  0.811891  0.811192  0.188458  1
  Cd  Cd16  1  0.579810  0.579017  0.582250  1
  Cd  Cd17  1  0.579810  0.579017  0.258923  1
  Cd  Cd18  1  0.583395  0.259700  0.578453  1
  Cd  Cd19  1  0.259717  0.582733  0.578774  1
  Pt  Pt20  1  0.140941  0.142115  0.146567  1
  Pt  Pt21  1  0.140941  0.142115  0.570376  1
  Pt  Pt22  1  0.144946  0.572116  0.141469  1
  Pt  Pt23  1  0.572925  0.144918  0.141078  1
