# generated using pymatgen
data_Y8Sc12Ga7Si9
_symmetry_space_group_name_H-M   'P 1'
_cell_length_a   7.17878718
_cell_length_b   7.41887286
_cell_length_c   14.27104328
_cell_angle_alpha   89.99894405
_cell_angle_beta   89.92091715
_cell_angle_gamma   90.03381166
_symmetry_Int_Tables_number   1
_chemical_formula_structural   Y8Sc12Ga7Si9
_chemical_formula_sum   'Y8 Sc12 Ga7 Si9'
_cell_volume   760.05363545
_cell_formula_units_Z   1
loop_
 _symmetry_equiv_pos_site_id
 _symmetry_equiv_pos_as_xyz
  1  'x, y, z'
loop_
 _atom_site_type_symbol
 _atom_site_label
 _atom_site_symmetry_multiplicity
 _atom_site_fract_x
 _atom_site_fract_y
 _atom_site_fract_z
 _atom_site_occupancy
  Y  Y0  1  0.012417  0.173628  0.098913  1
  Y  Y1  1  0.990065  0.823671  0.901443  1
  Y  Y2  1  0.488497  0.676606  0.901505  1
  Y  Y3  1  0.989695  0.823917  0.599984  1
  Y  Y4  1  0.510286  0.322757  0.099218  1
  Y  Y5  1  0.010031  0.175656  0.399859  1
  Y  Y6  1  0.510430  0.323609  0.399670  1
  Y  Y7  1  0.489687  0.676112  0.599858  1
  Sc  Sc8  1  0.164063  0.500987  0.750022  1
  Sc  Sc9  1  0.836832  0.499879  0.249679  1
  Sc  Sc10  1  0.335694  0.000953  0.248844  1
  Sc  Sc11  1  0.663619  0.999453  0.749791  1
  Sc  Sc12  1  0.330499  0.173464  0.626179  1
  Sc  Sc13  1  0.668937  0.826824  0.373498  1
  Sc  Sc14  1  0.169199  0.673683  0.373413  1
  Sc  Sc15  1  0.667699  0.825251  0.126405  1
  Sc  Sc16  1  0.830331  0.326601  0.626478  1
  Sc  Sc17  1  0.329886  0.174105  0.874820  1
  Sc  Sc18  1  0.829319  0.326680  0.874181  1
  Sc  Sc19  1  0.171973  0.675817  0.125199  1
  Ga  Ga20  1  0.160310  0.462758  0.539641  1
  Ga  Ga21  1  0.839621  0.537174  0.460212  1
  Ga  Ga22  1  0.339388  0.962507  0.460362  1
  Ga  Ga23  1  0.839884  0.538398  0.040313  1
  Ga  Ga24  1  0.660498  0.037399  0.539453  1
  Ga  Ga25  1  0.159520  0.462048  0.960604  1
  Ga  Ga26  1  0.659136  0.037988  0.960946  1
  Si  Si27  1  0.032239  0.114353  0.750919  1
  Si  Si28  1  0.967225  0.884650  0.249464  1
  Si  Si29  1  0.466944  0.613925  0.249469  1
  Si  Si30  1  0.532434  0.385336  0.750300  1
  Si  Si31  1  0.284693  0.875262  0.750686  1
  Si  Si32  1  0.715764  0.124963  0.249077  1
  Si  Si33  1  0.214730  0.374618  0.249381  1
  Si  Si34  1  0.784603  0.625416  0.750608  1
  Si  Si35  1  0.343852  0.963550  0.039607  1
