# generated using pymatgen
data_SrNd6IrCl12
_symmetry_space_group_name_H-M   'P 1'
_cell_length_a   9.31691464
_cell_length_b   9.18160530
_cell_length_c   9.30014860
_cell_angle_alpha   106.02688082
_cell_angle_beta   106.22615270
_cell_angle_gamma   106.26183522
_symmetry_Int_Tables_number   1
_chemical_formula_structural   SrNd6IrCl12
_chemical_formula_sum   'Sr1 Nd6 Ir1 Cl12'
_cell_volume   676.97347672
_cell_formula_units_Z   1
loop_
 _symmetry_equiv_pos_site_id
 _symmetry_equiv_pos_as_xyz
  1  'x, y, z'
loop_
 _atom_site_type_symbol
 _atom_site_label
 _atom_site_symmetry_multiplicity
 _atom_site_fract_x
 _atom_site_fract_y
 _atom_site_fract_z
 _atom_site_occupancy
  Sr  Sr0  1  0.500000  0.500000  0.500000  1
  Nd  Nd1  1  0.108550  0.312528  0.015398  1
  Nd  Nd2  1  0.321022  0.015086  0.112909  1
  Nd  Nd3  1  0.015103  0.112306  0.320329  1
  Nd  Nd4  1  0.984898  0.887694  0.679672  1
  Nd  Nd5  1  0.678978  0.984915  0.887091  1
  Nd  Nd6  1  0.891450  0.687472  0.984602  1
  Ir  Ir7  1  0.000000  0.000000  0.000000  1
  Cl  Cl8  1  0.208268  0.678410  0.072371  1
  Cl  Cl9  1  0.444117  0.358593  0.156806  1
  Cl  Cl10  1  0.679838  0.071810  0.207886  1
  Cl  Cl11  1  0.927772  0.790577  0.319865  1
  Cl  Cl12  1  0.157741  0.446065  0.358539  1
  Cl  Cl13  1  0.357523  0.154499  0.444279  1
  Cl  Cl14  1  0.642477  0.845501  0.555722  1
  Cl  Cl15  1  0.842260  0.553935  0.641461  1
  Cl  Cl16  1  0.072229  0.209423  0.680136  1
  Cl  Cl17  1  0.320163  0.928191  0.792114  1
  Cl  Cl18  1  0.555883  0.641407  0.843195  1
  Cl  Cl19  1  0.791732  0.321590  0.927629  1
