# generated using pymatgen
data_Nb3AlPtN
_symmetry_space_group_name_H-M   'P 1'
_cell_length_a   7.06770900
_cell_length_b   7.06770900
_cell_length_c   7.06770900
_cell_angle_alpha   90.00000000
_cell_angle_beta   90.00000000
_cell_angle_gamma   90.00000000
_symmetry_Int_Tables_number   1
_chemical_formula_structural   Nb3AlPtN
_chemical_formula_sum   'Nb12 Al4 Pt4 N4'
_cell_volume   353.04980809
_cell_formula_units_Z   4
loop_
 _symmetry_equiv_pos_site_id
 _symmetry_equiv_pos_as_xyz
  1  'x, y, z'
loop_
 _atom_site_type_symbol
 _atom_site_label
 _atom_site_symmetry_multiplicity
 _atom_site_fract_x
 _atom_site_fract_y
 _atom_site_fract_z
 _atom_site_occupancy
  Nb  Nb0  1  0.789866  0.955574  0.375949  1
  Nb  Nb1  1  0.710134  0.044426  0.875949  1
  Nb  Nb2  1  0.210134  0.455574  0.124051  1
  Nb  Nb3  1  0.289866  0.544426  0.624051  1
  Nb  Nb4  1  0.955574  0.375949  0.789866  1
  Nb  Nb5  1  0.044426  0.875949  0.710134  1
  Nb  Nb6  1  0.455574  0.124051  0.210134  1
  Nb  Nb7  1  0.544426  0.624051  0.289866  1
  Nb  Nb8  1  0.375949  0.789866  0.955574  1
  Nb  Nb9  1  0.875949  0.710134  0.044426  1
  Nb  Nb10  1  0.124051  0.210134  0.455574  1
  Nb  Nb11  1  0.624051  0.289866  0.544426  1
  Al  Al12  1  0.571477  0.428523  0.928523  1
  Al  Al13  1  0.428523  0.928523  0.571477  1
  Al  Al14  1  0.928523  0.571477  0.428523  1
  Al  Al15  1  0.071477  0.071477  0.071477  1
  Pt  Pt16  1  0.178228  0.821772  0.321772  1
  Pt  Pt17  1  0.321772  0.178228  0.821772  1
  Pt  Pt18  1  0.821772  0.321772  0.178228  1
  Pt  Pt19  1  0.678228  0.678228  0.678228  1
  N  N20  1  0.876082  0.123918  0.623918  1
  N  N21  1  0.623918  0.876082  0.123918  1
  N  N22  1  0.123918  0.623918  0.876082  1
  N  N23  1  0.376082  0.376082  0.376082  1
