# generated using pymatgen
data_Nb12Ga9Cu(RuN2)2
_symmetry_space_group_name_H-M   'P 1'
_cell_length_a   8.24577816
_cell_length_b   8.28508594
_cell_length_c   8.28508640
_cell_angle_alpha   60.41028190
_cell_angle_beta   60.38351778
_cell_angle_gamma   60.38351358
_symmetry_Int_Tables_number   1
_chemical_formula_structural   Nb12Ga9Cu(RuN2)2
_chemical_formula_sum   'Nb12 Ga9 Cu1 Ru2 N4'
_cell_volume   403.78308115
_cell_formula_units_Z   1
loop_
 _symmetry_equiv_pos_site_id
 _symmetry_equiv_pos_as_xyz
  1  'x, y, z'
loop_
 _atom_site_type_symbol
 _atom_site_label
 _atom_site_symmetry_multiplicity
 _atom_site_fract_x
 _atom_site_fract_y
 _atom_site_fract_z
 _atom_site_occupancy
  Nb  Nb0  1  0.811989  0.809275  0.191281  1
  Nb  Nb1  1  0.187563  0.194845  0.808570  1
  Nb  Nb2  1  0.811989  0.191281  0.809275  1
  Nb  Nb3  1  0.187563  0.808570  0.194845  1
  Nb  Nb4  1  0.193565  0.804434  0.804434  1
  Nb  Nb5  1  0.815906  0.184834  0.184834  1
  Nb  Nb6  1  0.438011  0.440725  0.058719  1
  Nb  Nb7  1  0.062437  0.055155  0.441430  1
  Nb  Nb8  1  0.438011  0.058719  0.440725  1
  Nb  Nb9  1  0.062437  0.441430  0.055155  1
  Nb  Nb10  1  0.056435  0.445566  0.445566  1
  Nb  Nb11  1  0.434094  0.065166  0.065166  1
  Ga  Ga12  1  0.125000  0.625000  0.625000  1
  Ga  Ga13  1  0.761930  0.413081  0.413081  1
  Ga  Ga14  1  0.423268  0.759361  0.410543  1
  Ga  Ga15  1  0.423268  0.410543  0.759361  1
  Ga  Ga16  1  0.422713  0.408195  0.408195  1
  Ga  Ga17  1  0.488070  0.836919  0.836919  1
  Ga  Ga18  1  0.826732  0.490639  0.839457  1
  Ga  Ga19  1  0.826732  0.839457  0.490639  1
  Ga  Ga20  1  0.827287  0.841805  0.841805  1
  Cu  Cu21  1  0.625000  0.625000  0.625000  1
  Ru  Ru22  1  0.625000  0.125000  0.625000  1
  Ru  Ru23  1  0.625000  0.625000  0.125000  1
  N  N24  1  0.625000  0.125000  0.125000  1
  N  N25  1  0.125000  0.625000  0.125000  1
  N  N26  1  0.125000  0.125000  0.625000  1
  N  N27  1  0.125000  0.125000  0.125000  1
