# generated using pymatgen
data_La2Th(AlCu)3
_symmetry_space_group_name_H-M   'P 1'
_cell_length_a   7.14812700
_cell_length_b   7.19285423
_cell_length_c   4.26640500
_cell_angle_alpha   90.00000000
_cell_angle_beta   90.00000000
_cell_angle_gamma   119.79450844
_symmetry_Int_Tables_number   1
_chemical_formula_structural   La2Th(AlCu)3
_chemical_formula_sum   'La2 Th1 Al3 Cu3'
_cell_volume   190.36267173
_cell_formula_units_Z   1
loop_
 _symmetry_equiv_pos_site_id
 _symmetry_equiv_pos_as_xyz
  1  'x, y, z'
loop_
 _atom_site_type_symbol
 _atom_site_label
 _atom_site_symmetry_multiplicity
 _atom_site_fract_x
 _atom_site_fract_y
 _atom_site_fract_z
 _atom_site_occupancy
  La  La0  1  0.998769  0.422788  0.500000  1
  La  La1  1  0.575982  0.577212  0.500000  1
  Th  Th2  1  0.423346  0.000000  0.500000  1
  Al  Al3  1  0.004742  0.772731  0.000000  1
  Al  Al4  1  0.232010  0.227269  0.000000  1
  Al  Al5  1  0.768765  0.000000  0.000000  1
  Cu  Cu6  1  0.334870  0.678853  0.000000  1
  Cu  Cu7  1  0.656018  0.321147  0.000000  1
  Cu  Cu8  1  0.005499  0.000000  0.500000  1
