# generated using pymatgen
data_Cs3Ta2Br10N
_symmetry_space_group_name_H-M   'P 1'
_cell_length_a   7.81085800
_cell_length_b   7.81085800
_cell_length_c   20.30940400
_cell_angle_alpha   90.00000000
_cell_angle_beta   90.00000000
_cell_angle_gamma   90.00000000
_symmetry_Int_Tables_number   1
_chemical_formula_structural   Cs3Ta2Br10N
_chemical_formula_sum   'Cs6 Ta4 Br20 N2'
_cell_volume   1239.06663810
_cell_formula_units_Z   2
loop_
 _symmetry_equiv_pos_site_id
 _symmetry_equiv_pos_as_xyz
  1  'x, y, z'
loop_
 _atom_site_type_symbol
 _atom_site_label
 _atom_site_symmetry_multiplicity
 _atom_site_fract_x
 _atom_site_fract_y
 _atom_site_fract_z
 _atom_site_occupancy
  Cs  Cs0  1  0.500000  0.500000  0.000000  1
  Cs  Cs1  1  0.000000  0.000000  0.500000  1
  Cs  Cs2  1  0.000000  0.500000  0.250000  1
  Cs  Cs3  1  0.500000  0.000000  0.750000  1
  Cs  Cs4  1  0.500000  0.000000  0.250000  1
  Cs  Cs5  1  0.000000  0.500000  0.750000  1
  Ta  Ta6  1  0.500000  0.500000  0.407589  1
  Ta  Ta7  1  0.000000  0.000000  0.907589  1
  Ta  Ta8  1  0.500000  0.500000  0.592411  1
  Ta  Ta9  1  0.000000  0.000000  0.092411  1
  Br  Br10  1  0.771393  0.681578  0.397220  1
  Br  Br11  1  0.228607  0.318422  0.397220  1
  Br  Br12  1  0.728607  0.181578  0.897220  1
  Br  Br13  1  0.271393  0.818422  0.897220  1
  Br  Br14  1  0.681578  0.228607  0.397220  1
  Br  Br15  1  0.318422  0.771393  0.397220  1
  Br  Br16  1  0.181578  0.271393  0.897220  1
  Br  Br17  1  0.818422  0.728607  0.897220  1
  Br  Br18  1  0.228607  0.318422  0.602780  1
  Br  Br19  1  0.771393  0.681578  0.602780  1
  Br  Br20  1  0.271393  0.818422  0.102780  1
  Br  Br21  1  0.728607  0.181578  0.102780  1
  Br  Br22  1  0.318422  0.771393  0.602780  1
  Br  Br23  1  0.681578  0.228607  0.602780  1
  Br  Br24  1  0.818422  0.728607  0.102780  1
  Br  Br25  1  0.181578  0.271393  0.102780  1
  Br  Br26  1  0.500000  0.500000  0.268035  1
  Br  Br27  1  0.000000  0.000000  0.768035  1
  Br  Br28  1  0.500000  0.500000  0.731965  1
  Br  Br29  1  0.000000  0.000000  0.231965  1
  N  N30  1  0.500000  0.500000  0.500000  1
  N  N31  1  0.000000  0.000000  0.000000  1
