# generated using pymatgen
data_Ba4Sc(ReO6)2
_symmetry_space_group_name_H-M   'P 1'
_cell_length_a   10.01527260
_cell_length_b   10.01527286
_cell_length_c   10.01527302
_cell_angle_alpha   33.73561425
_cell_angle_beta   33.73560899
_cell_angle_gamma   33.73561536
_symmetry_Int_Tables_number   1
_chemical_formula_structural   Ba4Sc(ReO6)2
_chemical_formula_sum   'Ba4 Sc1 Re2 O12'
_cell_volume   276.06437581
_cell_formula_units_Z   1
loop_
 _symmetry_equiv_pos_site_id
 _symmetry_equiv_pos_as_xyz
  1  'x, y, z'
loop_
 _atom_site_type_symbol
 _atom_site_label
 _atom_site_symmetry_multiplicity
 _atom_site_fract_x
 _atom_site_fract_y
 _atom_site_fract_z
 _atom_site_occupancy
  Ba  Ba0  1  0.709520  0.709520  0.709520  1
  Ba  Ba1  1  0.290480  0.290480  0.290480  1
  Ba  Ba2  1  0.867858  0.867858  0.867858  1
  Ba  Ba3  1  0.132142  0.132142  0.132142  1
  Sc  Sc4  1  0.000000  0.000000  0.000000  1
  Re  Re5  1  0.580540  0.580540  0.580540  1
  Re  Re6  1  0.419460  0.419460  0.419460  1
  O  O7  1  0.217451  0.694313  0.217451  1
  O  O8  1  0.217451  0.217451  0.694313  1
  O  O9  1  0.694313  0.217451  0.217451  1
  O  O10  1  0.782549  0.305687  0.782549  1
  O  O11  1  0.782549  0.782549  0.305687  1
  O  O12  1  0.305687  0.782549  0.782549  1
  O  O13  1  0.389181  0.859789  0.389181  1
  O  O14  1  0.389181  0.389181  0.859789  1
  O  O15  1  0.859789  0.389181  0.389181  1
  O  O16  1  0.610819  0.140211  0.610819  1
  O  O17  1  0.610819  0.610819  0.140211  1
  O  O18  1  0.140211  0.610819  0.610819  1
