# generated using pymatgen
data_Tb5YPdI10
_symmetry_space_group_name_H-M   'P 1'
_cell_length_a   7.74937353
_cell_length_b   9.76647478
_cell_length_c   9.82374043
_cell_angle_alpha   106.96663912
_cell_angle_beta   96.97873229
_cell_angle_gamma   104.46304892
_symmetry_Int_Tables_number   1
_chemical_formula_structural   Tb5YPdI10
_chemical_formula_sum   'Tb5 Y1 Pd1 I10'
_cell_volume   673.26562222
_cell_formula_units_Z   1
loop_
 _symmetry_equiv_pos_site_id
 _symmetry_equiv_pos_as_xyz
  1  'x, y, z'
loop_
 _atom_site_type_symbol
 _atom_site_label
 _atom_site_symmetry_multiplicity
 _atom_site_fract_x
 _atom_site_fract_y
 _atom_site_fract_z
 _atom_site_occupancy
  Tb  Tb0  1  0.115779  0.042119  0.758890  1
  Tb  Tb1  1  0.883528  0.957883  0.241003  1
  Tb  Tb2  1  0.967615  0.286956  0.085653  1
  Tb  Tb3  1  0.031789  0.712945  0.914255  1
  Tb  Tb4  1  0.349116  0.125248  0.166463  1
  Y  Y5  1  0.650403  0.874642  0.833550  1
  Pd  Pd6  1  0.000027  0.000069  0.000107  1
  I  I7  1  0.351331  0.450834  0.272526  1
  I  I8  1  0.648491  0.549737  0.727462  1
  I  I9  1  0.258003  0.087275  0.462927  1
  I  I10  1  0.741835  0.912597  0.537317  1
  I  I11  1  0.085780  0.373257  0.820646  1
  I  I12  1  0.914205  0.626802  0.179365  1
  I  I13  1  0.454614  0.816453  0.091496  1
  I  I14  1  0.545804  0.182883  0.907931  1
  I  I15  1  0.777703  0.256393  0.345613  1
  I  I16  1  0.223973  0.743909  0.654797  1
