# generated using pymatgen
data_La10Al(ZnRu2)3
_symmetry_space_group_name_H-M   'P 1'
_cell_length_a   8.58278968
_cell_length_b   8.67099193
_cell_length_c   8.58278973
_cell_angle_alpha   109.67953401
_cell_angle_beta   109.26211003
_cell_angle_gamma   109.67953301
_symmetry_Int_Tables_number   1
_chemical_formula_structural   La10Al(ZnRu2)3
_chemical_formula_sum   'La10 Al1 Zn3 Ru6'
_cell_volume   490.43430755
_cell_formula_units_Z   1
loop_
 _symmetry_equiv_pos_site_id
 _symmetry_equiv_pos_as_xyz
  1  'x, y, z'
loop_
 _atom_site_type_symbol
 _atom_site_label
 _atom_site_symmetry_multiplicity
 _atom_site_fract_x
 _atom_site_fract_y
 _atom_site_fract_z
 _atom_site_occupancy
  La  La0  1  0.250526  0.688563  0.440830  1
  La  La1  1  0.748363  0.809474  0.058254  1
  La  La2  1  0.441747  0.251219  0.690109  1
  La  La3  1  0.690303  0.438038  0.249474  1
  La  La4  1  0.059171  0.747734  0.809697  1
  La  La5  1  0.809891  0.061111  0.751637  1
  La  La6  1  0.215471  0.216934  0.216088  1
  La  La7  1  0.500618  0.001462  0.284529  1
  La  La8  1  0.283912  0.500847  0.999383  1
  La  La9  1  0.000000  0.286050  0.500001  1
  Al  Al10  1  0.000000  0.913301  0.500001  1
  Zn  Zn11  1  0.498235  0.999103  0.914241  1
  Zn  Zn12  1  0.585759  0.584862  0.583993  1
  Zn  Zn13  1  0.916007  0.500869  0.001766  1
  Ru  Ru14  1  0.243478  0.120859  0.866193  1
  Ru  Ru15  1  0.747757  0.372516  0.622265  1
  Ru  Ru16  1  0.877734  0.250253  0.125491  1
  Ru  Ru17  1  0.122716  0.877382  0.256524  1
  Ru  Ru18  1  0.633806  0.754666  0.377283  1
  Ru  Ru19  1  0.374508  0.624759  0.752243  1
