# generated using pymatgen
data_Ti3Cr2Si3Ir
_symmetry_space_group_name_H-M   'P 1'
_cell_length_a   7.38474196
_cell_length_b   7.38474379
_cell_length_c   7.38474274
_cell_angle_alpha   126.73691878
_cell_angle_beta   126.92771285
_cell_angle_gamma   78.52451665
_symmetry_Int_Tables_number   1
_chemical_formula_structural   Ti3Cr2Si3Ir
_chemical_formula_sum   'Ti6 Cr4 Si6 Ir2'
_cell_volume   249.77524607
_cell_formula_units_Z   2
loop_
 _symmetry_equiv_pos_site_id
 _symmetry_equiv_pos_as_xyz
  1  'x, y, z'
loop_
 _atom_site_type_symbol
 _atom_site_label
 _atom_site_symmetry_multiplicity
 _atom_site_fract_x
 _atom_site_fract_y
 _atom_site_fract_z
 _atom_site_occupancy
  Ti  Ti0  1  0.749451  0.108707  0.859257  1
  Ti  Ti1  1  0.459452  0.913845  0.954392  1
  Ti  Ti2  1  0.540548  0.494939  0.454392  1
  Ti  Ti3  1  0.958314  0.911087  0.452773  1
  Ti  Ti4  1  0.250549  0.109806  0.359257  1
  Ti  Ti5  1  0.041686  0.494459  0.952773  1
  Cr  Cr6  1  0.872207  0.246146  0.375435  1
  Cr  Cr7  1  0.629288  0.503227  0.875435  1
  Cr  Cr8  1  0.370712  0.246146  0.873940  1
  Cr  Cr9  1  0.127793  0.503227  0.373940  1
  Si  Si10  1  0.250686  0.500157  0.749470  1
  Si  Si11  1  0.165366  0.168902  0.001795  1
  Si  Si12  1  0.667106  0.168902  0.503536  1
  Si  Si13  1  0.332894  0.836429  0.501795  1
  Si  Si14  1  0.749314  0.498785  0.249470  1
  Si  Si15  1  0.834634  0.836429  0.003536  1
  Ir  Ir16  1  0.500000  0.758303  0.258303  1
  Ir  Ir17  1  0.000000  0.758303  0.758303  1
