# generated using pymatgen
data_Y3ThAl14(Ga2Ir3)2
_symmetry_space_group_name_H-M   'P 1'
_cell_length_a   7.56121093
_cell_length_b   7.57068361
_cell_length_c   9.55778600
_cell_angle_alpha   90.00000000
_cell_angle_beta   90.00000000
_cell_angle_gamma   119.48599340
_symmetry_Int_Tables_number   1
_chemical_formula_structural   Y3ThAl14(Ga2Ir3)2
_chemical_formula_sum   'Y3 Th1 Al14 Ga4 Ir6'
_cell_volume   476.25612997
_cell_formula_units_Z   1
loop_
 _symmetry_equiv_pos_site_id
 _symmetry_equiv_pos_as_xyz
  1  'x, y, z'
loop_
 _atom_site_type_symbol
 _atom_site_label
 _atom_site_symmetry_multiplicity
 _atom_site_fract_x
 _atom_site_fract_y
 _atom_site_fract_z
 _atom_site_occupancy
  Y  Y0  1  0.002330  0.326060  0.750000  1
  Y  Y1  1  0.671973  0.995085  0.250000  1
  Y  Y2  1  0.325563  0.003253  0.750000  1
  Th  Th3  1  0.994886  0.671126  0.250000  1
  Al  Al4  1  0.002923  0.331474  0.070535  1
  Al  Al5  1  0.999302  0.663886  0.920138  1
  Al  Al6  1  0.999302  0.663886  0.579862  1
  Al  Al7  1  0.339848  0.006289  0.429604  1
  Al  Al8  1  0.002923  0.331474  0.429465  1
  Al  Al9  1  0.664281  0.000303  0.575209  1
  Al  Al10  1  0.664281  0.000303  0.924791  1
  Al  Al11  1  0.339848  0.006289  0.070396  1
  Al  Al12  1  0.332829  0.332948  0.561142  1
  Al  Al13  1  0.662810  0.665896  0.456568  1
  Al  Al14  1  0.662810  0.665896  0.043432  1
  Al  Al15  1  0.332829  0.332948  0.938858  1
  Al  Al16  1  0.660753  0.448732  0.750000  1
  Al  Al17  1  0.449170  0.663313  0.750000  1
  Ga  Ga18  1  0.132377  0.134809  0.250000  1
  Ga  Ga19  1  0.866298  0.868557  0.750000  1
  Ga  Ga20  1  0.345645  0.548495  0.250000  1
  Ga  Ga21  1  0.543050  0.336731  0.250000  1
  Ir  Ir22  1  0.673686  0.330605  0.998695  1
  Ir  Ir23  1  0.327516  0.671882  0.998668  1
  Ir  Ir24  1  0.327516  0.671882  0.501332  1
  Ir  Ir25  1  0.673686  0.330605  0.501305  1
  Ir  Ir26  1  0.000782  0.998637  0.000911  1
  Ir  Ir27  1  0.000782  0.998637  0.499089  1
