# generated using pymatgen
data_Lu3Sc2Bi3C
_symmetry_space_group_name_H-M   'P 1'
_cell_length_a   8.85336300
_cell_length_b   8.85336252
_cell_length_c   6.25706900
_cell_angle_alpha   90.00000000
_cell_angle_beta   90.00000000
_cell_angle_gamma   119.99999806
_symmetry_Int_Tables_number   1
_chemical_formula_structural   Lu3Sc2Bi3C
_chemical_formula_sum   'Lu6 Sc4 Bi6 C2'
_cell_volume   424.73505190
_cell_formula_units_Z   2
loop_
 _symmetry_equiv_pos_site_id
 _symmetry_equiv_pos_as_xyz
  1  'x, y, z'
loop_
 _atom_site_type_symbol
 _atom_site_label
 _atom_site_symmetry_multiplicity
 _atom_site_fract_x
 _atom_site_fract_y
 _atom_site_fract_z
 _atom_site_occupancy
  Lu  Lu0  1  0.792436  0.792436  0.250000  1
  Lu  Lu1  1  0.207564  0.000000  0.250000  1
  Lu  Lu2  1  0.000000  0.207564  0.250000  1
  Lu  Lu3  1  0.207564  0.207564  0.750000  1
  Lu  Lu4  1  0.792436  0.000000  0.750000  1
  Lu  Lu5  1  0.000000  0.792436  0.750000  1
  Sc  Sc6  1  0.666667  0.333333  0.500000  1
  Sc  Sc7  1  0.333333  0.666667  0.500000  1
  Sc  Sc8  1  0.333333  0.666667  0.000000  1
  Sc  Sc9  1  0.666667  0.333333  0.000000  1
  Bi  Bi10  1  0.405424  0.405424  0.250000  1
  Bi  Bi11  1  0.594576  0.000000  0.250000  1
  Bi  Bi12  1  0.000000  0.594576  0.250000  1
  Bi  Bi13  1  0.594576  0.594576  0.750000  1
  Bi  Bi14  1  0.405424  0.000000  0.750000  1
  Bi  Bi15  1  0.000000  0.405424  0.750000  1
  C  C16  1  0.000000  0.000000  0.500000  1
  C  C17  1  0.000000  0.000000  0.000000  1
