# generated using pymatgen
data_YbPr8YPb8
_symmetry_space_group_name_H-M   'P 1'
_cell_length_a   8.40452100
_cell_length_b   8.52220400
_cell_length_c   16.26206000
_cell_angle_alpha   90.00000000
_cell_angle_beta   90.00000000
_cell_angle_gamma   90.00000000
_symmetry_Int_Tables_number   1
_chemical_formula_structural   YbPr8YPb8
_chemical_formula_sum   'Yb2 Pr16 Y2 Pb16'
_cell_volume   1164.77073838
_cell_formula_units_Z   2
loop_
 _symmetry_equiv_pos_site_id
 _symmetry_equiv_pos_as_xyz
  1  'x, y, z'
loop_
 _atom_site_type_symbol
 _atom_site_label
 _atom_site_symmetry_multiplicity
 _atom_site_fract_x
 _atom_site_fract_y
 _atom_site_fract_z
 _atom_site_occupancy
  Yb  Yb0  1  0.792239  0.004521  0.250000  1
  Yb  Yb1  1  0.707761  0.504521  0.750000  1
  Pr  Pr2  1  0.470701  0.820781  0.400626  1
  Pr  Pr3  1  0.029299  0.320781  0.900626  1
  Pr  Pr4  1  0.029299  0.320781  0.599374  1
  Pr  Pr5  1  0.874928  0.839522  0.880665  1
  Pr  Pr6  1  0.470701  0.820781  0.099374  1
  Pr  Pr7  1  0.378454  0.659135  0.880726  1
  Pr  Pr8  1  0.625072  0.339522  0.119335  1
  Pr  Pr9  1  0.625072  0.339522  0.380665  1
  Pr  Pr10  1  0.530228  0.179160  0.599691  1
  Pr  Pr11  1  0.378454  0.659135  0.619274  1
  Pr  Pr12  1  0.530228  0.179160  0.900309  1
  Pr  Pr13  1  0.969772  0.679160  0.400309  1
  Pr  Pr14  1  0.969772  0.679160  0.099691  1
  Pr  Pr15  1  0.121546  0.159135  0.119274  1
  Pr  Pr16  1  0.874928  0.839522  0.619335  1
  Pr  Pr17  1  0.121546  0.159135  0.380726  1
  Y  Y18  1  0.292662  0.497000  0.250000  1
  Y  Y19  1  0.207338  0.997000  0.750000  1
  Pb  Pb20  1  0.841461  0.148331  0.750000  1
  Pb  Pb21  1  0.716636  0.532833  0.543050  1
  Pb  Pb22  1  0.929043  0.382442  0.250000  1
  Pb  Pb23  1  0.217295  0.967745  0.954967  1
  Pb  Pb24  1  0.282705  0.467745  0.045033  1
  Pb  Pb25  1  0.570957  0.882442  0.750000  1
  Pb  Pb26  1  0.336182  0.347413  0.750000  1
  Pb  Pb27  1  0.074046  0.621944  0.750000  1
  Pb  Pb28  1  0.783364  0.032833  0.456950  1
  Pb  Pb29  1  0.282705  0.467745  0.454967  1
  Pb  Pb30  1  0.163818  0.847413  0.250000  1
  Pb  Pb31  1  0.217295  0.967745  0.545033  1
  Pb  Pb32  1  0.783364  0.032833  0.043050  1
  Pb  Pb33  1  0.658539  0.648331  0.250000  1
  Pb  Pb34  1  0.716636  0.532833  0.956950  1
  Pb  Pb35  1  0.425954  0.121944  0.250000  1
