# generated using pymatgen
data_LiHo3S4
_symmetry_space_group_name_H-M   'P 1'
_cell_length_a   3.85658100
_cell_length_b   5.47346700
_cell_length_c   7.70028900
_cell_angle_alpha   90.00000000
_cell_angle_beta   90.00000000
_cell_angle_gamma   90.00000000
_symmetry_Int_Tables_number   1
_chemical_formula_structural   LiHo3S4
_chemical_formula_sum   'Li1 Ho3 S4'
_cell_volume   162.54439050
_cell_formula_units_Z   1
loop_
 _symmetry_equiv_pos_site_id
 _symmetry_equiv_pos_as_xyz
  1  'x, y, z'
loop_
 _atom_site_type_symbol
 _atom_site_label
 _atom_site_symmetry_multiplicity
 _atom_site_fract_x
 _atom_site_fract_y
 _atom_site_fract_z
 _atom_site_occupancy
  Li  Li0  1  0.000000  0.000000  0.000000  1
  Ho  Ho1  1  0.500000  0.500000  0.249897  1
  Ho  Ho2  1  0.000000  0.000000  0.500000  1
  Ho  Ho3  1  0.500000  0.500000  0.750103  1
  S  S4  1  0.000000  0.500000  0.500000  1
  S  S5  1  0.500000  0.000000  0.756441  1
  S  S6  1  0.000000  0.500000  0.000000  1
  S  S7  1  0.500000  0.000000  0.243559  1
