# generated using pymatgen
data_Pr8Y11HoSi16
_symmetry_space_group_name_H-M   'P 1'
_cell_length_a   7.54002815
_cell_length_b   7.82788012
_cell_length_c   14.89046210
_cell_angle_alpha   90.00436184
_cell_angle_beta   89.98749379
_cell_angle_gamma   89.98042705
_symmetry_Int_Tables_number   1
_chemical_formula_structural   Pr8Y11HoSi16
_chemical_formula_sum   'Pr8 Y11 Ho1 Si16'
_cell_volume   878.87127891
_cell_formula_units_Z   1
loop_
 _symmetry_equiv_pos_site_id
 _symmetry_equiv_pos_as_xyz
  1  'x, y, z'
loop_
 _atom_site_type_symbol
 _atom_site_label
 _atom_site_symmetry_multiplicity
 _atom_site_fract_x
 _atom_site_fract_y
 _atom_site_fract_z
 _atom_site_occupancy
  Pr  Pr0  1  0.023305  0.179291  0.402192  1
  Pr  Pr1  1  0.523141  0.320733  0.402237  1
  Pr  Pr2  1  0.476739  0.679272  0.902148  1
  Pr  Pr3  1  0.476782  0.679218  0.597836  1
  Pr  Pr4  1  0.976855  0.820812  0.597824  1
  Pr  Pr5  1  0.976779  0.820757  0.902152  1
  Pr  Pr6  1  0.523234  0.320720  0.097853  1
  Pr  Pr7  1  0.023251  0.179285  0.097851  1
  Y  Y8  1  0.678542  0.820736  0.377166  1
  Y  Y9  1  0.652316  0.988434  0.749889  1
  Y  Y10  1  0.178584  0.679336  0.377188  1
  Y  Y11  1  0.821408  0.320669  0.877136  1
  Y  Y12  1  0.821406  0.320600  0.622797  1
  Y  Y13  1  0.847551  0.488291  0.250008  1
  Y  Y14  1  0.347518  0.011702  0.250007  1
  Y  Y15  1  0.321417  0.179330  0.877126  1
  Y  Y16  1  0.178586  0.679333  0.122864  1
  Y  Y17  1  0.678585  0.820683  0.122868  1
  Y  Y18  1  0.152565  0.511464  0.749882  1
  Ho  Ho19  1  0.321435  0.179248  0.623016  1
  Si  Si20  1  0.270123  0.880893  0.749789  1
  Si  Si21  1  0.472199  0.611115  0.250003  1
  Si  Si22  1  0.028212  0.111262  0.749784  1
  Si  Si23  1  0.527426  0.388468  0.749751  1
  Si  Si24  1  0.145080  0.469051  0.539735  1
  Si  Si25  1  0.972191  0.888897  0.250005  1
  Si  Si26  1  0.730029  0.119461  0.250016  1
  Si  Si27  1  0.855368  0.530381  0.039574  1
  Si  Si28  1  0.355367  0.969633  0.039583  1
  Si  Si29  1  0.144637  0.469633  0.960418  1
  Si  Si30  1  0.644172  0.030617  0.539765  1
  Si  Si31  1  0.355156  0.969937  0.460713  1
  Si  Si32  1  0.855357  0.530348  0.460431  1
  Si  Si33  1  0.770017  0.619486  0.749980  1
  Si  Si34  1  0.230024  0.380532  0.250002  1
  Si  Si35  1  0.644642  0.030372  0.960411  1
