# generated using pymatgen
data_Nd5Ho(Er7Pt8)2
_symmetry_space_group_name_H-M   'P 1'
_cell_length_a   7.49729436
_cell_length_b   7.59802532
_cell_length_c   14.74242800
_cell_angle_alpha   89.97041310
_cell_angle_beta   90.03635992
_cell_angle_gamma   90.04510803
_symmetry_Int_Tables_number   1
_chemical_formula_structural   Nd5Ho(Er7Pt8)2
_chemical_formula_sum   'Nd5 Ho1 Er14 Pt16'
_cell_volume   839.79645117
_cell_formula_units_Z   1
loop_
 _symmetry_equiv_pos_site_id
 _symmetry_equiv_pos_as_xyz
  1  'x, y, z'
loop_
 _atom_site_type_symbol
 _atom_site_label
 _atom_site_symmetry_multiplicity
 _atom_site_fract_x
 _atom_site_fract_y
 _atom_site_fract_z
 _atom_site_occupancy
  Nd  Nd0  1  0.500735  0.324018  0.093852  1
  Nd  Nd1  1  0.002138  0.173496  0.407639  1
  Nd  Nd2  1  0.501560  0.327161  0.407537  1
  Nd  Nd3  1  0.000871  0.173428  0.091948  1
  Nd  Nd4  1  0.498676  0.678539  0.905211  1
  Ho  Ho5  1  0.999385  0.818970  0.595306  1
  Er  Er6  1  0.657886  0.166668  0.622614  1
  Er  Er7  1  0.156195  0.331525  0.875497  1
  Er  Er8  1  0.344009  0.833412  0.122774  1
  Er  Er9  1  0.846085  0.667566  0.378431  1
  Er  Er10  1  0.346290  0.831397  0.378892  1
  Er  Er11  1  0.846041  0.668923  0.121535  1
  Er  Er12  1  0.658033  0.166583  0.876202  1
  Er  Er13  1  0.157141  0.332699  0.622622  1
  Er  Er14  1  0.500290  0.681546  0.595814  1
  Er  Er15  1  0.000996  0.819843  0.903291  1
  Er  Er16  1  0.818181  0.509547  0.748947  1
  Er  Er17  1  0.318190  0.990534  0.748919  1
  Er  Er18  1  0.180410  0.489487  0.250017  1
  Er  Er19  1  0.681081  0.010529  0.250541  1
  Pt  Pt20  1  0.679990  0.956704  0.462382  1
  Pt  Pt21  1  0.179143  0.540408  0.039925  1
  Pt  Pt22  1  0.313201  0.030725  0.954859  1
  Pt  Pt23  1  0.815124  0.475936  0.547276  1
  Pt  Pt24  1  0.315985  0.024812  0.547003  1
  Pt  Pt25  1  0.824727  0.470707  0.953526  1
  Pt  Pt26  1  0.679641  0.961239  0.039676  1
  Pt  Pt27  1  0.179720  0.542984  0.462551  1
  Pt  Pt28  1  0.451038  0.381341  0.748158  1
  Pt  Pt29  1  0.953169  0.116644  0.749324  1
  Pt  Pt30  1  0.548388  0.624595  0.250392  1
  Pt  Pt31  1  0.048119  0.875643  0.250697  1
  Pt  Pt32  1  0.685306  0.859388  0.746541  1
  Pt  Pt33  1  0.180337  0.642667  0.748431  1
  Pt  Pt34  1  0.315895  0.138170  0.251083  1
  Pt  Pt35  1  0.816023  0.362168  0.250586  1
