# generated using pymatgen
data_Zr3Ta7(Ga3N)2
_symmetry_space_group_name_H-M   'P 1'
_cell_length_a   7.86202296
_cell_length_b   7.82903573
_cell_length_c   5.42277600
_cell_angle_alpha   90.00000000
_cell_angle_beta   90.00000000
_cell_angle_gamma   120.36371797
_symmetry_Int_Tables_number   1
_chemical_formula_structural   Zr3Ta7(Ga3N)2
_chemical_formula_sum   'Zr3 Ta7 Ga6 N2'
_cell_volume   287.99932275
_cell_formula_units_Z   1
loop_
 _symmetry_equiv_pos_site_id
 _symmetry_equiv_pos_as_xyz
  1  'x, y, z'
loop_
 _atom_site_type_symbol
 _atom_site_label
 _atom_site_symmetry_multiplicity
 _atom_site_fract_x
 _atom_site_fract_y
 _atom_site_fract_z
 _atom_site_occupancy
  Zr  Zr0  1  0.239957  0.001076  0.250000  1
  Zr  Zr1  1  0.759049  0.997823  0.750000  1
  Zr  Zr2  1  0.003292  0.237329  0.250000  1
  Ta  Ta3  1  0.996847  0.765454  0.750000  1
  Ta  Ta4  1  0.771363  0.768724  0.250000  1
  Ta  Ta5  1  0.230042  0.230553  0.750000  1
  Ta  Ta6  1  0.333036  0.665850  0.000087  1
  Ta  Ta7  1  0.666992  0.336433  0.000084  1
  Ta  Ta8  1  0.666992  0.336433  0.499916  1
  Ta  Ta9  1  0.333036  0.665850  0.499913  1
  Ga  Ga10  1  0.595437  0.999677  0.250000  1
  Ga  Ga11  1  0.401990  0.000128  0.750000  1
  Ga  Ga12  1  0.999881  0.593309  0.250000  1
  Ga  Ga13  1  0.999927  0.410592  0.750000  1
  Ga  Ga14  1  0.415016  0.415095  0.250000  1
  Ga  Ga15  1  0.587275  0.587627  0.750000  1
  N  N16  1  0.999933  0.994024  0.995404  1
  N  N17  1  0.999933  0.994024  0.504596  1
