# generated using pymatgen
data_Tb11ThTc3Pt
_symmetry_space_group_name_H-M   'P 1'
_cell_length_a   6.38997559
_cell_length_b   7.37906826
_cell_length_c   9.38011800
_cell_angle_alpha   90.00000000
_cell_angle_beta   90.00000000
_cell_angle_gamma   89.29987771
_symmetry_Int_Tables_number   1
_chemical_formula_structural   Tb11ThTc3Pt
_chemical_formula_sum   'Tb11 Th1 Tc3 Pt1'
_cell_volume   442.25892372
_cell_formula_units_Z   1
loop_
 _symmetry_equiv_pos_site_id
 _symmetry_equiv_pos_as_xyz
  1  'x, y, z'
loop_
 _atom_site_type_symbol
 _atom_site_label
 _atom_site_symmetry_multiplicity
 _atom_site_fract_x
 _atom_site_fract_y
 _atom_site_fract_z
 _atom_site_occupancy
  Tb  Tb0  1  0.633814  0.043507  0.250000  1
  Tb  Tb1  1  0.126517  0.458968  0.750000  1
  Tb  Tb2  1  0.866601  0.535715  0.250000  1
  Tb  Tb3  1  0.169949  0.184320  0.062540  1
  Tb  Tb4  1  0.828917  0.822334  0.932028  1
  Tb  Tb5  1  0.667691  0.322587  0.935518  1
  Tb  Tb6  1  0.828917  0.822334  0.567972  1
  Tb  Tb7  1  0.334230  0.671044  0.063555  1
  Tb  Tb8  1  0.169949  0.184320  0.437460  1
  Tb  Tb9  1  0.334230  0.671044  0.436445  1
  Tb  Tb10  1  0.667691  0.322587  0.564482  1
  Th  Th11  1  0.359153  0.950319  0.750000  1
  Tc  Tc12  1  0.458210  0.386167  0.250000  1
  Tc  Tc13  1  0.523750  0.627945  0.750000  1
  Tc  Tc14  1  0.982171  0.110224  0.750000  1
  Pt  Pt15  1  0.048211  0.886582  0.250000  1
