# generated using pymatgen
data_TmLu2GaSn2Pt3
_symmetry_space_group_name_H-M   'P 1'
_cell_length_a   7.54889106
_cell_length_b   7.49267861
_cell_length_c   3.75866600
_cell_angle_alpha   90.00000000
_cell_angle_beta   90.00000000
_cell_angle_gamma   119.71522692
_symmetry_Int_Tables_number   1
_chemical_formula_structural   TmLu2GaSn2Pt3
_chemical_formula_sum   'Tm1 Lu2 Ga1 Sn2 Pt3'
_cell_volume   184.63912190
_cell_formula_units_Z   1
loop_
 _symmetry_equiv_pos_site_id
 _symmetry_equiv_pos_as_xyz
  1  'x, y, z'
loop_
 _atom_site_type_symbol
 _atom_site_label
 _atom_site_symmetry_multiplicity
 _atom_site_fract_x
 _atom_site_fract_y
 _atom_site_fract_z
 _atom_site_occupancy
  Tm  Tm0  1  0.389843  0.990057  0.000000  1
  Lu  Lu1  1  0.999839  0.413737  0.000000  1
  Lu  Lu2  1  0.610946  0.600174  0.000000  1
  Ga  Ga3  1  0.999983  0.734080  0.500000  1
  Sn  Sn4  1  0.263077  0.263819  0.500000  1
  Sn  Sn5  1  0.736746  0.999610  0.500000  1
  Pt  Pt6  1  0.327127  0.668068  0.500000  1
  Pt  Pt7  1  0.673185  0.343291  0.500000  1
  Pt  Pt8  1  0.999254  0.987163  0.000000  1
