# generated using pymatgen
data_Yb2HfZr(Al8Pt3)3
_symmetry_space_group_name_H-M   'P 1'
_cell_length_a   7.49919744
_cell_length_b   7.50648818
_cell_length_c   13.10066706
_cell_angle_alpha   84.61546009
_cell_angle_beta   100.88874783
_cell_angle_gamma   119.85480859
_symmetry_Int_Tables_number   1
_chemical_formula_structural   Yb2HfZr(Al8Pt3)3
_chemical_formula_sum   'Yb2 Hf1 Zr1 Al24 Pt9'
_cell_volume   628.08554912
_cell_formula_units_Z   1
loop_
 _symmetry_equiv_pos_site_id
 _symmetry_equiv_pos_as_xyz
  1  'x, y, z'
loop_
 _atom_site_type_symbol
 _atom_site_label
 _atom_site_symmetry_multiplicity
 _atom_site_fract_x
 _atom_site_fract_y
 _atom_site_fract_z
 _atom_site_occupancy
  Yb  Yb0  1  0.768245  0.501868  0.808198  1
  Yb  Yb1  1  0.231711  0.498003  0.191819  1
  Hf  Hf2  1  0.562757  0.169615  0.191850  1
  Zr  Zr3  1  0.437754  0.830811  0.809352  1
  Al  Al4  1  0.483152  0.164329  0.943521  1
  Al  Al5  1  0.516849  0.836123  0.056963  1
  Al  Al6  1  0.020794  0.167427  0.562098  1
  Al  Al7  1  0.979205  0.832615  0.437757  1
  Al  Al8  1  0.353746  0.833346  0.559820  1
  Al  Al9  1  0.646273  0.166607  0.440184  1
  Al  Al10  1  0.615336  0.834997  0.326320  1
  Al  Al11  1  0.384590  0.165017  0.673433  1
  Al  Al12  1  0.058014  0.495533  0.673798  1
  Al  Al13  1  0.941853  0.504378  0.325904  1
  Al  Al14  1  0.729266  0.838687  0.672766  1
  Al  Al15  1  0.270688  0.161288  0.326918  1
  Al  Al16  1  0.149100  0.502577  0.943536  1
  Al  Al17  1  0.850545  0.496937  0.056753  1
  Al  Al18  1  0.813181  0.831893  0.950943  1
  Al  Al19  1  0.187437  0.168108  0.049431  1
  Al  Al20  1  0.313834  0.500646  0.440170  1
  Al  Al21  1  0.686101  0.499351  0.559677  1
  Al  Al22  1  0.109107  0.843625  0.183141  1
  Al  Al23  1  0.891317  0.156990  0.816804  1
  Al  Al24  1  0.306768  0.374855  0.815581  1
  Al  Al25  1  0.693433  0.624878  0.184321  1
  Al  Al26  1  0.110780  0.960523  0.816246  1
  Al  Al27  1  0.888751  0.039312  0.183678  1
  Pt  Pt28  1  0.387648  0.508876  0.638520  1
  Pt  Pt29  1  0.612159  0.490432  0.361048  1
  Pt  Pt30  1  0.170805  0.828411  0.999659  1
  Pt  Pt31  1  0.829007  0.171456  0.000408  1
  Pt  Pt32  1  0.296524  0.834525  0.361062  1
  Pt  Pt33  1  0.704005  0.166074  0.638659  1
  Pt  Pt34  1  0.046774  0.825382  0.637362  1
  Pt  Pt35  1  0.952522  0.174612  0.362211  1
  Pt  Pt36  1  0.499969  0.499890  0.000091  1
