# generated using pymatgen
data_Dy3Y3Ho4(Al2Ru3)2
_symmetry_space_group_name_H-M   'P 1'
_cell_length_a   8.33900900
_cell_length_b   8.33900912
_cell_length_c   8.33900820
_cell_angle_alpha   109.45266107
_cell_angle_beta   109.45266468
_cell_angle_gamma   109.45266457
_symmetry_Int_Tables_number   1
_chemical_formula_structural   Dy3Y3Ho4(Al2Ru3)2
_chemical_formula_sum   'Dy3 Y3 Ho4 Al4 Ru6'
_cell_volume   446.70357758
_cell_formula_units_Z   1
loop_
 _symmetry_equiv_pos_site_id
 _symmetry_equiv_pos_as_xyz
  1  'x, y, z'
loop_
 _atom_site_type_symbol
 _atom_site_label
 _atom_site_symmetry_multiplicity
 _atom_site_fract_x
 _atom_site_fract_y
 _atom_site_fract_z
 _atom_site_occupancy
  Dy  Dy0  1  0.713400  0.500694  0.000470  1
  Dy  Dy1  1  0.000470  0.713400  0.500694  1
  Dy  Dy2  1  0.500694  0.000470  0.713400  1
  Y  Y3  1  0.250083  0.180423  0.929934  1
  Y  Y4  1  0.929934  0.250083  0.180423  1
  Y  Y5  1  0.180423  0.929934  0.250083  1
  Ho  Ho6  1  0.787025  0.787025  0.787025  1
  Ho  Ho7  1  0.320220  0.570178  0.750614  1
  Ho  Ho8  1  0.750614  0.320220  0.570178  1
  Ho  Ho9  1  0.570178  0.750614  0.320220  1
  Al  Al10  1  0.411312  0.411312  0.411312  1
  Al  Al11  1  0.089236  0.498180  0.999659  1
  Al  Al12  1  0.999659  0.089236  0.498180  1
  Al  Al13  1  0.498180  0.999659  0.089236  1
  Ru  Ru14  1  0.875311  0.125958  0.746918  1
  Ru  Ru15  1  0.746918  0.875311  0.125958  1
  Ru  Ru16  1  0.125958  0.746918  0.875311  1
  Ru  Ru17  1  0.252605  0.624325  0.373456  1
  Ru  Ru18  1  0.373456  0.252605  0.624325  1
  Ru  Ru19  1  0.624325  0.373456  0.252605  1
