# generated using pymatgen
data_Li4YbPr(ThSi3)2
_symmetry_space_group_name_H-M   'P 1'
_cell_length_a   9.48231162
_cell_length_b   9.48231044
_cell_length_c   6.80819000
_cell_angle_alpha   90.00000000
_cell_angle_beta   90.00000000
_cell_angle_gamma   153.06906700
_symmetry_Int_Tables_number   1
_chemical_formula_structural   Li4YbPr(ThSi3)2
_chemical_formula_sum   'Li4 Yb1 Pr1 Th2 Si6'
_cell_volume   277.25400501
_cell_formula_units_Z   1
loop_
 _symmetry_equiv_pos_site_id
 _symmetry_equiv_pos_as_xyz
  1  'x, y, z'
loop_
 _atom_site_type_symbol
 _atom_site_label
 _atom_site_symmetry_multiplicity
 _atom_site_fract_x
 _atom_site_fract_y
 _atom_site_fract_z
 _atom_site_occupancy
  Li  Li0  1  0.809640  0.190360  0.561798  1
  Li  Li1  1  0.188758  0.811242  0.443322  1
  Li  Li2  1  0.188758  0.811242  0.056678  1
  Li  Li3  1  0.809640  0.190360  0.938202  1
  Yb  Yb4  1  0.657689  0.342311  0.750000  1
  Pr  Pr5  1  0.342522  0.657478  0.250000  1
  Th  Th6  1  0.552680  0.447320  0.250000  1
  Th  Th7  1  0.448887  0.551113  0.750000  1
  Si  Si8  1  0.941728  0.058272  0.072105  1
  Si  Si9  1  0.058286  0.941714  0.926603  1
  Si  Si10  1  0.058286  0.941714  0.573397  1
  Si  Si11  1  0.941728  0.058272  0.427895  1
  Si  Si12  1  0.718361  0.281639  0.250000  1
  Si  Si13  1  0.283036  0.716964  0.750000  1
