# generated using pymatgen
data_Tb19Er(Ir2Ru)4
_symmetry_space_group_name_H-M   'P 1'
_cell_length_a   10.89676300
_cell_length_b   10.89676300
_cell_length_c   6.42945400
_cell_angle_alpha   90.00000000
_cell_angle_beta   90.00000000
_cell_angle_gamma   90.00000000
_symmetry_Int_Tables_number   1
_chemical_formula_structural   Tb19Er(Ir2Ru)4
_chemical_formula_sum   'Tb19 Er1 Ir8 Ru4'
_cell_volume   763.42979240
_cell_formula_units_Z   1
loop_
 _symmetry_equiv_pos_site_id
 _symmetry_equiv_pos_as_xyz
  1  'x, y, z'
loop_
 _atom_site_type_symbol
 _atom_site_label
 _atom_site_symmetry_multiplicity
 _atom_site_fract_x
 _atom_site_fract_y
 _atom_site_fract_z
 _atom_site_occupancy
  Tb  Tb0  1  0.292769  0.086682  0.379184  1
  Tb  Tb1  1  0.293079  0.913259  0.878947  1
  Tb  Tb2  1  0.706921  0.086741  0.878947  1
  Tb  Tb3  1  0.707231  0.913318  0.379184  1
  Tb  Tb4  1  0.586689  0.793328  0.879209  1
  Tb  Tb5  1  0.586755  0.206599  0.379157  1
  Tb  Tb6  1  0.413245  0.793401  0.379157  1
  Tb  Tb7  1  0.413311  0.206672  0.879209  1
  Tb  Tb8  1  0.206599  0.413245  0.620843  1
  Tb  Tb9  1  0.206672  0.586689  0.120791  1
  Tb  Tb10  1  0.793328  0.413311  0.120791  1
  Tb  Tb11  1  0.793401  0.586755  0.620843  1
  Tb  Tb12  1  0.913259  0.706921  0.121053  1
  Tb  Tb13  1  0.913318  0.292769  0.620816  1
  Tb  Tb14  1  0.086682  0.707231  0.620816  1
  Tb  Tb15  1  0.086741  0.293079  0.121053  1
  Tb  Tb16  1  0.000000  0.000000  0.000000  1
  Tb  Tb17  1  0.500000  0.500000  0.000000  1
  Tb  Tb18  1  0.500000  0.500000  0.500000  1
  Er  Er19  1  0.000000  0.000000  0.500000  1
  Ir  Ir20  1  0.848112  0.151929  0.251366  1
  Ir  Ir21  1  0.848071  0.848112  0.748634  1
  Ir  Ir22  1  0.151929  0.151888  0.748634  1
  Ir  Ir23  1  0.151888  0.848071  0.251366  1
  Ir  Ir24  1  0.652681  0.347304  0.750004  1
  Ir  Ir25  1  0.652696  0.652681  0.249996  1
  Ir  Ir26  1  0.347304  0.347319  0.249996  1
  Ir  Ir27  1  0.347319  0.652696  0.750004  1
  Ru  Ru28  1  0.500000  0.000000  0.121939  1
  Ru  Ru29  1  0.500000  0.000000  0.622002  1
  Ru  Ru30  1  0.000000  0.500000  0.878061  1
  Ru  Ru31  1  0.000000  0.500000  0.377998  1
