# generated using pymatgen
data_HfTh8Se17
_symmetry_space_group_name_H-M   'P 1'
_cell_length_a   8.46552643
_cell_length_b   8.46553896
_cell_length_c   11.26007002
_cell_angle_alpha   80.72694141
_cell_angle_beta   80.72714080
_cell_angle_gamma   65.42290792
_symmetry_Int_Tables_number   1
_chemical_formula_structural   HfTh8Se17
_chemical_formula_sum   'Hf1 Th8 Se17'
_cell_volume   720.26427380
_cell_formula_units_Z   1
loop_
 _symmetry_equiv_pos_site_id
 _symmetry_equiv_pos_as_xyz
  1  'x, y, z'
loop_
 _atom_site_type_symbol
 _atom_site_label
 _atom_site_symmetry_multiplicity
 _atom_site_fract_x
 _atom_site_fract_y
 _atom_site_fract_z
 _atom_site_occupancy
  Hf  Hf0  1  0.000000  0.000000  0.000000  1
  Th  Th1  1  0.814563  0.302843  0.296244  1
  Th  Th2  1  0.302841  0.814562  0.296244  1
  Th  Th3  1  0.185437  0.697157  0.703756  1
  Th  Th4  1  0.697159  0.185438  0.703756  1
  Th  Th5  1  0.204283  0.204282  0.542545  1
  Th  Th6  1  0.795717  0.795718  0.457455  1
  Th  Th7  1  0.681346  0.681347  0.982438  1
  Th  Th8  1  0.318654  0.318653  0.017562  1
  Se  Se9  1  0.821638  0.431643  0.531642  1
  Se  Se10  1  0.431643  0.821637  0.531642  1
  Se  Se11  1  0.178362  0.568357  0.468358  1
  Se  Se12  1  0.568357  0.178363  0.468358  1
  Se  Se13  1  0.943309  0.326921  0.029162  1
  Se  Se14  1  0.326921  0.943309  0.029163  1
  Se  Se15  1  0.056691  0.673079  0.970838  1
  Se  Se16  1  0.673079  0.056691  0.970837  1
  Se  Se17  1  0.209411  0.209410  0.277277  1
  Se  Se18  1  0.790589  0.790590  0.722723  1
  Se  Se19  1  0.061162  0.061160  0.768082  1
  Se  Se20  1  0.938838  0.938840  0.231918  1
  Se  Se21  1  0.303156  0.303154  0.754569  1
  Se  Se22  1  0.696844  0.696846  0.245431  1
  Se  Se23  1  0.519690  0.519690  0.834055  1
  Se  Se24  1  0.480310  0.480310  0.165945  1
  Se  Se25  1  0.000000  0.000000  0.500000  1
