# generated using pymatgen
data_YbDy7(B6Ru)4
_symmetry_space_group_name_H-M   'P 1'
_cell_length_a   3.66643800
_cell_length_b   9.14982510
_cell_length_c   11.53298590
_cell_angle_alpha   89.90570341
_cell_angle_beta   90.00000000
_cell_angle_gamma   90.00000000
_symmetry_Int_Tables_number   1
_chemical_formula_structural   YbDy7(B6Ru)4
_chemical_formula_sum   'Yb1 Dy7 B24 Ru4'
_cell_volume   386.89962693
_cell_formula_units_Z   1
loop_
 _symmetry_equiv_pos_site_id
 _symmetry_equiv_pos_as_xyz
  1  'x, y, z'
loop_
 _atom_site_type_symbol
 _atom_site_label
 _atom_site_symmetry_multiplicity
 _atom_site_fract_x
 _atom_site_fract_y
 _atom_site_fract_z
 _atom_site_occupancy
  Yb  Yb0  1  0.000000  0.324128  0.413631  1
  Dy  Dy1  1  0.000000  0.675222  0.584720  1
  Dy  Dy2  1  0.000000  0.823214  0.086443  1
  Dy  Dy3  1  0.000000  0.177168  0.914589  1
  Dy  Dy4  1  0.000000  0.944126  0.371219  1
  Dy  Dy5  1  0.000000  0.058038  0.627971  1
  Dy  Dy6  1  0.000000  0.442907  0.129814  1
  Dy  Dy7  1  0.000000  0.556173  0.872054  1
  B  B8  1  0.500000  0.553855  0.432439  1
  B  B9  1  0.500000  0.445661  0.567288  1
  B  B10  1  0.500000  0.053355  0.066763  1
  B  B11  1  0.500000  0.945906  0.932441  1
  B  B12  1  0.500000  0.747904  0.419282  1
  B  B13  1  0.500000  0.252503  0.580639  1
  B  B14  1  0.500000  0.247288  0.080602  1
  B  B15  1  0.500000  0.752075  0.919608  1
  B  B16  1  0.500000  0.791326  0.266398  1
  B  B17  1  0.500000  0.209814  0.733829  1
  B  B18  1  0.500000  0.289695  0.233660  1
  B  B19  1  0.500000  0.709488  0.766307  1
  B  B20  1  0.500000  0.632323  0.186159  1
  B  B21  1  0.500000  0.368062  0.814935  1
  B  B22  1  0.500000  0.131810  0.314005  1
  B  B23  1  0.500000  0.868169  0.685243  1
  B  B24  1  0.500000  0.983935  0.211951  1
  B  B25  1  0.500000  0.016135  0.787252  1
  B  B26  1  0.500000  0.484241  0.288024  1
  B  B27  1  0.500000  0.515957  0.712530  1
  B  B28  1  0.500000  0.608745  0.030430  1
  B  B29  1  0.500000  0.391284  0.970414  1
  B  B30  1  0.500000  0.105587  0.470655  1
  B  B31  1  0.500000  0.893495  0.529415  1
  Ru  Ru32  1  0.000000  0.639427  0.320765  1
  Ru  Ru33  1  0.000000  0.362036  0.679780  1
  Ru  Ru34  1  0.000000  0.136753  0.177606  1
  Ru  Ru35  1  0.000000  0.862196  0.821142  1
