# generated using pymatgen
data_Dy9Ho3(CoNi)2
_symmetry_space_group_name_H-M   'P 1'
_cell_length_a   6.22984641
_cell_length_b   6.88150701
_cell_length_c   9.47420863
_cell_angle_alpha   89.99546006
_cell_angle_beta   89.95851780
_cell_angle_gamma   90.00500690
_symmetry_Int_Tables_number   1
_chemical_formula_structural   Dy9Ho3(CoNi)2
_chemical_formula_sum   'Dy9 Ho3 Co2 Ni2'
_cell_volume   406.16614767
_cell_formula_units_Z   1
loop_
 _symmetry_equiv_pos_site_id
 _symmetry_equiv_pos_as_xyz
  1  'x, y, z'
loop_
 _atom_site_type_symbol
 _atom_site_label
 _atom_site_symmetry_multiplicity
 _atom_site_fract_x
 _atom_site_fract_y
 _atom_site_fract_z
 _atom_site_occupancy
  Dy  Dy0  1  0.674315  0.175612  0.067452  1
  Dy  Dy1  1  0.364593  0.540805  0.249872  1
  Dy  Dy2  1  0.142335  0.034881  0.249931  1
  Dy  Dy3  1  0.822228  0.679947  0.434331  1
  Dy  Dy4  1  0.322146  0.820026  0.934265  1
  Dy  Dy5  1  0.174142  0.324527  0.567806  1
  Dy  Dy6  1  0.674073  0.175544  0.432464  1
  Dy  Dy7  1  0.864822  0.959147  0.750030  1
  Dy  Dy8  1  0.642155  0.464993  0.750192  1
  Ho  Ho9  1  0.174101  0.324462  0.932224  1
  Ho  Ho10  1  0.322470  0.820220  0.565871  1
  Ho  Ho11  1  0.822463  0.679702  0.065787  1
  Co  Co12  1  0.552185  0.888387  0.250080  1
  Co  Co13  1  0.052158  0.611546  0.750193  1
  Ni  Ni14  1  0.948070  0.389658  0.249593  1
  Ni  Ni15  1  0.447746  0.110543  0.749908  1
