# generated using pymatgen
data_Hf2Zr4InGa5
_symmetry_space_group_name_H-M   'P 1'
_cell_length_a   5.75883400
_cell_length_b   8.75277251
_cell_length_c   9.34782943
_cell_angle_alpha   89.95318137
_cell_angle_beta   90.00000000
_cell_angle_gamma   90.00000000
_symmetry_Int_Tables_number   1
_chemical_formula_structural   Hf2Zr4InGa5
_chemical_formula_sum   'Hf4 Zr8 In2 Ga10'
_cell_volume   471.18432614
_cell_formula_units_Z   2
loop_
 _symmetry_equiv_pos_site_id
 _symmetry_equiv_pos_as_xyz
  1  'x, y, z'
loop_
 _atom_site_type_symbol
 _atom_site_label
 _atom_site_symmetry_multiplicity
 _atom_site_fract_x
 _atom_site_fract_y
 _atom_site_fract_z
 _atom_site_occupancy
  Hf  Hf0  1  0.999218  0.734201  0.114350  1
  Hf  Hf1  1  0.499218  0.265799  0.885650  1
  Hf  Hf2  1  0.000782  0.265799  0.885650  1
  Hf  Hf3  1  0.500782  0.734201  0.114350  1
  Zr  Zr4  1  0.750000  0.473514  0.615891  1
  Zr  Zr5  1  0.250000  0.526486  0.384109  1
  Zr  Zr6  1  0.750000  0.971149  0.394577  1
  Zr  Zr7  1  0.250000  0.028851  0.605423  1
  Zr  Zr8  1  0.750000  0.372933  0.195412  1
  Zr  Zr9  1  0.250000  0.627067  0.804588  1
  Zr  Zr10  1  0.750000  0.859012  0.799170  1
  Zr  Zr11  1  0.250000  0.140988  0.200830  1
  In  In12  1  0.750000  0.045575  0.085688  1
  In  In13  1  0.250000  0.954425  0.914312  1
  Ga  Ga14  1  0.005464  0.748626  0.565251  1
  Ga  Ga15  1  0.505464  0.251374  0.434749  1
  Ga  Ga16  1  0.994536  0.251374  0.434749  1
  Ga  Ga17  1  0.494536  0.748626  0.565251  1
  Ga  Ga18  1  0.750000  0.552955  0.910479  1
  Ga  Ga19  1  0.250000  0.447045  0.089521  1
  Ga  Ga20  1  0.750000  0.133774  0.657581  1
  Ga  Ga21  1  0.250000  0.866226  0.342419  1
  Ga  Ga22  1  0.750000  0.634788  0.352737  1
  Ga  Ga23  1  0.250000  0.365212  0.647263  1
