# generated using pymatgen
data_Tb2ScMo2P7Rh9
_symmetry_space_group_name_H-M   'P 1'
_cell_length_a   3.91735800
_cell_length_b   9.61916139
_cell_length_c   9.62612404
_cell_angle_alpha   120.38624001
_cell_angle_beta   90.00259268
_cell_angle_gamma   90.01348998
_symmetry_Int_Tables_number   1
_chemical_formula_structural   Tb2ScMo2P7Rh9
_chemical_formula_sum   'Tb2 Sc1 Mo2 P7 Rh9'
_cell_volume   312.90252614
_cell_formula_units_Z   1
loop_
 _symmetry_equiv_pos_site_id
 _symmetry_equiv_pos_as_xyz
  1  'x, y, z'
loop_
 _atom_site_type_symbol
 _atom_site_label
 _atom_site_symmetry_multiplicity
 _atom_site_fract_x
 _atom_site_fract_y
 _atom_site_fract_z
 _atom_site_occupancy
  Tb  Tb0  1  0.261865  0.665885  0.333453  1
  Tb  Tb1  1  0.761942  0.335010  0.666830  1
  Sc  Sc2  1  0.761943  0.100546  0.879364  1
  Mo  Mo3  1  0.761911  0.123564  0.220919  1
  Mo  Mo4  1  0.761884  0.783888  0.914466  1
  P  P5  1  0.261910  0.995958  0.002723  1
  P  P6  1  0.761782  0.870821  0.581601  1
  P  P7  1  0.761890  0.400912  0.286825  1
  P  P8  1  0.761951  0.714036  0.118010  1
  P  P9  1  0.261945  0.117304  0.413668  1
  P  P10  1  0.261748  0.588096  0.704129  1
  P  P11  1  0.261944  0.303048  0.882085  1
  Rh  Rh12  1  0.261950  0.884350  0.163131  1
  Rh  Rh13  1  0.261663  0.837852  0.721442  1
  Rh  Rh14  1  0.261954  0.276356  0.115998  1
  Rh  Rh15  1  0.761771  0.608641  0.558357  1
  Rh  Rh16  1  0.761942  0.445099  0.053898  1
  Rh  Rh17  1  0.762055  0.944318  0.385789  1
  Rh  Rh18  1  0.261837  0.367618  0.437855  1
  Rh  Rh19  1  0.261924  0.566904  0.932017  1
  Rh  Rh20  1  0.262189  0.069795  0.627438  1
