# generated using pymatgen
data_Y4AlZn11
_symmetry_space_group_name_H-M   'P 1'
_cell_length_a   4.41294800
_cell_length_b   6.68475911
_cell_length_c   10.12301116
_cell_angle_alpha   90.02025153
_cell_angle_beta   90.00000000
_cell_angle_gamma   90.00000000
_symmetry_Int_Tables_number   1
_chemical_formula_structural   Y4AlZn11
_chemical_formula_sum   'Y4 Al1 Zn11'
_cell_volume   298.62369151
_cell_formula_units_Z   1
loop_
 _symmetry_equiv_pos_site_id
 _symmetry_equiv_pos_as_xyz
  1  'x, y, z'
loop_
 _atom_site_type_symbol
 _atom_site_label
 _atom_site_symmetry_multiplicity
 _atom_site_fract_x
 _atom_site_fract_y
 _atom_site_fract_z
 _atom_site_occupancy
  Y  Y0  1  0.250000  0.280209  0.660087  1
  Y  Y1  1  0.750000  0.719028  0.338751  1
  Y  Y2  1  0.250000  0.780610  0.836789  1
  Y  Y3  1  0.750000  0.217669  0.162410  1
  Al  Al4  1  0.250000  0.537432  0.106502  1
  Zn  Zn5  1  0.750000  0.463552  0.893891  1
  Zn  Zn6  1  0.250000  0.036206  0.393990  1
  Zn  Zn7  1  0.750000  0.963728  0.605678  1
  Zn  Zn8  1  0.750000  0.280295  0.456527  1
  Zn  Zn9  1  0.250000  0.719630  0.543955  1
  Zn  Zn10  1  0.750000  0.779632  0.043831  1
  Zn  Zn11  1  0.250000  0.218619  0.955945  1
  Zn  Zn12  1  0.750000  0.583104  0.647951  1
  Zn  Zn13  1  0.250000  0.417380  0.353209  1
  Zn  Zn14  1  0.750000  0.082788  0.852512  1
  Zn  Zn15  1  0.250000  0.920116  0.147973  1
