# generated using pymatgen
data_Tm3LuV2(CoB8)2
_symmetry_space_group_name_H-M   'P 1'
_cell_length_a   3.37620000
_cell_length_b   5.91518084
_cell_length_c   11.43164999
_cell_angle_alpha   90.05664532
_cell_angle_beta   90.00000000
_cell_angle_gamma   90.00000000
_symmetry_Int_Tables_number   1
_chemical_formula_structural   Tm3LuV2(CoB8)2
_chemical_formula_sum   'Tm3 Lu1 V2 Co2 B16'
_cell_volume   228.29946750
_cell_formula_units_Z   1
loop_
 _symmetry_equiv_pos_site_id
 _symmetry_equiv_pos_as_xyz
  1  'x, y, z'
loop_
 _atom_site_type_symbol
 _atom_site_label
 _atom_site_symmetry_multiplicity
 _atom_site_fract_x
 _atom_site_fract_y
 _atom_site_fract_z
 _atom_site_occupancy
  Tm  Tm0  1  0.500000  0.371309  0.148208  1
  Tm  Tm1  1  0.500000  0.628624  0.851943  1
  Tm  Tm2  1  0.500000  0.125004  0.652548  1
  Lu  Lu3  1  0.500000  0.875152  0.347385  1
  V  V4  1  0.500000  0.372339  0.413719  1
  V  V5  1  0.500000  0.627880  0.585742  1
  Co  Co6  1  0.500000  0.135858  0.912547  1
  Co  Co7  1  0.500000  0.864002  0.087924  1
  B  B8  1  0.000000  0.111640  0.046573  1
  B  B9  1  0.000000  0.888106  0.953826  1
  B  B10  1  0.000000  0.384517  0.547231  1
  B  B11  1  0.000000  0.616275  0.452002  1
  B  B12  1  0.000000  0.133122  0.466516  1
  B  B13  1  0.000000  0.866875  0.532699  1
  B  B14  1  0.000000  0.361737  0.969274  1
  B  B15  1  0.000000  0.638317  0.031079  1
  B  B16  1  0.000000  0.019945  0.190399  1
  B  B17  1  0.000000  0.979570  0.810117  1
  B  B18  1  0.000000  0.474005  0.695177  1
  B  B19  1  0.000000  0.526519  0.304641  1
  B  B20  1  0.000000  0.210211  0.311346  1
  B  B21  1  0.000000  0.788828  0.688668  1
  B  B22  1  0.000000  0.282286  0.817080  1
  B  B23  1  0.000000  0.717880  0.183357  1
