# generated using pymatgen
data_Zr3BeRe2P2Ru
_symmetry_space_group_name_H-M   'P 1'
_cell_length_a   6.73565993
_cell_length_b   6.71368732
_cell_length_c   3.50481100
_cell_angle_alpha   90.00000000
_cell_angle_beta   90.00000000
_cell_angle_gamma   119.89216131
_symmetry_Int_Tables_number   1
_chemical_formula_structural   Zr3BeRe2P2Ru
_chemical_formula_sum   'Zr3 Be1 Re2 P2 Ru1'
_cell_volume   137.40653919
_cell_formula_units_Z   1
loop_
 _symmetry_equiv_pos_site_id
 _symmetry_equiv_pos_as_xyz
  1  'x, y, z'
loop_
 _atom_site_type_symbol
 _atom_site_label
 _atom_site_symmetry_multiplicity
 _atom_site_fract_x
 _atom_site_fract_y
 _atom_site_fract_z
 _atom_site_occupancy
  Zr  Zr0  1  0.403536  0.401687  0.500000  1
  Zr  Zr1  1  0.596464  0.998150  0.500000  1
  Zr  Zr2  1  0.000000  0.597274  0.500000  1
  Be  Be3  1  0.000000  0.000716  0.500000  1
  Re  Re4  1  0.756846  0.755834  0.000000  1
  Re  Re5  1  0.243154  0.998988  0.000000  1
  P  P6  1  0.665182  0.333242  0.000000  1
  P  P7  1  0.334818  0.668061  0.000000  1
  Ru  Ru8  1  0.000000  0.246049  0.000000  1
