# generated using pymatgen
data_Dy2Ga9NiIr2
_symmetry_space_group_name_H-M   'P 1'
_cell_length_a   7.55013084
_cell_length_b   7.55012996
_cell_length_c   9.43401800
_cell_angle_alpha   90.00000000
_cell_angle_beta   90.00000000
_cell_angle_gamma   120.02001601
_symmetry_Int_Tables_number   1
_chemical_formula_structural   Dy2Ga9NiIr2
_chemical_formula_sum   'Dy4 Ga18 Ni2 Ir4'
_cell_volume   465.63820581
_cell_formula_units_Z   2
loop_
 _symmetry_equiv_pos_site_id
 _symmetry_equiv_pos_as_xyz
  1  'x, y, z'
loop_
 _atom_site_type_symbol
 _atom_site_label
 _atom_site_symmetry_multiplicity
 _atom_site_fract_x
 _atom_site_fract_y
 _atom_site_fract_z
 _atom_site_occupancy
  Dy  Dy0  1  0.996976  0.661020  0.250000  1
  Dy  Dy1  1  0.003024  0.338980  0.750000  1
  Dy  Dy2  1  0.661020  0.996976  0.250000  1
  Dy  Dy3  1  0.338980  0.003024  0.750000  1
  Ga  Ga4  1  0.110209  0.110209  0.250000  1
  Ga  Ga5  1  0.889791  0.889791  0.750000  1
  Ga  Ga6  1  0.999298  0.327627  0.078600  1
  Ga  Ga7  1  0.000702  0.672373  0.921400  1
  Ga  Ga8  1  0.000702  0.672373  0.578600  1
  Ga  Ga9  1  0.327627  0.999298  0.421400  1
  Ga  Ga10  1  0.999298  0.327627  0.421400  1
  Ga  Ga11  1  0.672373  0.000702  0.578600  1
  Ga  Ga12  1  0.672373  0.000702  0.921400  1
  Ga  Ga13  1  0.327627  0.999298  0.078600  1
  Ga  Ga14  1  0.326704  0.326704  0.564906  1
  Ga  Ga15  1  0.673296  0.673296  0.435094  1
  Ga  Ga16  1  0.673296  0.673296  0.064906  1
  Ga  Ga17  1  0.326704  0.326704  0.935094  1
  Ga  Ga18  1  0.338552  0.541148  0.250000  1
  Ga  Ga19  1  0.661448  0.458852  0.750000  1
  Ga  Ga20  1  0.541148  0.338552  0.250000  1
  Ga  Ga21  1  0.458852  0.661448  0.750000  1
  Ni  Ni22  1  0.000000  0.000000  0.000000  1
  Ni  Ni23  1  0.000000  0.000000  0.500000  1
  Ir  Ir24  1  0.671678  0.328322  0.000000  1
  Ir  Ir25  1  0.328322  0.671678  0.000000  1
  Ir  Ir26  1  0.328322  0.671678  0.500000  1
  Ir  Ir27  1  0.671678  0.328322  0.500000  1
