# generated using pymatgen
data_CeFe2(Sb6Ru)2
_symmetry_space_group_name_H-M   'P 1'
_cell_length_a   8.02727708
_cell_length_b   7.97985144
_cell_length_c   7.97985079
_cell_angle_alpha   109.22940325
_cell_angle_beta   109.53819303
_cell_angle_gamma   109.40547198
_symmetry_Int_Tables_number   1
_chemical_formula_structural   CeFe2(Sb6Ru)2
_chemical_formula_sum   'Ce1 Fe2 Sb12 Ru2'
_cell_volume   394.65391625
_cell_formula_units_Z   1
loop_
 _symmetry_equiv_pos_site_id
 _symmetry_equiv_pos_as_xyz
  1  'x, y, z'
loop_
 _atom_site_type_symbol
 _atom_site_label
 _atom_site_symmetry_multiplicity
 _atom_site_fract_x
 _atom_site_fract_y
 _atom_site_fract_z
 _atom_site_occupancy
  Ce  Ce0  1  0.000000  0.000000  0.000000  1
  Fe  Fe1  1  0.500000  0.000000  0.000000  1
  Fe  Fe2  1  0.500000  0.500000  0.500000  1
  Sb  Sb3  1  0.341085  0.175973  0.844983  1
  Sb  Sb4  1  0.658914  0.824027  0.155017  1
  Sb  Sb5  1  0.658914  0.503898  0.834887  1
  Sb  Sb6  1  0.341086  0.496102  0.165113  1
  Sb  Sb7  1  0.182540  0.842501  0.340039  1
  Sb  Sb8  1  0.817460  0.157499  0.659962  1
  Sb  Sb9  1  0.505391  0.838064  0.667327  1
  Sb  Sb10  1  0.494609  0.161936  0.332674  1
  Sb  Sb11  1  0.833703  0.330105  0.175594  1
  Sb  Sb12  1  0.166297  0.669894  0.824406  1
  Sb  Sb13  1  0.833703  0.658109  0.503598  1
  Sb  Sb14  1  0.166297  0.341891  0.496402  1
  Ru  Ru15  1  0.000000  0.000000  0.500000  1
  Ru  Ru16  1  0.000000  0.500000  0.000000  1
