# generated using pymatgen
data_NpAl3Ga
_symmetry_space_group_name_H-M   'P 1'
_cell_length_a   7.95828195
_cell_length_b   7.89429471
_cell_length_c   7.89429421
_cell_angle_alpha   148.28603891
_cell_angle_beta   133.27386989
_cell_angle_gamma   57.49522553
_symmetry_Int_Tables_number   1
_chemical_formula_structural   NpAl3Ga
_chemical_formula_sum   'Np2 Al6 Ga2'
_cell_volume   188.46134056
_cell_formula_units_Z   2
loop_
 _symmetry_equiv_pos_site_id
 _symmetry_equiv_pos_as_xyz
  1  'x, y, z'
loop_
 _atom_site_type_symbol
 _atom_site_label
 _atom_site_symmetry_multiplicity
 _atom_site_fract_x
 _atom_site_fract_y
 _atom_site_fract_z
 _atom_site_occupancy
  Np  Np0  1  0.637609  0.886413  0.751196  1
  Np  Np1  1  0.362391  0.113587  0.248804  1
  Al  Al2  1  0.000000  0.500000  0.500000  1
  Al  Al3  1  0.500000  0.500000  0.000000  1
  Al  Al4  1  0.856459  0.106643  0.749816  1
  Al  Al5  1  0.143541  0.893357  0.250184  1
  Al  Al6  1  0.155904  0.699263  0.456641  1
  Al  Al7  1  0.844096  0.300737  0.543359  1
  Ga  Ga8  1  0.281555  0.303719  0.977836  1
  Ga  Ga9  1  0.718445  0.696281  0.022164  1
