# generated using pymatgen
data_TbHo(Bi3O7)2
_symmetry_space_group_name_H-M   'P 1'
_cell_length_a   6.66175851
_cell_length_b   6.86135125
_cell_length_c   7.85591801
_cell_angle_alpha   106.69838079
_cell_angle_beta   89.37811571
_cell_angle_gamma   99.27002286
_symmetry_Int_Tables_number   1
_chemical_formula_structural   TbHo(Bi3O7)2
_chemical_formula_sum   'Tb1 Ho1 Bi6 O14'
_cell_volume   339.21084344
_cell_formula_units_Z   1
loop_
 _symmetry_equiv_pos_site_id
 _symmetry_equiv_pos_as_xyz
  1  'x, y, z'
loop_
 _atom_site_type_symbol
 _atom_site_label
 _atom_site_symmetry_multiplicity
 _atom_site_fract_x
 _atom_site_fract_y
 _atom_site_fract_z
 _atom_site_occupancy
  Tb  Tb0  1  0.460402  0.003276  0.248686  1
  Ho  Ho1  1  0.539168  0.996243  0.751083  1
  Bi  Bi2  1  0.999854  0.999922  0.500394  1
  Bi  Bi3  1  0.000121  0.000002  0.999328  1
  Bi  Bi4  1  0.260244  0.515766  0.878338  1
  Bi  Bi5  1  0.740241  0.483366  0.121337  1
  Bi  Bi6  1  0.722135  0.462991  0.609284  1
  Bi  Bi7  1  0.277900  0.537607  0.391845  1
  O  O8  1  0.464720  0.657352  0.183663  1
  O  O9  1  0.535045  0.339544  0.815521  1
  O  O10  1  0.303870  0.944053  0.951758  1
  O  O11  1  0.696408  0.056446  0.045346  1
  O  O12  1  0.297532  0.918525  0.513226  1
  O  O13  1  0.702662  0.081810  0.489278  1
  O  O14  1  0.531398  0.351490  0.352369  1
  O  O15  1  0.469789  0.651163  0.648795  1
  O  O16  1  0.916079  0.675508  0.960812  1
  O  O17  1  0.084233  0.324645  0.039212  1
  O  O18  1  0.097274  0.324343  0.623610  1
  O  O19  1  0.903174  0.675814  0.376229  1
  O  O20  1  0.876697  0.933385  0.732875  1
  O  O21  1  0.121052  0.066747  0.267012  1
