# generated using pymatgen
data_ErPa3FeO10
_symmetry_space_group_name_H-M   'P 1'
_cell_length_a   6.54727155
_cell_length_b   6.54727089
_cell_length_c   6.59335500
_cell_angle_alpha   99.73761286
_cell_angle_beta   99.43347398
_cell_angle_gamma   131.65295947
_symmetry_Int_Tables_number   1
_chemical_formula_structural   ErPa3FeO10
_chemical_formula_sum   'Er1 Pa3 Fe1 O10'
_cell_volume   192.93160039
_cell_formula_units_Z   1
loop_
 _symmetry_equiv_pos_site_id
 _symmetry_equiv_pos_as_xyz
  1  'x, y, z'
loop_
 _atom_site_type_symbol
 _atom_site_label
 _atom_site_symmetry_multiplicity
 _atom_site_fract_x
 _atom_site_fract_y
 _atom_site_fract_z
 _atom_site_occupancy
  Er  Er0  1  0.002387  0.995540  0.997928  1
  Pa  Pa1  1  0.794283  0.402375  0.196657  1
  Pa  Pa2  1  0.197865  0.599219  0.797085  1
  Pa  Pa3  1  0.606933  0.800419  0.407352  1
  Fe  Fe4  1  0.398741  0.204380  0.603121  1
  O  O5  1  0.755988  0.249983  0.495704  1
  O  O6  1  0.153742  0.457780  0.103764  1
  O  O7  1  0.545081  0.656065  0.699104  1
  O  O8  1  0.939807  0.840236  0.298783  1
  O  O9  1  0.355967  0.045660  0.901573  1
  O  O10  1  0.855913  0.545606  0.901573  1
  O  O11  1  0.245722  0.739716  0.495704  1
  O  O12  1  0.645985  0.950023  0.103764  1
  O  O13  1  0.043040  0.154024  0.699104  1
  O  O14  1  0.458546  0.358976  0.298783  1
