# generated using pymatgen
data_U3Cr2P6Ru7
_symmetry_space_group_name_H-M   'P 1'
_cell_length_a   3.84976000
_cell_length_b   10.89988800
_cell_length_c   12.90027200
_cell_angle_alpha   90.00000000
_cell_angle_beta   90.00000000
_cell_angle_gamma   90.00000000
_symmetry_Int_Tables_number   1
_chemical_formula_structural   U3Cr2P6Ru7
_chemical_formula_sum   'U6 Cr4 P12 Ru14'
_cell_volume   541.32060512
_cell_formula_units_Z   2
loop_
 _symmetry_equiv_pos_site_id
 _symmetry_equiv_pos_as_xyz
  1  'x, y, z'
loop_
 _atom_site_type_symbol
 _atom_site_label
 _atom_site_symmetry_multiplicity
 _atom_site_fract_x
 _atom_site_fract_y
 _atom_site_fract_z
 _atom_site_occupancy
  U  U0  1  0.751781  0.000000  0.470838  1
  U  U1  1  0.251781  0.500000  0.529162  1
  U  U2  1  0.251896  0.677623  0.793221  1
  U  U3  1  0.251896  0.322377  0.793221  1
  U  U4  1  0.751896  0.822377  0.206779  1
  U  U5  1  0.751896  0.177623  0.206779  1
  Cr  Cr6  1  0.252022  0.180399  0.998732  1
  Cr  Cr7  1  0.252022  0.819601  0.998732  1
  Cr  Cr8  1  0.752022  0.319601  0.001268  1
  Cr  Cr9  1  0.752022  0.680399  0.001268  1
  P  P10  1  0.251645  0.192009  0.384947  1
  P  P11  1  0.251645  0.807991  0.384947  1
  P  P12  1  0.751645  0.307991  0.615053  1
  P  P13  1  0.751645  0.692009  0.615053  1
  P  P14  1  0.252025  0.000000  0.109247  1
  P  P15  1  0.752025  0.500000  0.890753  1
  P  P16  1  0.251992  0.655834  0.113276  1
  P  P17  1  0.251992  0.344166  0.113276  1
  P  P18  1  0.751992  0.844166  0.886724  1
  P  P19  1  0.751992  0.155834  0.886724  1
  P  P20  1  0.251657  0.000000  0.655224  1
  P  P21  1  0.751657  0.500000  0.344776  1
  Ru  Ru22  1  0.752073  0.000000  0.007488  1
  Ru  Ru23  1  0.252073  0.500000  0.992512  1
  Ru  Ru24  1  0.251488  0.195169  0.567264  1
  Ru  Ru25  1  0.251488  0.804831  0.567264  1
  Ru  Ru26  1  0.751488  0.304831  0.432736  1
  Ru  Ru27  1  0.751488  0.695169  0.432736  1
  Ru  Ru28  1  0.251601  0.624216  0.288034  1
  Ru  Ru29  1  0.251601  0.375784  0.288034  1
  Ru  Ru30  1  0.751601  0.875784  0.711966  1
  Ru  Ru31  1  0.751601  0.124216  0.711966  1
  Ru  Ru32  1  0.251845  0.000000  0.843355  1
  Ru  Ru33  1  0.751845  0.500000  0.156645  1
  Ru  Ru34  1  0.252133  0.000000  0.296181  1
  Ru  Ru35  1  0.752133  0.500000  0.703819  1
