# generated using pymatgen
data_Th8Ti3Si16Mo9
_symmetry_space_group_name_H-M   'P 1'
_cell_length_a   7.06571860
_cell_length_b   7.06571879
_cell_length_c   13.19841399
_cell_angle_alpha   89.74629504
_cell_angle_beta   90.25370237
_cell_angle_gamma   89.82584774
_symmetry_Int_Tables_number   1
_chemical_formula_structural   Th8Ti3Si16Mo9
_chemical_formula_sum   'Th8 Ti3 Si16 Mo9'
_cell_volume   658.90664169
_cell_formula_units_Z   1
loop_
 _symmetry_equiv_pos_site_id
 _symmetry_equiv_pos_as_xyz
  1  'x, y, z'
loop_
 _atom_site_type_symbol
 _atom_site_label
 _atom_site_symmetry_multiplicity
 _atom_site_fract_x
 _atom_site_fract_y
 _atom_site_fract_z
 _atom_site_occupancy
  Th  Th0  1  0.337646  0.998762  0.470066  1
  Th  Th1  1  0.500396  0.832337  0.719767  1
  Th  Th2  1  0.493312  0.165587  0.218653  1
  Th  Th3  1  0.832337  0.500396  0.280233  1
  Th  Th4  1  0.165587  0.493312  0.781347  1
  Th  Th5  1  0.661307  0.002037  0.970433  1
  Th  Th6  1  0.998762  0.337646  0.529934  1
  Th  Th7  1  0.002037  0.661307  0.029567  1
  Ti  Ti8  1  0.167528  0.835998  0.247499  1
  Ti  Ti9  1  0.835998  0.167528  0.752501  1
  Ti  Ti10  1  0.668812  0.668812  0.500000  1
  Si  Si11  1  0.200157  0.118129  0.684504  1
  Si  Si12  1  0.387329  0.691900  0.937128  1
  Si  Si13  1  0.617405  0.303204  0.437449  1
  Si  Si14  1  0.691900  0.387329  0.062872  1
  Si  Si15  1  0.303204  0.617405  0.562551  1
  Si  Si16  1  0.800468  0.882144  0.188009  1
  Si  Si17  1  0.118129  0.200157  0.315496  1
  Si  Si18  1  0.882144  0.800468  0.811991  1
  Si  Si19  1  0.268393  0.979534  0.058191  1
  Si  Si20  1  0.531829  0.785602  0.313925  1
  Si  Si21  1  0.468644  0.215536  0.814156  1
  Si  Si22  1  0.785602  0.531829  0.686075  1
  Si  Si23  1  0.215536  0.468644  0.185844  1
  Si  Si24  1  0.717447  0.034496  0.564740  1
  Si  Si25  1  0.979534  0.268393  0.941809  1
  Si  Si26  1  0.034496  0.717447  0.435260  1
  Mo  Mo27  1  0.333703  0.333703  0.000000  1
  Mo  Mo28  1  0.175709  0.989989  0.866022  1
  Mo  Mo29  1  0.495832  0.675301  0.126361  1
  Mo  Mo30  1  0.502400  0.330680  0.624916  1
  Mo  Mo31  1  0.675301  0.495832  0.873639  1
  Mo  Mo32  1  0.330680  0.502400  0.375084  1
  Mo  Mo33  1  0.831471  0.998975  0.376424  1
  Mo  Mo34  1  0.989989  0.175709  0.133978  1
  Mo  Mo35  1  0.998975  0.831471  0.623576  1
