# generated using pymatgen
data_CePrHo4Ta2O14
_symmetry_space_group_name_H-M   'P 1'
_cell_length_a   6.50431456
_cell_length_b   6.50431438
_cell_length_c   7.59268491
_cell_angle_alpha   90.04582962
_cell_angle_beta   89.95417318
_cell_angle_gamma   108.99817645
_symmetry_Int_Tables_number   1
_chemical_formula_structural   CePrHo4Ta2O14
_chemical_formula_sum   'Ce1 Pr1 Ho4 Ta2 O14'
_cell_volume   303.71976347
_cell_formula_units_Z   1
loop_
 _symmetry_equiv_pos_site_id
 _symmetry_equiv_pos_as_xyz
  1  'x, y, z'
loop_
 _atom_site_type_symbol
 _atom_site_label
 _atom_site_symmetry_multiplicity
 _atom_site_fract_x
 _atom_site_fract_y
 _atom_site_fract_z
 _atom_site_occupancy
  Ce  Ce0  1  0.508963  0.508963  0.500000  1
  Pr  Pr1  1  0.488498  0.488498  0.000000  1
  Ho  Ho2  1  0.001133  0.533456  0.247446  1
  Ho  Ho3  1  0.998925  0.466463  0.745147  1
  Ho  Ho4  1  0.533456  0.001133  0.752554  1
  Ho  Ho5  1  0.466463  0.998925  0.254853  1
  Ta  Ta6  1  0.000540  0.000540  0.500000  1
  Ta  Ta7  1  0.998643  0.998643  0.000000  1
  O  O8  1  0.934418  0.065445  0.750182  1
  O  O9  1  0.065445  0.934418  0.249818  1
  O  O10  1  0.356082  0.644257  0.252277  1
  O  O11  1  0.644257  0.356082  0.747723  1
  O  O12  1  0.363189  0.637371  0.747606  1
  O  O13  1  0.637371  0.363189  0.252394  1
  O  O14  1  0.323236  0.072123  0.970678  1
  O  O15  1  0.677553  0.929672  0.470542  1
  O  O16  1  0.316194  0.062436  0.537515  1
  O  O17  1  0.683933  0.937471  0.037927  1
  O  O18  1  0.062436  0.316194  0.462485  1
  O  O19  1  0.937471  0.683933  0.962073  1
  O  O20  1  0.929672  0.677553  0.529458  1
  O  O21  1  0.072123  0.323236  0.029322  1
