# generated using pymatgen
data_Th5TlBi2C
_symmetry_space_group_name_H-M   'P 1'
_cell_length_a   9.46510900
_cell_length_b   9.46510877
_cell_length_c   6.52420700
_cell_angle_alpha   90.00000000
_cell_angle_beta   90.00000000
_cell_angle_gamma   119.98000143
_symmetry_Int_Tables_number   1
_chemical_formula_structural   Th5TlBi2C
_chemical_formula_sum   'Th10 Tl2 Bi4 C2'
_cell_volume   506.28734914
_cell_formula_units_Z   2
loop_
 _symmetry_equiv_pos_site_id
 _symmetry_equiv_pos_as_xyz
  1  'x, y, z'
loop_
 _atom_site_type_symbol
 _atom_site_label
 _atom_site_symmetry_multiplicity
 _atom_site_fract_x
 _atom_site_fract_y
 _atom_site_fract_z
 _atom_site_occupancy
  Th  Th0  1  0.335870  0.664130  0.500000  1
  Th  Th1  1  0.664130  0.335870  0.500000  1
  Th  Th2  1  0.664130  0.335870  0.000000  1
  Th  Th3  1  0.335870  0.664130  0.000000  1
  Th  Th4  1  0.217830  0.001114  0.750000  1
  Th  Th5  1  0.782170  0.998886  0.250000  1
  Th  Th6  1  0.001114  0.217830  0.750000  1
  Th  Th7  1  0.998886  0.782170  0.250000  1
  Th  Th8  1  0.779258  0.779258  0.750000  1
  Th  Th9  1  0.220742  0.220742  0.250000  1
  Tl  Tl10  1  0.398889  0.398889  0.750000  1
  Tl  Tl11  1  0.601111  0.601111  0.250000  1
  Bi  Bi12  1  0.601099  0.000282  0.750000  1
  Bi  Bi13  1  0.398901  0.999718  0.250000  1
  Bi  Bi14  1  0.000282  0.601099  0.750000  1
  Bi  Bi15  1  0.999718  0.398901  0.250000  1
  C  C16  1  0.000000  0.000000  0.500000  1
  C  C17  1  0.000000  0.000000  0.000000  1
