# generated using pymatgen
data_Nd8Sc12Si15Ag
_symmetry_space_group_name_H-M   'P 1'
_cell_length_a   7.26506140
_cell_length_b   7.50415954
_cell_length_c   14.29704929
_cell_angle_alpha   90.00812504
_cell_angle_beta   89.63335274
_cell_angle_gamma   90.23466050
_symmetry_Int_Tables_number   1
_chemical_formula_structural   Nd8Sc12Si15Ag
_chemical_formula_sum   'Nd8 Sc12 Si15 Ag1'
_cell_volume   779.42660197
_cell_formula_units_Z   1
loop_
 _symmetry_equiv_pos_site_id
 _symmetry_equiv_pos_as_xyz
  1  'x, y, z'
loop_
 _atom_site_type_symbol
 _atom_site_label
 _atom_site_symmetry_multiplicity
 _atom_site_fract_x
 _atom_site_fract_y
 _atom_site_fract_z
 _atom_site_occupancy
  Nd  Nd0  1  0.012088  0.173564  0.097860  1
  Nd  Nd1  1  0.987775  0.827918  0.903409  1
  Nd  Nd2  1  0.487411  0.674162  0.903361  1
  Nd  Nd3  1  0.989634  0.832702  0.597442  1
  Nd  Nd4  1  0.511953  0.326320  0.096741  1
  Nd  Nd5  1  0.008612  0.170882  0.398961  1
  Nd  Nd6  1  0.513046  0.324665  0.399678  1
  Nd  Nd7  1  0.493732  0.675898  0.600760  1
  Sc  Sc8  1  0.162002  0.497924  0.753921  1
  Sc  Sc9  1  0.838568  0.501539  0.250570  1
  Sc  Sc10  1  0.338823  0.997100  0.248199  1
  Sc  Sc11  1  0.664664  0.999513  0.751936  1
  Sc  Sc12  1  0.343078  0.171817  0.628188  1
  Sc  Sc13  1  0.665389  0.823700  0.373475  1
  Sc  Sc14  1  0.166128  0.675962  0.370805  1
  Sc  Sc15  1  0.670302  0.824668  0.124558  1
  Sc  Sc16  1  0.824432  0.325687  0.625637  1
  Sc  Sc17  1  0.328727  0.174413  0.875722  1
  Sc  Sc18  1  0.830491  0.323250  0.875754  1
  Sc  Sc19  1  0.168763  0.675957  0.125253  1
  Si  Si20  1  0.036911  0.127314  0.749826  1
  Si  Si21  1  0.964065  0.876840  0.249072  1
  Si  Si22  1  0.465190  0.622272  0.248214  1
  Si  Si23  1  0.536112  0.379075  0.752345  1
  Si  Si24  1  0.286650  0.880802  0.750913  1
  Si  Si25  1  0.710565  0.119768  0.248317  1
  Si  Si26  1  0.212943  0.379306  0.248986  1
  Si  Si27  1  0.790388  0.620118  0.751889  1
  Si  Si28  1  0.838754  0.541307  0.458288  1
  Si  Si29  1  0.343013  0.959788  0.461115  1
  Si  Si30  1  0.848028  0.536833  0.039384  1
  Si  Si31  1  0.654272  0.037381  0.538293  1
  Si  Si32  1  0.151068  0.463437  0.961327  1
  Si  Si33  1  0.652268  0.036721  0.960139  1
  Si  Si34  1  0.346642  0.962980  0.040006  1
  Ag  Ag35  1  0.157509  0.458417  0.539655  1
