# generated using pymatgen
data_TaNb5Al4PdPtC2
_symmetry_space_group_name_H-M   'P 1'
_cell_length_a   8.38803285
_cell_length_b   8.38996104
_cell_length_c   8.38803300
_cell_angle_alpha   59.99240212
_cell_angle_beta   60.01520116
_cell_angle_gamma   59.99239943
_symmetry_Int_Tables_number   1
_chemical_formula_structural   TaNb5Al4PdPtC2
_chemical_formula_sum   'Ta2 Nb10 Al8 Pd2 Pt2 C4'
_cell_volume   417.41222314
_cell_formula_units_Z   2
loop_
 _symmetry_equiv_pos_site_id
 _symmetry_equiv_pos_as_xyz
  1  'x, y, z'
loop_
 _atom_site_type_symbol
 _atom_site_label
 _atom_site_symmetry_multiplicity
 _atom_site_fract_x
 _atom_site_fract_y
 _atom_site_fract_z
 _atom_site_occupancy
  Ta  Ta0  1  0.681489  0.317934  0.682220  1
  Ta  Ta1  1  0.931643  0.567780  0.932066  1
  Nb  Nb2  1  0.567866  0.932740  0.567129  1
  Nb  Nb3  1  0.317643  0.682152  0.682840  1
  Nb  Nb4  1  0.683587  0.316499  0.316888  1
  Nb  Nb5  1  0.317734  0.682871  0.317260  1
  Nb  Nb6  1  0.682986  0.682961  0.316952  1
  Nb  Nb7  1  0.317451  0.316655  0.683555  1
  Nb  Nb8  1  0.567662  0.566445  0.933345  1
  Nb  Nb9  1  0.932636  0.567160  0.567848  1
  Nb  Nb10  1  0.566975  0.933112  0.933501  1
  Nb  Nb11  1  0.932901  0.933048  0.567039  1
  Al  Al12  1  0.916343  0.915462  0.915337  1
  Al  Al13  1  0.997140  0.334663  0.334538  1
  Al  Al14  1  0.334076  0.997117  0.334922  1
  Al  Al15  1  0.333730  0.334913  0.997446  1
  Al  Al16  1  0.916091  0.252554  0.915087  1
  Al  Al17  1  0.916115  0.915078  0.252883  1
  Al  Al18  1  0.253181  0.915267  0.915428  1
  Al  Al19  1  0.333875  0.334572  0.334733  1
  Pd  Pd20  1  0.124189  0.624540  0.124192  1
  Pd  Pd21  1  0.122922  0.125808  0.625460  1
  Pt  Pt22  1  0.124199  0.127064  0.124203  1
  Pt  Pt23  1  0.625466  0.125797  0.122936  1
  C  C24  1  0.625527  0.623322  0.625549  1
  C  C25  1  0.124397  0.624451  0.626678  1
  C  C26  1  0.625529  0.125575  0.625545  1
  C  C27  1  0.626649  0.624455  0.124425  1
