# generated using pymatgen
data_Er6Mn4AlOs7
_symmetry_space_group_name_H-M   'P 1'
_cell_length_a   5.29768593
_cell_length_b   5.31376242
_cell_length_c   12.99105638
_cell_angle_alpha   89.90790626
_cell_angle_beta   89.85275342
_cell_angle_gamma   120.29571549
_symmetry_Int_Tables_number   1
_chemical_formula_structural   Er6Mn4AlOs7
_chemical_formula_sum   'Er6 Mn4 Al1 Os7'
_cell_volume   315.76042671
_cell_formula_units_Z   1
loop_
 _symmetry_equiv_pos_site_id
 _symmetry_equiv_pos_as_xyz
  1  'x, y, z'
loop_
 _atom_site_type_symbol
 _atom_site_label
 _atom_site_symmetry_multiplicity
 _atom_site_fract_x
 _atom_site_fract_y
 _atom_site_fract_z
 _atom_site_occupancy
  Er  Er0  1  0.339333  0.672495  0.920784  1
  Er  Er1  1  0.997037  0.999312  0.251422  1
  Er  Er2  1  0.665025  0.334206  0.580670  1
  Er  Er3  1  0.326970  0.659949  0.662749  1
  Er  Er4  1  0.002959  0.000878  0.002169  1
  Er  Er5  1  0.669707  0.333158  0.331976  1
  Mn  Mn6  1  0.496372  0.499626  0.125692  1
  Mn  Mn7  1  0.172103  0.838553  0.456997  1
  Mn  Mn8  1  0.832943  0.165292  0.792032  1
  Mn  Mn9  1  0.497579  0.996853  0.126025  1
  Al  Al10  1  0.334083  0.165730  0.792938  1
  Os  Os11  1  0.170166  0.338879  0.455636  1
  Os  Os12  1  0.833000  0.662833  0.792865  1
  Os  Os13  1  0.333179  0.668563  0.287678  1
  Os  Os14  1  0.996956  0.993921  0.627720  1
  Os  Os15  1  0.666676  0.334602  0.959843  1
  Os  Os16  1  0.991313  0.495601  0.123328  1
  Os  Os17  1  0.674601  0.839553  0.459474  1
