# generated using pymatgen
data_Ho3InIr8
_symmetry_space_group_name_H-M   'P 1'
_cell_length_a   5.34200500
_cell_length_b   5.34200422
_cell_length_c   8.65864200
_cell_angle_alpha   90.00000000
_cell_angle_beta   90.00000000
_cell_angle_gamma   119.99998627
_symmetry_Int_Tables_number   1
_chemical_formula_structural   Ho3InIr8
_chemical_formula_sum   'Ho3 In1 Ir8'
_cell_volume   213.98778938
_cell_formula_units_Z   1
loop_
 _symmetry_equiv_pos_site_id
 _symmetry_equiv_pos_as_xyz
  1  'x, y, z'
loop_
 _atom_site_type_symbol
 _atom_site_label
 _atom_site_symmetry_multiplicity
 _atom_site_fract_x
 _atom_site_fract_y
 _atom_site_fract_z
 _atom_site_occupancy
  Ho  Ho0  1  0.333333  0.666667  0.080400  1
  Ho  Ho1  1  0.666667  0.333333  0.559113  1
  Ho  Ho2  1  0.666667  0.333333  0.930605  1
  In  In3  1  0.333333  0.666667  0.439884  1
  Ir  Ir4  1  0.000000  0.000000  0.996610  1
  Ir  Ir5  1  0.000000  0.000000  0.498313  1
  Ir  Ir6  1  0.830284  0.660569  0.248593  1
  Ir  Ir7  1  0.170598  0.829402  0.749765  1
  Ir  Ir8  1  0.658804  0.829402  0.749765  1
  Ir  Ir9  1  0.339431  0.169716  0.248593  1
  Ir  Ir10  1  0.830284  0.169716  0.248593  1
  Ir  Ir11  1  0.170598  0.341196  0.749765  1
