# generated using pymatgen
data_TbSm5Zn4Pt13
_symmetry_space_group_name_H-M   'P 1'
_cell_length_a   8.35522097
_cell_length_b   8.35522097
_cell_length_c   8.35522100
_cell_angle_alpha   109.49381607
_cell_angle_beta   109.45992058
_cell_angle_gamma   109.45992802
_symmetry_Int_Tables_number   1
_chemical_formula_structural   TbSm5Zn4Pt13
_chemical_formula_sum   'Tb1 Sm5 Zn4 Pt13'
_cell_volume   449.00572480
_cell_formula_units_Z   1
loop_
 _symmetry_equiv_pos_site_id
 _symmetry_equiv_pos_as_xyz
  1  'x, y, z'
loop_
 _atom_site_type_symbol
 _atom_site_label
 _atom_site_symmetry_multiplicity
 _atom_site_fract_x
 _atom_site_fract_y
 _atom_site_fract_z
 _atom_site_occupancy
  Tb  Tb0  1  0.000000  0.696464  0.696464  1
  Sm  Sm1  1  0.698843  0.698699  0.999857  1
  Sm  Sm2  1  0.301157  0.999857  0.301014  1
  Sm  Sm3  1  0.000000  0.301225  0.301225  1
  Sm  Sm4  1  0.301157  0.301014  0.999857  1
  Sm  Sm5  1  0.698843  0.999857  0.698699  1
  Zn  Zn6  1  0.000000  0.000278  0.500566  1
  Zn  Zn7  1  0.000000  0.500566  0.000278  1
  Zn  Zn8  1  0.499712  0.000278  0.000278  1
  Zn  Zn9  1  0.500288  0.500566  0.500566  1
  Pt  Pt10  1  0.330541  0.330383  0.660924  1
  Pt  Pt11  1  0.669459  0.999842  0.330383  1
  Pt  Pt12  1  0.000000  0.668924  0.332271  1
  Pt  Pt13  1  0.669459  0.330383  0.999842  1
  Pt  Pt14  1  0.330541  0.660924  0.330383  1
  Pt  Pt15  1  0.000000  0.332271  0.668924  1
  Pt  Pt16  1  0.329459  0.670102  0.999561  1
  Pt  Pt17  1  0.329459  0.999561  0.670102  1
  Pt  Pt18  1  0.663346  0.332271  0.332271  1
  Pt  Pt19  1  0.670541  0.670102  0.340645  1
  Pt  Pt20  1  0.670541  0.340645  0.670102  1
  Pt  Pt21  1  0.336654  0.668924  0.668924  1
  Pt  Pt22  1  0.000000  0.996866  0.996866  1
