# generated using pymatgen
data_AlV12SiPt2
_symmetry_space_group_name_H-M   'P 1'
_cell_length_a   4.77575100
_cell_length_b   4.77356300
_cell_length_c   9.59034600
_cell_angle_alpha   90.00000000
_cell_angle_beta   90.00000000
_cell_angle_gamma   90.00000000
_symmetry_Int_Tables_number   1
_chemical_formula_structural   AlV12SiPt2
_chemical_formula_sum   'Al1 V12 Si1 Pt2'
_cell_volume   218.63445780
_cell_formula_units_Z   1
loop_
 _symmetry_equiv_pos_site_id
 _symmetry_equiv_pos_as_xyz
  1  'x, y, z'
loop_
 _atom_site_type_symbol
 _atom_site_label
 _atom_site_symmetry_multiplicity
 _atom_site_fract_x
 _atom_site_fract_y
 _atom_site_fract_z
 _atom_site_occupancy
  Al  Al0  1  0.500000  0.500000  0.001082  1
  V  V1  1  0.000000  0.500000  0.126592  1
  V  V2  1  0.000000  0.500000  0.624818  1
  V  V3  1  0.500000  0.249960  0.751824  1
  V  V4  1  0.500000  0.245150  0.249504  1
  V  V5  1  0.751475  0.000000  0.004554  1
  V  V6  1  0.751047  0.000000  0.493848  1
  V  V7  1  0.000000  0.500000  0.868860  1
  V  V8  1  0.000000  0.500000  0.379848  1
  V  V9  1  0.500000  0.750040  0.751824  1
  V  V10  1  0.500000  0.754850  0.249504  1
  V  V11  1  0.248525  0.000000  0.004554  1
  V  V12  1  0.248953  0.000000  0.493848  1
  Si  Si13  1  0.000000  0.000000  0.249327  1
  Pt  Pt14  1  0.500000  0.500000  0.500956  1
  Pt  Pt15  1  0.000000  0.000000  0.749058  1
