# generated using pymatgen
data_Ce2Tm7Nb11Ge16
_symmetry_space_group_name_H-M   'P 1'
_cell_length_a   7.04074780
_cell_length_b   7.20586553
_cell_length_c   13.65942268
_cell_angle_alpha   89.92273536
_cell_angle_beta   90.08147209
_cell_angle_gamma   89.69391829
_symmetry_Int_Tables_number   1
_chemical_formula_structural   Ce2Tm7Nb11Ge16
_chemical_formula_sum   'Ce2 Tm7 Nb11 Ge16'
_cell_volume   692.99523841
_cell_formula_units_Z   1
loop_
 _symmetry_equiv_pos_site_id
 _symmetry_equiv_pos_as_xyz
  1  'x, y, z'
loop_
 _atom_site_type_symbol
 _atom_site_label
 _atom_site_symmetry_multiplicity
 _atom_site_fract_x
 _atom_site_fract_y
 _atom_site_fract_z
 _atom_site_occupancy
  Ce  Ce0  1  0.002779  0.325562  0.906728  1
  Ce  Ce1  1  0.502256  0.172893  0.590816  1
  Tm  Tm2  1  0.495509  0.825321  0.098552  1
  Tm  Tm3  1  0.993778  0.674876  0.403899  1
  Tm  Tm4  1  0.007319  0.325057  0.591957  1
  Tm  Tm5  1  0.504562  0.179042  0.903107  1
  Tm  Tm6  1  0.494707  0.825334  0.405033  1
  Tm  Tm7  1  0.994829  0.674158  0.101520  1
  Tm  Tm8  1  0.843728  0.830944  0.878342  1
  Nb  Nb9  1  0.344009  0.668723  0.623770  1
  Nb  Nb10  1  0.655251  0.332217  0.130167  1
  Nb  Nb11  1  0.157693  0.170341  0.373582  1
  Nb  Nb12  1  0.161108  0.169797  0.126867  1
  Nb  Nb13  1  0.658669  0.329527  0.373255  1
  Nb  Nb14  1  0.338875  0.668912  0.871641  1
  Nb  Nb15  1  0.840297  0.827313  0.624612  1
  Nb  Nb16  1  0.171469  0.992963  0.745870  1
  Nb  Nb17  1  0.665227  0.507934  0.745150  1
  Nb  Nb18  1  0.332927  0.489512  0.250938  1
  Nb  Nb19  1  0.833067  0.013304  0.252138  1
  Ge  Ge20  1  0.664256  0.533181  0.961865  1
  Ge  Ge21  1  0.170724  0.957947  0.540054  1
  Ge  Ge22  1  0.821536  0.041049  0.051394  1
  Ge  Ge23  1  0.322207  0.464273  0.455295  1
  Ge  Ge24  1  0.323431  0.461981  0.044001  1
  Ge  Ge25  1  0.825253  0.037276  0.456433  1
  Ge  Ge26  1  0.196689  0.960068  0.961601  1
  Ge  Ge27  1  0.679563  0.539738  0.539394  1
  Ge  Ge28  1  0.306634  0.361989  0.748317  1
  Ge  Ge29  1  0.807645  0.140978  0.745775  1
  Ge  Ge30  1  0.193551  0.861155  0.251429  1
  Ge  Ge31  1  0.691988  0.640116  0.252196  1
  Ge  Ge32  1  0.043908  0.620867  0.745610  1
  Ge  Ge33  1  0.537713  0.875815  0.746571  1
  Ge  Ge34  1  0.457329  0.121305  0.251683  1
  Ge  Ge35  1  0.959516  0.378532  0.250437  1
