# generated using pymatgen
data_YEr3Tm2(RuI3)2
_symmetry_space_group_name_H-M   'P 1'
_cell_length_a   4.20078000
_cell_length_b   8.82151424
_cell_length_c   12.23118623
_cell_angle_alpha   86.11989924
_cell_angle_beta   90.00000000
_cell_angle_gamma   90.00000000
_symmetry_Int_Tables_number   1
_chemical_formula_structural   YEr3Tm2(RuI3)2
_chemical_formula_sum   'Y1 Er3 Tm2 Ru2 I6'
_cell_volume   452.21508050
_cell_formula_units_Z   1
loop_
 _symmetry_equiv_pos_site_id
 _symmetry_equiv_pos_as_xyz
  1  'x, y, z'
loop_
 _atom_site_type_symbol
 _atom_site_label
 _atom_site_symmetry_multiplicity
 _atom_site_fract_x
 _atom_site_fract_y
 _atom_site_fract_z
 _atom_site_occupancy
  Y  Y0  1  0.750000  0.738945  0.103360  1
  Er  Er1  1  0.750000  0.098983  0.685920  1
  Er  Er2  1  0.250000  0.901776  0.314359  1
  Er  Er3  1  0.250000  0.257267  0.896737  1
  Tm  Tm4  1  0.750000  0.130510  0.126194  1
  Tm  Tm5  1  0.250000  0.869887  0.873413  1
  Ru  Ru6  1  0.750000  0.052396  0.907766  1
  Ru  Ru7  1  0.250000  0.949542  0.091713  1
  I  I8  1  0.250000  0.353349  0.636030  1
  I  I9  1  0.750000  0.646986  0.364492  1
  I  I10  1  0.750000  0.141923  0.392787  1
  I  I11  1  0.250000  0.858189  0.607318  1
  I  I12  1  0.250000  0.426299  0.133179  1
  I  I13  1  0.750000  0.573949  0.866732  1
