# generated using pymatgen
data_Gd6RhI10
_symmetry_space_group_name_H-M   'P 1'
_cell_length_a   7.84215296
_cell_length_b   9.84831056
_cell_length_c   9.82099939
_cell_angle_alpha   106.73833638
_cell_angle_beta   96.74229247
_cell_angle_gamma   104.69897042
_symmetry_Int_Tables_number   1
_chemical_formula_structural   Gd6RhI10
_chemical_formula_sum   'Gd6 Rh1 I10'
_cell_volume   687.56981754
_cell_formula_units_Z   1
loop_
 _symmetry_equiv_pos_site_id
 _symmetry_equiv_pos_as_xyz
  1  'x, y, z'
loop_
 _atom_site_type_symbol
 _atom_site_label
 _atom_site_symmetry_multiplicity
 _atom_site_fract_x
 _atom_site_fract_y
 _atom_site_fract_z
 _atom_site_occupancy
  Gd  Gd0  1  0.532243  0.212134  0.414065  1
  Gd  Gd1  1  0.467757  0.787866  0.585935  1
  Gd  Gd2  1  0.147025  0.372512  0.329463  1
  Gd  Gd3  1  0.852975  0.627488  0.670537  1
  Gd  Gd4  1  0.615030  0.544362  0.264475  1
  Gd  Gd5  1  0.384970  0.455638  0.735525  1
  Rh  Rh6  1  0.500000  0.500000  0.500000  1
  I  I7  1  0.150344  0.049104  0.227633  1
  I  I8  1  0.849656  0.950896  0.772367  1
  I  I9  1  0.244729  0.414051  0.038795  1
  I  I10  1  0.755271  0.585949  0.961205  1
  I  I11  1  0.722164  0.246430  0.154445  1
  I  I12  1  0.277836  0.753570  0.845555  1
  I  I13  1  0.044196  0.682815  0.407880  1
  I  I14  1  0.955804  0.317185  0.592120  1
  I  I15  1  0.413199  0.125556  0.679886  1
  I  I16  1  0.586801  0.874444  0.320114  1
