# generated using pymatgen
data_Ca3Sc5(Si4Ru3)4
_symmetry_space_group_name_H-M   'P 1'
_cell_length_a   10.03083428
_cell_length_b   10.03516210
_cell_length_c   13.63289792
_cell_angle_alpha   53.23505500
_cell_angle_beta   53.09932050
_cell_angle_gamma   31.04136336
_symmetry_Int_Tables_number   1
_chemical_formula_structural   Ca3Sc5(Si4Ru3)4
_chemical_formula_sum   'Ca3 Sc5 Si16 Ru12'
_cell_volume   553.99062209
_cell_formula_units_Z   1
loop_
 _symmetry_equiv_pos_site_id
 _symmetry_equiv_pos_as_xyz
  1  'x, y, z'
loop_
 _atom_site_type_symbol
 _atom_site_label
 _atom_site_symmetry_multiplicity
 _atom_site_fract_x
 _atom_site_fract_y
 _atom_site_fract_z
 _atom_site_occupancy
  Ca  Ca0  1  0.308771  0.551988  0.642719  1
  Ca  Ca1  1  0.445815  0.694591  0.858151  1
  Ca  Ca2  1  0.690325  0.447874  0.357191  1
  Sc  Sc3  1  0.556979  0.293370  0.148137  1
  Sc  Sc4  1  0.041610  0.286517  0.638822  1
  Sc  Sc5  1  0.713661  0.959199  0.862062  1
  Sc  Sc6  1  0.960618  0.710325  0.360961  1
  Sc  Sc7  1  0.288177  0.039687  0.138901  1
  Si  Si8  1  0.867068  0.131109  0.248443  1
  Si  Si9  1  0.128372  0.872300  0.751050  1
  Si  Si10  1  0.375515  0.623015  0.247476  1
  Si  Si11  1  0.629096  0.371629  0.750370  1
  Si  Si12  1  0.981494  0.247730  0.894716  1
  Si  Si13  1  0.760728  0.009515  0.608082  1
  Si  Si14  1  0.018115  0.754778  0.108640  1
  Si  Si15  1  0.239958  0.991707  0.388757  1
  Si  Si16  1  0.573337  0.082284  0.069270  1
  Si  Si17  1  0.917705  0.426216  0.433086  1
  Si  Si18  1  0.426166  0.922293  0.930681  1
  Si  Si19  1  0.080691  0.574264  0.567065  1
  Si  Si20  1  0.383566  0.140283  0.401127  1
  Si  Si21  1  0.863631  0.612978  0.097064  1
  Si  Si22  1  0.613998  0.863942  0.595226  1
  Si  Si23  1  0.135739  0.387473  0.904683  1
  Ru  Ru24  1  0.645566  0.839019  0.282930  1
  Ru  Ru25  1  0.163507  0.359150  0.217418  1
  Ru  Ru26  1  0.747195  0.498146  0.064832  1
  Ru  Ru27  1  0.842209  0.644003  0.781721  1
  Ru  Ru28  1  0.908329  0.130397  0.588871  1
  Ru  Ru29  1  0.860326  0.099822  0.914897  1
  Ru  Ru30  1  0.093052  0.868207  0.408636  1
  Ru  Ru31  1  0.132802  0.904154  0.088939  1
  Ru  Ru32  1  0.250652  0.500164  0.935043  1
  Ru  Ru33  1  0.501652  0.748225  0.566805  1
  Ru  Ru34  1  0.496480  0.253153  0.431008  1
  Ru  Ru35  1  0.357096  0.160492  0.716222  1
