# generated using pymatgen
data_Ti5FeCo10
_symmetry_space_group_name_H-M   'P 1'
_cell_length_a   3.92346900
_cell_length_b   5.01117451
_cell_length_c   9.82829330
_cell_angle_alpha   91.32963029
_cell_angle_beta   90.00000000
_cell_angle_gamma   90.00000000
_symmetry_Int_Tables_number   1
_chemical_formula_structural   Ti5FeCo10
_chemical_formula_sum   'Ti5 Fe1 Co10'
_cell_volume   193.18389074
_cell_formula_units_Z   1
loop_
 _symmetry_equiv_pos_site_id
 _symmetry_equiv_pos_as_xyz
  1  'x, y, z'
loop_
 _atom_site_type_symbol
 _atom_site_label
 _atom_site_symmetry_multiplicity
 _atom_site_fract_x
 _atom_site_fract_y
 _atom_site_fract_z
 _atom_site_occupancy
  Ti  Ti0  1  0.000000  0.500000  0.500000  1
  Ti  Ti1  1  0.500000  0.332150  0.140583  1
  Ti  Ti2  1  0.500000  0.667850  0.859417  1
  Ti  Ti3  1  0.500000  0.840912  0.355129  1
  Ti  Ti4  1  0.500000  0.159088  0.644871  1
  Fe  Fe5  1  0.000000  0.000000  0.000000  1
  Co  Co6  1  0.000000  0.000000  0.500000  1
  Co  Co7  1  0.000000  0.500000  0.000000  1
  Co  Co8  1  0.000000  0.098132  0.245997  1
  Co  Co9  1  0.000000  0.901868  0.754003  1
  Co  Co10  1  0.000000  0.601284  0.250956  1
  Co  Co11  1  0.000000  0.398716  0.749044  1
  Co  Co12  1  0.500000  0.321895  0.389988  1
  Co  Co13  1  0.500000  0.678105  0.610012  1
  Co  Co14  1  0.500000  0.820155  0.108016  1
  Co  Co15  1  0.500000  0.179845  0.891984  1
