# generated using pymatgen
data_Dy4TcRu6W
_symmetry_space_group_name_H-M   'P 1'
_cell_length_a   5.55607759
_cell_length_b   5.17277583
_cell_length_c   9.08681100
_cell_angle_alpha   90.00000000
_cell_angle_beta   90.00000000
_cell_angle_gamma   122.70523320
_symmetry_Int_Tables_number   1
_chemical_formula_structural   Dy4TcRu6W
_chemical_formula_sum   'Dy4 Tc1 Ru6 W1'
_cell_volume   219.75444667
_cell_formula_units_Z   1
loop_
 _symmetry_equiv_pos_site_id
 _symmetry_equiv_pos_as_xyz
  1  'x, y, z'
loop_
 _atom_site_type_symbol
 _atom_site_label
 _atom_site_symmetry_multiplicity
 _atom_site_fract_x
 _atom_site_fract_y
 _atom_site_fract_z
 _atom_site_occupancy
  Dy  Dy0  1  0.671496  0.344023  0.563900  1
  Dy  Dy1  1  0.333552  0.666459  0.432318  1
  Dy  Dy2  1  0.333552  0.666459  0.067682  1
  Dy  Dy3  1  0.671496  0.344023  0.936100  1
  Tc  Tc4  1  0.827644  0.656216  0.250000  1
  Ru  Ru5  1  0.005320  0.008678  0.499604  1
  Ru  Ru6  1  0.005320  0.008678  0.000396  1
  Ru  Ru7  1  0.169410  0.819030  0.750000  1
  Ru  Ru8  1  0.650325  0.818563  0.750000  1
  Ru  Ru9  1  0.833465  0.173084  0.250000  1
  Ru  Ru10  1  0.338048  0.171964  0.250000  1
  W  W11  1  0.160370  0.322826  0.750000  1
