# generated using pymatgen
data_Pr5Nd5(Al2Ru3)2
_symmetry_space_group_name_H-M   'P 1'
_cell_length_a   8.58517271
_cell_length_b   8.58517190
_cell_length_c   8.58636872
_cell_angle_alpha   109.38518935
_cell_angle_beta   109.50046315
_cell_angle_gamma   109.52240426
_symmetry_Int_Tables_number   1
_chemical_formula_structural   Pr5Nd5(Al2Ru3)2
_chemical_formula_sum   'Pr5 Nd5 Al4 Ru6'
_cell_volume   487.20885737
_cell_formula_units_Z   1
loop_
 _symmetry_equiv_pos_site_id
 _symmetry_equiv_pos_as_xyz
  1  'x, y, z'
loop_
 _atom_site_type_symbol
 _atom_site_label
 _atom_site_symmetry_multiplicity
 _atom_site_fract_x
 _atom_site_fract_y
 _atom_site_fract_z
 _atom_site_occupancy
  Pr  Pr0  1  0.815228  0.065228  0.750000  1
  Pr  Pr1  1  0.215370  0.215046  0.215280  1
  Pr  Pr2  1  0.499766  0.000089  0.284720  1
  Pr  Pr3  1  0.285353  0.500235  0.000167  1
  Pr  Pr4  1  0.000069  0.285186  0.499833  1
  Nd  Nd5  1  0.249631  0.684231  0.434306  1
  Nd  Nd6  1  0.749925  0.815326  0.065694  1
  Nd  Nd7  1  0.434257  0.250109  0.684423  1
  Nd  Nd8  1  0.684441  0.434441  0.250000  1
  Nd  Nd9  1  0.065686  0.749834  0.815577  1
  Al  Al10  1  0.590086  0.589846  0.590267  1
  Al  Al11  1  0.499579  0.999819  0.909733  1
  Al  Al12  1  0.909683  0.500738  0.000380  1
  Al  Al13  1  0.000358  0.909303  0.499620  1
  Ru  Ru14  1  0.250473  0.116867  0.866951  1
  Ru  Ru15  1  0.749916  0.383522  0.633049  1
  Ru  Ru16  1  0.867175  0.250492  0.117701  1
  Ru  Ru17  1  0.116839  0.866838  0.250000  1
  Ru  Ru18  1  0.632791  0.749475  0.382299  1
  Ru  Ru19  1  0.383374  0.633374  0.750000  1
