# generated using pymatgen
data_Lu2Fe2Te
_symmetry_space_group_name_H-M   'P 1'
_cell_length_a   3.93021400
_cell_length_b   3.93021386
_cell_length_c   15.85447900
_cell_angle_alpha   90.00000000
_cell_angle_beta   90.00000000
_cell_angle_gamma   120.00000121
_symmetry_Int_Tables_number   1
_chemical_formula_structural   Lu2Fe2Te
_chemical_formula_sum   'Lu4 Fe4 Te2'
_cell_volume   212.08745575
_cell_formula_units_Z   2
loop_
 _symmetry_equiv_pos_site_id
 _symmetry_equiv_pos_as_xyz
  1  'x, y, z'
loop_
 _atom_site_type_symbol
 _atom_site_label
 _atom_site_symmetry_multiplicity
 _atom_site_fract_x
 _atom_site_fract_y
 _atom_site_fract_z
 _atom_site_occupancy
  Lu  Lu0  1  0.000000  0.000000  0.116273  1
  Lu  Lu1  1  0.000000  0.000000  0.383727  1
  Lu  Lu2  1  0.000000  0.000000  0.616273  1
  Lu  Lu3  1  0.000000  0.000000  0.883727  1
  Fe  Fe4  1  0.333334  0.666667  0.001346  1
  Fe  Fe5  1  0.333334  0.666667  0.498654  1
  Fe  Fe6  1  0.666666  0.333334  0.501346  1
  Fe  Fe7  1  0.666666  0.333334  0.998654  1
  Te  Te8  1  0.666666  0.333334  0.250000  1
  Te  Te9  1  0.333334  0.666667  0.750000  1
