# generated using pymatgen
data_Dy2Zn14Rh3
_symmetry_space_group_name_H-M   'P 1'
_cell_length_a   6.80557610
_cell_length_b   6.80557548
_cell_length_c   6.80557603
_cell_angle_alpha   97.92596127
_cell_angle_beta   82.07404143
_cell_angle_gamma   97.92595513
_symmetry_Int_Tables_number   1
_chemical_formula_structural   Dy2Zn14Rh3
_chemical_formula_sum   'Dy2 Zn14 Rh3'
_cell_volume   306.93377471
_cell_formula_units_Z   1
loop_
 _symmetry_equiv_pos_site_id
 _symmetry_equiv_pos_as_xyz
  1  'x, y, z'
loop_
 _atom_site_type_symbol
 _atom_site_label
 _atom_site_symmetry_multiplicity
 _atom_site_fract_x
 _atom_site_fract_y
 _atom_site_fract_z
 _atom_site_occupancy
  Dy  Dy0  1  0.326733  0.673267  0.326732  1
  Dy  Dy1  1  0.673268  0.326732  0.673267  1
  Zn  Zn2  1  0.296401  0.296400  0.000000  1
  Zn  Zn3  1  0.703598  0.703598  0.000000  1
  Zn  Zn4  1  0.100052  0.899949  0.100051  1
  Zn  Zn5  1  0.648225  0.351776  0.159667  1
  Zn  Zn6  1  0.000000  0.296401  0.296401  1
  Zn  Zn7  1  0.703600  0.000000  0.296400  1
  Zn  Zn8  1  0.351776  0.159667  0.351776  1
  Zn  Zn9  1  0.840332  0.648223  0.351776  1
  Zn  Zn10  1  0.159667  0.351776  0.648224  1
  Zn  Zn11  1  0.648225  0.840333  0.648224  1
  Zn  Zn12  1  0.000000  0.703599  0.703599  1
  Zn  Zn13  1  0.296401  0.000000  0.703598  1
  Zn  Zn14  1  0.351776  0.648225  0.840333  1
  Zn  Zn15  1  0.899949  0.100052  0.899948  1
  Rh  Rh16  1  0.500000  0.999999  0.000000  1
  Rh  Rh17  1  0.999999  0.500000  0.000001  1
  Rh  Rh18  1  0.000000  0.000001  0.500000  1
