# generated using pymatgen
data_Y15Th(ZnCo)4
_symmetry_space_group_name_H-M   'P 1'
_cell_length_a   9.40277778
_cell_length_b   9.40277720
_cell_length_c   9.40277737
_cell_angle_alpha   60.03048558
_cell_angle_beta   60.03047949
_cell_angle_gamma   60.03048723
_symmetry_Int_Tables_number   1
_chemical_formula_structural   Y15Th(ZnCo)4
_chemical_formula_sum   'Y15 Th1 Zn4 Co4'
_cell_volume   588.23854023
_cell_formula_units_Z   1
loop_
 _symmetry_equiv_pos_site_id
 _symmetry_equiv_pos_as_xyz
  1  'x, y, z'
loop_
 _atom_site_type_symbol
 _atom_site_label
 _atom_site_symmetry_multiplicity
 _atom_site_fract_x
 _atom_site_fract_y
 _atom_site_fract_z
 _atom_site_occupancy
  Y  Y0  1  0.602232  0.602232  0.194581  1
  Y  Y1  1  0.602232  0.194581  0.602232  1
  Y  Y2  1  0.194581  0.602232  0.602232  1
  Y  Y3  1  0.059478  0.440855  0.440855  1
  Y  Y4  1  0.440528  0.059821  0.059821  1
  Y  Y5  1  0.440855  0.059478  0.440855  1
  Y  Y6  1  0.059821  0.440528  0.059821  1
  Y  Y7  1  0.440855  0.440855  0.059478  1
  Y  Y8  1  0.059821  0.059821  0.440528  1
  Y  Y9  1  0.189046  0.814168  0.814168  1
  Y  Y10  1  0.811982  0.188763  0.188763  1
  Y  Y11  1  0.814168  0.189046  0.814168  1
  Y  Y12  1  0.188763  0.811982  0.188763  1
  Y  Y13  1  0.814168  0.814168  0.189046  1
  Y  Y14  1  0.188763  0.188763  0.811982  1
  Th  Th15  1  0.593385  0.593385  0.593385  1
  Zn  Zn16  1  0.825299  0.825299  0.825299  1
  Zn  Zn17  1  0.827497  0.827497  0.514597  1
  Zn  Zn18  1  0.827497  0.514597  0.827497  1
  Zn  Zn19  1  0.514597  0.827497  0.827497  1
  Co  Co20  1  0.392841  0.392841  0.392841  1
  Co  Co21  1  0.394756  0.394756  0.822079  1
  Co  Co22  1  0.394756  0.822079  0.394756  1
  Co  Co23  1  0.822079  0.394756  0.394756  1
