# generated using pymatgen
data_Tb4Al2ZnGaPt4
_symmetry_space_group_name_H-M   'P 1'
_cell_length_a   4.44144300
_cell_length_b   6.86431179
_cell_length_c   7.81434939
_cell_angle_alpha   89.66046152
_cell_angle_beta   90.00000000
_cell_angle_gamma   90.00000000
_symmetry_Int_Tables_number   1
_chemical_formula_structural   Tb4Al2ZnGaPt4
_chemical_formula_sum   'Tb4 Al2 Zn1 Ga1 Pt4'
_cell_volume   238.23539957
_cell_formula_units_Z   1
loop_
 _symmetry_equiv_pos_site_id
 _symmetry_equiv_pos_as_xyz
  1  'x, y, z'
loop_
 _atom_site_type_symbol
 _atom_site_label
 _atom_site_symmetry_multiplicity
 _atom_site_fract_x
 _atom_site_fract_y
 _atom_site_fract_z
 _atom_site_occupancy
  Tb  Tb0  1  0.250000  0.027483  0.688705  1
  Tb  Tb1  1  0.250000  0.529068  0.818153  1
  Tb  Tb2  1  0.750000  0.970442  0.312687  1
  Tb  Tb3  1  0.750000  0.469442  0.179314  1
  Al  Al4  1  0.250000  0.649008  0.437274  1
  Al  Al5  1  0.750000  0.355244  0.560958  1
  Zn  Zn6  1  0.250000  0.153524  0.068107  1
  Ga  Ga7  1  0.750000  0.848825  0.935366  1
  Pt  Pt8  1  0.250000  0.275886  0.392768  1
  Pt  Pt9  1  0.250000  0.764655  0.119856  1
  Pt  Pt10  1  0.750000  0.726050  0.611259  1
  Pt  Pt11  1  0.750000  0.230373  0.875553  1
