# generated using pymatgen
data_Zr3Al3PtAu2
_symmetry_space_group_name_H-M   'P 1'
_cell_length_a   6.82546700
_cell_length_b   6.82546691
_cell_length_c   8.29621400
_cell_angle_alpha   90.00000000
_cell_angle_beta   90.00000000
_cell_angle_gamma   119.99999559
_symmetry_Int_Tables_number   1
_chemical_formula_structural   Zr3Al3PtAu2
_chemical_formula_sum   'Zr6 Al6 Pt2 Au4'
_cell_volume   334.71512220
_cell_formula_units_Z   2
loop_
 _symmetry_equiv_pos_site_id
 _symmetry_equiv_pos_as_xyz
  1  'x, y, z'
loop_
 _atom_site_type_symbol
 _atom_site_label
 _atom_site_symmetry_multiplicity
 _atom_site_fract_x
 _atom_site_fract_y
 _atom_site_fract_z
 _atom_site_occupancy
  Zr  Zr0  1  0.998822  0.588756  0.750000  1
  Zr  Zr1  1  0.001178  0.589934  0.250000  1
  Zr  Zr2  1  0.588756  0.998822  0.250000  1
  Zr  Zr3  1  0.589934  0.001178  0.750000  1
  Zr  Zr4  1  0.410066  0.411244  0.250000  1
  Zr  Zr5  1  0.411244  0.410066  0.750000  1
  Al  Al6  1  0.000000  0.244151  0.500000  1
  Al  Al7  1  0.755849  0.755849  0.000000  1
  Al  Al8  1  0.000000  0.244151  0.000000  1
  Al  Al9  1  0.244151  0.000000  0.500000  1
  Al  Al10  1  0.244151  0.000000  0.000000  1
  Al  Al11  1  0.755849  0.755849  0.500000  1
  Pt  Pt12  1  0.000000  0.000000  0.250000  1
  Pt  Pt13  1  0.000000  0.000000  0.750000  1
  Au  Au14  1  0.333333  0.666667  0.501132  1
  Au  Au15  1  0.666667  0.333333  0.498868  1
  Au  Au16  1  0.666667  0.333333  0.001132  1
  Au  Au17  1  0.333333  0.666667  0.998868  1
