# generated using pymatgen
data_Be2GaSiRh4
_symmetry_space_group_name_H-M   'P 1'
_cell_length_a   7.11796805
_cell_length_b   7.11796777
_cell_length_c   7.11796801
_cell_angle_alpha   33.45181736
_cell_angle_beta   33.45182261
_cell_angle_gamma   33.45181911
_symmetry_Int_Tables_number   1
_chemical_formula_structural   Be2GaSiRh4
_chemical_formula_sum   'Be2 Ga1 Si1 Rh4'
_cell_volume   97.59110905
_cell_formula_units_Z   1
loop_
 _symmetry_equiv_pos_site_id
 _symmetry_equiv_pos_as_xyz
  1  'x, y, z'
loop_
 _atom_site_type_symbol
 _atom_site_label
 _atom_site_symmetry_multiplicity
 _atom_site_fract_x
 _atom_site_fract_y
 _atom_site_fract_z
 _atom_site_occupancy
  Be  Be0  1  0.250701  0.250701  0.250701  1
  Be  Be1  1  0.749299  0.749299  0.749299  1
  Ga  Ga2  1  0.000000  0.000000  0.000000  1
  Si  Si3  1  0.500000  0.500000  0.500000  1
  Rh  Rh4  1  0.872262  0.872262  0.872262  1
  Rh  Rh5  1  0.378319  0.378319  0.378319  1
  Rh  Rh6  1  0.127738  0.127738  0.127738  1
  Rh  Rh7  1  0.621681  0.621681  0.621681  1
