# generated using pymatgen
data_Sc11OsRu2Rh
_symmetry_space_group_name_H-M   'P 1'
_cell_length_a   9.45167399
_cell_length_b   9.49919975
_cell_length_c   9.48953968
_cell_angle_alpha   60.15167532
_cell_angle_beta   60.19599150
_cell_angle_gamma   60.11421472
_symmetry_Int_Tables_number   1
_chemical_formula_structural   Sc11OsRu2Rh
_chemical_formula_sum   'Sc22 Os2 Ru4 Rh2'
_cell_volume   604.55709992
_cell_formula_units_Z   2
loop_
 _symmetry_equiv_pos_site_id
 _symmetry_equiv_pos_as_xyz
  1  'x, y, z'
loop_
 _atom_site_type_symbol
 _atom_site_label
 _atom_site_symmetry_multiplicity
 _atom_site_fract_x
 _atom_site_fract_y
 _atom_site_fract_z
 _atom_site_occupancy
  Sc  Sc0  1  0.842247  0.842045  0.844837  1
  Sc  Sc1  1  0.529131  0.155123  0.157972  1
  Sc  Sc2  1  0.158160  0.157004  0.529779  1
  Sc  Sc3  1  0.155038  0.529777  0.157033  1
  Sc  Sc4  1  0.841840  0.842996  0.470221  1
  Sc  Sc5  1  0.844962  0.470223  0.842967  1
  Sc  Sc6  1  0.470869  0.844877  0.842028  1
  Sc  Sc7  1  0.157753  0.157955  0.155163  1
  Sc  Sc8  1  0.198095  0.804108  0.195908  1
  Sc  Sc9  1  0.196967  0.803034  0.803026  1
  Sc  Sc10  1  0.803033  0.196966  0.196974  1
  Sc  Sc11  1  0.801041  0.803241  0.196759  1
  Sc  Sc12  1  0.198959  0.196759  0.803241  1
  Sc  Sc13  1  0.801905  0.195892  0.804092  1
  Sc  Sc14  1  0.382154  0.383041  0.385551  1
  Sc  Sc15  1  0.150771  0.614408  0.616955  1
  Sc  Sc16  1  0.614344  0.150698  0.618595  1
  Sc  Sc17  1  0.616343  0.618600  0.150690  1
  Sc  Sc18  1  0.385656  0.849302  0.381405  1
  Sc  Sc19  1  0.383657  0.381400  0.849310  1
  Sc  Sc20  1  0.849229  0.385592  0.383045  1
  Sc  Sc21  1  0.617846  0.616959  0.614449  1
  Os  Os22  1  0.500000  0.000000  0.000000  1
  Os  Os23  1  0.500000  0.500000  0.500000  1
  Ru  Ru24  1  0.500000  0.000000  0.500000  1
  Ru  Ru25  1  0.000000  0.500000  0.500000  1
  Ru  Ru26  1  0.000000  0.500000  0.000000  1
  Ru  Ru27  1  0.000000  0.000000  0.000000  1
  Rh  Rh28  1  0.500000  0.500000  0.000000  1
  Rh  Rh29  1  0.000000  0.000000  0.500000  1
