# generated using pymatgen
data_Nd11Tm9Sn16
_symmetry_space_group_name_H-M   'P 1'
_cell_length_a   8.14557644
_cell_length_b   8.28544012
_cell_length_c   15.66095761
_cell_angle_alpha   90.05401722
_cell_angle_beta   89.96416824
_cell_angle_gamma   90.04648836
_symmetry_Int_Tables_number   1
_chemical_formula_structural   Nd11Tm9Sn16
_chemical_formula_sum   'Nd11 Tm9 Sn16'
_cell_volume   1056.95208608
_cell_formula_units_Z   1
loop_
 _symmetry_equiv_pos_site_id
 _symmetry_equiv_pos_as_xyz
  1  'x, y, z'
loop_
 _atom_site_type_symbol
 _atom_site_label
 _atom_site_symmetry_multiplicity
 _atom_site_fract_x
 _atom_site_fract_y
 _atom_site_fract_z
 _atom_site_occupancy
  Nd  Nd0  1  0.133351  0.336125  0.377029  1
  Nd  Nd1  1  0.367509  0.836414  0.621447  1
  Nd  Nd2  1  0.865812  0.664314  0.880726  1
  Nd  Nd3  1  0.519193  0.319522  0.904379  1
  Nd  Nd4  1  0.019107  0.179626  0.597476  1
  Nd  Nd5  1  0.481188  0.679629  0.401324  1
  Nd  Nd6  1  0.980678  0.821001  0.097501  1
  Nd  Nd7  1  0.482263  0.679390  0.096984  1
  Nd  Nd8  1  0.981455  0.821647  0.402174  1
  Nd  Nd9  1  0.517857  0.320607  0.596867  1
  Nd  Nd10  1  0.018838  0.179626  0.903383  1
  Tm  Tm11  1  0.363146  0.837257  0.877261  1
  Tm  Tm12  1  0.863399  0.662460  0.622637  1
  Tm  Tm13  1  0.636198  0.162345  0.376467  1
  Tm  Tm14  1  0.135757  0.338547  0.122238  1
  Tm  Tm15  1  0.634168  0.162053  0.123949  1
  Tm  Tm16  1  0.197477  0.503363  0.751287  1
  Tm  Tm17  1  0.698029  0.996885  0.749649  1
  Tm  Tm18  1  0.801075  0.495298  0.249974  1
  Tm  Tm19  1  0.302783  0.004305  0.247954  1
  Sn  Sn20  1  0.299455  0.040540  0.042178  1
  Sn  Sn21  1  0.791649  0.461807  0.458403  1
  Sn  Sn22  1  0.708949  0.961836  0.541062  1
  Sn  Sn23  1  0.208730  0.538214  0.958707  1
  Sn  Sn24  1  0.695356  0.965326  0.958883  1
  Sn  Sn25  1  0.196404  0.537344  0.544851  1
  Sn  Sn26  1  0.302799  0.037759  0.454302  1
  Sn  Sn27  1  0.798736  0.456187  0.046228  1
  Sn  Sn28  1  0.563806  0.619314  0.750308  1
  Sn  Sn29  1  0.063113  0.880220  0.750484  1
  Sn  Sn30  1  0.439023  0.376686  0.247899  1
  Sn  Sn31  1  0.934472  0.120440  0.247552  1
  Sn  Sn32  1  0.326633  0.146638  0.751500  1
  Sn  Sn33  1  0.826743  0.354399  0.749138  1
  Sn  Sn34  1  0.672006  0.856136  0.249512  1
  Sn  Sn35  1  0.172843  0.646745  0.248287  1
