# generated using pymatgen
data_Dy16Ho4Si15Hg
_symmetry_space_group_name_H-M   'P 1'
_cell_length_a   7.42479044
_cell_length_b   7.69738043
_cell_length_c   14.65720900
_cell_angle_alpha   89.97635186
_cell_angle_beta   89.39681125
_cell_angle_gamma   90.13913124
_symmetry_Int_Tables_number   1
_chemical_formula_structural   Dy16Ho4Si15Hg
_chemical_formula_sum   'Dy16 Ho4 Si15 Hg1'
_cell_volume   837.63158213
_cell_formula_units_Z   1
loop_
 _symmetry_equiv_pos_site_id
 _symmetry_equiv_pos_as_xyz
  1  'x, y, z'
loop_
 _atom_site_type_symbol
 _atom_site_label
 _atom_site_symmetry_multiplicity
 _atom_site_fract_x
 _atom_site_fract_y
 _atom_site_fract_z
 _atom_site_occupancy
  Dy  Dy0  1  0.976211  0.822500  0.101992  1
  Dy  Dy1  1  0.471181  0.684272  0.401203  1
  Dy  Dy2  1  0.518597  0.312707  0.898850  1
  Dy  Dy3  1  0.030120  0.182433  0.598176  1
  Dy  Dy4  1  0.029154  0.176588  0.899556  1
  Dy  Dy5  1  0.529467  0.316081  0.598199  1
  Dy  Dy6  1  0.475096  0.682661  0.101203  1
  Dy  Dy7  1  0.969890  0.816403  0.400649  1
  Dy  Dy8  1  0.673729  0.829896  0.873571  1
  Dy  Dy9  1  0.182627  0.679881  0.621681  1
  Dy  Dy10  1  0.821886  0.320095  0.126333  1
  Dy  Dy11  1  0.318100  0.178708  0.377671  1
  Dy  Dy12  1  0.322591  0.177092  0.124490  1
  Dy  Dy13  1  0.818560  0.320928  0.377493  1
  Dy  Dy14  1  0.182927  0.676122  0.877067  1
  Dy  Dy15  1  0.682197  0.822097  0.621863  1
  Ho  Ho16  1  0.648664  0.989620  0.250601  1
  Ho  Ho17  1  0.151042  0.511481  0.249084  1
  Ho  Ho18  1  0.849455  0.489373  0.747686  1
  Ho  Ho19  1  0.349163  0.012112  0.748998  1
  Si  Si20  1  0.767683  0.629307  0.251988  1
  Si  Si21  1  0.267564  0.871902  0.251813  1
  Si  Si22  1  0.734094  0.128057  0.748058  1
  Si  Si23  1  0.230468  0.372327  0.747629  1
  Si  Si24  1  0.021755  0.103084  0.251732  1
  Si  Si25  1  0.522528  0.396137  0.252217  1
  Si  Si26  1  0.477633  0.603375  0.747577  1
  Si  Si27  1  0.978507  0.893161  0.748002  1
  Si  Si28  1  0.354314  0.971780  0.540340  1
  Si  Si29  1  0.650476  0.028898  0.041589  1
  Si  Si30  1  0.146303  0.470769  0.459959  1
  Si  Si31  1  0.161259  0.470252  0.043133  1
  Si  Si32  1  0.645583  0.028317  0.458898  1
  Si  Si33  1  0.350310  0.969033  0.961201  1
  Si  Si34  1  0.855027  0.529674  0.539429  1
  Hg  Hg35  1  0.835837  0.532875  0.960076  1
