# generated using pymatgen
data_Hf4In2IrPt3
_symmetry_space_group_name_H-M   'P 1'
_cell_length_a   7.66491217
_cell_length_b   7.66491254
_cell_length_c   3.30238700
_cell_angle_alpha   90.00000000
_cell_angle_beta   90.00000000
_cell_angle_gamma   90.20298596
_symmetry_Int_Tables_number   1
_chemical_formula_structural   Hf4In2IrPt3
_chemical_formula_sum   'Hf4 In2 Ir1 Pt3'
_cell_volume   194.01692954
_cell_formula_units_Z   1
loop_
 _symmetry_equiv_pos_site_id
 _symmetry_equiv_pos_as_xyz
  1  'x, y, z'
loop_
 _atom_site_type_symbol
 _atom_site_label
 _atom_site_symmetry_multiplicity
 _atom_site_fract_x
 _atom_site_fract_y
 _atom_site_fract_z
 _atom_site_occupancy
  Hf  Hf0  1  0.169777  0.330223  0.000000  1
  Hf  Hf1  1  0.837232  0.662768  0.000000  1
  Hf  Hf2  1  0.657404  0.167887  0.000000  1
  Hf  Hf3  1  0.332113  0.842596  0.000000  1
  In  In4  1  0.997654  0.000451  0.500000  1
  In  In5  1  0.499549  0.502346  0.500000  1
  Ir  Ir6  1  0.369816  0.130184  0.500000  1
  Pt  Pt7  1  0.633435  0.866565  0.500000  1
  Pt  Pt8  1  0.870716  0.367698  0.500000  1
  Pt  Pt9  1  0.132302  0.629284  0.500000  1
