# generated using pymatgen
data_TiNb3(ReB2)2
_symmetry_space_group_name_H-M   'P 1'
_cell_length_a   6.02861392
_cell_length_b   6.02861392
_cell_length_c   3.29964600
_cell_angle_alpha   90.00000000
_cell_angle_beta   90.00000000
_cell_angle_gamma   89.72060195
_symmetry_Int_Tables_number   1
_chemical_formula_structural   TiNb3(ReB2)2
_chemical_formula_sum   'Ti1 Nb3 Re2 B4'
_cell_volume   119.92152142
_cell_formula_units_Z   1
loop_
 _symmetry_equiv_pos_site_id
 _symmetry_equiv_pos_as_xyz
  1  'x, y, z'
loop_
 _atom_site_type_symbol
 _atom_site_label
 _atom_site_symmetry_multiplicity
 _atom_site_fract_x
 _atom_site_fract_y
 _atom_site_fract_z
 _atom_site_occupancy
  Ti  Ti0  1  0.677082  0.177082  0.500000  1
  Nb  Nb1  1  0.822230  0.676316  0.500000  1
  Nb  Nb2  1  0.324217  0.824217  0.500000  1
  Nb  Nb3  1  0.176316  0.322230  0.500000  1
  Re  Re4  1  0.501953  0.496177  0.000000  1
  Re  Re5  1  0.996177  0.001953  0.000000  1
  B  B6  1  0.110832  0.610832  0.000000  1
  B  B7  1  0.612347  0.893624  0.000000  1
  B  B8  1  0.393624  0.112347  0.000000  1
  B  B9  1  0.885222  0.385222  0.000000  1
