# generated using pymatgen
data_Ti8MnBeBi4
_symmetry_space_group_name_H-M   'P 1'
_cell_length_a   7.85780996
_cell_length_b   7.85781010
_cell_length_c   7.85780915
_cell_angle_alpha   95.55776898
_cell_angle_beta   95.55776864
_cell_angle_gamma   143.73611876
_symmetry_Int_Tables_number   1
_chemical_formula_structural   Ti8MnBeBi4
_chemical_formula_sum   'Ti8 Mn1 Be1 Bi4'
_cell_volume   272.73637689
_cell_formula_units_Z   1
loop_
 _symmetry_equiv_pos_site_id
 _symmetry_equiv_pos_as_xyz
  1  'x, y, z'
loop_
 _atom_site_type_symbol
 _atom_site_label
 _atom_site_symmetry_multiplicity
 _atom_site_fract_x
 _atom_site_fract_y
 _atom_site_fract_z
 _atom_site_occupancy
  Ti  Ti0  1  0.692686  0.580863  0.272136  1
  Ti  Ti1  1  0.308727  0.420550  0.727864  1
  Ti  Ti2  1  0.580863  0.308727  0.888177  1
  Ti  Ti3  1  0.079450  0.191273  0.272136  1
  Ti  Ti4  1  0.807314  0.079450  0.888177  1
  Ti  Ti5  1  0.420550  0.692686  0.111823  1
  Ti  Ti6  1  0.919137  0.807314  0.727864  1
  Ti  Ti7  1  0.191273  0.919137  0.111823  1
  Mn  Mn8  1  0.750000  0.750000  0.000000  1
  Be  Be9  1  0.250000  0.250000  0.000000  1
  Bi  Bi10  1  0.138724  0.638724  0.777448  1
  Bi  Bi11  1  0.361276  0.138724  0.500000  1
  Bi  Bi12  1  0.861276  0.361276  0.222552  1
  Bi  Bi13  1  0.638724  0.861276  0.500000  1
