# generated using pymatgen
data_CaNd17(DyIr6)2
_symmetry_space_group_name_H-M   'P 1'
_cell_length_a   11.24715900
_cell_length_b   11.24715900
_cell_length_c   6.53052400
_cell_angle_alpha   90.00000000
_cell_angle_beta   90.00000000
_cell_angle_gamma   90.00000000
_symmetry_Int_Tables_number   1
_chemical_formula_structural   CaNd17(DyIr6)2
_chemical_formula_sum   'Ca1 Nd17 Dy2 Ir12'
_cell_volume   826.10204904
_cell_formula_units_Z   1
loop_
 _symmetry_equiv_pos_site_id
 _symmetry_equiv_pos_as_xyz
  1  'x, y, z'
loop_
 _atom_site_type_symbol
 _atom_site_label
 _atom_site_symmetry_multiplicity
 _atom_site_fract_x
 _atom_site_fract_y
 _atom_site_fract_z
 _atom_site_occupancy
  Ca  Ca0  1  0.000000  0.000000  0.500000  1
  Nd  Nd1  1  0.289245  0.088113  0.383254  1
  Nd  Nd2  1  0.291467  0.911501  0.883174  1
  Nd  Nd3  1  0.708533  0.088499  0.883174  1
  Nd  Nd4  1  0.710755  0.911887  0.383254  1
  Nd  Nd5  1  0.588294  0.788504  0.882939  1
  Nd  Nd6  1  0.588300  0.210836  0.382150  1
  Nd  Nd7  1  0.411700  0.789164  0.382150  1
  Nd  Nd8  1  0.411706  0.211496  0.882939  1
  Nd  Nd9  1  0.210836  0.411700  0.617850  1
  Nd  Nd10  1  0.211496  0.588294  0.117061  1
  Nd  Nd11  1  0.788504  0.411706  0.117061  1
  Nd  Nd12  1  0.789164  0.588300  0.617850  1
  Nd  Nd13  1  0.911501  0.708533  0.116826  1
  Nd  Nd14  1  0.911887  0.289245  0.616746  1
  Nd  Nd15  1  0.088113  0.710755  0.616746  1
  Nd  Nd16  1  0.088499  0.291467  0.116826  1
  Nd  Nd17  1  0.000000  0.000000  0.000000  1
  Dy  Dy18  1  0.500000  0.500000  0.000000  1
  Dy  Dy19  1  0.500000  0.500000  0.500000  1
  Ir  Ir20  1  0.843954  0.156705  0.245403  1
  Ir  Ir21  1  0.843295  0.843954  0.754597  1
  Ir  Ir22  1  0.156705  0.156046  0.754597  1
  Ir  Ir23  1  0.156046  0.843295  0.245403  1
  Ir  Ir24  1  0.649185  0.351152  0.749153  1
  Ir  Ir25  1  0.648848  0.649185  0.250847  1
  Ir  Ir26  1  0.351152  0.350815  0.250847  1
  Ir  Ir27  1  0.350815  0.648848  0.749153  1
  Ir  Ir28  1  0.500000  0.000000  0.120459  1
  Ir  Ir29  1  0.500000  0.000000  0.619735  1
  Ir  Ir30  1  0.000000  0.500000  0.879541  1
  Ir  Ir31  1  0.000000  0.500000  0.380265  1
