# generated using pymatgen
data_Tb3ErAl24Pt7Rh2
_symmetry_space_group_name_H-M   'P 1'
_cell_length_a   7.51897014
_cell_length_b   7.51378408
_cell_length_c   13.19596630
_cell_angle_alpha   84.53617162
_cell_angle_beta   100.92706789
_cell_angle_gamma   119.78722320
_symmetry_Int_Tables_number   1
_chemical_formula_structural   Tb3ErAl24Pt7Rh2
_chemical_formula_sum   'Tb3 Er1 Al24 Pt7 Rh2'
_cell_volume   635.28619043
_cell_formula_units_Z   1
loop_
 _symmetry_equiv_pos_site_id
 _symmetry_equiv_pos_as_xyz
  1  'x, y, z'
loop_
 _atom_site_type_symbol
 _atom_site_label
 _atom_site_symmetry_multiplicity
 _atom_site_fract_x
 _atom_site_fract_y
 _atom_site_fract_z
 _atom_site_occupancy
  Tb  Tb0  1  0.732400  0.999418  0.190706  1
  Tb  Tb1  1  0.268017  0.001840  0.809163  1
  Tb  Tb2  1  0.061432  0.667677  0.191147  1
  Er  Er3  1  0.937594  0.331535  0.808668  1
  Al  Al4  1  0.810554  0.871572  0.818268  1
  Al  Al5  1  0.189649  0.128838  0.181721  1
  Al  Al6  1  0.985936  0.668762  0.946216  1
  Al  Al7  1  0.020550  0.334174  0.052547  1
  Al  Al8  1  0.395880  0.662752  0.819538  1
  Al  Al9  1  0.599917  0.335760  0.182644  1
  Al  Al10  1  0.882238  0.664891  0.672337  1
  Al  Al11  1  0.118571  0.334614  0.327671  1
  Al  Al12  1  0.604021  0.459894  0.817048  1
  Al  Al13  1  0.396538  0.544031  0.180797  1
  Al  Al14  1  0.230782  0.340683  0.670090  1
  Al  Al15  1  0.769088  0.659395  0.330353  1
  Al  Al16  1  0.853267  0.333509  0.558962  1
  Al  Al17  1  0.186224  0.999397  0.558876  1
  Al  Al18  1  0.814413  0.000164  0.441257  1
  Al  Al19  1  0.348193  0.995758  0.053321  1
  Al  Al20  1  0.648822  0.997982  0.946654  1
  Al  Al21  1  0.557024  0.991947  0.672747  1
  Al  Al22  1  0.443614  0.007509  0.327979  1
  Al  Al23  1  0.521399  0.668225  0.561474  1
  Al  Al24  1  0.478865  0.331783  0.438546  1
  Al  Al25  1  0.682264  0.671523  0.042213  1
  Al  Al26  1  0.313760  0.331906  0.957307  1
  Al  Al27  1  0.147125  0.665871  0.441364  1
  Pt  Pt28  1  0.546311  0.324640  0.637176  1
  Pt  Pt29  1  0.454430  0.674692  0.362994  1
  Pt  Pt30  1  0.887639  0.008271  0.638381  1
  Pt  Pt31  1  0.112863  0.991841  0.361958  1
  Pt  Pt32  1  0.671701  0.328411  0.999898  1
  Pt  Pt33  1  0.204171  0.666545  0.638516  1
  Pt  Pt34  1  0.796159  0.332846  0.361864  1
  Rh  Rh35  1  0.328532  0.671127  0.999808  1
  Rh  Rh36  1  0.000060  0.000217  0.999793  1
