# generated using pymatgen
data_Tc3RuO8
_symmetry_space_group_name_H-M   'P 1'
_cell_length_a   4.78944256
_cell_length_b   5.52574552
_cell_length_c   5.57611729
_cell_angle_alpha   62.37527431
_cell_angle_beta   89.78415314
_cell_angle_gamma   89.72585560
_symmetry_Int_Tables_number   1
_chemical_formula_structural   Tc3RuO8
_chemical_formula_sum   'Tc3 Ru1 O8'
_cell_volume   130.74876136
_cell_formula_units_Z   1
loop_
 _symmetry_equiv_pos_site_id
 _symmetry_equiv_pos_as_xyz
  1  'x, y, z'
loop_
 _atom_site_type_symbol
 _atom_site_label
 _atom_site_symmetry_multiplicity
 _atom_site_fract_x
 _atom_site_fract_y
 _atom_site_fract_z
 _atom_site_occupancy
  Tc  Tc0  1  0.005736  0.265578  0.719725  1
  Tc  Tc1  1  0.495018  0.264436  0.218930  1
  Tc  Tc2  1  0.994430  0.735520  0.278840  1
  Ru  Ru3  1  0.504693  0.738815  0.777266  1
  O  O4  1  0.208903  0.608508  0.621940  1
  O  O5  1  0.192102  0.103493  0.086807  1
  O  O6  1  0.814019  0.898561  0.912727  1
  O  O7  1  0.690858  0.896747  0.410738  1
  O  O8  1  0.308109  0.109249  0.583550  1
  O  O9  1  0.286990  0.599866  0.129268  1
  O  O10  1  0.712010  0.386585  0.882974  1
  O  O11  1  0.787134  0.392642  0.377236  1
