# generated using pymatgen
data_Tb2ZrScAl17GaRh6
_symmetry_space_group_name_H-M   'P 1'
_cell_length_a   7.52167800
_cell_length_b   7.51748349
_cell_length_c   9.38989300
_cell_angle_alpha   90.00000000
_cell_angle_beta   90.00000000
_cell_angle_gamma   119.52968184
_symmetry_Int_Tables_number   1
_chemical_formula_structural   Tb2ZrScAl17GaRh6
_chemical_formula_sum   'Tb2 Zr1 Sc1 Al17 Ga1 Rh6'
_cell_volume   461.97372188
_cell_formula_units_Z   1
loop_
 _symmetry_equiv_pos_site_id
 _symmetry_equiv_pos_as_xyz
  1  'x, y, z'
loop_
 _atom_site_type_symbol
 _atom_site_label
 _atom_site_symmetry_multiplicity
 _atom_site_fract_x
 _atom_site_fract_y
 _atom_site_fract_z
 _atom_site_occupancy
  Tb  Tb0  1  0.006772  0.324599  0.750000  1
  Tb  Tb1  1  0.326658  0.007940  0.750000  1
  Zr  Zr2  1  0.996325  0.671636  0.250000  1
  Sc  Sc3  1  0.672778  0.996380  0.250000  1
  Al  Al4  1  0.120994  0.119804  0.250000  1
  Al  Al5  1  0.996583  0.335328  0.083449  1
  Al  Al6  1  0.998451  0.664361  0.929994  1
  Al  Al7  1  0.998451  0.664361  0.570006  1
  Al  Al8  1  0.335698  0.997098  0.416503  1
  Al  Al9  1  0.996583  0.335328  0.416551  1
  Al  Al10  1  0.664102  0.997847  0.570002  1
  Al  Al11  1  0.664102  0.997847  0.929998  1
  Al  Al12  1  0.335698  0.997098  0.083497  1
  Al  Al13  1  0.334903  0.335098  0.543582  1
  Al  Al14  1  0.670373  0.670572  0.436476  1
  Al  Al15  1  0.670373  0.670572  0.063524  1
  Al  Al16  1  0.334903  0.335098  0.956418  1
  Al  Al17  1  0.338282  0.556935  0.250000  1
  Al  Al18  1  0.660950  0.450990  0.750000  1
  Al  Al19  1  0.558660  0.341656  0.250000  1
  Al  Al20  1  0.449917  0.660598  0.750000  1
  Ga  Ga21  1  0.866172  0.865910  0.750000  1
  Rh  Rh22  1  0.673505  0.328926  0.002023  1
  Rh  Rh23  1  0.328210  0.673335  0.002451  1
  Rh  Rh24  1  0.328210  0.673335  0.497549  1
  Rh  Rh25  1  0.673505  0.328926  0.497977  1
  Rh  Rh26  1  0.999423  0.999208  0.003898  1
  Rh  Rh27  1  0.999423  0.999208  0.496102  1
