# generated using pymatgen
data_Yb3(Al3Ru)4
_symmetry_space_group_name_H-M   'P 1'
_cell_length_a   8.85635300
_cell_length_b   8.85635166
_cell_length_c   9.55761200
_cell_angle_alpha   90.00000000
_cell_angle_beta   90.00000000
_cell_angle_gamma   119.99999380
_symmetry_Int_Tables_number   1
_chemical_formula_structural   Yb3(Al3Ru)4
_chemical_formula_sum   'Yb6 Al24 Ru8'
_cell_volume   649.21691406
_cell_formula_units_Z   2
loop_
 _symmetry_equiv_pos_site_id
 _symmetry_equiv_pos_as_xyz
  1  'x, y, z'
loop_
 _atom_site_type_symbol
 _atom_site_label
 _atom_site_symmetry_multiplicity
 _atom_site_fract_x
 _atom_site_fract_y
 _atom_site_fract_z
 _atom_site_occupancy
  Yb  Yb0  1  0.194421  0.388842  0.250000  1
  Yb  Yb1  1  0.805579  0.611158  0.750000  1
  Yb  Yb2  1  0.611158  0.805579  0.250000  1
  Yb  Yb3  1  0.388842  0.194421  0.750000  1
  Yb  Yb4  1  0.194421  0.805579  0.250000  1
  Yb  Yb5  1  0.805579  0.194421  0.750000  1
  Al  Al6  1  0.333333  0.666667  0.993858  1
  Al  Al7  1  0.666667  0.333333  0.006142  1
  Al  Al8  1  0.666667  0.333333  0.493858  1
  Al  Al9  1  0.333333  0.666667  0.506142  1
  Al  Al10  1  0.160003  0.320005  0.577142  1
  Al  Al11  1  0.839997  0.679995  0.422858  1
  Al  Al12  1  0.679995  0.839997  0.577142  1
  Al  Al13  1  0.839997  0.679995  0.077142  1
  Al  Al14  1  0.320005  0.160003  0.422858  1
  Al  Al15  1  0.160003  0.320005  0.922858  1
  Al  Al16  1  0.160003  0.839997  0.577142  1
  Al  Al17  1  0.320005  0.160003  0.077142  1
  Al  Al18  1  0.839997  0.160003  0.422858  1
  Al  Al19  1  0.679995  0.839997  0.922858  1
  Al  Al20  1  0.839997  0.160003  0.077142  1
  Al  Al21  1  0.160003  0.839997  0.922858  1
  Al  Al22  1  0.561364  0.122728  0.250000  1
  Al  Al23  1  0.438636  0.877272  0.750000  1
  Al  Al24  1  0.877272  0.438636  0.250000  1
  Al  Al25  1  0.122728  0.561364  0.750000  1
  Al  Al26  1  0.561364  0.438636  0.250000  1
  Al  Al27  1  0.438636  0.561364  0.750000  1
  Al  Al28  1  0.000000  0.000000  0.250000  1
  Al  Al29  1  0.000000  0.000000  0.750000  1
  Ru  Ru30  1  0.500000  0.000000  0.000000  1
  Ru  Ru31  1  0.000000  0.500000  0.000000  1
  Ru  Ru32  1  0.500000  0.000000  0.500000  1
  Ru  Ru33  1  0.500000  0.500000  0.000000  1
  Ru  Ru34  1  0.000000  0.500000  0.500000  1
  Ru  Ru35  1  0.500000  0.500000  0.500000  1
  Ru  Ru36  1  0.000000  0.000000  0.000000  1
  Ru  Ru37  1  0.000000  0.000000  0.500000  1
