# generated using pymatgen
data_La(S8F)3
_symmetry_space_group_name_H-M   'P 1'
_cell_length_a   4.60141934
_cell_length_b   14.73202896
_cell_length_c   14.97053791
_cell_angle_alpha   119.79830648
_cell_angle_beta   93.05614754
_cell_angle_gamma   97.45691473
_symmetry_Int_Tables_number   1
_chemical_formula_structural   La(S8F)3
_chemical_formula_sum   'La1 S24 F3'
_cell_volume   864.97509597
_cell_formula_units_Z   1
loop_
 _symmetry_equiv_pos_site_id
 _symmetry_equiv_pos_as_xyz
  1  'x, y, z'
loop_
 _atom_site_type_symbol
 _atom_site_label
 _atom_site_symmetry_multiplicity
 _atom_site_fract_x
 _atom_site_fract_y
 _atom_site_fract_z
 _atom_site_occupancy
  La  La0  1  0.759065  0.999498  0.030383  1
  S  S1  1  0.366961  0.401713  0.995027  1
  S  S2  1  0.576585  0.732746  0.003241  1
  S  S3  1  0.260305  0.521921  0.130112  1
  S  S4  1  0.402419  0.754747  0.135795  1
  S  S5  1  0.567497  0.658692  0.182152  1
  S  S6  1  0.650605  0.374862  0.247483  1
  S  S7  1  0.842477  0.267299  0.270579  1
  S  S8  1  0.905767  0.523589  0.339496  1
  S  S9  1  0.136797  0.867247  0.394120  1
  S  S10  1  0.647545  0.245203  0.381379  1
  S  S11  1  0.383160  0.000464  0.405022  1
  S  S12  1  0.380321  0.813662  0.472222  1
  S  S13  1  0.729060  0.604914  0.476091  1
  S  S14  1  0.267318  0.132797  0.526871  1
  S  S15  1  0.910528  0.340944  0.523002  1
  S  S16  1  0.965740  0.598212  0.592732  1
  S  S17  1  0.252841  0.866641  0.617807  1
  S  S18  1  0.740208  0.477485  0.607911  1
  S  S19  1  0.564592  0.186831  0.658422  1
  S  S20  1  0.550153  0.999865  0.725626  1
  S  S21  1  0.385622  0.133142  0.751006  1
  S  S22  1  0.383101  0.476768  0.816447  1
  S  S23  1  0.277182  0.625541  0.872833  1
  S  S24  1  0.124462  0.395012  0.871639  1
  F  F25  1  0.891071  0.130624  0.011365  1
  F  F26  1  0.263294  0.999783  0.080408  1
  F  F27  1  0.768240  0.869800  0.880832  1
