# generated using pymatgen
data_La(YbB8)3
_symmetry_space_group_name_H-M   'P 1'
_cell_length_a   7.17290247
_cell_length_b   7.17290234
_cell_length_c   5.82477900
_cell_angle_alpha   90.00000000
_cell_angle_beta   90.00000000
_cell_angle_gamma   109.61360281
_symmetry_Int_Tables_number   1
_chemical_formula_structural   La(YbB8)3
_chemical_formula_sum   'La1 Yb3 B24'
_cell_volume   282.29940133
_cell_formula_units_Z   1
loop_
 _symmetry_equiv_pos_site_id
 _symmetry_equiv_pos_as_xyz
  1  'x, y, z'
loop_
 _atom_site_type_symbol
 _atom_site_label
 _atom_site_symmetry_multiplicity
 _atom_site_fract_x
 _atom_site_fract_y
 _atom_site_fract_z
 _atom_site_occupancy
  La  La0  1  0.000000  0.000000  0.000000  1
  Yb  Yb1  1  0.748357  0.251643  0.500000  1
  Yb  Yb2  1  0.500000  0.500000  0.000000  1
  Yb  Yb3  1  0.251643  0.748357  0.500000  1
  B  B4  1  0.175949  0.325590  0.649506  1
  B  B5  1  0.925261  0.573774  0.150699  1
  B  B6  1  0.674410  0.824051  0.649506  1
  B  B7  1  0.426226  0.074739  0.150699  1
  B  B8  1  0.175949  0.325590  0.350494  1
  B  B9  1  0.925261  0.573774  0.849301  1
  B  B10  1  0.674410  0.824051  0.350494  1
  B  B11  1  0.426226  0.074739  0.849301  1
  B  B12  1  0.399962  0.399962  0.500000  1
  B  B13  1  0.149880  0.649269  0.000000  1
  B  B14  1  0.899190  0.899190  0.500000  1
  B  B15  1  0.649269  0.149880  0.000000  1
  B  B16  1  0.325590  0.175949  0.649506  1
  B  B17  1  0.074739  0.426226  0.150699  1
  B  B18  1  0.824051  0.674410  0.649506  1
  B  B19  1  0.573774  0.925261  0.150699  1
  B  B20  1  0.100810  0.100810  0.500000  1
  B  B21  1  0.850120  0.350731  0.000000  1
  B  B22  1  0.600038  0.600038  0.500000  1
  B  B23  1  0.350731  0.850120  0.000000  1
  B  B24  1  0.325590  0.175949  0.350494  1
  B  B25  1  0.074739  0.426226  0.849301  1
  B  B26  1  0.824051  0.674410  0.350494  1
  B  B27  1  0.573774  0.925261  0.849301  1
