# generated using pymatgen
data_Zr2Fe6Co3P7Ru3
_symmetry_space_group_name_H-M   'P 1'
_cell_length_a   8.94321800
_cell_length_b   8.94321802
_cell_length_c   3.64454900
_cell_angle_alpha   90.00000000
_cell_angle_beta   90.00000000
_cell_angle_gamma   120.00000634
_symmetry_Int_Tables_number   1
_chemical_formula_structural   Zr2Fe6Co3P7Ru3
_chemical_formula_sum   'Zr2 Fe6 Co3 P7 Ru3'
_cell_volume   252.44224449
_cell_formula_units_Z   1
loop_
 _symmetry_equiv_pos_site_id
 _symmetry_equiv_pos_as_xyz
  1  'x, y, z'
loop_
 _atom_site_type_symbol
 _atom_site_label
 _atom_site_symmetry_multiplicity
 _atom_site_fract_x
 _atom_site_fract_y
 _atom_site_fract_z
 _atom_site_occupancy
  Zr  Zr0  1  0.333333  0.666667  0.000000  1
  Zr  Zr1  1  0.666667  0.333333  0.500000  1
  Fe  Fe2  1  0.434429  0.064103  0.000000  1
  Fe  Fe3  1  0.935897  0.370327  0.000000  1
  Fe  Fe4  1  0.629673  0.565571  0.000000  1
  Fe  Fe5  1  0.384399  0.439102  0.500000  1
  Fe  Fe6  1  0.560898  0.945296  0.500000  1
  Fe  Fe7  1  0.054704  0.615601  0.500000  1
  Co  Co8  1  0.159014  0.281783  0.000000  1
  Co  Co9  1  0.718217  0.877231  0.000000  1
  Co  Co10  1  0.122769  0.840986  0.000000  1
  P  P11  1  0.120308  0.412880  0.500000  1
  P  P12  1  0.587120  0.707429  0.500000  1
  P  P13  1  0.292571  0.879692  0.500000  1
  P  P14  1  0.000000  0.000000  0.000000  1
  P  P15  1  0.416144  0.301644  0.000000  1
  P  P16  1  0.698356  0.114500  0.000000  1
  P  P17  1  0.885500  0.583856  0.000000  1
  Ru  Ru18  1  0.225573  0.098611  0.500000  1
  Ru  Ru19  1  0.901389  0.126960  0.500000  1
  Ru  Ru20  1  0.873040  0.774427  0.500000  1
