# generated using pymatgen
data_Tb3LuAl18RePd5
_symmetry_space_group_name_H-M   'P 1'
_cell_length_a   7.62552621
_cell_length_b   7.63185435
_cell_length_c   9.49642261
_cell_angle_alpha   89.82109955
_cell_angle_beta   89.74113711
_cell_angle_gamma   119.29644732
_symmetry_Int_Tables_number   1
_chemical_formula_structural   Tb3LuAl18RePd5
_chemical_formula_sum   'Tb3 Lu1 Al18 Re1 Pd5'
_cell_volume   481.96274189
_cell_formula_units_Z   1
loop_
 _symmetry_equiv_pos_site_id
 _symmetry_equiv_pos_as_xyz
  1  'x, y, z'
loop_
 _atom_site_type_symbol
 _atom_site_label
 _atom_site_symmetry_multiplicity
 _atom_site_fract_x
 _atom_site_fract_y
 _atom_site_fract_z
 _atom_site_occupancy
  Tb  Tb0  1  0.996067  0.674437  0.248052  1
  Tb  Tb1  1  0.004650  0.325443  0.751727  1
  Tb  Tb2  1  0.673738  0.995469  0.248400  1
  Lu  Lu3  1  0.323793  0.004627  0.752973  1
  Al  Al4  1  0.132547  0.132135  0.247140  1
  Al  Al5  1  0.867891  0.867554  0.752126  1
  Al  Al6  1  0.000410  0.330887  0.074450  1
  Al  Al7  1  0.001131  0.669611  0.923959  1
  Al  Al8  1  0.999275  0.663701  0.579414  1
  Al  Al9  1  0.337000  0.001741  0.423087  1
  Al  Al10  1  0.001810  0.337400  0.421764  1
  Al  Al11  1  0.660924  0.998422  0.579692  1
  Al  Al12  1  0.667651  0.999540  0.924200  1
  Al  Al13  1  0.331675  0.000223  0.073270  1
  Al  Al14  1  0.334137  0.333297  0.556930  1
  Al  Al15  1  0.666129  0.666176  0.444882  1
  Al  Al16  1  0.670556  0.670296  0.051463  1
  Al  Al17  1  0.330536  0.329483  0.946654  1
  Al  Al18  1  0.342703  0.549441  0.249206  1
  Al  Al19  1  0.656358  0.449044  0.750762  1
  Al  Al20  1  0.549458  0.342268  0.249169  1
  Al  Al21  1  0.449893  0.658286  0.750806  1
  Re  Re22  1  0.001213  0.000235  0.998714  1
  Pd  Pd23  1  0.672089  0.327655  0.999449  1
  Pd  Pd24  1  0.328053  0.671834  0.999868  1
  Pd  Pd25  1  0.327556  0.672532  0.500495  1
  Pd  Pd26  1  0.672050  0.327571  0.500437  1
  Pd  Pd27  1  0.000705  0.000693  0.500910  1
