# generated using pymatgen
data_InWF7
_symmetry_space_group_name_H-M   'P 1'
_cell_length_a   5.50982600
_cell_length_b   8.75903055
_cell_length_c   11.82435000
_cell_angle_alpha   63.04840435
_cell_angle_beta   90.00000000
_cell_angle_gamma   90.00000000
_symmetry_Int_Tables_number   1
_chemical_formula_structural   InWF7
_chemical_formula_sum   'In4 W4 F28'
_cell_volume   508.67317365
_cell_formula_units_Z   4
loop_
 _symmetry_equiv_pos_site_id
 _symmetry_equiv_pos_as_xyz
  1  'x, y, z'
loop_
 _atom_site_type_symbol
 _atom_site_label
 _atom_site_symmetry_multiplicity
 _atom_site_fract_x
 _atom_site_fract_y
 _atom_site_fract_z
 _atom_site_occupancy
  In  In0  1  0.261173  0.816757  0.264642  1
  In  In1  1  0.738827  0.183243  0.735358  1
  In  In2  1  0.761173  0.183243  0.235358  1
  In  In3  1  0.238827  0.816757  0.764642  1
  W  W4  1  0.759718  0.727683  0.043894  1
  W  W5  1  0.240282  0.272317  0.956106  1
  W  W6  1  0.259718  0.272317  0.456106  1
  W  W7  1  0.740282  0.727683  0.543894  1
  F  F8  1  0.952202  0.704598  0.415410  1
  F  F9  1  0.047798  0.295402  0.584590  1
  F  F10  1  0.452202  0.295402  0.084590  1
  F  F11  1  0.547798  0.704598  0.915410  1
  F  F12  1  0.462826  0.727145  0.146653  1
  F  F13  1  0.537174  0.272855  0.853347  1
  F  F14  1  0.962826  0.272855  0.353347  1
  F  F15  1  0.037174  0.727145  0.646653  1
  F  F16  1  0.965680  0.746169  0.178895  1
  F  F17  1  0.034320  0.253831  0.821105  1
  F  F18  1  0.465680  0.253831  0.321105  1
  F  F19  1  0.534320  0.746169  0.678895  1
  F  F20  1  0.773731  0.473816  0.143712  1
  F  F21  1  0.226269  0.526184  0.856288  1
  F  F22  1  0.273731  0.526184  0.356288  1
  F  F23  1  0.726269  0.473816  0.643712  1
  F  F24  1  0.928393  0.273101  0.049770  1
  F  F25  1  0.071607  0.726899  0.950230  1
  F  F26  1  0.428393  0.726899  0.450230  1
  F  F27  1  0.571607  0.273101  0.549770  1
  F  F28  1  0.738682  0.981025  0.448025  1
  F  F29  1  0.261318  0.018975  0.551975  1
  F  F30  1  0.238682  0.018975  0.051975  1
  F  F31  1  0.761318  0.981025  0.948025  1
  F  F32  1  0.585893  0.971017  0.230512  1
  F  F33  1  0.414107  0.028983  0.769488  1
  F  F34  1  0.085893  0.028983  0.269488  1
  F  F35  1  0.914107  0.971017  0.730512  1
