# generated using pymatgen
data_Tl2Cl3
_symmetry_space_group_name_H-M   'P 1'
_cell_length_a   7.87656700
_cell_length_b   12.59933293
_cell_length_c   13.16523900
_cell_angle_alpha   71.94391779
_cell_angle_beta   90.00000000
_cell_angle_gamma   90.00000000
_symmetry_Int_Tables_number   1
_chemical_formula_structural   Tl2Cl3
_chemical_formula_sum   'Tl16 Cl24'
_cell_volume   1242.17059616
_cell_formula_units_Z   8
loop_
 _symmetry_equiv_pos_site_id
 _symmetry_equiv_pos_as_xyz
  1  'x, y, z'
loop_
 _atom_site_type_symbol
 _atom_site_label
 _atom_site_symmetry_multiplicity
 _atom_site_fract_x
 _atom_site_fract_y
 _atom_site_fract_z
 _atom_site_occupancy
  Tl  Tl0  1  0.564300  0.263350  0.183547  1
  Tl  Tl1  1  0.064300  0.236650  0.816453  1
  Tl  Tl2  1  0.435700  0.736650  0.816453  1
  Tl  Tl3  1  0.935700  0.763350  0.183547  1
  Tl  Tl4  1  0.065351  0.114538  0.180811  1
  Tl  Tl5  1  0.565350  0.385462  0.819189  1
  Tl  Tl6  1  0.934649  0.885462  0.819189  1
  Tl  Tl7  1  0.434649  0.614538  0.180811  1
  Tl  Tl8  1  0.041499  0.358365  0.404148  1
  Tl  Tl9  1  0.541499  0.141635  0.595852  1
  Tl  Tl10  1  0.958501  0.641635  0.595852  1
  Tl  Tl11  1  0.458501  0.858365  0.404148  1
  Tl  Tl12  1  0.500000  0.500000  0.500000  1
  Tl  Tl13  1  0.000000  0.000000  0.500000  1
  Tl  Tl14  1  0.500000  0.000000  0.000000  1
  Tl  Tl15  1  0.000000  0.500000  0.000000  1
  Cl  Cl16  1  0.810000  0.153271  0.368180  1
  Cl  Cl17  1  0.310000  0.346729  0.631820  1
  Cl  Cl18  1  0.190000  0.846729  0.631820  1
  Cl  Cl19  1  0.690000  0.653271  0.368180  1
  Cl  Cl20  1  0.703081  0.006558  0.154267  1
  Cl  Cl21  1  0.203081  0.493442  0.845733  1
  Cl  Cl22  1  0.296919  0.993442  0.845733  1
  Cl  Cl23  1  0.796919  0.506558  0.154267  1
  Cl  Cl24  1  0.001097  0.125455  0.622085  1
  Cl  Cl25  1  0.501097  0.374545  0.377915  1
  Cl  Cl26  1  0.998903  0.874545  0.377915  1
  Cl  Cl27  1  0.498903  0.625455  0.622085  1
  Cl  Cl28  1  0.357450  0.192029  0.998698  1
  Cl  Cl29  1  0.857450  0.307971  0.001302  1
  Cl  Cl30  1  0.642550  0.807971  0.001302  1
  Cl  Cl31  1  0.142550  0.692029  0.998698  1
  Cl  Cl32  1  0.212737  0.392995  0.152268  1
  Cl  Cl33  1  0.712737  0.107005  0.847732  1
  Cl  Cl34  1  0.787263  0.607005  0.847732  1
  Cl  Cl35  1  0.287263  0.892995  0.152268  1
  Cl  Cl36  1  0.221351  0.602687  0.399112  1
  Cl  Cl37  1  0.721351  0.897313  0.600888  1
  Cl  Cl38  1  0.778649  0.397313  0.600888  1
  Cl  Cl39  1  0.278649  0.102687  0.399112  1
