# generated using pymatgen
data_Tb5Er(WO7)2
_symmetry_space_group_name_H-M   'P 1'
_cell_length_a   6.51751259
_cell_length_b   6.47051144
_cell_length_c   7.50841733
_cell_angle_alpha   89.99557709
_cell_angle_beta   89.97501525
_cell_angle_gamma   109.07834909
_symmetry_Int_Tables_number   1
_chemical_formula_structural   Tb5Er(WO7)2
_chemical_formula_sum   'Tb5 Er1 W2 O14'
_cell_volume   299.24986441
_cell_formula_units_Z   1
loop_
 _symmetry_equiv_pos_site_id
 _symmetry_equiv_pos_as_xyz
  1  'x, y, z'
loop_
 _atom_site_type_symbol
 _atom_site_label
 _atom_site_symmetry_multiplicity
 _atom_site_fract_x
 _atom_site_fract_y
 _atom_site_fract_z
 _atom_site_occupancy
  Tb  Tb0  1  0.999098  0.464829  0.746417  1
  Tb  Tb1  1  0.531249  0.001808  0.753108  1
  Tb  Tb2  1  0.522855  0.518836  0.500386  1
  Tb  Tb3  1  0.481386  0.484194  0.001561  1
  Tb  Tb4  1  0.468277  0.998751  0.253405  1
  Er  Er5  1  0.002309  0.534629  0.245885  1
  W  W6  1  0.000057  0.000300  0.499292  1
  W  W7  1  0.999583  0.999280  0.000728  1
  O  O8  1  0.075697  0.924795  0.250240  1
  O  O9  1  0.053335  0.312505  0.461833  1
  O  O10  1  0.075334  0.322626  0.030688  1
  O  O11  1  0.358166  0.632961  0.252336  1
  O  O12  1  0.366365  0.629613  0.748815  1
  O  O13  1  0.326371  0.085514  0.974053  1
  O  O14  1  0.320044  0.077001  0.531362  1
  O  O15  1  0.679504  0.923103  0.031876  1
  O  O16  1  0.672505  0.914427  0.474021  1
  O  O17  1  0.638408  0.372906  0.248301  1
  O  O18  1  0.638583  0.367402  0.751883  1
  O  O19  1  0.923188  0.676468  0.525993  1
  O  O20  1  0.943120  0.684929  0.967531  1
  O  O21  1  0.924562  0.073120  0.750287  1
