# generated using pymatgen
data_Dy4Ga3GeRu4
_symmetry_space_group_name_H-M   'P 1'
_cell_length_a   4.49780000
_cell_length_b   7.14554899
_cell_length_c   7.15604799
_cell_angle_alpha   89.60267057
_cell_angle_beta   90.00000000
_cell_angle_gamma   90.00000000
_symmetry_Int_Tables_number   1
_chemical_formula_structural   Dy4Ga3GeRu4
_chemical_formula_sum   'Dy4 Ga3 Ge1 Ru4'
_cell_volume   229.98448712
_cell_formula_units_Z   1
loop_
 _symmetry_equiv_pos_site_id
 _symmetry_equiv_pos_as_xyz
  1  'x, y, z'
loop_
 _atom_site_type_symbol
 _atom_site_label
 _atom_site_symmetry_multiplicity
 _atom_site_fract_x
 _atom_site_fract_y
 _atom_site_fract_z
 _atom_site_occupancy
  Dy  Dy0  1  0.250000  0.981382  0.806189  1
  Dy  Dy1  1  0.750000  0.019331  0.195749  1
  Dy  Dy2  1  0.250000  0.478130  0.695486  1
  Dy  Dy3  1  0.750000  0.518310  0.303579  1
  Ga  Ga4  1  0.250000  0.302149  0.106884  1
  Ga  Ga5  1  0.750000  0.696484  0.893195  1
  Ga  Ga6  1  0.250000  0.800304  0.395542  1
  Ge  Ge7  1  0.750000  0.200320  0.602774  1
  Ru  Ru8  1  0.750000  0.848157  0.563913  1
  Ru  Ru9  1  0.250000  0.158511  0.441079  1
  Ru  Ru10  1  0.750000  0.337522  0.931242  1
  Ru  Ru11  1  0.250000  0.659401  0.064368  1
