# generated using pymatgen
data_Tb10GaSiSn6
_symmetry_space_group_name_H-M   'P 1'
_cell_length_a   9.24418900
_cell_length_b   9.24418917
_cell_length_c   6.56061100
_cell_angle_alpha   90.00000000
_cell_angle_beta   90.00000000
_cell_angle_gamma   119.99999580
_symmetry_Int_Tables_number   1
_chemical_formula_structural   Tb10GaSiSn6
_chemical_formula_sum   'Tb10 Ga1 Si1 Sn6'
_cell_volume   485.52609717
_cell_formula_units_Z   1
loop_
 _symmetry_equiv_pos_site_id
 _symmetry_equiv_pos_as_xyz
  1  'x, y, z'
loop_
 _atom_site_type_symbol
 _atom_site_label
 _atom_site_symmetry_multiplicity
 _atom_site_fract_x
 _atom_site_fract_y
 _atom_site_fract_z
 _atom_site_occupancy
  Tb  Tb0  1  0.666667  0.333333  0.000000  1
  Tb  Tb1  1  0.333333  0.666667  0.000000  1
  Tb  Tb2  1  0.333333  0.666667  0.500000  1
  Tb  Tb3  1  0.666667  0.333333  0.500000  1
  Tb  Tb4  1  0.743751  0.743751  0.742313  1
  Tb  Tb5  1  0.256249  0.000000  0.742313  1
  Tb  Tb6  1  0.000000  0.256249  0.742313  1
  Tb  Tb7  1  0.256249  0.256249  0.257687  1
  Tb  Tb8  1  0.743751  0.000000  0.257687  1
  Tb  Tb9  1  0.000000  0.743751  0.257687  1
  Ga  Ga10  1  0.000000  0.000000  0.000000  1
  Si  Si11  1  0.000000  0.000000  0.500000  1
  Sn  Sn12  1  0.388915  0.388915  0.750807  1
  Sn  Sn13  1  0.611085  0.000000  0.750807  1
  Sn  Sn14  1  0.000000  0.611085  0.750807  1
  Sn  Sn15  1  0.611085  0.611085  0.249193  1
  Sn  Sn16  1  0.388915  0.000000  0.249193  1
  Sn  Sn17  1  0.000000  0.388915  0.249193  1
