# generated using pymatgen
data_YTh2P4Pd7
_symmetry_space_group_name_H-M   'P 1'
_cell_length_a   8.07248618
_cell_length_b   8.07248702
_cell_length_c   9.55527715
_cell_angle_alpha   55.49440138
_cell_angle_beta   55.49439812
_cell_angle_gamma   29.28930616
_symmetry_Int_Tables_number   1
_chemical_formula_structural   YTh2P4Pd7
_chemical_formula_sum   'Y1 Th2 P4 Pd7'
_cell_volume   246.94711600
_cell_formula_units_Z   1
loop_
 _symmetry_equiv_pos_site_id
 _symmetry_equiv_pos_as_xyz
  1  'x, y, z'
loop_
 _atom_site_type_symbol
 _atom_site_label
 _atom_site_symmetry_multiplicity
 _atom_site_fract_x
 _atom_site_fract_y
 _atom_site_fract_z
 _atom_site_occupancy
  Y  Y0  1  0.317976  0.317976  0.679776  1
  Th  Th1  1  0.679600  0.679600  0.325458  1
  Th  Th2  1  0.001782  0.001782  0.996880  1
  P  P3  1  0.343614  0.343614  0.250349  1
  P  P4  1  0.661157  0.661157  0.745236  1
  P  P5  1  0.891672  0.891672  0.819490  1
  P  P6  1  0.105710  0.105710  0.176667  1
  Pd  Pd7  1  0.308354  0.308354  0.024851  1
  Pd  Pd8  1  0.691939  0.691939  0.974234  1
  Pd  Pd9  1  0.510063  0.510063  0.712676  1
  Pd  Pd10  1  0.832903  0.832903  0.427150  1
  Pd  Pd11  1  0.489986  0.489986  0.287827  1
  Pd  Pd12  1  0.167023  0.167023  0.576399  1
  Pd  Pd13  1  0.998221  0.998221  0.503006  1
