# generated using pymatgen
data_Sc3Ga2B4Ru10W
_symmetry_space_group_name_H-M   'P 1'
_cell_length_a   9.39210649
_cell_length_b   9.39210649
_cell_length_c   3.00195100
_cell_angle_alpha   90.00000000
_cell_angle_beta   90.00000000
_cell_angle_gamma   89.93555518
_symmetry_Int_Tables_number   1
_chemical_formula_structural   Sc3Ga2B4Ru10W
_chemical_formula_sum   'Sc3 Ga2 B4 Ru10 W1'
_cell_volume   264.80692614
_cell_formula_units_Z   1
loop_
 _symmetry_equiv_pos_site_id
 _symmetry_equiv_pos_as_xyz
  1  'x, y, z'
loop_
 _atom_site_type_symbol
 _atom_site_label
 _atom_site_symmetry_multiplicity
 _atom_site_fract_x
 _atom_site_fract_y
 _atom_site_fract_z
 _atom_site_occupancy
  Sc  Sc0  1  0.324617  0.824617  0.000000  1
  Sc  Sc1  1  0.175196  0.326854  0.000000  1
  Sc  Sc2  1  0.826854  0.675196  0.000000  1
  Ga  Ga3  1  0.002288  0.999501  0.000000  1
  Ga  Ga4  1  0.499501  0.502288  0.000000  1
  B  B5  1  0.122799  0.622799  0.000000  1
  B  B6  1  0.875172  0.375172  0.000000  1
  B  B7  1  0.625045  0.873797  0.000000  1
  B  B8  1  0.373797  0.125045  0.000000  1
  Ru  Ru9  1  0.215235  0.073464  0.500000  1
  Ru  Ru10  1  0.782395  0.941362  0.500000  1
  Ru  Ru11  1  0.070277  0.784340  0.500000  1
  Ru  Ru12  1  0.711568  0.419198  0.500000  1
  Ru  Ru13  1  0.919198  0.211568  0.500000  1
  Ru  Ru14  1  0.284340  0.570277  0.500000  1
  Ru  Ru15  1  0.573464  0.715235  0.500000  1
  Ru  Ru16  1  0.441362  0.282395  0.500000  1
  Ru  Ru17  1  0.503624  0.003624  0.500000  1
  Ru  Ru18  1  0.998209  0.498209  0.500000  1
  W  W19  1  0.675059  0.175059  0.000000  1
