# generated using pymatgen
data_Gd2CrTcC3
_symmetry_space_group_name_H-M   'P 1'
_cell_length_a   5.68364186
_cell_length_b   5.68364181
_cell_length_c   5.66626671
_cell_angle_alpha   75.40730435
_cell_angle_beta   75.40730236
_cell_angle_gamma   34.74254489
_symmetry_Int_Tables_number   1
_chemical_formula_structural   Gd2CrTcC3
_chemical_formula_sum   'Gd2 Cr1 Tc1 C3'
_cell_volume   100.61331522
_cell_formula_units_Z   1
loop_
 _symmetry_equiv_pos_site_id
 _symmetry_equiv_pos_as_xyz
  1  'x, y, z'
loop_
 _atom_site_type_symbol
 _atom_site_label
 _atom_site_symmetry_multiplicity
 _atom_site_fract_x
 _atom_site_fract_y
 _atom_site_fract_z
 _atom_site_occupancy
  Gd  Gd0  1  0.389681  0.389681  0.822254  1
  Gd  Gd1  1  0.605251  0.605251  0.176562  1
  Cr  Cr2  1  0.842652  0.842652  0.394119  1
  Tc  Tc3  1  0.152632  0.152632  0.612559  1
  C  C4  1  0.994610  0.994610  0.493626  1
  C  C5  1  0.726339  0.726339  0.731102  1
  C  C6  1  0.288836  0.288836  0.269778  1
