# generated using pymatgen
data_TiCr3InSe8
_symmetry_space_group_name_H-M   'P 1'
_cell_length_a   7.49543541
_cell_length_b   7.49543527
_cell_length_c   7.49543729
_cell_angle_alpha   60.83037957
_cell_angle_beta   60.83037982
_cell_angle_gamma   60.83037344
_symmetry_Int_Tables_number   1
_chemical_formula_structural   TiCr3InSe8
_chemical_formula_sum   'Ti1 Cr3 In1 Se8'
_cell_volume   303.34223497
_cell_formula_units_Z   1
loop_
 _symmetry_equiv_pos_site_id
 _symmetry_equiv_pos_as_xyz
  1  'x, y, z'
loop_
 _atom_site_type_symbol
 _atom_site_label
 _atom_site_symmetry_multiplicity
 _atom_site_fract_x
 _atom_site_fract_y
 _atom_site_fract_z
 _atom_site_occupancy
  Ti  Ti0  1  0.397851  0.397851  0.397851  1
  Cr  Cr1  1  0.853388  0.380215  0.380215  1
  Cr  Cr2  1  0.380215  0.853388  0.380215  1
  Cr  Cr3  1  0.380215  0.380215  0.853388  1
  In  In4  1  0.994614  0.994614  0.994614  1
  Se  Se5  1  0.137272  0.137272  0.137272  1
  Se  Se6  1  0.573901  0.141423  0.141423  1
  Se  Se7  1  0.141423  0.573901  0.141423  1
  Se  Se8  1  0.141423  0.141423  0.573901  1
  Se  Se9  1  0.614908  0.614908  0.614908  1
  Se  Se10  1  0.134151  0.625319  0.625319  1
  Se  Se11  1  0.625319  0.134151  0.625319  1
  Se  Se12  1  0.625319  0.625319  0.134151  1
