# generated using pymatgen
data_Yb9Pr2Y9Sn16
_symmetry_space_group_name_H-M   'P 1'
_cell_length_a   7.87095060
_cell_length_b   8.44277902
_cell_length_c   15.97020721
_cell_angle_alpha   90.00817526
_cell_angle_beta   89.98310750
_cell_angle_gamma   89.76702692
_symmetry_Int_Tables_number   1
_chemical_formula_structural   Yb9Pr2Y9Sn16
_chemical_formula_sum   'Yb9 Pr2 Y9 Sn16'
_cell_volume   1061.25450334
_cell_formula_units_Z   1
loop_
 _symmetry_equiv_pos_site_id
 _symmetry_equiv_pos_as_xyz
  1  'x, y, z'
loop_
 _atom_site_type_symbol
 _atom_site_label
 _atom_site_symmetry_multiplicity
 _atom_site_fract_x
 _atom_site_fract_y
 _atom_site_fract_z
 _atom_site_occupancy
  Yb  Yb0  1  0.495060  0.311277  0.092884  1
  Yb  Yb1  1  0.996543  0.187253  0.407587  1
  Yb  Yb2  1  0.493983  0.312083  0.407010  1
  Yb  Yb3  1  0.995393  0.186660  0.092634  1
  Yb  Yb4  1  0.504088  0.687195  0.904989  1
  Yb  Yb5  1  0.004923  0.815868  0.592897  1
  Yb  Yb6  1  0.335702  0.991494  0.749588  1
  Yb  Yb7  1  0.163900  0.488591  0.250018  1
  Yb  Yb8  1  0.662998  0.009979  0.250028  1
  Pr  Pr9  1  0.506377  0.686457  0.595245  1
  Pr  Pr10  1  0.006137  0.817918  0.907319  1
  Y  Y11  1  0.672545  0.165300  0.623154  1
  Y  Y12  1  0.173820  0.331486  0.876137  1
  Y  Y13  1  0.326441  0.831706  0.122406  1
  Y  Y14  1  0.827262  0.665776  0.377825  1
  Y  Y15  1  0.326035  0.832253  0.377078  1
  Y  Y16  1  0.826656  0.665149  0.122715  1
  Y  Y17  1  0.672898  0.165417  0.876667  1
  Y  Y18  1  0.173702  0.332775  0.623959  1
  Y  Y19  1  0.836343  0.509196  0.750544  1
  Sn  Sn20  1  0.672291  0.962973  0.460432  1
  Sn  Sn21  1  0.172645  0.536260  0.038800  1
  Sn  Sn22  1  0.329527  0.036228  0.959659  1
  Sn  Sn23  1  0.829509  0.465573  0.543425  1
  Sn  Sn24  1  0.328922  0.034719  0.540611  1
  Sn  Sn25  1  0.828591  0.468103  0.956367  1
  Sn  Sn26  1  0.674205  0.962684  0.039738  1
  Sn  Sn27  1  0.174218  0.536884  0.460900  1
  Sn  Sn28  1  0.474211  0.382255  0.750053  1
  Sn  Sn29  1  0.970622  0.131165  0.749993  1
  Sn  Sn30  1  0.527855  0.620493  0.249976  1
  Sn  Sn31  1  0.027121  0.877188  0.249981  1
  Sn  Sn32  1  0.717229  0.861310  0.749945  1
  Sn  Sn33  1  0.207591  0.633035  0.749522  1
  Sn  Sn34  1  0.281460  0.128205  0.249764  1
  Sn  Sn35  1  0.783198  0.369093  0.250150  1
