# generated using pymatgen
data_InS27
_symmetry_space_group_name_H-M   'P 1'
_cell_length_a   14.54202996
_cell_length_b   14.54203059
_cell_length_c   14.54203096
_cell_angle_alpha   118.32988163
_cell_angle_beta   118.32988203
_cell_angle_gamma   118.32988192
_symmetry_Int_Tables_number   1
_chemical_formula_structural   InS27
_chemical_formula_sum   'In1 S27'
_cell_volume   1023.09370084
_cell_formula_units_Z   1
loop_
 _symmetry_equiv_pos_site_id
 _symmetry_equiv_pos_as_xyz
  1  'x, y, z'
loop_
 _atom_site_type_symbol
 _atom_site_label
 _atom_site_symmetry_multiplicity
 _atom_site_fract_x
 _atom_site_fract_y
 _atom_site_fract_z
 _atom_site_occupancy
  In  In0  1  0.447232  0.447232  0.447232  1
  S  S1  1  0.032185  0.635531  0.635531  1
  S  S2  1  0.635531  0.635531  0.032185  1
  S  S3  1  0.635531  0.032185  0.635531  1
  S  S4  1  0.228818  0.845497  0.711130  1
  S  S5  1  0.845497  0.711130  0.228818  1
  S  S6  1  0.711130  0.228818  0.845497  1
  S  S7  1  0.845497  0.228818  0.711130  1
  S  S8  1  0.228818  0.711130  0.845497  1
  S  S9  1  0.711130  0.845497  0.228818  1
  S  S10  1  0.111618  0.644142  0.454618  1
  S  S11  1  0.644142  0.454618  0.111618  1
  S  S12  1  0.454618  0.111618  0.644142  1
  S  S13  1  0.644142  0.111618  0.454618  1
  S  S14  1  0.111618  0.454618  0.644142  1
  S  S15  1  0.454618  0.644142  0.111618  1
  S  S16  1  0.344203  0.728158  0.593707  1
  S  S17  1  0.728158  0.593707  0.344203  1
  S  S18  1  0.593707  0.344203  0.728158  1
  S  S19  1  0.728158  0.344203  0.593707  1
  S  S20  1  0.344203  0.593707  0.728158  1
  S  S21  1  0.593707  0.728158  0.344203  1
  S  S22  1  0.194751  0.467164  0.467164  1
  S  S23  1  0.467164  0.467164  0.194751  1
  S  S24  1  0.467164  0.194751  0.467164  1
  S  S25  1  0.006612  0.918574  0.918574  1
  S  S26  1  0.918574  0.918574  0.006612  1
  S  S27  1  0.918574  0.006612  0.918574  1
