# generated using pymatgen
data_Dy2YIr2Rh7
_symmetry_space_group_name_H-M   'P 1'
_cell_length_a   5.26714628
_cell_length_b   5.26463416
_cell_length_c   17.56670137
_cell_angle_alpha   90.00026569
_cell_angle_beta   89.97939465
_cell_angle_gamma   119.98470354
_symmetry_Int_Tables_number   1
_chemical_formula_structural   Dy2YIr2Rh7
_chemical_formula_sum   'Dy4 Y2 Ir4 Rh14'
_cell_volume   421.92116409
_cell_formula_units_Z   2
loop_
 _symmetry_equiv_pos_site_id
 _symmetry_equiv_pos_as_xyz
  1  'x, y, z'
loop_
 _atom_site_type_symbol
 _atom_site_label
 _atom_site_symmetry_multiplicity
 _atom_site_fract_x
 _atom_site_fract_y
 _atom_site_fract_z
 _atom_site_occupancy
  Dy  Dy0  1  0.333057  0.666532  0.958680  1
  Dy  Dy1  1  0.666633  0.333316  0.041495  1
  Dy  Dy2  1  0.667855  0.333927  0.458842  1
  Dy  Dy3  1  0.333704  0.666850  0.541089  1
  Y  Y4  1  0.333106  0.666551  0.749956  1
  Y  Y5  1  0.666905  0.333453  0.251418  1
  Ir  Ir6  1  0.164527  0.830950  0.373772  1
  Ir  Ir7  1  0.164537  0.333579  0.373771  1
  Ir  Ir8  1  0.004042  0.002022  0.500246  1
  Ir  Ir9  1  0.999113  0.999557  0.999822  1
  Rh  Rh10  1  0.663275  0.831646  0.374802  1
  Rh  Rh11  1  0.832696  0.166717  0.625863  1
  Rh  Rh12  1  0.832703  0.665972  0.625861  1
  Rh  Rh13  1  0.333972  0.166986  0.625677  1
  Rh  Rh14  1  0.833055  0.167321  0.874622  1
  Rh  Rh15  1  0.833044  0.665744  0.874622  1
  Rh  Rh16  1  0.334321  0.167163  0.874690  1
  Rh  Rh17  1  0.167349  0.832789  0.124775  1
  Rh  Rh18  1  0.167343  0.334548  0.124778  1
  Rh  Rh19  1  0.666557  0.833275  0.125078  1
  Rh  Rh20  1  0.334159  0.667080  0.249716  1
  Rh  Rh21  1  0.666335  0.333168  0.750326  1
  Rh  Rh22  1  0.000943  0.000471  0.249989  1
  Rh  Rh23  1  0.000766  0.000385  0.750110  1
