# generated using pymatgen
data_Ce10CoSiBi6
_symmetry_space_group_name_H-M   'P 1'
_cell_length_a   6.55908502
_cell_length_b   9.57549569
_cell_length_c   9.57342400
_cell_angle_alpha   120.00717311
_cell_angle_beta   89.99598175
_cell_angle_gamma   90.00804700
_symmetry_Int_Tables_number   1
_chemical_formula_structural   Ce10CoSiBi6
_chemical_formula_sum   'Ce10 Co1 Si1 Bi6'
_cell_volume   520.68018561
_cell_formula_units_Z   1
loop_
 _symmetry_equiv_pos_site_id
 _symmetry_equiv_pos_as_xyz
  1  'x, y, z'
loop_
 _atom_site_type_symbol
 _atom_site_label
 _atom_site_symmetry_multiplicity
 _atom_site_fract_x
 _atom_site_fract_y
 _atom_site_fract_z
 _atom_site_occupancy
  Ce  Ce0  1  0.499332  0.333683  0.666666  1
  Ce  Ce1  1  0.499332  0.667017  0.333334  1
  Ce  Ce2  1  0.999329  0.666800  0.332825  1
  Ce  Ce3  1  0.999329  0.333975  0.667175  1
  Ce  Ce4  1  0.760431  0.238162  0.000000  1
  Ce  Ce5  1  0.760582  0.761605  0.761609  1
  Ce  Ce6  1  0.760582  0.999995  0.238391  1
  Ce  Ce7  1  0.238939  0.748469  0.000000  1
  Ce  Ce8  1  0.238812  0.250673  0.250719  1
  Ce  Ce9  1  0.238812  0.999955  0.749281  1
  Co  Co10  1  0.030495  0.999257  0.000000  1
  Si  Si11  1  0.476105  0.999211  0.000000  1
  Bi  Bi12  1  0.745740  0.608239  0.000000  1
  Bi  Bi13  1  0.746257  0.392281  0.392060  1
  Bi  Bi14  1  0.746257  0.000223  0.607940  1
  Bi  Bi15  1  0.253384  0.387713  0.000000  1
  Bi  Bi16  1  0.253142  0.612717  0.612691  1
  Bi  Bi17  1  0.253142  0.000024  0.387309  1
