# generated using pymatgen
data_V7GaMo4(SeO5)8
_symmetry_space_group_name_H-M   'P 1'
_cell_length_a   6.31862235
_cell_length_b   9.04792451
_cell_length_c   15.33084034
_cell_angle_alpha   89.87149630
_cell_angle_beta   90.08740627
_cell_angle_gamma   89.69833989
_symmetry_Int_Tables_number   1
_chemical_formula_structural   V7GaMo4(SeO5)8
_chemical_formula_sum   'V7 Ga1 Mo4 Se8 O40'
_cell_volume   876.45516324
_cell_formula_units_Z   1
loop_
 _symmetry_equiv_pos_site_id
 _symmetry_equiv_pos_as_xyz
  1  'x, y, z'
loop_
 _atom_site_type_symbol
 _atom_site_label
 _atom_site_symmetry_multiplicity
 _atom_site_fract_x
 _atom_site_fract_y
 _atom_site_fract_z
 _atom_site_occupancy
  V  V0  1  0.005968  0.005283  0.649115  1
  V  V1  1  0.995142  0.994989  0.350408  1
  V  V2  1  0.505774  0.494656  0.149438  1
  V  V3  1  0.494003  0.504978  0.850196  1
  V  V4  1  0.995378  0.493803  0.150714  1
  V  V5  1  0.005922  0.504910  0.850274  1
  V  V6  1  0.494140  0.005802  0.649553  1
  Ga  Ga7  1  0.509057  0.995348  0.350225  1
  Mo  Mo8  1  0.249918  0.838501  0.839166  1
  Mo  Mo9  1  0.749439  0.160174  0.160374  1
  Mo  Mo10  1  0.743814  0.664841  0.338028  1
  Mo  Mo11  1  0.249218  0.338757  0.660775  1
  Se  Se12  1  0.251803  0.776686  0.506330  1
  Se  Se13  1  0.250172  0.808606  0.194115  1
  Se  Se14  1  0.746238  0.222380  0.492015  1
  Se  Se15  1  0.750399  0.191444  0.806723  1
  Se  Se16  1  0.749715  0.691812  0.692893  1
  Se  Se17  1  0.749577  0.723210  0.006589  1
  Se  Se18  1  0.256515  0.305706  0.307915  1
  Se  Se19  1  0.251259  0.275609  0.993810  1
  O  O20  1  0.963751  0.159474  0.435724  1
  O  O21  1  0.037958  0.334977  0.241367  1
  O  O22  1  0.031371  0.421640  0.612136  1
  O  O23  1  0.467582  0.836126  0.261615  1
  O  O24  1  0.032221  0.921277  0.887530  1
  O  O25  1  0.251200  0.908411  0.418609  1
  O  O26  1  0.465321  0.840421  0.564381  1
  O  O27  1  0.749967  0.591363  0.918918  1
  O  O28  1  0.749235  0.091864  0.580578  1
  O  O29  1  0.741049  0.863729  0.387903  1
  O  O30  1  0.750003  0.386123  0.798697  1
  O  O31  1  0.530307  0.579611  0.387082  1
  O  O32  1  0.249284  0.142415  0.611610  1
  O  O33  1  0.534629  0.659544  0.063800  1
  O  O34  1  0.750424  0.084162  0.278300  1
  O  O35  1  0.532018  0.163684  0.739552  1
  O  O36  1  0.036383  0.840854  0.563482  1
  O  O37  1  0.751854  0.358018  0.112551  1
  O  O38  1  0.465866  0.420942  0.611986  1
  O  O39  1  0.532404  0.158002  0.434605  1
  O  O40  1  0.250620  0.613620  0.201713  1
  O  O41  1  0.967674  0.663335  0.760249  1
  O  O42  1  0.749364  0.582405  0.221507  1
  O  O43  1  0.249775  0.641631  0.888174  1
  O  O44  1  0.963003  0.586211  0.387809  1
  O  O45  1  0.465163  0.340395  0.936627  1
  O  O46  1  0.466905  0.920171  0.888079  1
  O  O47  1  0.967649  0.163557  0.739293  1
  O  O48  1  0.250207  0.917352  0.721130  1
  O  O49  1  0.250045  0.417061  0.778855  1
  O  O50  1  0.532110  0.663669  0.760203  1
  O  O51  1  0.967365  0.077501  0.112056  1
  O  O52  1  0.250795  0.407573  0.081688  1
  O  O53  1  0.258947  0.109067  0.299029  1
  O  O54  1  0.030808  0.836613  0.260806  1
  O  O55  1  0.963790  0.658133  0.064329  1
  O  O56  1  0.750360  0.886370  0.701250  1
  O  O57  1  0.531649  0.079350  0.111541  1
  O  O58  1  0.471319  0.335933  0.240210  1
  O  O59  1  0.036178  0.339917  0.936369  1
