# generated using pymatgen
data_Ag4TeIr3O14
_symmetry_space_group_name_H-M   'P 1'
_cell_length_a   7.32337919
_cell_length_b   7.21065939
_cell_length_c   7.21065969
_cell_angle_alpha   119.61460638
_cell_angle_beta   118.98936100
_cell_angle_gamma   90.76798724
_symmetry_Int_Tables_number   1
_chemical_formula_structural   Ag4TeIr3O14
_chemical_formula_sum   'Ag4 Te1 Ir3 O14'
_cell_volume   273.07257558
_cell_formula_units_Z   1
loop_
 _symmetry_equiv_pos_site_id
 _symmetry_equiv_pos_as_xyz
  1  'x, y, z'
loop_
 _atom_site_type_symbol
 _atom_site_label
 _atom_site_symmetry_multiplicity
 _atom_site_fract_x
 _atom_site_fract_y
 _atom_site_fract_z
 _atom_site_occupancy
  Ag  Ag0  1  0.000000  0.500000  0.500000  1
  Ag  Ag1  1  0.500000  0.000000  0.500000  1
  Ag  Ag2  1  0.000000  0.500000  0.000000  1
  Ag  Ag3  1  0.000000  0.000000  0.500000  1
  Te  Te4  1  0.000000  0.000000  0.000000  1
  Ir  Ir5  1  0.500000  0.500000  0.000000  1
  Ir  Ir6  1  0.500000  0.500000  0.500000  1
  Ir  Ir7  1  0.500000  0.000000  0.000000  1
  O  O8  1  0.545626  0.406203  0.722329  1
  O  O9  1  0.454374  0.176704  0.860577  1
  O  O10  1  0.820378  0.083987  0.143352  1
  O  O11  1  0.179622  0.322974  0.263609  1
  O  O12  1  0.454374  0.593797  0.277671  1
  O  O13  1  0.545626  0.823296  0.139423  1
  O  O14  1  0.179622  0.916013  0.856648  1
  O  O15  1  0.820378  0.677026  0.736391  1
  O  O16  1  0.611746  0.266639  0.345106  1
  O  O17  1  0.388254  0.733361  0.654894  1
  O  O18  1  0.183235  0.413516  0.769719  1
  O  O19  1  0.816765  0.586484  0.230281  1
  O  O20  1  0.852654  0.092641  0.760013  1
  O  O21  1  0.147346  0.907359  0.239987  1
