# generated using pymatgen
data_La3Mg2CdSn2Au
_symmetry_space_group_name_H-M   'P 1'
_cell_length_a   7.85596400
_cell_length_b   7.80372712
_cell_length_c   4.66209500
_cell_angle_alpha   90.00000000
_cell_angle_beta   90.00000000
_cell_angle_gamma   120.22167849
_symmetry_Int_Tables_number   1
_chemical_formula_structural   La3Mg2CdSn2Au
_chemical_formula_sum   'La3 Mg2 Cd1 Sn2 Au1'
_cell_volume   246.96695741
_cell_formula_units_Z   1
loop_
 _symmetry_equiv_pos_site_id
 _symmetry_equiv_pos_as_xyz
  1  'x, y, z'
loop_
 _atom_site_type_symbol
 _atom_site_label
 _atom_site_symmetry_multiplicity
 _atom_site_fract_x
 _atom_site_fract_y
 _atom_site_fract_z
 _atom_site_occupancy
  La  La0  1  0.591391  0.000000  0.000000  1
  La  La1  1  0.002126  0.596146  0.000000  1
  La  La2  1  0.405980  0.403854  0.000000  1
  Mg  Mg3  1  0.000841  0.231511  0.500000  1
  Mg  Mg4  1  0.769330  0.768489  0.500000  1
  Cd  Cd5  1  0.237968  0.000000  0.500000  1
  Sn  Sn6  1  0.333615  0.664125  0.500000  1
  Sn  Sn7  1  0.669491  0.335875  0.500000  1
  Au  Au8  1  0.989259  0.000000  0.000000  1
