# generated using pymatgen
data_Co3MoP3Ru2
_symmetry_space_group_name_H-M   'P 1'
_cell_length_a   5.73796526
_cell_length_b   5.73796562
_cell_length_c   3.74976300
_cell_angle_alpha   90.00000000
_cell_angle_beta   90.00000000
_cell_angle_gamma   119.46690843
_symmetry_Int_Tables_number   1
_chemical_formula_structural   Co3MoP3Ru2
_chemical_formula_sum   'Co3 Mo1 P3 Ru2'
_cell_volume   107.48757588
_cell_formula_units_Z   1
loop_
 _symmetry_equiv_pos_site_id
 _symmetry_equiv_pos_as_xyz
  1  'x, y, z'
loop_
 _atom_site_type_symbol
 _atom_site_label
 _atom_site_symmetry_multiplicity
 _atom_site_fract_x
 _atom_site_fract_y
 _atom_site_fract_z
 _atom_site_occupancy
  Co  Co0  1  0.745262  0.996582  0.000000  1
  Co  Co1  1  0.996582  0.745262  0.000000  1
  Co  Co2  1  0.258032  0.258032  0.000000  1
  Mo  Mo3  1  0.585855  0.585855  0.500000  1
  P  P4  1  0.331624  0.671204  0.000000  1
  P  P5  1  0.671204  0.331624  0.000000  1
  P  P6  1  0.997368  0.997368  0.500000  1
  Ru  Ru7  1  0.407514  0.006559  0.500000  1
  Ru  Ru8  1  0.006559  0.407514  0.500000  1
