# generated using pymatgen
data_VTcI4
_symmetry_space_group_name_H-M   'P 1'
_cell_length_a   10.49815710
_cell_length_b   10.49815794
_cell_length_c   12.70819000
_cell_angle_alpha   90.00000000
_cell_angle_beta   90.00000000
_cell_angle_gamma   105.83514801
_symmetry_Int_Tables_number   1
_chemical_formula_structural   VTcI4
_chemical_formula_sum   'V6 Tc6 I24'
_cell_volume   1347.43513018
_cell_formula_units_Z   6
loop_
 _symmetry_equiv_pos_site_id
 _symmetry_equiv_pos_as_xyz
  1  'x, y, z'
loop_
 _atom_site_type_symbol
 _atom_site_label
 _atom_site_symmetry_multiplicity
 _atom_site_fract_x
 _atom_site_fract_y
 _atom_site_fract_z
 _atom_site_occupancy
  V  V0  1  0.372696  0.372696  0.565693  1
  V  V1  1  0.127304  0.127304  0.065693  1
  V  V2  1  0.391086  0.606704  0.500450  1
  V  V3  1  0.108914  0.893296  0.000450  1
  V  V4  1  0.606704  0.391086  0.500450  1
  V  V5  1  0.893296  0.108914  0.000450  1
  Tc  Tc6  1  0.069039  0.069039  0.867545  1
  Tc  Tc7  1  0.430961  0.430961  0.367545  1
  Tc  Tc8  1  0.567423  0.567423  0.632281  1
  Tc  Tc9  1  0.932577  0.932577  0.132281  1
  Tc  Tc10  1  0.867341  0.867341  0.932183  1
  Tc  Tc11  1  0.632659  0.632659  0.432183  1
  I  I12  1  0.654970  0.654970  0.844413  1
  I  I13  1  0.845030  0.845030  0.344413  1
  I  I14  1  0.158334  0.158334  0.658485  1
  I  I15  1  0.341666  0.341666  0.158485  1
  I  I16  1  0.223130  0.774993  0.501464  1
  I  I17  1  0.276870  0.725007  0.001464  1
  I  I18  1  0.774993  0.223130  0.501464  1
  I  I19  1  0.725007  0.276870  0.001464  1
  I  I20  1  0.320654  0.092131  0.932745  1
  I  I21  1  0.179346  0.407869  0.432745  1
  I  I22  1  0.594721  0.821706  0.566134  1
  I  I23  1  0.905279  0.678294  0.066134  1
  I  I24  1  0.950741  0.179808  0.206020  1
  I  I25  1  0.549259  0.320192  0.706020  1
  I  I26  1  0.681134  0.454440  0.292886  1
  I  I27  1  0.818866  0.045560  0.792886  1
  I  I28  1  0.045560  0.818866  0.792886  1
  I  I29  1  0.454440  0.681134  0.292886  1
  I  I30  1  0.320192  0.549259  0.706020  1
  I  I31  1  0.179808  0.950741  0.206020  1
  I  I32  1  0.092131  0.320654  0.932745  1
  I  I33  1  0.407869  0.179346  0.432745  1
  I  I34  1  0.821706  0.594721  0.566134  1
  I  I35  1  0.678294  0.905279  0.066134  1
