# generated using pymatgen
data_CeMgZnPt3
_symmetry_space_group_name_H-M   'P 1'
_cell_length_a   5.52344716
_cell_length_b   5.52344725
_cell_length_c   5.23358595
_cell_angle_alpha   58.15032417
_cell_angle_beta   58.15032907
_cell_angle_gamma   60.00000667
_symmetry_Int_Tables_number   1
_chemical_formula_structural   CeMgZnPt3
_chemical_formula_sum   'Ce1 Mg1 Zn1 Pt3'
_cell_volume   109.64261653
_cell_formula_units_Z   1
loop_
 _symmetry_equiv_pos_site_id
 _symmetry_equiv_pos_as_xyz
  1  'x, y, z'
loop_
 _atom_site_type_symbol
 _atom_site_label
 _atom_site_symmetry_multiplicity
 _atom_site_fract_x
 _atom_site_fract_y
 _atom_site_fract_z
 _atom_site_occupancy
  Ce  Ce0  1  0.248186  0.248186  0.255443  1
  Mg  Mg1  1  0.994216  0.994216  0.017353  1
  Zn  Zn2  1  0.626526  0.626526  0.120421  1
  Pt  Pt3  1  0.628606  0.123859  0.618928  1
  Pt  Pt4  1  0.628606  0.628606  0.618928  1
  Pt  Pt5  1  0.123859  0.628606  0.618928  1
