# generated using pymatgen
data_Tb3Dy2Si10P2Ir19
_symmetry_space_group_name_H-M   'P 1'
_cell_length_a   12.84091507
_cell_length_b   12.82295163
_cell_length_c   3.96291700
_cell_angle_alpha   90.00000000
_cell_angle_beta   90.00000000
_cell_angle_gamma   119.95373183
_symmetry_Int_Tables_number   1
_chemical_formula_structural   Tb3Dy2Si10P2Ir19
_chemical_formula_sum   'Tb3 Dy2 Si10 P2 Ir19'
_cell_volume   565.36885121
_cell_formula_units_Z   1
loop_
 _symmetry_equiv_pos_site_id
 _symmetry_equiv_pos_as_xyz
  1  'x, y, z'
loop_
 _atom_site_type_symbol
 _atom_site_label
 _atom_site_symmetry_multiplicity
 _atom_site_fract_x
 _atom_site_fract_y
 _atom_site_fract_z
 _atom_site_occupancy
  Tb  Tb0  1  0.333086  0.666498  0.500000  1
  Tb  Tb1  1  0.666914  0.333410  0.500000  1
  Tb  Tb2  1  0.000000  0.812791  0.000000  1
  Dy  Dy3  1  0.185380  0.186737  0.000000  1
  Dy  Dy4  1  0.814620  0.001356  0.000000  1
  Si  Si5  1  0.000000  0.632525  0.500000  1
  Si  Si6  1  0.367165  0.367471  0.500000  1
  Si  Si7  1  0.632835  0.000306  0.500000  1
  Si  Si8  1  0.519053  0.686784  0.000000  1
  Si  Si9  1  0.313390  0.832171  0.000000  1
  Si  Si10  1  0.168131  0.480636  0.000000  1
  Si  Si11  1  0.480947  0.167731  0.000000  1
  Si  Si12  1  0.686610  0.518780  0.000000  1
  Si  Si13  1  0.831869  0.312505  0.000000  1
  Si  Si14  1  0.000000  0.178719  0.500000  1
  P  P15  1  0.819932  0.820325  0.500000  1
  P  P16  1  0.180068  0.000393  0.500000  1
  Ir  Ir17  1  0.512745  0.872661  0.000000  1
  Ir  Ir18  1  0.127156  0.639981  0.000000  1
  Ir  Ir19  1  0.361255  0.487619  0.000000  1
  Ir  Ir20  1  0.487255  0.359915  0.000000  1
  Ir  Ir21  1  0.872844  0.512824  0.000000  1
  Ir  Ir22  1  0.638745  0.126364  0.000000  1
  Ir  Ir23  1  0.000000  0.447634  0.500000  1
  Ir  Ir24  1  0.553777  0.552757  0.500000  1
  Ir  Ir25  1  0.446223  0.998981  0.500000  1
  Ir  Ir26  1  0.000000  0.281800  0.000000  1
  Ir  Ir27  1  0.720687  0.720903  0.000000  1
  Ir  Ir28  1  0.279313  0.000216  0.000000  1
  Ir  Ir29  1  0.626848  0.806803  0.500000  1
  Ir  Ir30  1  0.193643  0.820271  0.500000  1
  Ir  Ir31  1  0.181785  0.375587  0.500000  1
  Ir  Ir32  1  0.373152  0.179955  0.500000  1
  Ir  Ir33  1  0.806357  0.626629  0.500000  1
  Ir  Ir34  1  0.818215  0.193803  0.500000  1
  Ir  Ir35  1  0.000000  0.996159  0.500000  1
