# generated using pymatgen
data_Li6NbVO8
_symmetry_space_group_name_H-M   'P 1'
_cell_length_a   6.44693300
_cell_length_b   5.56789749
_cell_length_c   5.02602400
_cell_angle_alpha   89.95811815
_cell_angle_beta   90.00028439
_cell_angle_gamma   90.00010311
_symmetry_Int_Tables_number   1
_chemical_formula_structural   Li6NbVO8
_chemical_formula_sum   'Li6 Nb1 V1 O8'
_cell_volume   180.41341598
_cell_formula_units_Z   1
loop_
 _symmetry_equiv_pos_site_id
 _symmetry_equiv_pos_as_xyz
  1  'x, y, z'
loop_
 _atom_site_type_symbol
 _atom_site_label
 _atom_site_symmetry_multiplicity
 _atom_site_fract_x
 _atom_site_fract_y
 _atom_site_fract_z
 _atom_site_occupancy
  Li  Li0  1  0.000000  0.177021  0.494761  1
  Li  Li1  1  0.255704  0.333404  0.984940  1
  Li  Li2  1  0.260416  0.664118  0.495364  1
  Li  Li3  1  0.500004  0.829879  0.986761  1
  Li  Li4  1  0.739571  0.664134  0.495368  1
  Li  Li5  1  0.744305  0.333403  0.984950  1
  Nb  Nb6  1  0.000006  0.831796  0.000891  1
  V  V7  1  0.499995  0.168022  0.493283  1
  O  O8  1  0.000003  0.154197  0.890233  1
  O  O9  1  0.999997  0.827160  0.375656  1
  O  O10  1  0.240810  0.671491  0.887139  1
  O  O11  1  0.276808  0.318532  0.384780  1
  O  O12  1  0.500000  0.166604  0.840587  1
  O  O13  1  0.499999  0.870211  0.382836  1
  O  O14  1  0.723181  0.318532  0.384778  1
  O  O15  1  0.759199  0.671496  0.887142  1
