# generated using pymatgen
data_Ho5BeSe4
_symmetry_space_group_name_H-M   'P 1'
_cell_length_a   7.02250086
_cell_length_b   7.02250094
_cell_length_c   7.02250066
_cell_angle_alpha   99.54025549
_cell_angle_beta   99.54024772
_cell_angle_gamma   131.95285215
_symmetry_Int_Tables_number   1
_chemical_formula_structural   Ho5BeSe4
_chemical_formula_sum   'Ho5 Be1 Se4'
_cell_volume   235.24531999
_cell_formula_units_Z   1
loop_
 _symmetry_equiv_pos_site_id
 _symmetry_equiv_pos_as_xyz
  1  'x, y, z'
loop_
 _atom_site_type_symbol
 _atom_site_label
 _atom_site_symmetry_multiplicity
 _atom_site_fract_x
 _atom_site_fract_y
 _atom_site_fract_z
 _atom_site_occupancy
  Ho  Ho0  1  0.405344  0.784674  0.190019  1
  Ho  Ho1  1  0.000000  0.000000  0.000000  1
  Ho  Ho2  1  0.594656  0.215326  0.809981  1
  Ho  Ho3  1  0.215326  0.405344  0.620669  1
  Ho  Ho4  1  0.784674  0.594656  0.379331  1
  Be  Be5  1  0.500000  0.500000  0.000000  1
  Se  Se6  1  0.094672  0.696236  0.790907  1
  Se  Se7  1  0.696236  0.905328  0.601563  1
  Se  Se8  1  0.303764  0.094672  0.398437  1
  Se  Se9  1  0.905328  0.303764  0.209093  1
