# generated using pymatgen
data_Th7Co2Re
_symmetry_space_group_name_H-M   'P 1'
_cell_length_a   9.89910157
_cell_length_b   9.85426622
_cell_length_c   6.26365899
_cell_angle_alpha   90.40573010
_cell_angle_beta   89.19220084
_cell_angle_gamma   120.15061869
_symmetry_Int_Tables_number   1
_chemical_formula_structural   Th7Co2Re
_chemical_formula_sum   'Th14 Co4 Re2'
_cell_volume   528.29256336
_cell_formula_units_Z   2
loop_
 _symmetry_equiv_pos_site_id
 _symmetry_equiv_pos_as_xyz
  1  'x, y, z'
loop_
 _atom_site_type_symbol
 _atom_site_label
 _atom_site_symmetry_multiplicity
 _atom_site_fract_x
 _atom_site_fract_y
 _atom_site_fract_z
 _atom_site_occupancy
  Th  Th0  1  0.327760  0.661738  0.038192  1
  Th  Th1  1  0.666023  0.338262  0.538192  1
  Th  Th2  1  0.127773  0.872077  0.240223  1
  Th  Th3  1  0.255697  0.127923  0.740223  1
  Th  Th4  1  0.880828  0.750597  0.744527  1
  Th  Th5  1  0.130229  0.249403  0.244527  1
  Th  Th6  1  0.750881  0.870682  0.257501  1
  Th  Th7  1  0.880200  0.129318  0.757501  1
  Th  Th8  1  0.545560  0.461850  0.048819  1
  Th  Th9  1  0.083709  0.538150  0.548819  1
  Th  Th10  1  0.456232  0.917957  0.550679  1
  Th  Th11  1  0.538276  0.082043  0.050679  1
  Th  Th12  1  0.914002  0.464110  0.050519  1
  Th  Th13  1  0.449891  0.535890  0.550519  1
  Co  Co14  1  0.185012  0.370843  0.798033  1
  Co  Co15  1  0.814167  0.629157  0.298033  1
  Co  Co16  1  0.370897  0.187860  0.297396  1
  Co  Co17  1  0.183039  0.812140  0.797396  1
  Re  Re18  1  0.815139  0.190457  0.304111  1
  Re  Re19  1  0.624683  0.809543  0.804111  1
