# generated using pymatgen
data_Ac(Al5Os)2
_symmetry_space_group_name_H-M   'P 1'
_cell_length_a   6.95805475
_cell_length_b   6.95805510
_cell_length_c   9.29354900
_cell_angle_alpha   90.00000000
_cell_angle_beta   90.00000000
_cell_angle_gamma   96.55305287
_symmetry_Int_Tables_number   1
_chemical_formula_structural   Ac(Al5Os)2
_chemical_formula_sum   'Ac2 Al20 Os4'
_cell_volume   447.00313967
_cell_formula_units_Z   2
loop_
 _symmetry_equiv_pos_site_id
 _symmetry_equiv_pos_as_xyz
  1  'x, y, z'
loop_
 _atom_site_type_symbol
 _atom_site_label
 _atom_site_symmetry_multiplicity
 _atom_site_fract_x
 _atom_site_fract_y
 _atom_site_fract_z
 _atom_site_occupancy
  Ac  Ac0  1  0.877794  0.122206  0.750000  1
  Ac  Ac1  1  0.122206  0.877794  0.250000  1
  Al  Al2  1  0.621221  0.378779  0.548957  1
  Al  Al3  1  0.378779  0.621221  0.451043  1
  Al  Al4  1  0.378779  0.621221  0.048957  1
  Al  Al5  1  0.621221  0.378779  0.951043  1
  Al  Al6  1  0.229297  0.229297  0.500000  1
  Al  Al7  1  0.770703  0.770703  0.500000  1
  Al  Al8  1  0.770703  0.770703  0.000000  1
  Al  Al9  1  0.229297  0.229297  0.000000  1
  Al  Al10  1  0.835444  0.164556  0.103556  1
  Al  Al11  1  0.164556  0.835444  0.896444  1
  Al  Al12  1  0.164556  0.835444  0.603556  1
  Al  Al13  1  0.835444  0.164556  0.396444  1
  Al  Al14  1  0.858089  0.589660  0.750000  1
  Al  Al15  1  0.141911  0.410340  0.250000  1
  Al  Al16  1  0.410340  0.141911  0.750000  1
  Al  Al17  1  0.589660  0.858089  0.250000  1
  Al  Al18  1  0.220950  0.484867  0.750000  1
  Al  Al19  1  0.779050  0.515133  0.250000  1
  Al  Al20  1  0.515133  0.779050  0.750000  1
  Al  Al21  1  0.484867  0.220950  0.250000  1
  Os  Os22  1  0.000000  0.500000  0.500000  1
  Os  Os23  1  0.000000  0.500000  0.000000  1
  Os  Os24  1  0.500000  0.000000  0.000000  1
  Os  Os25  1  0.500000  0.000000  0.500000  1
