# generated using pymatgen
data_Rb12AlSiAs6
_symmetry_space_group_name_H-M   'P 1'
_cell_length_a   13.01901373
_cell_length_b   5.55212500
_cell_length_c   13.36447112
_cell_angle_alpha   90.00000000
_cell_angle_beta   119.40878593
_cell_angle_gamma   90.00000000
_symmetry_Int_Tables_number   1
_chemical_formula_structural   Rb12AlSiAs6
_chemical_formula_sum   'Rb12 Al1 Si1 As6'
_cell_volume   841.54301022
_cell_formula_units_Z   1
loop_
 _symmetry_equiv_pos_site_id
 _symmetry_equiv_pos_as_xyz
  1  'x, y, z'
loop_
 _atom_site_type_symbol
 _atom_site_label
 _atom_site_symmetry_multiplicity
 _atom_site_fract_x
 _atom_site_fract_y
 _atom_site_fract_z
 _atom_site_occupancy
  Rb  Rb0  1  0.396325  0.250000  0.016539  1
  Rb  Rb1  1  0.965296  0.750001  0.210077  1
  Rb  Rb2  1  0.132983  0.250000  0.119560  1
  Rb  Rb3  1  0.728930  0.250000  0.249550  1
  Rb  Rb4  1  0.492254  0.250000  0.378792  1
  Rb  Rb5  1  0.760077  0.750001  0.533577  1
  Rb  Rb6  1  0.235302  0.250000  0.472221  1
  Rb  Rb7  1  0.509442  0.750001  0.621009  1
  Rb  Rb8  1  0.269673  0.750001  0.747017  1
  Rb  Rb9  1  0.869661  0.750001  0.886912  1
  Rb  Rb10  1  0.031419  0.250000  0.793830  1
  Rb  Rb11  1  0.602770  0.750001  0.976307  1
  Al  Al12  1  0.660278  0.250000  0.827038  1
  Si  Si13  1  0.340968  0.750001  0.171610  1
  As  As14  1  0.196441  0.750001  0.977445  1
  As  As15  1  0.540490  0.750001  0.223577  1
  As  As16  1  0.283966  0.750001  0.312716  1
  As  As17  1  0.723206  0.250000  0.680343  1
  As  As18  1  0.448439  0.250000  0.768848  1
  As  As19  1  0.812083  0.250000  0.033033  1
