# generated using pymatgen
data_TbPm(AlSi)2
_symmetry_space_group_name_H-M   'P 1'
_cell_length_a   5.80525977
_cell_length_b   5.80525850
_cell_length_c   5.80525900
_cell_angle_alpha   138.44242582
_cell_angle_beta   104.65132612
_cell_angle_gamma   89.92977590
_symmetry_Int_Tables_number   1
_chemical_formula_structural   TbPm(AlSi)2
_chemical_formula_sum   'Tb1 Pm1 Al2 Si2'
_cell_volume   120.05363894
_cell_formula_units_Z   1
loop_
 _symmetry_equiv_pos_site_id
 _symmetry_equiv_pos_as_xyz
  1  'x, y, z'
loop_
 _atom_site_type_symbol
 _atom_site_label
 _atom_site_symmetry_multiplicity
 _atom_site_fract_x
 _atom_site_fract_y
 _atom_site_fract_z
 _atom_site_occupancy
  Tb  Tb0  1  0.499876  0.500000  0.999876  1
  Pm  Pm1  1  0.000126  0.000000  0.000126  1
  Al  Al2  1  0.582692  0.250044  0.332649  1
  Al  Al3  1  0.082605  0.749955  0.332649  1
  Si  Si4  1  0.917401  0.250050  0.667351  1
  Si  Si5  1  0.417299  0.749949  0.667350  1
