# generated using pymatgen
data_BaAc2MnS5
_symmetry_space_group_name_H-M   'P 1'
_cell_length_a   9.11520190
_cell_length_b   9.11520215
_cell_length_c   9.11520200
_cell_angle_alpha   126.63119737
_cell_angle_beta   126.63119853
_cell_angle_gamma   78.85317580
_symmetry_Int_Tables_number   1
_chemical_formula_structural   BaAc2MnS5
_chemical_formula_sum   'Ba2 Ac4 Mn2 S10'
_cell_volume   471.91336044
_cell_formula_units_Z   2
loop_
 _symmetry_equiv_pos_site_id
 _symmetry_equiv_pos_as_xyz
  1  'x, y, z'
loop_
 _atom_site_type_symbol
 _atom_site_label
 _atom_site_symmetry_multiplicity
 _atom_site_fract_x
 _atom_site_fract_y
 _atom_site_fract_z
 _atom_site_occupancy
  Ba  Ba0  1  0.750000  0.750000  0.000000  1
  Ba  Ba1  1  0.250000  0.250000  0.000000  1
  Ac  Ac2  1  0.662936  0.162936  0.825873  1
  Ac  Ac3  1  0.337064  0.837063  0.174126  1
  Ac  Ac4  1  0.837063  0.662935  0.499999  1
  Ac  Ac5  1  0.162936  0.337063  0.499999  1
  Mn  Mn6  1  0.750000  0.250000  0.499999  1
  Mn  Mn7  1  0.250000  0.750000  0.499999  1
  S  S8  1  0.000000  0.000000  0.000000  1
  S  S9  1  0.499999  0.499999  0.000000  1
  S  S10  1  0.288006  0.788005  0.799773  1
  S  S11  1  0.988232  0.488232  0.200227  1
  S  S12  1  0.211994  0.011768  0.500000  1
  S  S13  1  0.511768  0.711994  0.500000  1
  S  S14  1  0.711994  0.211993  0.200227  1
  S  S15  1  0.011768  0.511768  0.799773  1
  S  S16  1  0.488232  0.288006  0.500000  1
  S  S17  1  0.788006  0.988232  0.500000  1
