# generated using pymatgen
data_Pr16MgHg3Ir3Pt
_symmetry_space_group_name_H-M   'P 1'
_cell_length_a   10.01337045
_cell_length_b   10.05465338
_cell_length_c   10.05465368
_cell_angle_alpha   60.08909702
_cell_angle_beta   60.06506507
_cell_angle_gamma   60.06506799
_symmetry_Int_Tables_number   1
_chemical_formula_structural   Pr16MgHg3Ir3Pt
_chemical_formula_sum   'Pr16 Mg1 Hg3 Ir3 Pt1'
_cell_volume   716.99822491
_cell_formula_units_Z   1
loop_
 _symmetry_equiv_pos_site_id
 _symmetry_equiv_pos_as_xyz
  1  'x, y, z'
loop_
 _atom_site_type_symbol
 _atom_site_label
 _atom_site_symmetry_multiplicity
 _atom_site_fract_x
 _atom_site_fract_y
 _atom_site_fract_z
 _atom_site_occupancy
  Pr  Pr0  1  0.347140  0.346819  0.346819  1
  Pr  Pr1  1  0.352073  0.351376  0.951473  1
  Pr  Pr2  1  0.352073  0.951473  0.351376  1
  Pr  Pr3  1  0.944808  0.353699  0.353699  1
  Pr  Pr4  1  0.803052  0.192662  0.192662  1
  Pr  Pr5  1  0.185923  0.810661  0.810661  1
  Pr  Pr6  1  0.188417  0.807106  0.189821  1
  Pr  Pr7  1  0.806444  0.190643  0.807722  1
  Pr  Pr8  1  0.188417  0.189821  0.807106  1
  Pr  Pr9  1  0.806444  0.807722  0.190643  1
  Pr  Pr10  1  0.940281  0.562114  0.562114  1
  Pr  Pr11  1  0.560487  0.939523  0.939523  1
  Pr  Pr12  1  0.560429  0.941151  0.562295  1
  Pr  Pr13  1  0.938930  0.561334  0.938242  1
  Pr  Pr14  1  0.560429  0.562295  0.941151  1
  Pr  Pr15  1  0.938930  0.938242  0.561334  1
  Mg  Mg16  1  0.286760  0.570663  0.570663  1
  Hg  Hg17  1  0.580943  0.586211  0.586211  1
  Hg  Hg18  1  0.580799  0.586877  0.246432  1
  Hg  Hg19  1  0.580799  0.246432  0.586877  1
  Ir  Ir20  1  0.140785  0.142694  0.574441  1
  Ir  Ir21  1  0.140785  0.574441  0.142694  1
  Ir  Ir22  1  0.573544  0.142386  0.142386  1
  Pt  Pt23  1  0.141309  0.143660  0.143660  1
