# generated using pymatgen
data_Zr12Cu5MoOs6
_symmetry_space_group_name_H-M   'P 1'
_cell_length_a   4.66719401
_cell_length_b   6.62033900
_cell_length_c   13.84141702
_cell_angle_alpha   90.00000000
_cell_angle_beta   89.99358354
_cell_angle_gamma   90.00000000
_symmetry_Int_Tables_number   1
_chemical_formula_structural   Zr12Cu5MoOs6
_chemical_formula_sum   'Zr12 Cu5 Mo1 Os6'
_cell_volume   427.67772709
_cell_formula_units_Z   1
loop_
 _symmetry_equiv_pos_site_id
 _symmetry_equiv_pos_as_xyz
  1  'x, y, z'
loop_
 _atom_site_type_symbol
 _atom_site_label
 _atom_site_symmetry_multiplicity
 _atom_site_fract_x
 _atom_site_fract_y
 _atom_site_fract_z
 _atom_site_occupancy
  Zr  Zr0  1  0.500001  0.251737  0.000000  1
  Zr  Zr1  1  0.500001  0.748262  0.000000  1
  Zr  Zr2  1  0.999878  0.251119  0.164967  1
  Zr  Zr3  1  0.999878  0.748881  0.164967  1
  Zr  Zr4  1  0.499868  0.250398  0.332998  1
  Zr  Zr5  1  0.499868  0.749601  0.332998  1
  Zr  Zr6  1  0.000000  0.249288  0.500000  1
  Zr  Zr7  1  0.000000  0.750713  0.500000  1
  Zr  Zr8  1  0.500131  0.250398  0.667002  1
  Zr  Zr9  1  0.500131  0.749601  0.667002  1
  Zr  Zr10  1  0.000121  0.251119  0.835033  1
  Zr  Zr11  1  0.000121  0.748881  0.835033  1
  Cu  Cu12  1  0.499816  0.000000  0.166576  1
  Cu  Cu13  1  0.999808  0.500000  0.333049  1
  Cu  Cu14  1  0.500001  0.000000  0.500000  1
  Cu  Cu15  1  0.000193  0.500000  0.666951  1
  Cu  Cu16  1  0.500184  0.000000  0.833424  1
  Mo  Mo17  1  0.000000  0.500000  0.000000  1
  Os  Os18  1  0.000000  0.000000  0.000000  1
  Os  Os19  1  0.499880  0.500000  0.169992  1
  Os  Os20  1  0.999849  0.000000  0.335711  1
  Os  Os21  1  0.500001  0.500000  0.500000  1
  Os  Os22  1  0.000153  0.000000  0.664289  1
  Os  Os23  1  0.500120  0.500000  0.830008  1
