# generated using pymatgen
data_ErTm2Lu2Si3
_symmetry_space_group_name_H-M   'P 1'
_cell_length_a   8.29741510
_cell_length_b   8.29965296
_cell_length_c   6.19876700
_cell_angle_alpha   90.00000000
_cell_angle_beta   90.00000000
_cell_angle_gamma   120.00893266
_symmetry_Int_Tables_number   1
_chemical_formula_structural   ErTm2Lu2Si3
_chemical_formula_sum   'Er2 Tm4 Lu4 Si6'
_cell_volume   369.65756289
_cell_formula_units_Z   2
loop_
 _symmetry_equiv_pos_site_id
 _symmetry_equiv_pos_as_xyz
  1  'x, y, z'
loop_
 _atom_site_type_symbol
 _atom_site_label
 _atom_site_symmetry_multiplicity
 _atom_site_fract_x
 _atom_site_fract_y
 _atom_site_fract_z
 _atom_site_occupancy
  Er  Er0  1  0.757560  0.000112  0.750000  1
  Er  Er1  1  0.757560  0.757448  0.250000  1
  Tm  Tm2  1  0.000158  0.242731  0.250000  1
  Tm  Tm3  1  0.000158  0.757427  0.750000  1
  Tm  Tm4  1  0.242457  0.242406  0.750000  1
  Tm  Tm5  1  0.242457  0.000051  0.250000  1
  Lu  Lu6  1  0.666662  0.333331  0.000000  1
  Lu  Lu7  1  0.333141  0.666571  0.500000  1
  Lu  Lu8  1  0.333141  0.666571  0.000000  1
  Lu  Lu9  1  0.666662  0.333331  0.500000  1
  Si  Si10  1  0.394797  0.000022  0.750000  1
  Si  Si11  1  0.394797  0.394775  0.250000  1
  Si  Si12  1  0.000254  0.604923  0.250000  1
  Si  Si13  1  0.000254  0.395331  0.750000  1
  Si  Si14  1  0.604970  0.604736  0.750000  1
  Si  Si15  1  0.604970  0.000234  0.250000  1
