# generated using pymatgen
data_La20GaSi10Sn
_symmetry_space_group_name_H-M   'P 1'
_cell_length_a   7.90621200
_cell_length_b   7.90621200
_cell_length_c   14.53922200
_cell_angle_alpha   90.00000000
_cell_angle_beta   90.00000000
_cell_angle_gamma   90.00000000
_symmetry_Int_Tables_number   1
_chemical_formula_structural   La20GaSi10Sn
_chemical_formula_sum   'La20 Ga1 Si10 Sn1'
_cell_volume   908.82042490
_cell_formula_units_Z   1
loop_
 _symmetry_equiv_pos_site_id
 _symmetry_equiv_pos_as_xyz
  1  'x, y, z'
loop_
 _atom_site_type_symbol
 _atom_site_label
 _atom_site_symmetry_multiplicity
 _atom_site_fract_x
 _atom_site_fract_y
 _atom_site_fract_z
 _atom_site_occupancy
  La  La0  1  0.500000  0.000000  0.774604  1
  La  La1  1  0.334451  0.310004  0.106856  1
  La  La2  1  0.822201  0.823427  0.891966  1
  La  La3  1  0.000000  0.500000  0.236568  1
  La  La4  1  0.823713  0.179709  0.393493  1
  La  La5  1  0.177799  0.176573  0.891966  1
  La  La6  1  0.665549  0.689996  0.106856  1
  La  La7  1  0.000000  0.500000  0.724180  1
  La  La8  1  0.810683  0.833477  0.606707  1
  La  La9  1  0.320291  0.323713  0.393493  1
  La  La10  1  0.189996  0.834451  0.106856  1
  La  La11  1  0.189317  0.166523  0.606707  1
  La  La12  1  0.810004  0.165549  0.106856  1
  La  La13  1  0.333477  0.689317  0.606707  1
  La  La14  1  0.500000  0.000000  0.277538  1
  La  La15  1  0.676573  0.322201  0.891966  1
  La  La16  1  0.666523  0.310683  0.606707  1
  La  La17  1  0.323427  0.677799  0.891966  1
  La  La18  1  0.176287  0.820291  0.393493  1
  La  La19  1  0.679709  0.676287  0.393493  1
  Ga  Ga20  1  0.000000  0.500000  0.501035  1
  Si  Si21  1  0.614182  0.388691  0.249765  1
  Si  Si22  1  0.888591  0.114676  0.750163  1
  Si  Si23  1  0.500000  0.000000  0.494258  1
  Si  Si24  1  0.888691  0.885818  0.249765  1
  Si  Si25  1  0.111409  0.885324  0.750163  1
  Si  Si26  1  0.385324  0.388591  0.750163  1
  Si  Si27  1  0.111309  0.114182  0.249765  1
  Si  Si28  1  0.385818  0.611309  0.249765  1
  Si  Si29  1  0.614676  0.611409  0.750163  1
  Si  Si30  1  0.500000  0.000000  0.992716  1
  Sn  Sn31  1  0.000000  0.500000  0.003292  1
