# generated using pymatgen
data_Dy7Y(Si3Pt)4
_symmetry_space_group_name_H-M   'P 1'
_cell_length_a   8.13794900
_cell_length_b   8.13794912
_cell_length_c   8.15603300
_cell_angle_alpha   90.00000000
_cell_angle_beta   90.00000000
_cell_angle_gamma   119.99999543
_symmetry_Int_Tables_number   1
_chemical_formula_structural   Dy7Y(Si3Pt)4
_chemical_formula_sum   'Dy7 Y1 Si12 Pt4'
_cell_volume   467.77774960
_cell_formula_units_Z   1
loop_
 _symmetry_equiv_pos_site_id
 _symmetry_equiv_pos_as_xyz
  1  'x, y, z'
loop_
 _atom_site_type_symbol
 _atom_site_label
 _atom_site_symmetry_multiplicity
 _atom_site_fract_x
 _atom_site_fract_y
 _atom_site_fract_z
 _atom_site_occupancy
  Dy  Dy0  1  0.000000  0.000000  0.750000  1
  Dy  Dy1  1  0.002736  0.501368  0.250000  1
  Dy  Dy2  1  0.498632  0.501368  0.250000  1
  Dy  Dy3  1  0.501368  0.002737  0.750000  1
  Dy  Dy4  1  0.498632  0.997264  0.250000  1
  Dy  Dy5  1  0.501368  0.498632  0.750000  1
  Dy  Dy6  1  0.997263  0.498632  0.750000  1
  Y  Y7  1  0.000000  0.000000  0.250000  1
  Si  Si8  1  0.165450  0.330900  0.998781  1
  Si  Si9  1  0.669100  0.834550  0.998781  1
  Si  Si10  1  0.165450  0.330900  0.501219  1
  Si  Si11  1  0.330908  0.165454  0.000841  1
  Si  Si12  1  0.165450  0.834550  0.998781  1
  Si  Si13  1  0.669100  0.834550  0.501219  1
  Si  Si14  1  0.834546  0.669092  0.000841  1
  Si  Si15  1  0.330908  0.165454  0.499159  1
  Si  Si16  1  0.165450  0.834550  0.501219  1
  Si  Si17  1  0.834546  0.669092  0.499159  1
  Si  Si18  1  0.834546  0.165454  0.000841  1
  Si  Si19  1  0.834546  0.165454  0.499159  1
  Pt  Pt20  1  0.333333  0.666667  0.997254  1
  Pt  Pt21  1  0.333333  0.666667  0.502746  1
  Pt  Pt22  1  0.666667  0.333333  0.002753  1
  Pt  Pt23  1  0.666667  0.333333  0.497247  1
