# generated using pymatgen
data_Dy2Ho2Ga18Ir5Au
_symmetry_space_group_name_H-M   'P 1'
_cell_length_a   7.62891226
_cell_length_b   7.62925831
_cell_length_c   9.49230500
_cell_angle_alpha   89.98062667
_cell_angle_beta   89.96740834
_cell_angle_gamma   119.89017637
_symmetry_Int_Tables_number   1
_chemical_formula_structural   Dy2Ho2Ga18Ir5Au
_chemical_formula_sum   'Dy2 Ho2 Ga18 Ir5 Au1'
_cell_volume   478.99019662
_cell_formula_units_Z   1
loop_
 _symmetry_equiv_pos_site_id
 _symmetry_equiv_pos_as_xyz
  1  'x, y, z'
loop_
 _atom_site_type_symbol
 _atom_site_label
 _atom_site_symmetry_multiplicity
 _atom_site_fract_x
 _atom_site_fract_y
 _atom_site_fract_z
 _atom_site_occupancy
  Dy  Dy0  1  0.993519  0.665419  0.250965  1
  Dy  Dy1  1  0.999218  0.329120  0.749123  1
  Ho  Ho2  1  0.670974  0.000762  0.251032  1
  Ho  Ho3  1  0.334553  0.006594  0.748877  1
  Ga  Ga4  1  0.126720  0.123223  0.250857  1
  Ga  Ga5  1  0.876717  0.873200  0.749156  1
  Ga  Ga6  1  0.009851  0.334032  0.084586  1
  Ga  Ga7  1  0.011324  0.674637  0.916031  1
  Ga  Ga8  1  0.003469  0.666404  0.579220  1
  Ga  Ga9  1  0.334098  0.996768  0.420980  1
  Ga  Ga10  1  0.998649  0.334221  0.420057  1
  Ga  Ga11  1  0.665210  0.001069  0.579786  1
  Ga  Ga12  1  0.665392  0.989959  0.915600  1
  Ga  Ga13  1  0.326065  0.989093  0.083693  1
  Ga  Ga14  1  0.329473  0.330340  0.564401  1
  Ga  Ga15  1  0.669440  0.670677  0.435625  1
  Ga  Ga16  1  0.668337  0.676125  0.072540  1
  Ga  Ga17  1  0.324214  0.331379  0.927412  1
  Ga  Ga18  1  0.341250  0.551095  0.251418  1
  Ga  Ga19  1  0.660348  0.461220  0.743227  1
  Ga  Ga20  1  0.538408  0.339236  0.256806  1
  Ga  Ga21  1  0.449102  0.659047  0.748571  1
  Ir  Ir22  1  0.330219  0.669725  0.000000  1
  Ir  Ir23  1  0.328680  0.671313  0.499997  1
  Ir  Ir24  1  0.671808  0.328117  0.500003  1
  Ir  Ir25  1  0.000614  0.999350  0.999994  1
  Ir  Ir26  1  0.999684  0.000324  0.500022  1
  Au  Au27  1  0.672664  0.327550  0.000024  1
