# generated using pymatgen
data_NaNb8CuS16
_symmetry_space_group_name_H-M   'P 1'
_cell_length_a   6.74442119
_cell_length_b   6.74570120
_cell_length_c   13.54559448
_cell_angle_alpha   90.08704484
_cell_angle_beta   90.01793554
_cell_angle_gamma   119.99882924
_symmetry_Int_Tables_number   1
_chemical_formula_structural   NaNb8CuS16
_chemical_formula_sum   'Na1 Nb8 Cu1 S16'
_cell_volume   533.70930527
_cell_formula_units_Z   1
loop_
 _symmetry_equiv_pos_site_id
 _symmetry_equiv_pos_as_xyz
  1  'x, y, z'
loop_
 _atom_site_type_symbol
 _atom_site_label
 _atom_site_symmetry_multiplicity
 _atom_site_fract_x
 _atom_site_fract_y
 _atom_site_fract_z
 _atom_site_occupancy
  Na  Na0  1  0.000000  0.000000  0.500000  1
  Nb  Nb1  1  0.505997  0.494633  0.771543  1
  Nb  Nb2  1  0.011616  0.505564  0.228473  1
  Nb  Nb3  1  0.493930  0.987997  0.228439  1
  Nb  Nb4  1  0.506070  0.012003  0.771561  1
  Nb  Nb5  1  0.988384  0.494436  0.771527  1
  Nb  Nb6  1  0.494003  0.505367  0.228457  1
  Nb  Nb7  1  0.999780  0.000287  0.771820  1
  Nb  Nb8  1  0.000220  0.999713  0.228180  1
  Cu  Cu9  1  0.000000  0.000000  0.000000  1
  S  S10  1  0.832627  0.167728  0.342458  1
  S  S11  1  0.832618  0.665057  0.342505  1
  S  S12  1  0.335531  0.167854  0.342597  1
  S  S13  1  0.663436  0.832314  0.885751  1
  S  S14  1  0.167382  0.334943  0.657495  1
  S  S15  1  0.168731  0.832486  0.885600  1
  S  S16  1  0.168828  0.337611  0.885640  1
  S  S17  1  0.831269  0.167514  0.114400  1
  S  S18  1  0.336564  0.167686  0.114249  1
  S  S19  1  0.664469  0.832146  0.657403  1
  S  S20  1  0.332870  0.665745  0.110842  1
  S  S21  1  0.666363  0.333110  0.651869  1
  S  S22  1  0.667130  0.334255  0.889158  1
  S  S23  1  0.333637  0.666890  0.348131  1
  S  S24  1  0.831172  0.662389  0.114360  1
  S  S25  1  0.167373  0.832272  0.657542  1
