# generated using pymatgen
data_Ti3Zn3O
_symmetry_space_group_name_H-M   'P 1'
_cell_length_a   8.14134784
_cell_length_b   8.14134742
_cell_length_c   8.14134700
_cell_angle_alpha   59.99999764
_cell_angle_beta   59.99999933
_cell_angle_gamma   59.99999552
_symmetry_Int_Tables_number   1
_chemical_formula_structural   Ti3Zn3O
_chemical_formula_sum   'Ti12 Zn12 O4'
_cell_volume   381.56966555
_cell_formula_units_Z   4
loop_
 _symmetry_equiv_pos_site_id
 _symmetry_equiv_pos_as_xyz
  1  'x, y, z'
loop_
 _atom_site_type_symbol
 _atom_site_label
 _atom_site_symmetry_multiplicity
 _atom_site_fract_x
 _atom_site_fract_y
 _atom_site_fract_z
 _atom_site_occupancy
  Ti  Ti0  1  0.820428  0.820428  0.179572  1
  Ti  Ti1  1  0.179572  0.179572  0.820428  1
  Ti  Ti2  1  0.820428  0.179572  0.820428  1
  Ti  Ti3  1  0.179572  0.820428  0.179572  1
  Ti  Ti4  1  0.179572  0.820428  0.820428  1
  Ti  Ti5  1  0.820428  0.179572  0.179572  1
  Ti  Ti6  1  0.429572  0.429572  0.070428  1
  Ti  Ti7  1  0.070428  0.070428  0.429572  1
  Ti  Ti8  1  0.429572  0.070428  0.429572  1
  Ti  Ti9  1  0.070428  0.429572  0.070428  1
  Ti  Ti10  1  0.070428  0.429572  0.429572  1
  Ti  Ti11  1  0.429572  0.070428  0.070428  1
  Zn  Zn12  1  0.125000  0.625000  0.625000  1
  Zn  Zn13  1  0.625000  0.125000  0.625000  1
  Zn  Zn14  1  0.625000  0.625000  0.125000  1
  Zn  Zn15  1  0.625000  0.625000  0.625000  1
  Zn  Zn16  1  0.754959  0.415014  0.415014  1
  Zn  Zn17  1  0.415014  0.754959  0.415014  1
  Zn  Zn18  1  0.415014  0.415014  0.754959  1
  Zn  Zn19  1  0.415014  0.415014  0.415014  1
  Zn  Zn20  1  0.495041  0.834986  0.834986  1
  Zn  Zn21  1  0.834986  0.495041  0.834986  1
  Zn  Zn22  1  0.834986  0.834986  0.495041  1
  Zn  Zn23  1  0.834986  0.834986  0.834986  1
  O  O24  1  0.625000  0.125000  0.125000  1
  O  O25  1  0.125000  0.625000  0.125000  1
  O  O26  1  0.125000  0.125000  0.625000  1
  O  O27  1  0.125000  0.125000  0.125000  1
