# generated using pymatgen
data_YHg4Se2Cl5
_symmetry_space_group_name_H-M   'P 1'
_cell_length_a   8.49476770
_cell_length_b   10.52089200
_cell_length_c   9.18649644
_cell_angle_alpha   90.00000000
_cell_angle_beta   113.14071827
_cell_angle_gamma   90.00000000
_symmetry_Int_Tables_number   1
_chemical_formula_structural   YHg4Se2Cl5
_chemical_formula_sum   'Y2 Hg8 Se4 Cl10'
_cell_volume   754.96316094
_cell_formula_units_Z   2
loop_
 _symmetry_equiv_pos_site_id
 _symmetry_equiv_pos_as_xyz
  1  'x, y, z'
loop_
 _atom_site_type_symbol
 _atom_site_label
 _atom_site_symmetry_multiplicity
 _atom_site_fract_x
 _atom_site_fract_y
 _atom_site_fract_z
 _atom_site_occupancy
  Y  Y0  1  0.499522  0.430737  0.502732  1
  Y  Y1  1  0.500478  0.930737  0.497268  1
  Hg  Hg2  1  0.928322  0.180923  0.331077  1
  Hg  Hg3  1  0.071678  0.680923  0.668923  1
  Hg  Hg4  1  0.954656  0.668303  0.359096  1
  Hg  Hg5  1  0.045344  0.168303  0.640904  1
  Hg  Hg6  1  0.497071  0.181815  0.987281  1
  Hg  Hg7  1  0.502929  0.681815  0.012719  1
  Hg  Hg8  1  0.808038  0.432437  0.012086  1
  Hg  Hg9  1  0.191962  0.932437  0.987914  1
  Se  Se10  1  0.807019  0.190144  0.021713  1
  Se  Se11  1  0.192981  0.690144  0.978287  1
  Se  Se12  1  0.186641  0.172682  0.950034  1
  Se  Se13  1  0.813359  0.672682  0.049966  1
  Cl  Cl14  1  0.829423  0.925618  0.679777  1
  Cl  Cl15  1  0.170577  0.425618  0.320223  1
  Cl  Cl16  1  0.830477  0.438429  0.698792  1
  Cl  Cl17  1  0.169523  0.938429  0.301208  1
  Cl  Cl18  1  0.417804  0.457071  0.755033  1
  Cl  Cl19  1  0.582196  0.957071  0.244967  1
  Cl  Cl20  1  0.594049  0.395391  0.264527  1
  Cl  Cl21  1  0.405951  0.895391  0.735473  1
  Cl  Cl22  1  0.497091  0.180051  0.553033  1
  Cl  Cl23  1  0.502909  0.680051  0.446967  1
