# generated using pymatgen
data_Tb8Ho8Cd4CoRu3
_symmetry_space_group_name_H-M   'P 1'
_cell_length_a   9.63066205
_cell_length_b   9.62539293
_cell_length_c   9.58528519
_cell_angle_alpha   59.53825294
_cell_angle_beta   59.55462673
_cell_angle_gamma   59.70708291
_symmetry_Int_Tables_number   1
_chemical_formula_structural   Tb8Ho8Cd4CoRu3
_chemical_formula_sum   'Tb8 Ho8 Cd4 Co1 Ru3'
_cell_volume   622.58082586
_cell_formula_units_Z   1
loop_
 _symmetry_equiv_pos_site_id
 _symmetry_equiv_pos_as_xyz
  1  'x, y, z'
loop_
 _atom_site_type_symbol
 _atom_site_label
 _atom_site_symmetry_multiplicity
 _atom_site_fract_x
 _atom_site_fract_y
 _atom_site_fract_z
 _atom_site_occupancy
  Tb  Tb0  1  0.939359  0.938720  0.559441  1
  Tb  Tb1  1  0.811398  0.190085  0.186647  1
  Tb  Tb2  1  0.937518  0.564976  0.560135  1
  Tb  Tb3  1  0.940822  0.559612  0.940226  1
  Tb  Tb4  1  0.811655  0.810975  0.185430  1
  Tb  Tb5  1  0.344714  0.345551  0.351273  1
  Tb  Tb6  1  0.559145  0.940523  0.940636  1
  Tb  Tb7  1  0.564522  0.937368  0.560627  1
  Ho  Ho8  1  0.189034  0.814999  0.807982  1
  Ho  Ho9  1  0.187810  0.187059  0.808771  1
  Ho  Ho10  1  0.346287  0.345907  0.961181  1
  Ho  Ho11  1  0.342925  0.962139  0.350713  1
  Ho  Ho12  1  0.814987  0.188929  0.807225  1
  Ho  Ho13  1  0.560184  0.561007  0.939295  1
  Ho  Ho14  1  0.190521  0.811095  0.186500  1
  Ho  Ho15  1  0.962416  0.342992  0.351059  1
  Cd  Cd16  1  0.580089  0.580490  0.257867  1
  Cd  Cd17  1  0.258814  0.580570  0.579525  1
  Cd  Cd18  1  0.580150  0.580048  0.579828  1
  Cd  Cd19  1  0.580395  0.258911  0.579860  1
  Co  Co20  1  0.139506  0.139721  0.580768  1
  Ru  Ru21  1  0.580133  0.139341  0.141708  1
  Ru  Ru22  1  0.138460  0.138588  0.141538  1
  Ru  Ru23  1  0.139155  0.580399  0.141767  1
