# generated using pymatgen
data_LiAcZn2(Ni3B)2
_symmetry_space_group_name_H-M   'P 1'
_cell_length_a   5.24390200
_cell_length_b   5.24362754
_cell_length_c   6.69000800
_cell_angle_alpha   90.00000000
_cell_angle_beta   90.00000000
_cell_angle_gamma   120.00171886
_symmetry_Int_Tables_number   1
_chemical_formula_structural   LiAcZn2(Ni3B)2
_chemical_formula_sum   'Li1 Ac1 Zn2 Ni6 B2'
_cell_volume   159.30747303
_cell_formula_units_Z   1
loop_
 _symmetry_equiv_pos_site_id
 _symmetry_equiv_pos_as_xyz
  1  'x, y, z'
loop_
 _atom_site_type_symbol
 _atom_site_label
 _atom_site_symmetry_multiplicity
 _atom_site_fract_x
 _atom_site_fract_y
 _atom_site_fract_z
 _atom_site_occupancy
  Li  Li0  1  0.999982  0.000000  0.500000  1
  Ac  Ac1  1  0.999983  0.000000  0.000000  1
  Zn  Zn2  1  0.333335  0.666706  0.000000  1
  Zn  Zn3  1  0.666632  0.333294  0.000000  1
  Ni  Ni4  1  0.499985  0.000000  0.306606  1
  Ni  Ni5  1  0.499983  0.499999  0.306623  1
  Ni  Ni6  1  0.999983  0.500001  0.306623  1
  Ni  Ni7  1  0.499985  0.000000  0.693394  1
  Ni  Ni8  1  0.499983  0.499999  0.693377  1
  Ni  Ni9  1  0.999983  0.500001  0.693377  1
  B  B10  1  0.333279  0.666597  0.500000  1
  B  B11  1  0.666683  0.333403  0.500000  1
