# generated using pymatgen
data_DyY(MgRh)2
_symmetry_space_group_name_H-M   'P 1'
_cell_length_a   4.12161800
_cell_length_b   7.12150709
_cell_length_c   8.52850416
_cell_angle_alpha   89.82880068
_cell_angle_beta   90.00000000
_cell_angle_gamma   90.00000000
_symmetry_Int_Tables_number   1
_chemical_formula_structural   DyY(MgRh)2
_chemical_formula_sum   'Dy2 Y2 Mg4 Rh4'
_cell_volume   250.32866059
_cell_formula_units_Z   2
loop_
 _symmetry_equiv_pos_site_id
 _symmetry_equiv_pos_as_xyz
  1  'x, y, z'
loop_
 _atom_site_type_symbol
 _atom_site_label
 _atom_site_symmetry_multiplicity
 _atom_site_fract_x
 _atom_site_fract_y
 _atom_site_fract_z
 _atom_site_occupancy
  Dy  Dy0  1  0.750000  0.962888  0.676028  1
  Dy  Dy1  1  0.250000  0.037112  0.323972  1
  Y  Y2  1  0.250000  0.537908  0.176670  1
  Y  Y3  1  0.750000  0.462092  0.823330  1
  Mg  Mg4  1  0.250000  0.636405  0.559222  1
  Mg  Mg5  1  0.750000  0.363595  0.440778  1
  Mg  Mg6  1  0.750000  0.863868  0.058775  1
  Mg  Mg7  1  0.250000  0.136132  0.941225  1
  Rh  Rh8  1  0.250000  0.754275  0.869698  1
  Rh  Rh9  1  0.750000  0.245725  0.130302  1
  Rh  Rh10  1  0.750000  0.749910  0.371333  1
  Rh  Rh11  1  0.250000  0.250090  0.628667  1
