# generated using pymatgen
data_YbCdGaCu3
_symmetry_space_group_name_H-M   'P 1'
_cell_length_a   5.17086573
_cell_length_b   5.08738795
_cell_length_c   5.17086700
_cell_angle_alpha   59.45569968
_cell_angle_beta   59.99999825
_cell_angle_gamma   59.45569272
_symmetry_Int_Tables_number   1
_chemical_formula_structural   YbCdGaCu3
_chemical_formula_sum   'Yb1 Cd1 Ga1 Cu3'
_cell_volume   95.38587051
_cell_formula_units_Z   1
loop_
 _symmetry_equiv_pos_site_id
 _symmetry_equiv_pos_as_xyz
  1  'x, y, z'
loop_
 _atom_site_type_symbol
 _atom_site_label
 _atom_site_symmetry_multiplicity
 _atom_site_fract_x
 _atom_site_fract_y
 _atom_site_fract_z
 _atom_site_occupancy
  Yb  Yb0  1  0.751445  0.745664  0.751445  1
  Cd  Cd1  1  0.002181  0.993457  0.002181  1
  Ga  Ga2  1  0.373595  0.879214  0.373595  1
  Cu  Cu3  1  0.373366  0.377222  0.373366  1
  Cu  Cu4  1  0.876047  0.377222  0.373366  1
  Cu  Cu5  1  0.373366  0.377222  0.876047  1
