# generated using pymatgen
data_Ba5NaHg4
_symmetry_space_group_name_H-M   'P 1'
_cell_length_a   4.23061400
_cell_length_b   4.23061400
_cell_length_c   22.41903900
_cell_angle_alpha   90.00000000
_cell_angle_beta   90.00000000
_cell_angle_gamma   90.00000000
_symmetry_Int_Tables_number   1
_chemical_formula_structural   Ba5NaHg4
_chemical_formula_sum   'Ba5 Na1 Hg4'
_cell_volume   401.25808573
_cell_formula_units_Z   1
loop_
 _symmetry_equiv_pos_site_id
 _symmetry_equiv_pos_as_xyz
  1  'x, y, z'
loop_
 _atom_site_type_symbol
 _atom_site_label
 _atom_site_symmetry_multiplicity
 _atom_site_fract_x
 _atom_site_fract_y
 _atom_site_fract_z
 _atom_site_occupancy
  Ba  Ba0  1  0.500000  0.500000  0.125462  1
  Ba  Ba1  1  0.500000  0.500000  0.311273  1
  Ba  Ba2  1  0.500000  0.500000  0.500000  1
  Ba  Ba3  1  0.500000  0.500000  0.688727  1
  Ba  Ba4  1  0.500000  0.500000  0.874538  1
  Na  Na5  1  0.000000  0.000000  0.000000  1
  Hg  Hg6  1  0.000000  0.000000  0.211670  1
  Hg  Hg7  1  0.000000  0.000000  0.406306  1
  Hg  Hg8  1  0.000000  0.000000  0.593694  1
  Hg  Hg9  1  0.000000  0.000000  0.788330  1
