# generated using pymatgen
data_Tb20GaSi14Ir
_symmetry_space_group_name_H-M   'P 1'
_cell_length_a   7.48086455
_cell_length_b   7.73295532
_cell_length_c   14.72270009
_cell_angle_alpha   90.20048161
_cell_angle_beta   89.87911707
_cell_angle_gamma   89.81953576
_symmetry_Int_Tables_number   1
_chemical_formula_structural   Tb20GaSi14Ir
_chemical_formula_sum   'Tb20 Ga1 Si14 Ir1'
_cell_volume   851.68494103
_cell_formula_units_Z   1
loop_
 _symmetry_equiv_pos_site_id
 _symmetry_equiv_pos_as_xyz
  1  'x, y, z'
loop_
 _atom_site_type_symbol
 _atom_site_label
 _atom_site_symmetry_multiplicity
 _atom_site_fract_x
 _atom_site_fract_y
 _atom_site_fract_z
 _atom_site_occupancy
  Tb  Tb0  1  0.684297  0.177521  0.624314  1
  Tb  Tb1  1  0.183390  0.334267  0.881910  1
  Tb  Tb2  1  0.315880  0.809787  0.116539  1
  Tb  Tb3  1  0.823429  0.680696  0.377574  1
  Tb  Tb4  1  0.315624  0.819422  0.378024  1
  Tb  Tb5  1  0.822799  0.674805  0.120878  1
  Tb  Tb6  1  0.679429  0.178756  0.876620  1
  Tb  Tb7  1  0.179291  0.319540  0.623528  1
  Tb  Tb8  1  0.528338  0.681568  0.600007  1
  Tb  Tb9  1  0.028100  0.813467  0.902121  1
  Tb  Tb10  1  0.468053  0.322828  0.098694  1
  Tb  Tb11  1  0.972716  0.186439  0.400083  1
  Tb  Tb12  1  0.469313  0.320441  0.400569  1
  Tb  Tb13  1  0.971028  0.186696  0.097383  1
  Tb  Tb14  1  0.527739  0.683369  0.899389  1
  Tb  Tb15  1  0.029357  0.817690  0.601187  1
  Tb  Tb16  1  0.852851  0.509511  0.752789  1
  Tb  Tb17  1  0.351288  0.993461  0.750791  1
  Tb  Tb18  1  0.152418  0.487618  0.241289  1
  Tb  Tb19  1  0.647984  0.011481  0.246641  1
  Ga  Ga20  1  0.649488  0.971209  0.459231  1
  Si  Si21  1  0.355405  0.026405  0.958170  1
  Si  Si22  1  0.853063  0.470987  0.540502  1
  Si  Si23  1  0.351832  0.029223  0.541391  1
  Si  Si24  1  0.846065  0.472683  0.958408  1
  Si  Si25  1  0.644914  0.969083  0.037985  1
  Si  Si26  1  0.144490  0.529309  0.462123  1
  Si  Si27  1  0.477497  0.397183  0.748403  1
  Si  Si28  1  0.978972  0.104944  0.752226  1
  Si  Si29  1  0.528785  0.607044  0.253532  1
  Si  Si30  1  0.024161  0.898050  0.250466  1
  Si  Si31  1  0.735391  0.872434  0.750411  1
  Si  Si32  1  0.236931  0.628264  0.748689  1
  Si  Si33  1  0.266231  0.121310  0.250491  1
  Si  Si34  1  0.762030  0.376089  0.253369  1
  Ir  Ir35  1  0.141421  0.516418  0.044273  1
