# generated using pymatgen
data_Sm2LuSi2
_symmetry_space_group_name_H-M   'P 1'
_cell_length_a   7.47893000
_cell_length_b   7.47893000
_cell_length_c   4.32960100
_cell_angle_alpha   90.00000000
_cell_angle_beta   90.00000000
_cell_angle_gamma   90.00000000
_symmetry_Int_Tables_number   1
_chemical_formula_structural   Sm2LuSi2
_chemical_formula_sum   'Sm4 Lu2 Si4'
_cell_volume   242.17360796
_cell_formula_units_Z   2
loop_
 _symmetry_equiv_pos_site_id
 _symmetry_equiv_pos_as_xyz
  1  'x, y, z'
loop_
 _atom_site_type_symbol
 _atom_site_label
 _atom_site_symmetry_multiplicity
 _atom_site_fract_x
 _atom_site_fract_y
 _atom_site_fract_z
 _atom_site_occupancy
  Sm  Sm0  1  0.676572  0.176572  0.500000  1
  Sm  Sm1  1  0.323428  0.823428  0.500000  1
  Sm  Sm2  1  0.176572  0.323428  0.500000  1
  Sm  Sm3  1  0.823428  0.676572  0.500000  1
  Lu  Lu4  1  0.000000  0.000000  0.000000  1
  Lu  Lu5  1  0.500000  0.500000  0.000000  1
  Si  Si6  1  0.115694  0.615694  0.000000  1
  Si  Si7  1  0.884306  0.384306  0.000000  1
  Si  Si8  1  0.615694  0.884306  0.000000  1
  Si  Si9  1  0.384306  0.115694  0.000000  1
