# generated using pymatgen
data_Gd12InFe2Co2Cu
_symmetry_space_group_name_H-M   'P 1'
_cell_length_a   8.40427003
_cell_length_b   8.40405318
_cell_length_c   8.40112030
_cell_angle_alpha   110.77495104
_cell_angle_beta   110.20495019
_cell_angle_gamma   107.46213435
_symmetry_Int_Tables_number   1
_chemical_formula_structural   Gd12InFe2Co2Cu
_chemical_formula_sum   'Gd12 In1 Fe2 Co2 Cu1'
_cell_volume   456.29204623
_cell_formula_units_Z   1
loop_
 _symmetry_equiv_pos_site_id
 _symmetry_equiv_pos_as_xyz
  1  'x, y, z'
loop_
 _atom_site_type_symbol
 _atom_site_label
 _atom_site_symmetry_multiplicity
 _atom_site_fract_x
 _atom_site_fract_y
 _atom_site_fract_z
 _atom_site_occupancy
  Gd  Gd0  1  0.184740  0.290535  0.475279  1
  Gd  Gd1  1  0.815260  0.709465  0.524721  1
  Gd  Gd2  1  0.184824  0.709446  0.894271  1
  Gd  Gd3  1  0.815176  0.290554  0.105729  1
  Gd  Gd4  1  0.316529  0.619540  0.303001  1
  Gd  Gd5  1  0.683471  0.380460  0.696999  1
  Gd  Gd6  1  0.316496  0.013496  0.696975  1
  Gd  Gd7  1  0.683504  0.986504  0.303025  1
  Gd  Gd8  1  0.416173  0.215362  0.200868  1
  Gd  Gd9  1  0.583827  0.784638  0.799132  1
  Gd  Gd10  1  0.014536  0.215336  0.799165  1
  Gd  Gd11  1  0.985464  0.784664  0.200835  1
  In  In12  1  0.500000  0.500000  0.000000  1
  Fe  Fe13  1  0.109659  0.609681  0.499961  1
  Fe  Fe14  1  0.890341  0.390319  0.500039  1
  Co  Co15  1  0.377712  0.999945  0.377646  1
  Co  Co16  1  0.622288  0.000055  0.622354  1
  Cu  Cu17  1  0.000000  0.000000  0.000000  1
