# generated using pymatgen
data_Ca2Er2As6Rh7
_symmetry_space_group_name_H-M   'P 1'
_cell_length_a   7.29424981
_cell_length_b   7.29424981
_cell_length_c   7.27600188
_cell_angle_alpha   109.48640808
_cell_angle_beta   109.48641735
_cell_angle_gamma   109.54228528
_symmetry_Int_Tables_number   1
_chemical_formula_structural   Ca2Er2As6Rh7
_chemical_formula_sum   'Ca2 Er2 As6 Rh7'
_cell_volume   297.63714992
_cell_formula_units_Z   1
loop_
 _symmetry_equiv_pos_site_id
 _symmetry_equiv_pos_as_xyz
  1  'x, y, z'
loop_
 _atom_site_type_symbol
 _atom_site_label
 _atom_site_symmetry_multiplicity
 _atom_site_fract_x
 _atom_site_fract_y
 _atom_site_fract_z
 _atom_site_occupancy
  Ca  Ca0  1  0.500000  0.500000  0.500000  1
  Ca  Ca1  1  0.000000  0.000000  0.500000  1
  Er  Er2  1  0.000000  0.500000  0.000000  1
  Er  Er3  1  0.500000  0.000000  0.000000  1
  As  As4  1  0.678893  0.999096  0.677989  1
  As  As5  1  0.678537  0.678537  0.000000  1
  As  As6  1  0.321463  0.321463  0.000000  1
  As  As7  1  0.999096  0.678893  0.677989  1
  As  As8  1  0.000904  0.321107  0.322011  1
  As  As9  1  0.321107  0.000904  0.322011  1
  Rh  Rh10  1  0.496345  0.750152  0.246497  1
  Rh  Rh11  1  0.750000  0.250000  0.500000  1
  Rh  Rh12  1  0.250000  0.750000  0.500000  1
  Rh  Rh13  1  0.249848  0.503655  0.753503  1
  Rh  Rh14  1  0.000000  0.000000  0.000000  1
  Rh  Rh15  1  0.503655  0.249848  0.753503  1
  Rh  Rh16  1  0.750152  0.496345  0.246497  1
