# generated using pymatgen
data_YbNbP7Ru12
_symmetry_space_group_name_H-M   'P 1'
_cell_length_a   9.36208900
_cell_length_b   9.36208933
_cell_length_c   3.90161100
_cell_angle_alpha   90.00000000
_cell_angle_beta   90.00000000
_cell_angle_gamma   120.00000236
_symmetry_Int_Tables_number   1
_chemical_formula_structural   YbNbP7Ru12
_chemical_formula_sum   'Yb1 Nb1 P7 Ru12'
_cell_volume   296.15572643
_cell_formula_units_Z   1
loop_
 _symmetry_equiv_pos_site_id
 _symmetry_equiv_pos_as_xyz
  1  'x, y, z'
loop_
 _atom_site_type_symbol
 _atom_site_label
 _atom_site_symmetry_multiplicity
 _atom_site_fract_x
 _atom_site_fract_y
 _atom_site_fract_z
 _atom_site_occupancy
  Yb  Yb0  1  0.333333  0.666667  0.000000  1
  Nb  Nb1  1  0.666667  0.333333  0.500000  1
  P  P2  1  0.599151  0.720879  0.500000  1
  P  P3  1  0.000000  0.000000  0.000000  1
  P  P4  1  0.279121  0.878272  0.500000  1
  P  P5  1  0.121728  0.400849  0.500000  1
  P  P6  1  0.887871  0.571231  0.000000  1
  P  P7  1  0.428769  0.316639  0.000000  1
  P  P8  1  0.683361  0.112129  0.000000  1
  Ru  Ru9  1  0.558941  0.960992  0.500000  1
  Ru  Ru10  1  0.402052  0.441059  0.500000  1
  Ru  Ru11  1  0.914465  0.121501  0.500000  1
  Ru  Ru12  1  0.207036  0.085535  0.500000  1
  Ru  Ru13  1  0.878499  0.792964  0.500000  1
  Ru  Ru14  1  0.725292  0.888261  0.000000  1
  Ru  Ru15  1  0.111739  0.837029  0.000000  1
  Ru  Ru16  1  0.162971  0.274708  0.000000  1
  Ru  Ru17  1  0.427464  0.079079  0.000000  1
  Ru  Ru18  1  0.920921  0.348386  0.000000  1
  Ru  Ru19  1  0.651614  0.572536  0.000000  1
  Ru  Ru20  1  0.039008  0.597948  0.500000  1
