# generated using pymatgen
data_Er4ZnSi6Rh
_symmetry_space_group_name_H-M   'P 1'
_cell_length_a   8.10519800
_cell_length_b   8.10519854
_cell_length_c   7.97369100
_cell_angle_alpha   90.00000000
_cell_angle_beta   90.00000000
_cell_angle_gamma   119.99999778
_symmetry_Int_Tables_number   1
_chemical_formula_structural   Er4ZnSi6Rh
_chemical_formula_sum   'Er8 Zn2 Si12 Rh2'
_cell_volume   453.64625449
_cell_formula_units_Z   2
loop_
 _symmetry_equiv_pos_site_id
 _symmetry_equiv_pos_as_xyz
  1  'x, y, z'
loop_
 _atom_site_type_symbol
 _atom_site_label
 _atom_site_symmetry_multiplicity
 _atom_site_fract_x
 _atom_site_fract_y
 _atom_site_fract_z
 _atom_site_occupancy
  Er  Er0  1  0.000000  0.000000  0.250000  1
  Er  Er1  1  0.000000  0.000000  0.750000  1
  Er  Er2  1  0.492829  0.507171  0.250000  1
  Er  Er3  1  0.492829  0.985658  0.250000  1
  Er  Er4  1  0.014342  0.507171  0.250000  1
  Er  Er5  1  0.498811  0.501189  0.750000  1
  Er  Er6  1  0.002379  0.501189  0.750000  1
  Er  Er7  1  0.498811  0.997621  0.750000  1
  Zn  Zn8  1  0.666667  0.333333  0.488569  1
  Zn  Zn9  1  0.666667  0.333333  0.011431  1
  Si  Si10  1  0.835853  0.164147  0.499968  1
  Si  Si11  1  0.835853  0.671708  0.499968  1
  Si  Si12  1  0.328292  0.164147  0.499968  1
  Si  Si13  1  0.835853  0.164147  0.000032  1
  Si  Si14  1  0.835853  0.671708  0.000032  1
  Si  Si15  1  0.328292  0.164147  0.000032  1
  Si  Si16  1  0.168535  0.831465  0.999152  1
  Si  Si17  1  0.662931  0.831465  0.999152  1
  Si  Si18  1  0.168535  0.337069  0.999152  1
  Si  Si19  1  0.168535  0.831465  0.500848  1
  Si  Si20  1  0.662931  0.831465  0.500848  1
  Si  Si21  1  0.168535  0.337069  0.500848  1
  Rh  Rh22  1  0.333333  0.666667  0.992613  1
  Rh  Rh23  1  0.333333  0.666667  0.507387  1
