# generated using pymatgen
data_Ba6La2Te2IrO18
_symmetry_space_group_name_H-M   'P 1'
_cell_length_a   10.61340656
_cell_length_b   10.61340619
_cell_length_c   10.61340478
_cell_angle_alpha   146.68875949
_cell_angle_beta   131.72198483
_cell_angle_gamma   59.91948761
_symmetry_Int_Tables_number   1
_chemical_formula_structural   Ba6La2Te2IrO18
_chemical_formula_sum   'Ba6 La2 Te2 Ir1 O18'
_cell_volume   485.63210468
_cell_formula_units_Z   1
loop_
 _symmetry_equiv_pos_site_id
 _symmetry_equiv_pos_as_xyz
  1  'x, y, z'
loop_
 _atom_site_type_symbol
 _atom_site_label
 _atom_site_symmetry_multiplicity
 _atom_site_fract_x
 _atom_site_fract_y
 _atom_site_fract_z
 _atom_site_occupancy
  Ba  Ba0  1  0.782003  0.501011  0.280992  1
  Ba  Ba1  1  0.376604  0.150340  0.226264  1
  Ba  Ba2  1  0.080035  0.850602  0.229434  1
  Ba  Ba3  1  0.220019  0.501011  0.719008  1
  Ba  Ba4  1  0.924075  0.150340  0.773736  1
  Ba  Ba5  1  0.621168  0.850602  0.770566  1
  La  La6  1  0.667113  0.667113  0.000000  1
  La  La7  1  0.332699  0.332699  0.000000  1
  Te  Te8  1  0.500331  0.000331  0.500000  1
  Te  Te9  1  0.832490  0.332490  0.500000  1
  Ir  Ir10  1  0.166781  0.666781  0.500000  1
  O  O11  1  0.722377  0.000432  0.721945  1
  O  O12  1  0.392908  0.665132  0.727776  1
  O  O13  1  0.061478  0.333537  0.727939  1
  O  O14  1  0.576836  0.849068  0.272231  1
  O  O15  1  0.241175  0.509997  0.268822  1
  O  O16  1  0.907306  0.182716  0.275410  1
  O  O17  1  0.423577  0.696066  0.272490  1
  O  O18  1  0.092274  0.368505  0.276230  1
  O  O19  1  0.758071  0.028768  0.270696  1
  O  O20  1  0.278488  0.000432  0.278055  1
  O  O21  1  0.937354  0.665132  0.272224  1
  O  O22  1  0.605599  0.333537  0.272061  1
  O  O23  1  0.423577  0.151086  0.727510  1
  O  O24  1  0.092274  0.816044  0.723770  1
  O  O25  1  0.758071  0.487375  0.729304  1
  O  O26  1  0.576836  0.304606  0.727769  1
  O  O27  1  0.241175  0.972352  0.731178  1
  O  O28  1  0.907306  0.631896  0.724590  1
