# generated using pymatgen
data_SrTh3Pd11Pt
_symmetry_space_group_name_H-M   'P 1'
_cell_length_a   5.91995095
_cell_length_b   5.91994985
_cell_length_c   9.74205000
_cell_angle_alpha   89.83363735
_cell_angle_beta   90.16636262
_cell_angle_gamma   120.01679288
_symmetry_Int_Tables_number   1
_chemical_formula_structural   SrTh3Pd11Pt
_chemical_formula_sum   'Sr1 Th3 Pd11 Pt1'
_cell_volume   295.62500628
_cell_formula_units_Z   1
loop_
 _symmetry_equiv_pos_site_id
 _symmetry_equiv_pos_as_xyz
  1  'x, y, z'
loop_
 _atom_site_type_symbol
 _atom_site_label
 _atom_site_symmetry_multiplicity
 _atom_site_fract_x
 _atom_site_fract_y
 _atom_site_fract_z
 _atom_site_occupancy
  Sr  Sr0  1  0.333144  0.666856  0.249457  1
  Th  Th1  1  0.000066  0.999934  0.494129  1
  Th  Th2  1  0.000016  0.999984  0.006124  1
  Th  Th3  1  0.666093  0.333907  0.749854  1
  Pd  Pd4  1  0.501821  0.002341  0.503381  1
  Pd  Pd5  1  0.997659  0.498179  0.503381  1
  Pd  Pd6  1  0.501851  0.498149  0.996498  1
  Pd  Pd7  1  0.501883  0.003814  0.996447  1
  Pd  Pd8  1  0.996186  0.498117  0.996447  1
  Pd  Pd9  1  0.824166  0.648716  0.249420  1
  Pd  Pd10  1  0.351284  0.175834  0.249420  1
  Pd  Pd11  1  0.825302  0.174698  0.248608  1
  Pd  Pd12  1  0.172485  0.347063  0.750797  1
  Pd  Pd13  1  0.652937  0.827515  0.750797  1
  Pd  Pd14  1  0.172679  0.827321  0.751356  1
  Pt  Pt15  1  0.502427  0.497573  0.503885  1
