# generated using pymatgen
data_Ho3Er5Re3B24Rh
_symmetry_space_group_name_H-M   'P 1'
_cell_length_a   3.65978800
_cell_length_b   9.12906779
_cell_length_c   11.50453409
_cell_angle_alpha   90.15088923
_cell_angle_beta   90.00000000
_cell_angle_gamma   90.00000000
_symmetry_Int_Tables_number   1
_chemical_formula_structural   Ho3Er5Re3B24Rh
_chemical_formula_sum   'Ho3 Er5 Re3 B24 Rh1'
_cell_volume   384.37035994
_cell_formula_units_Z   1
loop_
 _symmetry_equiv_pos_site_id
 _symmetry_equiv_pos_as_xyz
  1  'x, y, z'
loop_
 _atom_site_type_symbol
 _atom_site_label
 _atom_site_symmetry_multiplicity
 _atom_site_fract_x
 _atom_site_fract_y
 _atom_site_fract_z
 _atom_site_occupancy
  Ho  Ho0  1  0.000000  0.318195  0.415440  1
  Ho  Ho1  1  0.000000  0.678421  0.591123  1
  Ho  Ho2  1  0.000000  0.826922  0.081426  1
  Er  Er3  1  0.000000  0.177461  0.912711  1
  Er  Er4  1  0.000000  0.943441  0.370102  1
  Er  Er5  1  0.000000  0.055826  0.628901  1
  Er  Er6  1  0.000000  0.441299  0.128734  1
  Er  Er7  1  0.000000  0.556546  0.871659  1
  Re  Re8  1  0.000000  0.362289  0.677872  1
  Re  Re9  1  0.000000  0.138669  0.180004  1
  Re  Re10  1  0.000000  0.861449  0.820676  1
  B  B11  1  0.500000  0.554036  0.433719  1
  B  B12  1  0.500000  0.446636  0.566517  1
  B  B13  1  0.500000  0.053481  0.066348  1
  B  B14  1  0.500000  0.947323  0.932863  1
  B  B15  1  0.500000  0.749321  0.420276  1
  B  B16  1  0.500000  0.250125  0.580874  1
  B  B17  1  0.500000  0.249695  0.081000  1
  B  B18  1  0.500000  0.751337  0.918983  1
  B  B19  1  0.500000  0.791321  0.265039  1
  B  B20  1  0.500000  0.208014  0.734311  1
  B  B21  1  0.500000  0.292119  0.235248  1
  B  B22  1  0.500000  0.707897  0.765787  1
  B  B23  1  0.500000  0.631762  0.183969  1
  B  B24  1  0.500000  0.369343  0.814500  1
  B  B25  1  0.500000  0.130726  0.315073  1
  B  B26  1  0.500000  0.868605  0.685284  1
  B  B27  1  0.500000  0.982644  0.212082  1
  B  B28  1  0.500000  0.017860  0.787038  1
  B  B29  1  0.500000  0.483115  0.287895  1
  B  B30  1  0.500000  0.518365  0.712521  1
  B  B31  1  0.500000  0.603481  0.029237  1
  B  B32  1  0.500000  0.397555  0.972144  1
  B  B33  1  0.500000  0.101398  0.471174  1
  B  B34  1  0.500000  0.895373  0.528164  1
  Rh  Rh35  1  0.000000  0.637952  0.321303  1
