# generated using pymatgen
data_Ca4Zn4OsRu3
_symmetry_space_group_name_H-M   'P 1'
_cell_length_a   5.47427250
_cell_length_b   5.42331328
_cell_length_c   8.71670200
_cell_angle_alpha   90.00000000
_cell_angle_beta   90.00000000
_cell_angle_gamma   119.25392862
_symmetry_Int_Tables_number   1
_chemical_formula_structural   Ca4Zn4OsRu3
_chemical_formula_sum   'Ca4 Zn4 Os1 Ru3'
_cell_volume   225.78239407
_cell_formula_units_Z   1
loop_
 _symmetry_equiv_pos_site_id
 _symmetry_equiv_pos_as_xyz
  1  'x, y, z'
loop_
 _atom_site_type_symbol
 _atom_site_label
 _atom_site_symmetry_multiplicity
 _atom_site_fract_x
 _atom_site_fract_y
 _atom_site_fract_z
 _atom_site_occupancy
  Ca  Ca0  1  0.333380  0.663244  0.058464  1
  Ca  Ca1  1  0.666846  0.328052  0.558320  1
  Ca  Ca2  1  0.666846  0.328052  0.941680  1
  Ca  Ca3  1  0.333380  0.663244  0.441536  1
  Zn  Zn4  1  0.657438  0.846067  0.750000  1
  Zn  Zn5  1  0.338757  0.188966  0.250000  1
  Zn  Zn6  1  0.848956  0.191046  0.250000  1
  Zn  Zn7  1  0.150726  0.340232  0.750000  1
  Os  Os8  1  0.157562  0.846807  0.750000  1
  Ru  Ru9  1  0.003483  0.956039  0.998498  1
  Ru  Ru10  1  0.003483  0.956039  0.501502  1
  Ru  Ru11  1  0.839143  0.692212  0.250000  1
