# generated using pymatgen
data_Ta10GaRh4
_symmetry_space_group_name_H-M   'P 1'
_cell_length_a   9.88512900
_cell_length_b   9.88512900
_cell_length_c   5.18597300
_cell_angle_alpha   90.00000000
_cell_angle_beta   90.00000000
_cell_angle_gamma   90.00000000
_symmetry_Int_Tables_number   1
_chemical_formula_structural   Ta10GaRh4
_chemical_formula_sum   'Ta20 Ga2 Rh8'
_cell_volume   506.75137262
_cell_formula_units_Z   2
loop_
 _symmetry_equiv_pos_site_id
 _symmetry_equiv_pos_as_xyz
  1  'x, y, z'
loop_
 _atom_site_type_symbol
 _atom_site_label
 _atom_site_symmetry_multiplicity
 _atom_site_fract_x
 _atom_site_fract_y
 _atom_site_fract_z
 _atom_site_occupancy
  Ta  Ta0  1  0.395994  0.395994  0.000000  1
  Ta  Ta1  1  0.895994  0.104006  0.500000  1
  Ta  Ta2  1  0.104006  0.895994  0.500000  1
  Ta  Ta3  1  0.604006  0.604006  0.000000  1
  Ta  Ta4  1  0.129236  0.465604  0.000000  1
  Ta  Ta5  1  0.965604  0.370764  0.500000  1
  Ta  Ta6  1  0.034396  0.629236  0.500000  1
  Ta  Ta7  1  0.870764  0.534396  0.000000  1
  Ta  Ta8  1  0.370764  0.965604  0.500000  1
  Ta  Ta9  1  0.629236  0.034396  0.500000  1
  Ta  Ta10  1  0.465604  0.129236  0.000000  1
  Ta  Ta11  1  0.534396  0.870764  0.000000  1
  Ta  Ta12  1  0.183982  0.183982  0.252104  1
  Ta  Ta13  1  0.683982  0.316018  0.752104  1
  Ta  Ta14  1  0.316018  0.683982  0.752104  1
  Ta  Ta15  1  0.816018  0.816018  0.252104  1
  Ta  Ta16  1  0.316018  0.683982  0.247896  1
  Ta  Ta17  1  0.683982  0.316018  0.247896  1
  Ta  Ta18  1  0.183982  0.183982  0.747896  1
  Ta  Ta19  1  0.816018  0.816018  0.747896  1
  Ga  Ga20  1  0.000000  0.000000  0.000000  1
  Ga  Ga21  1  0.500000  0.500000  0.500000  1
  Rh  Rh22  1  0.259468  0.937489  0.000000  1
  Rh  Rh23  1  0.437489  0.240532  0.500000  1
  Rh  Rh24  1  0.562511  0.759468  0.500000  1
  Rh  Rh25  1  0.740532  0.062511  0.000000  1
  Rh  Rh26  1  0.240532  0.437489  0.500000  1
  Rh  Rh27  1  0.759468  0.562511  0.500000  1
  Rh  Rh28  1  0.937489  0.259468  0.000000  1
  Rh  Rh29  1  0.062511  0.740532  0.000000  1
