# generated using pymatgen
data_Hf2Zr6IrPt3N2
_symmetry_space_group_name_H-M   'P 1'
_cell_length_a   8.84590623
_cell_length_b   8.84590937
_cell_length_c   8.84403200
_cell_angle_alpha   60.00702026
_cell_angle_beta   60.00700854
_cell_angle_gamma   60.03797160
_symmetry_Int_Tables_number   1
_chemical_formula_structural   Hf2Zr6IrPt3N2
_chemical_formula_sum   'Hf4 Zr12 Ir2 Pt6 N4'
_cell_volume   489.54279413
_cell_formula_units_Z   2
loop_
 _symmetry_equiv_pos_site_id
 _symmetry_equiv_pos_as_xyz
  1  'x, y, z'
loop_
 _atom_site_type_symbol
 _atom_site_label
 _atom_site_symmetry_multiplicity
 _atom_site_fract_x
 _atom_site_fract_y
 _atom_site_fract_z
 _atom_site_occupancy
  Hf  Hf0  1  0.120957  0.627810  0.625616  1
  Hf  Hf1  1  0.627811  0.120957  0.625616  1
  Hf  Hf2  1  0.626496  0.626496  0.122914  1
  Hf  Hf3  1  0.626496  0.626496  0.624094  1
  Zr  Zr4  1  0.817524  0.817524  0.182476  1
  Zr  Zr5  1  0.181861  0.181861  0.818139  1
  Zr  Zr6  1  0.817548  0.179106  0.818020  1
  Zr  Zr7  1  0.179106  0.817549  0.185326  1
  Zr  Zr8  1  0.179106  0.817549  0.818019  1
  Zr  Zr9  1  0.817548  0.179106  0.185326  1
  Zr  Zr10  1  0.432343  0.432343  0.067657  1
  Zr  Zr11  1  0.066545  0.066545  0.433455  1
  Zr  Zr12  1  0.433017  0.067237  0.432746  1
  Zr  Zr13  1  0.067237  0.433016  0.067001  1
  Zr  Zr14  1  0.067237  0.433016  0.432747  1
  Zr  Zr15  1  0.433017  0.067237  0.067001  1
  Ir  Ir16  1  0.843200  0.843199  0.472804  1
  Ir  Ir17  1  0.843200  0.843199  0.840797  1
  Pt  Pt18  1  0.775257  0.408492  0.408125  1
  Pt  Pt19  1  0.408493  0.775257  0.408125  1
  Pt  Pt20  1  0.408367  0.408366  0.775162  1
  Pt  Pt21  1  0.408367  0.408366  0.408105  1
  Pt  Pt22  1  0.476105  0.842153  0.840871  1
  Pt  Pt23  1  0.842153  0.476105  0.840871  1
  N  N24  1  0.624583  0.125480  0.124968  1
  N  N25  1  0.125480  0.624583  0.124968  1
  N  N26  1  0.125475  0.125475  0.624072  1
  N  N27  1  0.125475  0.125475  0.124977  1
