# generated using pymatgen
data_TbMnAl10Rh
_symmetry_space_group_name_H-M   'P 1'
_cell_length_a   6.83801600
_cell_length_b   6.83801613
_cell_length_c   9.10023457
_cell_angle_alpha   89.89663063
_cell_angle_beta   90.10336841
_cell_angle_gamma   96.96009213
_symmetry_Int_Tables_number   1
_chemical_formula_structural   TbMnAl10Rh
_chemical_formula_sum   'Tb2 Mn2 Al20 Rh2'
_cell_volume   422.37606993
_cell_formula_units_Z   2
loop_
 _symmetry_equiv_pos_site_id
 _symmetry_equiv_pos_as_xyz
  1  'x, y, z'
loop_
 _atom_site_type_symbol
 _atom_site_label
 _atom_site_symmetry_multiplicity
 _atom_site_fract_x
 _atom_site_fract_y
 _atom_site_fract_z
 _atom_site_occupancy
  Tb  Tb0  1  0.872087  0.127913  0.746310  1
  Tb  Tb1  1  0.127913  0.872087  0.253690  1
  Mn  Mn2  1  0.500000  0.000000  0.500000  1
  Mn  Mn3  1  0.000000  0.500000  0.500000  1
  Al  Al4  1  0.413525  0.139660  0.744855  1
  Al  Al5  1  0.139660  0.413525  0.255145  1
  Al  Al6  1  0.586475  0.860340  0.255145  1
  Al  Al7  1  0.860340  0.586475  0.744855  1
  Al  Al8  1  0.520129  0.779738  0.743709  1
  Al  Al9  1  0.779738  0.520129  0.256291  1
  Al  Al10  1  0.479871  0.220262  0.256291  1
  Al  Al11  1  0.220262  0.479871  0.743709  1
  Al  Al12  1  0.841963  0.158037  0.403109  1
  Al  Al13  1  0.158037  0.841963  0.596891  1
  Al  Al14  1  0.844316  0.155684  0.103622  1
  Al  Al15  1  0.155684  0.844316  0.896378  1
  Al  Al16  1  0.621604  0.378396  0.949378  1
  Al  Al17  1  0.378396  0.621604  0.050622  1
  Al  Al18  1  0.625370  0.374630  0.545477  1
  Al  Al19  1  0.374630  0.625370  0.454523  1
  Al  Al20  1  0.772918  0.772917  0.000000  1
  Al  Al21  1  0.772317  0.772316  0.500000  1
  Al  Al22  1  0.227082  0.227082  0.000000  1
  Al  Al23  1  0.227683  0.227683  0.500000  1
  Rh  Rh24  1  0.500000  0.000000  0.000000  1
  Rh  Rh25  1  0.000000  0.500000  0.000000  1
