# generated using pymatgen
data_TbPaHgRh2
_symmetry_space_group_name_H-M   'P 1'
_cell_length_a   7.75304400
_cell_length_b   7.63716200
_cell_length_c   3.63582300
_cell_angle_alpha   90.00000000
_cell_angle_beta   90.00000000
_cell_angle_gamma   90.00000000
_symmetry_Int_Tables_number   1
_chemical_formula_structural   TbPaHgRh2
_chemical_formula_sum   'Tb2 Pa2 Hg2 Rh4'
_cell_volume   215.28163559
_cell_formula_units_Z   2
loop_
 _symmetry_equiv_pos_site_id
 _symmetry_equiv_pos_as_xyz
  1  'x, y, z'
loop_
 _atom_site_type_symbol
 _atom_site_label
 _atom_site_symmetry_multiplicity
 _atom_site_fract_x
 _atom_site_fract_y
 _atom_site_fract_z
 _atom_site_occupancy
  Tb  Tb0  1  0.171822  0.669136  0.499999  1
  Tb  Tb1  1  0.671822  0.830864  0.499999  1
  Pa  Pa2  1  0.324155  0.164268  0.499999  1
  Pa  Pa3  1  0.824155  0.335732  0.499999  1
  Hg  Hg4  1  0.991193  0.984466  0.000000  1
  Hg  Hg5  1  0.491193  0.515534  0.000000  1
  Rh  Rh6  1  0.645888  0.153514  0.000000  1
  Rh  Rh7  1  0.145888  0.346485  0.000000  1
  Rh  Rh8  1  0.866941  0.595742  0.000000  1
  Rh  Rh9  1  0.366941  0.904257  0.000000  1
