# generated using pymatgen
data_Li4YbEr3Si8
_symmetry_space_group_name_H-M   'P 1'
_cell_length_a   3.77052100
_cell_length_b   7.68543018
_cell_length_c   10.17184703
_cell_angle_alpha   89.56182764
_cell_angle_beta   90.00000000
_cell_angle_gamma   90.00000000
_symmetry_Int_Tables_number   1
_chemical_formula_structural   Li4YbEr3Si8
_chemical_formula_sum   'Li4 Yb1 Er3 Si8'
_cell_volume   294.75193574
_cell_formula_units_Z   1
loop_
 _symmetry_equiv_pos_site_id
 _symmetry_equiv_pos_as_xyz
  1  'x, y, z'
loop_
 _atom_site_type_symbol
 _atom_site_label
 _atom_site_symmetry_multiplicity
 _atom_site_fract_x
 _atom_site_fract_y
 _atom_site_fract_z
 _atom_site_occupancy
  Li  Li0  1  0.250000  0.996789  0.392762  1
  Li  Li1  1  0.750000  0.011070  0.609184  1
  Li  Li2  1  0.250000  0.488461  0.109963  1
  Li  Li3  1  0.750000  0.509244  0.893032  1
  Yb  Yb4  1  0.750000  0.362919  0.363910  1
  Er  Er5  1  0.250000  0.130365  0.863103  1
  Er  Er6  1  0.750000  0.866274  0.133708  1
  Er  Er7  1  0.250000  0.633684  0.635517  1
  Si  Si8  1  0.750000  0.259933  0.061512  1
  Si  Si9  1  0.250000  0.733794  0.934133  1
  Si  Si10  1  0.750000  0.773044  0.433428  1
  Si  Si11  1  0.250000  0.237101  0.571130  1
  Si  Si12  1  0.750000  0.839577  0.817464  1
  Si  Si13  1  0.250000  0.153138  0.174691  1
  Si  Si14  1  0.750000  0.341981  0.684753  1
  Si  Si15  1  0.250000  0.662621  0.321712  1
