# generated using pymatgen
data_Cs2NiPdPtSe4
_symmetry_space_group_name_H-M   'P 1'
_cell_length_a   9.23349586
_cell_length_b   8.21001623
_cell_length_c   6.29295880
_cell_angle_alpha   77.84994203
_cell_angle_beta   60.37026008
_cell_angle_gamma   43.03821336
_symmetry_Int_Tables_number   1
_chemical_formula_structural   Cs2NiPdPtSe4
_chemical_formula_sum   'Cs2 Ni1 Pd1 Pt1 Se4'
_cell_volume   273.70148333
_cell_formula_units_Z   1
loop_
 _symmetry_equiv_pos_site_id
 _symmetry_equiv_pos_as_xyz
  1  'x, y, z'
loop_
 _atom_site_type_symbol
 _atom_site_label
 _atom_site_symmetry_multiplicity
 _atom_site_fract_x
 _atom_site_fract_y
 _atom_site_fract_z
 _atom_site_occupancy
  Cs  Cs0  1  0.350016  0.350016  0.649984  1
  Cs  Cs1  1  0.649984  0.649984  0.350016  1
  Ni  Ni2  1  0.000000  0.000000  0.000000  1
  Pd  Pd3  1  0.000000  0.000000  0.500000  1
  Pt  Pt4  1  0.500000  0.500000  0.000000  1
  Se  Se5  1  0.938268  0.271492  0.738943  1
  Se  Se6  1  0.061732  0.728508  0.261057  1
  Se  Se7  1  0.728508  0.061732  0.948703  1
  Se  Se8  1  0.271492  0.938268  0.051297  1
