# generated using pymatgen
data_Tb4YRe2C7
_symmetry_space_group_name_H-M   'P 1'
_cell_length_a   8.36220065
_cell_length_b   8.36220063
_cell_length_c   3.44649300
_cell_angle_alpha   90.00000000
_cell_angle_beta   90.00000000
_cell_angle_gamma   122.80265935
_symmetry_Int_Tables_number   1
_chemical_formula_structural   Tb4YRe2C7
_chemical_formula_sum   'Tb4 Y1 Re2 C7'
_cell_volume   202.57120324
_cell_formula_units_Z   1
loop_
 _symmetry_equiv_pos_site_id
 _symmetry_equiv_pos_as_xyz
  1  'x, y, z'
loop_
 _atom_site_type_symbol
 _atom_site_label
 _atom_site_symmetry_multiplicity
 _atom_site_fract_x
 _atom_site_fract_y
 _atom_site_fract_z
 _atom_site_occupancy
  Tb  Tb0  1  0.074782  0.334125  0.500000  1
  Tb  Tb1  1  0.925218  0.665875  0.500000  1
  Tb  Tb2  1  0.665875  0.925218  0.500000  1
  Tb  Tb3  1  0.334125  0.074782  0.500000  1
  Y  Y4  1  0.500000  0.500000  0.000000  1
  Re  Re5  1  0.713831  0.286169  0.000000  1
  Re  Re6  1  0.286169  0.713831  0.000000  1
  C  C7  1  0.627812  0.372188  0.500000  1
  C  C8  1  0.372188  0.627812  0.500000  1
  C  C9  1  0.000000  0.000000  0.000000  1
  C  C10  1  0.169329  0.169329  0.000000  1
  C  C11  1  0.830671  0.830671  0.000000  1
  C  C12  1  0.000000  0.500000  0.000000  1
  C  C13  1  0.500000  0.000000  0.000000  1
