# generated using pymatgen
data_Dy6HfCo17P12
_symmetry_space_group_name_H-M   'P 1'
_cell_length_a   3.72094700
_cell_length_b   10.61649200
_cell_length_c   12.32981200
_cell_angle_alpha   90.00000000
_cell_angle_beta   90.00000000
_cell_angle_gamma   90.00000000
_symmetry_Int_Tables_number   1
_chemical_formula_structural   Dy6HfCo17P12
_chemical_formula_sum   'Dy6 Hf1 Co17 P12'
_cell_volume   487.06954539
_cell_formula_units_Z   1
loop_
 _symmetry_equiv_pos_site_id
 _symmetry_equiv_pos_as_xyz
  1  'x, y, z'
loop_
 _atom_site_type_symbol
 _atom_site_label
 _atom_site_symmetry_multiplicity
 _atom_site_fract_x
 _atom_site_fract_y
 _atom_site_fract_z
 _atom_site_occupancy
  Dy  Dy0  1  0.000000  0.500000  0.528294  1
  Dy  Dy1  1  0.500000  0.000000  0.477714  1
  Dy  Dy2  1  0.500000  0.821442  0.207362  1
  Dy  Dy3  1  0.500000  0.178558  0.207362  1
  Dy  Dy4  1  0.000000  0.682908  0.796079  1
  Dy  Dy5  1  0.000000  0.317092  0.796079  1
  Hf  Hf6  1  0.500000  0.500000  0.153570  1
  Co  Co7  1  0.000000  0.000000  0.837302  1
  Co  Co8  1  0.500000  0.500000  0.702983  1
  Co  Co9  1  0.000000  0.000000  0.296257  1
  Co  Co10  1  0.000000  0.500000  0.984347  1
  Co  Co11  1  0.500000  0.000000  0.013244  1
  Co  Co12  1  0.500000  0.327578  0.989232  1
  Co  Co13  1  0.500000  0.672422  0.989232  1
  Co  Co14  1  0.000000  0.161894  0.001838  1
  Co  Co15  1  0.000000  0.838106  0.001838  1
  Co  Co16  1  0.500000  0.294482  0.434088  1
  Co  Co17  1  0.500000  0.705518  0.434088  1
  Co  Co18  1  0.000000  0.202086  0.570413  1
  Co  Co19  1  0.000000  0.797914  0.570413  1
  Co  Co20  1  0.500000  0.880394  0.707889  1
  Co  Co21  1  0.500000  0.119606  0.707889  1
  Co  Co22  1  0.000000  0.622301  0.295852  1
  Co  Co23  1  0.000000  0.377699  0.295852  1
  P  P24  1  0.500000  0.500000  0.881653  1
  P  P25  1  0.000000  0.000000  0.116229  1
  P  P26  1  0.500000  0.500000  0.360321  1
  P  P27  1  0.000000  0.000000  0.655358  1
  P  P28  1  0.500000  0.308955  0.617705  1
  P  P29  1  0.500000  0.691045  0.617705  1
  P  P30  1  0.000000  0.188755  0.386378  1
  P  P31  1  0.000000  0.811245  0.386378  1
  P  P32  1  0.500000  0.852085  0.888965  1
  P  P33  1  0.500000  0.147915  0.888965  1
  P  P34  1  0.000000  0.664272  0.100563  1
  P  P35  1  0.000000  0.335728  0.100563  1
