# generated using pymatgen
data_Dy5Er5(In2Bi)2
_symmetry_space_group_name_H-M   'P 1'
_cell_length_a   9.01633360
_cell_length_b   9.01926799
_cell_length_c   6.57766700
_cell_angle_alpha   90.00000000
_cell_angle_beta   90.00000000
_cell_angle_gamma   120.01076822
_symmetry_Int_Tables_number   1
_chemical_formula_structural   Dy5Er5(In2Bi)2
_chemical_formula_sum   'Dy5 Er5 In4 Bi2'
_cell_volume   463.18730055
_cell_formula_units_Z   1
loop_
 _symmetry_equiv_pos_site_id
 _symmetry_equiv_pos_as_xyz
  1  'x, y, z'
loop_
 _atom_site_type_symbol
 _atom_site_label
 _atom_site_symmetry_multiplicity
 _atom_site_fract_x
 _atom_site_fract_y
 _atom_site_fract_z
 _atom_site_occupancy
  Dy  Dy0  1  0.769773  0.760818  0.750000  1
  Dy  Dy1  1  0.230227  0.991045  0.750000  1
  Dy  Dy2  1  0.000000  0.241768  0.750000  1
  Dy  Dy3  1  0.237146  0.237595  0.250000  1
  Dy  Dy4  1  0.762854  0.000448  0.250000  1
  Er  Er5  1  0.670891  0.338252  0.006503  1
  Er  Er6  1  0.329109  0.667363  0.006503  1
  Er  Er7  1  0.329109  0.667363  0.493497  1
  Er  Er8  1  0.670891  0.338252  0.493497  1
  Er  Er9  1  0.000000  0.761206  0.250000  1
  In  In10  1  0.000000  0.597430  0.750000  1
  In  In11  1  0.604809  0.606424  0.250000  1
  In  In12  1  0.395191  0.001615  0.250000  1
  In  In13  1  0.000000  0.396576  0.250000  1
  Bi  Bi14  1  0.395532  0.394688  0.750000  1
  Bi  Bi15  1  0.604468  0.999156  0.750000  1
