# generated using pymatgen
data_Sr2W2N5
_symmetry_space_group_name_H-M   'P 1'
_cell_length_a   3.82069800
_cell_length_b   5.89872700
_cell_length_c   11.49362300
_cell_angle_alpha   90.00000000
_cell_angle_beta   90.00000000
_cell_angle_gamma   90.00000000
_symmetry_Int_Tables_number   1
_chemical_formula_structural   Sr2W2N5
_chemical_formula_sum   'Sr4 W4 N10'
_cell_volume   259.03470612
_cell_formula_units_Z   2
loop_
 _symmetry_equiv_pos_site_id
 _symmetry_equiv_pos_as_xyz
  1  'x, y, z'
loop_
 _atom_site_type_symbol
 _atom_site_label
 _atom_site_symmetry_multiplicity
 _atom_site_fract_x
 _atom_site_fract_y
 _atom_site_fract_z
 _atom_site_occupancy
  Sr  Sr0  1  0.500000  0.749626  0.376198  1
  Sr  Sr1  1  0.500000  0.250374  0.623802  1
  Sr  Sr2  1  0.500000  0.249626  0.123802  1
  Sr  Sr3  1  0.500000  0.750374  0.876198  1
  W  W4  1  0.000000  0.783207  0.132407  1
  W  W5  1  0.000000  0.216793  0.867593  1
  W  W6  1  0.000000  0.716793  0.632407  1
  W  W7  1  0.000000  0.283207  0.367593  1
  N  N8  1  0.000000  0.000000  0.000000  1
  N  N9  1  0.000000  0.518169  0.754238  1
  N  N10  1  0.000000  0.018169  0.745762  1
  N  N11  1  0.000000  0.981831  0.254238  1
  N  N12  1  0.500000  0.802591  0.604213  1
  N  N13  1  0.500000  0.197409  0.395787  1
  N  N14  1  0.000000  0.481831  0.245762  1
  N  N15  1  0.500000  0.697409  0.104213  1
  N  N16  1  0.000000  0.500000  0.500000  1
  N  N17  1  0.500000  0.302591  0.895787  1
