# generated using pymatgen
data_Lu2(SeO4)3
_symmetry_space_group_name_H-M   'P 1'
_cell_length_a   9.27707875
_cell_length_b   9.27319595
_cell_length_c   9.86303472
_cell_angle_alpha   61.98287573
_cell_angle_beta   118.04282948
_cell_angle_gamma   119.95517817
_symmetry_Int_Tables_number   1
_chemical_formula_structural   Lu2(SeO4)3
_chemical_formula_sum   'Lu4 Se6 O24'
_cell_volume   617.44852917
_cell_formula_units_Z   2
loop_
 _symmetry_equiv_pos_site_id
 _symmetry_equiv_pos_as_xyz
  1  'x, y, z'
loop_
 _atom_site_type_symbol
 _atom_site_label
 _atom_site_symmetry_multiplicity
 _atom_site_fract_x
 _atom_site_fract_y
 _atom_site_fract_z
 _atom_site_occupancy
  Lu  Lu0  1  0.352000  0.647811  0.056643  1
  Lu  Lu1  1  0.855911  0.144178  0.567869  1
  Lu  Lu2  1  0.647959  0.352288  0.943219  1
  Lu  Lu3  1  0.144077  0.855773  0.432138  1
  Se  Se4  1  0.462391  0.967259  0.247773  1
  Se  Se5  1  0.752357  0.537560  0.247892  1
  Se  Se6  1  0.033115  0.247536  0.247915  1
  Se  Se7  1  0.537733  0.032861  0.752252  1
  Se  Se8  1  0.247750  0.462385  0.752150  1
  Se  Se9  1  0.966674  0.752414  0.752024  1
  O  O10  1  0.824163  0.550467  0.800481  1
  O  O11  1  0.527050  0.175785  0.800736  1
  O  O12  1  0.449659  0.473108  0.800586  1
  O  O13  1  0.175725  0.449472  0.199538  1
  O  O14  1  0.473111  0.824267  0.199386  1
  O  O15  1  0.550465  0.526869  0.199500  1
  O  O16  1  0.890532  0.894233  0.727005  1
  O  O17  1  0.730436  0.108806  0.727269  1
  O  O18  1  0.105916  0.269485  0.727342  1
  O  O19  1  0.109187  0.105653  0.272912  1
  O  O20  1  0.894183  0.730392  0.272815  1
  O  O21  1  0.269645  0.891267  0.272737  1
  O  O22  1  0.789466  0.379122  0.419601  1
  O  O23  1  0.620765  0.991157  0.419474  1
  O  O24  1  0.009243  0.210524  0.419571  1
  O  O25  1  0.210525  0.620813  0.580479  1
  O  O26  1  0.379329  0.008986  0.580491  1
  O  O27  1  0.990601  0.789483  0.580344  1
  O  O28  1  0.775946  0.515094  0.102414  1
  O  O29  1  0.484503  0.158776  0.102352  1
  O  O30  1  0.841675  0.223880  0.102396  1
  O  O31  1  0.224083  0.484814  0.897587  1
  O  O32  1  0.515629  0.841294  0.897630  1
  O  O33  1  0.158198  0.776194  0.897478  1
