# generated using pymatgen
data_Ca6OsRuO12
_symmetry_space_group_name_H-M   'P 1'
_cell_length_a   5.87555090
_cell_length_b   5.57501469
_cell_length_c   9.80310101
_cell_angle_alpha   55.13522434
_cell_angle_beta   90.53024700
_cell_angle_gamma   90.05213831
_symmetry_Int_Tables_number   1
_chemical_formula_structural   Ca6OsRuO12
_chemical_formula_sum   'Ca6 Os1 Ru1 O12'
_cell_volume   263.45941199
_cell_formula_units_Z   1
loop_
 _symmetry_equiv_pos_site_id
 _symmetry_equiv_pos_as_xyz
  1  'x, y, z'
loop_
 _atom_site_type_symbol
 _atom_site_label
 _atom_site_symmetry_multiplicity
 _atom_site_fract_x
 _atom_site_fract_y
 _atom_site_fract_z
 _atom_site_occupancy
  Ca  Ca0  1  0.054186  0.714396  0.770069  1
  Ca  Ca1  1  0.945814  0.285604  0.229931  1
  Ca  Ca2  1  0.566030  0.263660  0.758859  1
  Ca  Ca3  1  0.433970  0.736340  0.241141  1
  Ca  Ca4  1  0.500000  0.500000  0.000000  1
  Ca  Ca5  1  0.000000  0.500000  0.500000  1
  Os  Os6  1  0.500000  0.000000  0.500000  1
  Ru  Ru7  1  0.000000  0.000000  0.000000  1
  O  O8  1  0.451544  0.894464  0.719845  1
  O  O9  1  0.548456  0.105536  0.280155  1
  O  O10  1  0.943345  0.111557  0.770265  1
  O  O11  1  0.056655  0.888443  0.229735  1
  O  O12  1  0.772336  0.762399  0.572713  1
  O  O13  1  0.227664  0.237601  0.427287  1
  O  O14  1  0.278115  0.247309  0.927862  1
  O  O15  1  0.721885  0.752691  0.072138  1
  O  O16  1  0.326790  0.667289  0.552989  1
  O  O17  1  0.673210  0.332711  0.447011  1
  O  O18  1  0.814910  0.337974  0.948297  1
  O  O19  1  0.185090  0.662026  0.051703  1
