# generated using pymatgen
data_Yb2SbPd5
_symmetry_space_group_name_H-M   'P 1'
_cell_length_a   4.39664200
_cell_length_b   5.79293100
_cell_length_c   11.31710700
_cell_angle_alpha   90.00000000
_cell_angle_beta   90.00000000
_cell_angle_gamma   90.00000000
_symmetry_Int_Tables_number   1
_chemical_formula_structural   Yb2SbPd5
_chemical_formula_sum   'Yb4 Sb2 Pd10'
_cell_volume   288.24042001
_cell_formula_units_Z   2
loop_
 _symmetry_equiv_pos_site_id
 _symmetry_equiv_pos_as_xyz
  1  'x, y, z'
loop_
 _atom_site_type_symbol
 _atom_site_label
 _atom_site_symmetry_multiplicity
 _atom_site_fract_x
 _atom_site_fract_y
 _atom_site_fract_z
 _atom_site_occupancy
  Yb  Yb0  1  0.500000  0.177633  0.141497  1
  Yb  Yb1  1  0.500000  0.822367  0.858503  1
  Yb  Yb2  1  0.500000  0.322367  0.641497  1
  Yb  Yb3  1  0.500000  0.677633  0.358503  1
  Sb  Sb4  1  0.000000  0.000000  0.500000  1
  Sb  Sb5  1  0.000000  0.500000  0.000000  1
  Pd  Pd6  1  0.500000  0.188577  0.389669  1
  Pd  Pd7  1  0.500000  0.811423  0.610331  1
  Pd  Pd8  1  0.500000  0.311423  0.889669  1
  Pd  Pd9  1  0.500000  0.688577  0.110331  1
  Pd  Pd10  1  0.000000  0.428986  0.247985  1
  Pd  Pd11  1  0.000000  0.571014  0.752015  1
  Pd  Pd12  1  0.000000  0.071014  0.747985  1
  Pd  Pd13  1  0.000000  0.928986  0.252015  1
  Pd  Pd14  1  0.000000  0.000000  0.000000  1
  Pd  Pd15  1  0.000000  0.500000  0.500000  1
