# generated using pymatgen
data_Ti8Al14Ru7Se
_symmetry_space_group_name_H-M   'P 1'
_cell_length_a   8.65361405
_cell_length_b   8.65361339
_cell_length_c   8.65361329
_cell_angle_alpha   120.09889386
_cell_angle_beta   119.95348071
_cell_angle_gamma   89.95469377
_symmetry_Int_Tables_number   1
_chemical_formula_structural   Ti8Al14Ru7Se
_chemical_formula_sum   'Ti8 Al14 Ru7 Se1'
_cell_volume   458.04119602
_cell_formula_units_Z   1
loop_
 _symmetry_equiv_pos_site_id
 _symmetry_equiv_pos_as_xyz
  1  'x, y, z'
loop_
 _atom_site_type_symbol
 _atom_site_label
 _atom_site_symmetry_multiplicity
 _atom_site_fract_x
 _atom_site_fract_y
 _atom_site_fract_z
 _atom_site_occupancy
  Ti  Ti0  1  0.796702  0.291601  0.079954  1
  Ti  Ti1  1  0.211648  0.291601  0.494899  1
  Ti  Ti2  1  0.206765  0.706765  0.500000  1
  Ti  Ti3  1  0.211648  0.716749  0.920046  1
  Ti  Ti4  1  0.796702  0.716749  0.505101  1
  Ti  Ti5  1  0.784926  0.284926  0.500000  1
  Ti  Ti6  1  0.379777  0.119786  0.740009  1
  Ti  Ti7  1  0.379777  0.639768  0.259991  1
  Al  Al8  1  0.161599  0.338733  0.177133  1
  Al  Al9  1  0.161599  0.984465  0.822867  1
  Al  Al10  1  0.158703  0.340580  0.818122  1
  Al  Al11  1  0.522457  0.340580  0.181878  1
  Al  Al12  1  0.840016  0.660131  0.820117  1
  Al  Al13  1  0.840016  0.019899  0.179883  1
  Al  Al14  1  0.839071  0.660007  0.179064  1
  Al  Al15  1  0.480944  0.660007  0.820936  1
  Al  Al16  1  0.380754  0.119676  0.261078  1
  Al  Al17  1  0.858599  0.119676  0.738922  1
  Al  Al18  1  0.618850  0.877672  0.258822  1
  Al  Al19  1  0.618850  0.360029  0.741178  1
  Al  Al20  1  0.618995  0.879074  0.739922  1
  Al  Al21  1  0.139151  0.879074  0.260078  1
  Ru  Ru22  1  0.999506  0.000057  0.500350  1
  Ru  Ru23  1  0.499707  0.000057  0.000551  1
  Ru  Ru24  1  0.498931  0.498931  0.000000  1
  Ru  Ru25  1  0.499707  0.499156  0.499650  1
  Ru  Ru26  1  0.999506  0.499156  0.999449  1
  Ru  Ru27  1  0.000335  0.000335  0.000000  1
  Ru  Ru28  1  0.498264  0.998264  0.500000  1
  Se  Se29  1  0.996495  0.496495  0.500000  1
