# generated using pymatgen
data_Ag7Ir(SO4)6
_symmetry_space_group_name_H-M   'P 1'
_cell_length_a   8.71799511
_cell_length_b   8.71799459
_cell_length_c   8.71799470
_cell_angle_alpha   108.39981610
_cell_angle_beta   108.39982843
_cell_angle_gamma   108.39983085
_symmetry_Int_Tables_number   1
_chemical_formula_structural   Ag7Ir(SO4)6
_chemical_formula_sum   'Ag7 Ir1 S6 O24'
_cell_volume   529.33428895
_cell_formula_units_Z   1
loop_
 _symmetry_equiv_pos_site_id
 _symmetry_equiv_pos_as_xyz
  1  'x, y, z'
loop_
 _atom_site_type_symbol
 _atom_site_label
 _atom_site_symmetry_multiplicity
 _atom_site_fract_x
 _atom_site_fract_y
 _atom_site_fract_z
 _atom_site_occupancy
  Ag  Ag0  1  0.500000  0.500000  0.500000  1
  Ag  Ag1  1  0.834072  0.339464  0.677497  1
  Ag  Ag2  1  0.339464  0.677497  0.834072  1
  Ag  Ag3  1  0.677497  0.834072  0.339464  1
  Ag  Ag4  1  0.165928  0.660536  0.322503  1
  Ag  Ag5  1  0.660536  0.322503  0.165928  1
  Ag  Ag6  1  0.322503  0.165928  0.660536  1
  Ir  Ir7  1  0.000000  0.000000  0.000000  1
  S  S8  1  0.970986  0.752388  0.609174  1
  S  S9  1  0.752388  0.609174  0.970986  1
  S  S10  1  0.609174  0.970986  0.752388  1
  S  S11  1  0.029014  0.247612  0.390826  1
  S  S12  1  0.247612  0.390826  0.029014  1
  S  S13  1  0.390826  0.029014  0.247612  1
  O  O14  1  0.457354  0.904443  0.167030  1
  O  O15  1  0.904443  0.167030  0.457354  1
  O  O16  1  0.167030  0.457354  0.904443  1
  O  O17  1  0.542646  0.095557  0.832970  1
  O  O18  1  0.095557  0.832970  0.542646  1
  O  O19  1  0.832970  0.542646  0.095557  1
  O  O20  1  0.308848  0.975581  0.358249  1
  O  O21  1  0.975581  0.358249  0.308848  1
  O  O22  1  0.358249  0.308848  0.975581  1
  O  O23  1  0.691152  0.024419  0.641751  1
  O  O24  1  0.024419  0.641751  0.691152  1
  O  O25  1  0.641751  0.691152  0.024419  1
  O  O26  1  0.748152  0.975971  0.919455  1
  O  O27  1  0.975971  0.919455  0.748152  1
  O  O28  1  0.645634  0.461817  0.777650  1
  O  O29  1  0.777650  0.645634  0.461817  1
  O  O30  1  0.461817  0.777650  0.645634  1
  O  O31  1  0.354366  0.538183  0.222350  1
  O  O32  1  0.222350  0.354366  0.538183  1
  O  O33  1  0.538183  0.222350  0.354366  1
  O  O34  1  0.080545  0.251848  0.024029  1
  O  O35  1  0.024029  0.080545  0.251848  1
  O  O36  1  0.251848  0.024029  0.080545  1
  O  O37  1  0.919455  0.748152  0.975971  1
