# generated using pymatgen
data_Cs4SrNi3F12
_symmetry_space_group_name_H-M   'P 1'
_cell_length_a   10.96022963
_cell_length_b   10.96022917
_cell_length_c   10.96023004
_cell_angle_alpha   34.02041514
_cell_angle_beta   34.02041693
_cell_angle_gamma   34.02042081
_symmetry_Int_Tables_number   1
_chemical_formula_structural   Cs4SrNi3F12
_chemical_formula_sum   'Cs4 Sr1 Ni3 F12'
_cell_volume   367.38103803
_cell_formula_units_Z   1
loop_
 _symmetry_equiv_pos_site_id
 _symmetry_equiv_pos_as_xyz
  1  'x, y, z'
loop_
 _atom_site_type_symbol
 _atom_site_label
 _atom_site_symmetry_multiplicity
 _atom_site_fract_x
 _atom_site_fract_y
 _atom_site_fract_z
 _atom_site_occupancy
  Cs  Cs0  1  0.716007  0.716007  0.716007  1
  Cs  Cs1  1  0.868763  0.868763  0.868763  1
  Cs  Cs2  1  0.283993  0.283993  0.283993  1
  Cs  Cs3  1  0.131237  0.131237  0.131237  1
  Sr  Sr4  1  0.000000  0.000000  0.000000  1
  Ni  Ni5  1  0.411486  0.411486  0.411486  1
  Ni  Ni6  1  0.588514  0.588514  0.588514  1
  Ni  Ni7  1  0.500000  0.500000  0.500000  1
  F  F8  1  0.177727  0.596819  0.596819  1
  F  F9  1  0.596819  0.596819  0.177727  1
  F  F10  1  0.682992  0.223628  0.223628  1
  F  F11  1  0.317008  0.776372  0.776372  1
  F  F12  1  0.223628  0.223628  0.682992  1
  F  F13  1  0.822273  0.403181  0.403181  1
  F  F14  1  0.776372  0.776372  0.317008  1
  F  F15  1  0.403181  0.403181  0.822273  1
  F  F16  1  0.403181  0.822273  0.403181  1
  F  F17  1  0.223628  0.682992  0.223628  1
  F  F18  1  0.776372  0.317008  0.776372  1
  F  F19  1  0.596819  0.177727  0.596819  1
