# generated using pymatgen
data_Y4CuSi2Pd27
_symmetry_space_group_name_H-M   'P 1'
_cell_length_a   8.89852608
_cell_length_b   8.89852608
_cell_length_c   7.09110773
_cell_angle_alpha   90.35230709
_cell_angle_beta   90.35230709
_cell_angle_gamma   89.22970793
_symmetry_Int_Tables_number   1
_chemical_formula_structural   Y4CuSi2Pd27
_chemical_formula_sum   'Y4 Cu1 Si2 Pd27'
_cell_volume   561.42892809
_cell_formula_units_Z   1
loop_
 _symmetry_equiv_pos_site_id
 _symmetry_equiv_pos_as_xyz
  1  'x, y, z'
loop_
 _atom_site_type_symbol
 _atom_site_label
 _atom_site_symmetry_multiplicity
 _atom_site_fract_x
 _atom_site_fract_y
 _atom_site_fract_z
 _atom_site_occupancy
  Y  Y0  1  0.505262  0.005262  0.932629  1
  Y  Y1  1  0.994738  0.494738  0.067371  1
  Y  Y2  1  0.003707  0.996293  0.500000  1
  Y  Y3  1  0.496293  0.503707  0.500000  1
  Cu  Cu4  1  0.250000  0.750000  0.000000  1
  Si  Si5  1  0.501211  0.001211  0.445397  1
  Si  Si6  1  0.998789  0.498789  0.554603  1
  Pd  Pd7  1  0.336123  0.836123  0.609925  1
  Pd  Pd8  1  0.333293  0.165476  0.618172  1
  Pd  Pd9  1  0.665476  0.833293  0.618172  1
  Pd  Pd10  1  0.665981  0.165981  0.614894  1
  Pd  Pd11  1  0.163877  0.663877  0.390075  1
  Pd  Pd12  1  0.166707  0.334524  0.381828  1
  Pd  Pd13  1  0.834524  0.666707  0.381828  1
  Pd  Pd14  1  0.834019  0.334019  0.385106  1
  Pd  Pd15  1  0.498523  0.771122  0.251921  1
  Pd  Pd16  1  0.497124  0.232090  0.256263  1
  Pd  Pd17  1  0.271122  0.998523  0.251921  1
  Pd  Pd18  1  0.732090  0.997124  0.256263  1
  Pd  Pd19  1  0.001477  0.728878  0.748079  1
  Pd  Pd20  1  0.002876  0.267910  0.743737  1
  Pd  Pd21  1  0.228878  0.501477  0.748079  1
  Pd  Pd22  1  0.767910  0.502876  0.743737  1
  Pd  Pd23  1  0.498452  0.353382  0.851836  1
  Pd  Pd24  1  0.492870  0.659359  0.859536  1
  Pd  Pd25  1  0.853382  0.998452  0.851836  1
  Pd  Pd26  1  0.159359  0.992870  0.859536  1
  Pd  Pd27  1  0.001548  0.146618  0.148164  1
  Pd  Pd28  1  0.007130  0.840641  0.140464  1
  Pd  Pd29  1  0.646618  0.501548  0.148164  1
  Pd  Pd30  1  0.340641  0.507130  0.140464  1
  Pd  Pd31  1  0.250000  0.250000  0.000000  1
  Pd  Pd32  1  0.750000  0.750000  0.000000  1
  Pd  Pd33  1  0.750000  0.250000  0.000000  1
