# generated using pymatgen
data_K10TaInP6
_symmetry_space_group_name_H-M   'P 1'
_cell_length_a   8.20452400
_cell_length_b   8.99055253
_cell_length_c   17.29718163
_cell_angle_alpha   60.14926484
_cell_angle_beta   90.00000000
_cell_angle_gamma   90.00000000
_symmetry_Int_Tables_number   1
_chemical_formula_structural   K10TaInP6
_chemical_formula_sum   'K20 Ta2 In2 P12'
_cell_volume   1106.61615476
_cell_formula_units_Z   2
loop_
 _symmetry_equiv_pos_site_id
 _symmetry_equiv_pos_as_xyz
  1  'x, y, z'
loop_
 _atom_site_type_symbol
 _atom_site_label
 _atom_site_symmetry_multiplicity
 _atom_site_fract_x
 _atom_site_fract_y
 _atom_site_fract_z
 _atom_site_occupancy
  K  K0  1  0.748113  0.907332  0.410478  1
  K  K1  1  0.251887  0.907332  0.910478  1
  K  K2  1  0.764943  0.092266  0.591430  1
  K  K3  1  0.235057  0.092266  0.091430  1
  K  K4  1  0.578293  0.161552  0.756785  1
  K  K5  1  0.421707  0.161552  0.256785  1
  K  K6  1  0.918634  0.840600  0.240160  1
  K  K7  1  0.081366  0.840600  0.740160  1
  K  K8  1  0.737956  0.544723  0.756693  1
  K  K9  1  0.262044  0.544723  0.256693  1
  K  K10  1  0.773522  0.457491  0.239349  1
  K  K11  1  0.226478  0.457491  0.739349  1
  K  K12  1  0.078653  0.160980  0.417915  1
  K  K13  1  0.921347  0.160980  0.917915  1
  K  K14  1  0.423402  0.840874  0.581188  1
  K  K15  1  0.576598  0.840874  0.081188  1
  K  K16  1  0.251573  0.268963  0.573299  1
  K  K17  1  0.748427  0.268963  0.073299  1
  K  K18  1  0.224096  0.733655  0.424558  1
  K  K19  1  0.775904  0.733655  0.924558  1
  Ta  Ta20  1  0.622596  0.504957  0.423384  1
  Ta  Ta21  1  0.377404  0.504957  0.923384  1
  In  In22  1  0.884191  0.492594  0.583209  1
  In  In23  1  0.115809  0.492594  0.083209  1
  P  P24  1  0.921162  0.485810  0.428244  1
  P  P25  1  0.078838  0.485810  0.928244  1
  P  P26  1  0.551920  0.514022  0.558653  1
  P  P27  1  0.448080  0.514022  0.058653  1
  P  P28  1  0.966489  0.200014  0.723584  1
  P  P29  1  0.033511  0.200014  0.223584  1
  P  P30  1  0.537125  0.764981  0.291491  1
  P  P31  1  0.462875  0.764981  0.791491  1
  P  P32  1  0.999511  0.771507  0.577088  1
  P  P33  1  0.000489  0.771507  0.077088  1
  P  P34  1  0.504088  0.257681  0.422492  1
  P  P35  1  0.495912  0.257681  0.922492  1
