# generated using pymatgen
data_TbY7GePd24
_symmetry_space_group_name_H-M   'P 1'
_cell_length_a   8.37574200
_cell_length_b   8.37574200
_cell_length_c   8.37574200
_cell_angle_alpha   89.99943906
_cell_angle_beta   89.99943906
_cell_angle_gamma   89.99943906
_symmetry_Int_Tables_number   1
_chemical_formula_structural   TbY7GePd24
_chemical_formula_sum   'Tb1 Y7 Ge1 Pd24'
_cell_volume   587.58388120
_cell_formula_units_Z   1
loop_
 _symmetry_equiv_pos_site_id
 _symmetry_equiv_pos_as_xyz
  1  'x, y, z'
loop_
 _atom_site_type_symbol
 _atom_site_label
 _atom_site_symmetry_multiplicity
 _atom_site_fract_x
 _atom_site_fract_y
 _atom_site_fract_z
 _atom_site_occupancy
  Tb  Tb0  1  0.253257  0.253257  0.253257  1
  Y  Y1  1  0.746824  0.746824  0.746824  1
  Y  Y2  1  0.746813  0.746813  0.253187  1
  Y  Y3  1  0.746813  0.253187  0.746813  1
  Y  Y4  1  0.253187  0.253187  0.746824  1
  Y  Y5  1  0.253187  0.746824  0.253187  1
  Y  Y6  1  0.253187  0.746813  0.746813  1
  Y  Y7  1  0.746824  0.253187  0.253187  1
  Ge  Ge8  1  0.999957  0.999957  0.999957  1
  Pd  Pd9  1  0.259782  0.499942  0.000044  1
  Pd  Pd10  1  0.740224  0.500006  0.999999  1
  Pd  Pd11  1  0.000044  0.259782  0.499942  1
  Pd  Pd12  1  0.499942  0.259782  0.000044  1
  Pd  Pd13  1  0.999999  0.740224  0.500006  1
  Pd  Pd14  1  0.500006  0.740224  0.999999  1
  Pd  Pd15  1  0.499942  0.000044  0.259782  1
  Pd  Pd16  1  0.259782  0.000044  0.499942  1
  Pd  Pd17  1  0.500006  0.999999  0.740224  1
  Pd  Pd18  1  0.740224  0.999999  0.500006  1
  Pd  Pd19  1  0.000044  0.499942  0.259782  1
  Pd  Pd20  1  0.999999  0.500006  0.740224  1
  Pd  Pd21  1  0.253316  0.499938  0.499938  1
  Pd  Pd22  1  0.746696  0.500002  0.500002  1
  Pd  Pd23  1  0.499938  0.253316  0.499938  1
  Pd  Pd24  1  0.500002  0.746696  0.500002  1
  Pd  Pd25  1  0.499938  0.499938  0.253316  1
  Pd  Pd26  1  0.500002  0.500002  0.746696  1
  Pd  Pd27  1  0.289431  0.000017  0.000017  1
  Pd  Pd28  1  0.710608  0.999995  0.999995  1
  Pd  Pd29  1  0.000017  0.289431  0.000017  1
  Pd  Pd30  1  0.999995  0.710608  0.999995  1
  Pd  Pd31  1  0.000017  0.000017  0.289431  1
  Pd  Pd32  1  0.999995  0.999995  0.710608  1
