# generated using pymatgen
data_DyHo5B14MoOs
_symmetry_space_group_name_H-M   'P 1'
_cell_length_a   8.08495852
_cell_length_b   8.08495994
_cell_length_c   9.36861258
_cell_angle_alpha   89.96054286
_cell_angle_beta   90.03945826
_cell_angle_gamma   155.01371011
_symmetry_Int_Tables_number   1
_chemical_formula_structural   DyHo5B14MoOs
_chemical_formula_sum   'Dy1 Ho5 B14 Mo1 Os1'
_cell_volume   258.67602061
_cell_formula_units_Z   1
loop_
 _symmetry_equiv_pos_site_id
 _symmetry_equiv_pos_as_xyz
  1  'x, y, z'
loop_
 _atom_site_type_symbol
 _atom_site_label
 _atom_site_symmetry_multiplicity
 _atom_site_fract_x
 _atom_site_fract_y
 _atom_site_fract_z
 _atom_site_occupancy
  Dy  Dy0  1  0.606054  0.393946  0.062255  1
  Ho  Ho1  1  0.256645  0.743355  0.250056  1
  Ho  Ho2  1  0.744629  0.255371  0.749936  1
  Ho  Ho3  1  0.393190  0.606810  0.940969  1
  Ho  Ho4  1  0.393167  0.606833  0.558995  1
  Ho  Ho5  1  0.605862  0.394138  0.438219  1
  B  B6  1  0.978850  0.021150  0.096391  1
  B  B7  1  0.019369  0.980631  0.908677  1
  B  B8  1  0.019459  0.980541  0.591046  1
  B  B9  1  0.978961  0.021039  0.403802  1
  B  B10  1  0.773531  0.226469  0.035007  1
  B  B11  1  0.228345  0.771655  0.967763  1
  B  B12  1  0.228196  0.771804  0.532143  1
  B  B13  1  0.773329  0.226671  0.464914  1
  B  B14  1  0.868125  0.131875  0.150863  1
  B  B15  1  0.134748  0.865252  0.852373  1
  B  B16  1  0.134719  0.865281  0.647289  1
  B  B17  1  0.868122  0.131878  0.349109  1
  B  B18  1  0.042316  0.957684  0.250324  1
  B  B19  1  0.954163  0.045837  0.749965  1
  Mo  Mo20  1  0.552513  0.447487  0.749770  1
  Os  Os21  1  0.445704  0.554296  0.250133  1
