# generated using pymatgen
data_Cu3NiSn6IrS16
_symmetry_space_group_name_H-M   'P 1'
_cell_length_a   7.39080700
_cell_length_b   7.35557611
_cell_length_c   10.38044076
_cell_angle_alpha   89.49371701
_cell_angle_beta   90.00000000
_cell_angle_gamma   90.00000000
_symmetry_Int_Tables_number   1
_chemical_formula_structural   Cu3NiSn6IrS16
_chemical_formula_sum   'Cu3 Ni1 Sn6 Ir1 S16'
_cell_volume   564.29654890
_cell_formula_units_Z   1
loop_
 _symmetry_equiv_pos_site_id
 _symmetry_equiv_pos_as_xyz
  1  'x, y, z'
loop_
 _atom_site_type_symbol
 _atom_site_label
 _atom_site_symmetry_multiplicity
 _atom_site_fract_x
 _atom_site_fract_y
 _atom_site_fract_z
 _atom_site_occupancy
  Cu  Cu0  1  0.000000  0.993905  0.129640  1
  Cu  Cu1  1  0.500000  0.489575  0.627732  1
  Cu  Cu2  1  0.500000  0.011124  0.869424  1
  Ni  Ni3  1  0.000000  0.757214  0.750378  1
  Sn  Sn4  1  0.000000  0.255652  0.744306  1
  Sn  Sn5  1  0.500000  0.740027  0.252549  1
  Sn  Sn6  1  0.758164  0.999779  0.504598  1
  Sn  Sn7  1  0.249324  0.502989  0.998084  1
  Sn  Sn8  1  0.241836  0.999779  0.504598  1
  Sn  Sn9  1  0.750676  0.502989  0.998084  1
  Ir  Ir10  1  0.500000  0.246505  0.245875  1
  S  S11  1  0.000000  0.255581  0.497612  1
  S  S12  1  0.500000  0.753618  0.998406  1
  S  S13  1  0.000000  0.758401  0.517904  1
  S  S14  1  0.500000  0.252610  0.016370  1
  S  S15  1  0.235544  0.994906  0.751109  1
  S  S16  1  0.725378  0.474043  0.245157  1
  S  S17  1  0.764456  0.994906  0.751109  1
  S  S18  1  0.274622  0.474043  0.245157  1
  S  S19  1  0.500000  0.751682  0.503184  1
  S  S20  1  0.000000  0.249712  0.997369  1
  S  S21  1  0.500000  0.243235  0.479179  1
  S  S22  1  0.000000  0.746930  0.989468  1
  S  S23  1  0.270234  0.010679  0.252793  1
  S  S24  1  0.764348  0.514719  0.751061  1
  S  S25  1  0.729766  0.010679  0.252793  1
  S  S26  1  0.235652  0.514719  0.751061  1
