# generated using pymatgen
data_Rb4TiS4
_symmetry_space_group_name_H-M   'P 1'
_cell_length_a   7.73763265
_cell_length_b   8.07337028
_cell_length_c   11.45623056
_cell_angle_alpha   73.39225821
_cell_angle_beta   81.49382925
_cell_angle_gamma   68.74082698
_symmetry_Int_Tables_number   1
_chemical_formula_structural   Rb4TiS4
_chemical_formula_sum   'Rb8 Ti2 S8'
_cell_volume   638.34719020
_cell_formula_units_Z   2
loop_
 _symmetry_equiv_pos_site_id
 _symmetry_equiv_pos_as_xyz
  1  'x, y, z'
loop_
 _atom_site_type_symbol
 _atom_site_label
 _atom_site_symmetry_multiplicity
 _atom_site_fract_x
 _atom_site_fract_y
 _atom_site_fract_z
 _atom_site_occupancy
  Rb  Rb0  1  0.775442  0.562448  0.154519  1
  Rb  Rb1  1  0.224558  0.437552  0.845481  1
  Rb  Rb2  1  0.722412  0.212756  0.963441  1
  Rb  Rb3  1  0.277588  0.787244  0.036559  1
  Rb  Rb4  1  0.283549  0.504527  0.434725  1
  Rb  Rb5  1  0.716451  0.495473  0.565275  1
  Rb  Rb6  1  0.770816  0.041348  0.376708  1
  Rb  Rb7  1  0.229184  0.958652  0.623292  1
  Ti  Ti8  1  0.740211  0.837390  0.750503  1
  Ti  Ti9  1  0.259789  0.162610  0.249497  1
  S  S10  1  0.904893  0.820546  0.905146  1
  S  S11  1  0.095107  0.179454  0.094854  1
  S  S12  1  0.040075  0.283621  0.387579  1
  S  S13  1  0.959925  0.716379  0.612421  1
  S  S14  1  0.440418  0.346886  0.187892  1
  S  S15  1  0.559582  0.653114  0.812108  1
  S  S16  1  0.442598  0.865055  0.332036  1
  S  S17  1  0.557402  0.134945  0.667964  1
