# generated using pymatgen
data_LaSm3Se3N2
_symmetry_space_group_name_H-M   'P 1'
_cell_length_a   8.20754192
_cell_length_b   8.20754156
_cell_length_c   6.37121400
_cell_angle_alpha   90.18954492
_cell_angle_beta   90.18955190
_cell_angle_gamma   75.22745246
_symmetry_Int_Tables_number   1
_chemical_formula_structural   LaSm3Se3N2
_chemical_formula_sum   'La2 Sm6 Se6 N4'
_cell_volume   414.99864473
_cell_formula_units_Z   2
loop_
 _symmetry_equiv_pos_site_id
 _symmetry_equiv_pos_as_xyz
  1  'x, y, z'
loop_
 _atom_site_type_symbol
 _atom_site_label
 _atom_site_symmetry_multiplicity
 _atom_site_fract_x
 _atom_site_fract_y
 _atom_site_fract_z
 _atom_site_occupancy
  La  La0  1  0.057746  0.693368  0.469693  1
  La  La1  1  0.306632  0.942254  0.030307  1
  Sm  Sm2  1  0.586346  0.744210  0.571800  1
  Sm  Sm3  1  0.255790  0.413654  0.928200  1
  Sm  Sm4  1  0.415214  0.256517  0.428380  1
  Sm  Sm5  1  0.743483  0.584786  0.071620  1
  Sm  Sm6  1  0.942454  0.310101  0.529766  1
  Sm  Sm7  1  0.689899  0.057546  0.970234  1
  Se  Se8  1  0.981823  0.248327  0.035465  1
  Se  Se9  1  0.409005  0.590995  0.250000  1
  Se  Se10  1  0.751673  0.018177  0.464535  1
  Se  Se11  1  0.013418  0.751537  0.966151  1
  Se  Se12  1  0.594966  0.405034  0.750000  1
  Se  Se13  1  0.248463  0.986582  0.533849  1
  N  N14  1  0.827963  0.580783  0.415924  1
  N  N15  1  0.585139  0.829233  0.914588  1
  N  N16  1  0.170767  0.414861  0.585412  1
  N  N17  1  0.419217  0.172037  0.084076  1
