# generated using pymatgen
data_CeTh2Si4(IrRh)2
_symmetry_space_group_name_H-M   'P 1'
_cell_length_a   4.07449287
_cell_length_b   4.22335900
_cell_length_c   12.60347562
_cell_angle_alpha   80.35475412
_cell_angle_beta   80.69778970
_cell_angle_gamma   89.99998761
_symmetry_Int_Tables_number   1
_chemical_formula_structural   CeTh2Si4(IrRh)2
_chemical_formula_sum   'Ce1 Th2 Si4 Ir2 Rh2'
_cell_volume   210.92181390
_cell_formula_units_Z   1
loop_
 _symmetry_equiv_pos_site_id
 _symmetry_equiv_pos_as_xyz
  1  'x, y, z'
loop_
 _atom_site_type_symbol
 _atom_site_label
 _atom_site_symmetry_multiplicity
 _atom_site_fract_x
 _atom_site_fract_y
 _atom_site_fract_z
 _atom_site_occupancy
  Ce  Ce0  1  0.144634  0.644634  0.710730  1
  Th  Th1  1  0.000751  0.000751  0.998498  1
  Th  Th2  1  0.855036  0.355036  0.289930  1
  Si  Si3  1  0.696528  0.196528  0.606945  1
  Si  Si4  1  0.302392  0.802392  0.395215  1
  Si  Si5  1  0.451706  0.451706  0.096587  1
  Si  Si6  1  0.550174  0.550174  0.899652  1
  Ir  Ir7  1  0.597565  0.097565  0.804869  1
  Ir  Ir8  1  0.402130  0.902130  0.195740  1
  Rh  Rh9  1  0.249307  0.249307  0.501386  1
  Rh  Rh10  1  0.749776  0.749776  0.500448  1
