# generated using pymatgen
data_Ta7MnFe7Si14W
_symmetry_space_group_name_H-M   'P 1'
_cell_length_a   9.25123767
_cell_length_b   9.24782791
_cell_length_c   9.23145028
_cell_angle_alpha   94.17681969
_cell_angle_beta   94.20277853
_cell_angle_gamma   148.66680697
_symmetry_Int_Tables_number   1
_chemical_formula_structural   Ta7MnFe7Si14W
_chemical_formula_sum   'Ta7 Mn1 Fe7 Si14 W1'
_cell_volume   395.38254019
_cell_formula_units_Z   1
loop_
 _symmetry_equiv_pos_site_id
 _symmetry_equiv_pos_as_xyz
  1  'x, y, z'
loop_
 _atom_site_type_symbol
 _atom_site_label
 _atom_site_symmetry_multiplicity
 _atom_site_fract_x
 _atom_site_fract_y
 _atom_site_fract_z
 _atom_site_occupancy
  Ta  Ta0  1  0.866186  0.866145  0.732370  1
  Ta  Ta1  1  0.863100  0.132344  0.998064  1
  Ta  Ta2  1  0.134989  0.865691  0.998055  1
  Ta  Ta3  1  0.502706  0.691340  0.193538  1
  Ta  Ta4  1  0.498541  0.309784  0.808459  1
  Ta  Ta5  1  0.309942  0.498650  0.808496  1
  Ta  Ta6  1  0.690877  0.502160  0.193597  1
  Mn  Mn7  1  0.399853  0.899853  0.799512  1
  Fe  Fe8  1  0.101714  0.601709  0.203384  1
  Fe  Fe9  1  0.098720  0.898776  0.498457  1
  Fe  Fe10  1  0.399703  0.599674  0.498414  1
  Fe  Fe11  1  0.597572  0.398673  0.498907  1
  Fe  Fe12  1  0.901321  0.100222  0.498957  1
  Fe  Fe13  1  0.899814  0.399861  0.799537  1
  Fe  Fe14  1  0.600328  0.100365  0.200735  1
  Si  Si15  1  0.289834  0.289570  0.579171  1
  Si  Si16  1  0.709778  0.709511  0.419531  1
  Si  Si17  1  0.711653  0.296548  0.002186  1
  Si  Si18  1  0.290540  0.705643  0.002174  1
  Si  Si19  1  0.002182  0.294854  0.297903  1
  Si  Si20  1  0.995314  0.700722  0.699247  1
  Si  Si21  1  0.704031  0.998710  0.699575  1
  Si  Si22  1  0.295826  0.003260  0.298211  1
  Si  Si23  1  0.505801  0.910511  0.407597  1
  Si  Si24  1  0.498276  0.095505  0.591130  1
  Si  Si25  1  0.092722  0.495765  0.591166  1
  Si  Si26  1  0.901664  0.497221  0.407640  1
  Si  Si27  1  0.752810  0.752815  0.002722  1
  Si  Si28  1  0.249922  0.249852  0.002713  1
  W  W29  1  0.134280  0.134267  0.268553  1
