# generated using pymatgen
data_Ta4ReTc2Os
_symmetry_space_group_name_H-M   'P 1'
_cell_length_a   6.38389400
_cell_length_b   4.51371400
_cell_length_c   9.02679600
_cell_angle_alpha   90.00000000
_cell_angle_beta   89.99984306
_cell_angle_gamma   90.00000000
_symmetry_Int_Tables_number   1
_chemical_formula_structural   Ta4ReTc2Os
_chemical_formula_sum   'Ta8 Re2 Tc4 Os2'
_cell_volume   260.10777416
_cell_formula_units_Z   2
loop_
 _symmetry_equiv_pos_site_id
 _symmetry_equiv_pos_as_xyz
  1  'x, y, z'
loop_
 _atom_site_type_symbol
 _atom_site_label
 _atom_site_symmetry_multiplicity
 _atom_site_fract_x
 _atom_site_fract_y
 _atom_site_fract_z
 _atom_site_occupancy
  Ta  Ta0  1  0.499288  0.749999  0.126033  1
  Ta  Ta1  1  0.000702  0.749999  0.126034  1
  Ta  Ta2  1  0.500713  0.250000  0.373966  1
  Ta  Ta3  1  0.999302  0.250000  0.373968  1
  Ta  Ta4  1  0.999105  0.749999  0.623939  1
  Ta  Ta5  1  0.500877  0.749999  0.623940  1
  Ta  Ta6  1  0.000891  0.250000  0.876061  1
  Ta  Ta7  1  0.499121  0.250000  0.876061  1
  Re  Re8  1  0.249999  0.250000  0.124301  1
  Re  Re9  1  0.750003  0.749999  0.375698  1
  Tc  Tc10  1  0.750002  0.250000  0.123453  1
  Tc  Tc11  1  0.250000  0.749999  0.376547  1
  Tc  Tc12  1  0.750000  0.250000  0.626595  1
  Tc  Tc13  1  0.249997  0.749999  0.873406  1
  Os  Os14  1  0.250001  0.250000  0.625665  1
  Os  Os15  1  0.749998  0.749999  0.874335  1
