# generated using pymatgen
data_Er2Cr3FeCo8P7
_symmetry_space_group_name_H-M   'P 1'
_cell_length_a   8.96269665
_cell_length_b   8.98892245
_cell_length_c   3.62323400
_cell_angle_alpha   90.00000000
_cell_angle_beta   90.00000000
_cell_angle_gamma   119.94427605
_symmetry_Int_Tables_number   1
_chemical_formula_structural   Er2Cr3FeCo8P7
_chemical_formula_sum   'Er2 Cr3 Fe1 Co8 P7'
_cell_volume   252.93966192
_cell_formula_units_Z   1
loop_
 _symmetry_equiv_pos_site_id
 _symmetry_equiv_pos_as_xyz
  1  'x, y, z'
loop_
 _atom_site_type_symbol
 _atom_site_label
 _atom_site_symmetry_multiplicity
 _atom_site_fract_x
 _atom_site_fract_y
 _atom_site_fract_z
 _atom_site_occupancy
  Er  Er0  1  0.000316  0.999289  0.000000  1
  Er  Er1  1  0.332630  0.667055  0.500000  1
  Cr  Cr2  1  0.886442  0.456821  0.500000  1
  Cr  Cr3  1  0.546534  0.429406  0.500000  1
  Cr  Cr4  1  0.570097  0.118147  0.500000  1
  Fe  Fe5  1  0.389306  0.176747  0.000000  1
  Co  Co6  1  0.098893  0.704671  0.000000  1
  Co  Co7  1  0.296280  0.395235  0.000000  1
  Co  Co8  1  0.606320  0.902159  0.000000  1
  Co  Co9  1  0.824649  0.212918  0.000000  1
  Co  Co10  1  0.785608  0.608768  0.000000  1
  Co  Co11  1  0.051487  0.282689  0.500000  1
  Co  Co12  1  0.716246  0.767768  0.500000  1
  Co  Co13  1  0.230860  0.947667  0.500000  1
  P  P14  1  0.076292  0.447158  0.000000  1
  P  P15  1  0.553773  0.631606  0.000000  1
  P  P16  1  0.370517  0.925120  0.000000  1
  P  P17  1  0.780495  0.043154  0.500000  1
  P  P18  1  0.956775  0.736629  0.500000  1
  P  P19  1  0.259302  0.214985  0.500000  1
  P  P20  1  0.667179  0.332006  0.000000  1
