# generated using pymatgen
data_Tb(TmPt)4
_symmetry_space_group_name_H-M   'P 1'
_cell_length_a   7.41186400
_cell_length_b   7.50510500
_cell_length_c   14.60357600
_cell_angle_alpha   90.00000000
_cell_angle_beta   90.00000000
_cell_angle_gamma   90.00000000
_symmetry_Int_Tables_number   1
_chemical_formula_structural   Tb(TmPt)4
_chemical_formula_sum   'Tb4 Tm16 Pt16'
_cell_volume   812.35045796
_cell_formula_units_Z   4
loop_
 _symmetry_equiv_pos_site_id
 _symmetry_equiv_pos_as_xyz
  1  'x, y, z'
loop_
 _atom_site_type_symbol
 _atom_site_label
 _atom_site_symmetry_multiplicity
 _atom_site_fract_x
 _atom_site_fract_y
 _atom_site_fract_z
 _atom_site_occupancy
  Tb  Tb0  1  0.499215  0.320559  0.407639  1
  Tb  Tb1  1  0.999215  0.179441  0.092361  1
  Tb  Tb2  1  0.500785  0.679441  0.907639  1
  Tb  Tb3  1  0.000785  0.820559  0.592361  1
  Tm  Tm4  1  0.656903  0.167578  0.622727  1
  Tm  Tm5  1  0.156903  0.332422  0.877273  1
  Tm  Tm6  1  0.343097  0.832422  0.122727  1
  Tm  Tm7  1  0.843097  0.667578  0.377273  1
  Tm  Tm8  1  0.343206  0.832159  0.377541  1
  Tm  Tm9  1  0.843206  0.667841  0.122459  1
  Tm  Tm10  1  0.656794  0.167841  0.877541  1
  Tm  Tm11  1  0.156794  0.332159  0.622459  1
  Tm  Tm12  1  0.501480  0.680156  0.592804  1
  Tm  Tm13  1  0.001480  0.819844  0.907196  1
  Tm  Tm14  1  0.498520  0.319844  0.092804  1
  Tm  Tm15  1  0.998520  0.180156  0.407196  1
  Tm  Tm16  1  0.819241  0.511166  0.749960  1
  Tm  Tm17  1  0.319241  0.988834  0.750040  1
  Tm  Tm18  1  0.180759  0.488834  0.249960  1
  Tm  Tm19  1  0.680759  0.011166  0.250040  1
  Pt  Pt20  1  0.683853  0.966761  0.458317  1
  Pt  Pt21  1  0.183853  0.533239  0.041683  1
  Pt  Pt22  1  0.316147  0.033239  0.958317  1
  Pt  Pt23  1  0.816147  0.466761  0.541683  1
  Pt  Pt24  1  0.317166  0.032983  0.541652  1
  Pt  Pt25  1  0.817166  0.467017  0.958348  1
  Pt  Pt26  1  0.682834  0.967017  0.041652  1
  Pt  Pt27  1  0.182834  0.532983  0.458348  1
  Pt  Pt28  1  0.454361  0.386687  0.749706  1
  Pt  Pt29  1  0.954361  0.113313  0.750294  1
  Pt  Pt30  1  0.545639  0.613313  0.249706  1
  Pt  Pt31  1  0.045639  0.886687  0.250294  1
  Pt  Pt32  1  0.682863  0.856664  0.749692  1
  Pt  Pt33  1  0.182863  0.643336  0.750308  1
  Pt  Pt34  1  0.317137  0.143336  0.249692  1
  Pt  Pt35  1  0.817137  0.356664  0.250308  1
