# generated using pymatgen
data_Yb2Tm2Pt3RhO14
_symmetry_space_group_name_H-M   'P 1'
_cell_length_a   7.21672769
_cell_length_b   7.19708231
_cell_length_c   7.21672622
_cell_angle_alpha   60.20863737
_cell_angle_beta   60.11785187
_cell_angle_gamma   60.20863872
_symmetry_Int_Tables_number   1
_chemical_formula_structural   Yb2Tm2Pt3RhO14
_chemical_formula_sum   'Yb2 Tm2 Pt3 Rh1 O14'
_cell_volume   266.11672108
_cell_formula_units_Z   1
loop_
 _symmetry_equiv_pos_site_id
 _symmetry_equiv_pos_as_xyz
  1  'x, y, z'
loop_
 _atom_site_type_symbol
 _atom_site_label
 _atom_site_symmetry_multiplicity
 _atom_site_fract_x
 _atom_site_fract_y
 _atom_site_fract_z
 _atom_site_occupancy
  Yb  Yb0  1  0.625000  0.625000  0.125000  1
  Yb  Yb1  1  0.125000  0.625000  0.625000  1
  Tm  Tm2  1  0.625000  0.625000  0.625000  1
  Tm  Tm3  1  0.625000  0.125000  0.625000  1
  Pt  Pt4  1  0.125000  0.125000  0.125000  1
  Pt  Pt5  1  0.625000  0.125000  0.125000  1
  Pt  Pt6  1  0.125000  0.125000  0.625000  1
  Rh  Rh7  1  0.125000  0.625000  0.125000  1
  O  O8  1  0.033179  0.458151  0.458664  1
  O  O9  1  0.791336  0.791849  0.216821  1
  O  O10  1  0.786976  0.205463  0.219613  1
  O  O11  1  0.464486  0.035369  0.464486  1
  O  O12  1  0.030387  0.044537  0.463024  1
  O  O13  1  0.043843  0.457068  0.043843  1
  O  O14  1  0.743086  0.756514  0.743086  1
  O  O15  1  0.506914  0.493486  0.506914  1
  O  O16  1  0.785514  0.214631  0.785514  1
  O  O17  1  0.206157  0.792932  0.206157  1
  O  O18  1  0.219613  0.205463  0.786976  1
  O  O19  1  0.463024  0.044537  0.030387  1
  O  O20  1  0.458664  0.458151  0.033179  1
  O  O21  1  0.216821  0.791849  0.791336  1
