# generated using pymatgen
data_NpSi6(Pd10Pb)2
_symmetry_space_group_name_H-M   'P 1'
_cell_length_a   8.74453162
_cell_length_b   8.74453112
_cell_length_c   8.74453200
_cell_angle_alpha   60.00000424
_cell_angle_beta   60.00000615
_cell_angle_gamma   60.00000220
_symmetry_Int_Tables_number   1
_chemical_formula_structural   NpSi6(Pd10Pb)2
_chemical_formula_sum   'Np1 Si6 Pd20 Pb2'
_cell_volume   472.81875523
_cell_formula_units_Z   1
loop_
 _symmetry_equiv_pos_site_id
 _symmetry_equiv_pos_as_xyz
  1  'x, y, z'
loop_
 _atom_site_type_symbol
 _atom_site_label
 _atom_site_symmetry_multiplicity
 _atom_site_fract_x
 _atom_site_fract_y
 _atom_site_fract_z
 _atom_site_occupancy
  Np  Np0  1  0.000000  0.000000  0.000000  1
  Si  Si1  1  0.728560  0.271440  0.271440  1
  Si  Si2  1  0.271440  0.728560  0.728560  1
  Si  Si3  1  0.271440  0.728560  0.271440  1
  Si  Si4  1  0.728560  0.271440  0.728560  1
  Si  Si5  1  0.271440  0.271440  0.728560  1
  Si  Si6  1  0.728560  0.728560  0.271440  1
  Pd  Pd7  1  0.383323  0.383323  0.383323  1
  Pd  Pd8  1  0.616677  0.616677  0.616677  1
  Pd  Pd9  1  0.383323  0.383323  0.850033  1
  Pd  Pd10  1  0.383323  0.850033  0.383323  1
  Pd  Pd11  1  0.616677  0.616677  0.149967  1
  Pd  Pd12  1  0.616677  0.149967  0.616677  1
  Pd  Pd13  1  0.850033  0.383323  0.383323  1
  Pd  Pd14  1  0.149967  0.616677  0.616677  1
  Pd  Pd15  1  0.342821  0.000000  0.000000  1
  Pd  Pd16  1  0.657179  0.000000  0.000000  1
  Pd  Pd17  1  0.000000  0.342821  0.657179  1
  Pd  Pd18  1  0.000000  0.657179  0.342821  1
  Pd  Pd19  1  0.000000  0.342821  0.000000  1
  Pd  Pd20  1  0.657179  0.000000  0.342821  1
  Pd  Pd21  1  0.000000  0.657179  0.000000  1
  Pd  Pd22  1  0.342821  0.000000  0.657179  1
  Pd  Pd23  1  0.000000  0.000000  0.342821  1
  Pd  Pd24  1  0.000000  0.000000  0.657179  1
  Pd  Pd25  1  0.657179  0.342821  0.000000  1
  Pd  Pd26  1  0.342821  0.657179  0.000000  1
  Pb  Pb27  1  0.250000  0.250000  0.250000  1
  Pb  Pb28  1  0.750000  0.750000  0.750000  1
