# generated using pymatgen
data_Ba(WF6)2
_symmetry_space_group_name_H-M   'P 1'
_cell_length_a   5.53554233
_cell_length_b   5.83866099
_cell_length_c   9.97160219
_cell_angle_alpha   90.80095432
_cell_angle_beta   106.23250201
_cell_angle_gamma   117.80135748
_symmetry_Int_Tables_number   1
_chemical_formula_structural   Ba(WF6)2
_chemical_formula_sum   'Ba1 W2 F12'
_cell_volume   269.73496690
_cell_formula_units_Z   1
loop_
 _symmetry_equiv_pos_site_id
 _symmetry_equiv_pos_as_xyz
  1  'x, y, z'
loop_
 _atom_site_type_symbol
 _atom_site_label
 _atom_site_symmetry_multiplicity
 _atom_site_fract_x
 _atom_site_fract_y
 _atom_site_fract_z
 _atom_site_occupancy
  Ba  Ba0  1  0.034791  0.983026  0.899893  1
  W  W1  1  0.144711  0.505220  0.582650  1
  W  W2  1  0.450363  0.683552  0.146854  1
  F  F3  1  0.114926  0.533939  0.969682  1
  F  F4  1  0.493108  0.670773  0.757256  1
  F  F5  1  0.951859  0.237570  0.695825  1
  F  F6  1  0.029687  0.729654  0.667096  1
  F  F7  1  0.303179  0.297733  0.544348  1
  F  F8  1  0.346480  0.771302  0.483275  1
  F  F9  1  0.797167  0.364356  0.427953  1
  F  F10  1  0.771275  0.821911  0.311150  1
  F  F11  1  0.229169  0.406993  0.233615  1
  F  F12  1  0.285172  0.907773  0.169300  1
  F  F13  1  0.647280  0.945391  0.033789  1
  F  F14  1  0.548826  0.450804  0.055315  1
