# generated using pymatgen
data_Pt3RhPb16
_symmetry_space_group_name_H-M   'P 1'
_cell_length_a   13.40207997
_cell_length_b   13.40208064
_cell_length_c   13.40224472
_cell_angle_alpha   151.06798504
_cell_angle_beta   151.06798889
_cell_angle_gamma   41.37407215
_symmetry_Int_Tables_number   1
_chemical_formula_structural   Pt3RhPb16
_chemical_formula_sum   'Pt3 Rh1 Pb16'
_cell_volume   562.13560206
_cell_formula_units_Z   1
loop_
 _symmetry_equiv_pos_site_id
 _symmetry_equiv_pos_as_xyz
  1  'x, y, z'
loop_
 _atom_site_type_symbol
 _atom_site_label
 _atom_site_symmetry_multiplicity
 _atom_site_fract_x
 _atom_site_fract_y
 _atom_site_fract_z
 _atom_site_occupancy
  Pt  Pt0  1  0.750000  0.750000  0.000000  1
  Pt  Pt1  1  0.250000  0.250000  0.000000  1
  Pt  Pt2  1  0.000000  0.500000  0.500000  1
  Rh  Rh3  1  0.500000  0.000000  0.500000  1
  Pb  Pb4  1  0.140100  0.637660  0.151933  1
  Pb  Pb5  1  0.640656  0.488075  0.502301  1
  Pb  Pb6  1  0.882095  0.890780  0.649283  1
  Pb  Pb7  1  0.388436  0.738760  0.003653  1
  Pb  Pb8  1  0.609220  0.617905  0.350717  1
  Pb  Pb9  1  0.115217  0.764890  0.003653  1
  Pb  Pb10  1  0.862340  0.359900  0.848067  1
  Pb  Pb11  1  0.361645  0.514229  0.502301  1
  Pb  Pb12  1  0.985771  0.138355  0.497699  1
  Pb  Pb13  1  0.485725  0.988168  0.848067  1
  Pb  Pb14  1  0.735110  0.384783  0.996347  1
  Pb  Pb15  1  0.241498  0.232811  0.350717  1
  Pb  Pb16  1  0.761240  0.111564  0.996347  1
  Pb  Pb17  1  0.267189  0.258502  0.649283  1
  Pb  Pb18  1  0.011925  0.859344  0.497699  1
  Pb  Pb19  1  0.511832  0.014275  0.151933  1
