# generated using pymatgen
data_Ho8Tm2Si5Bi
_symmetry_space_group_name_H-M   'P 1'
_cell_length_a   8.51991126
_cell_length_b   8.51990992
_cell_length_c   6.31810701
_cell_angle_alpha   90.00345776
_cell_angle_beta   90.00345642
_cell_angle_gamma   120.32344829
_symmetry_Int_Tables_number   1
_chemical_formula_structural   Ho8Tm2Si5Bi
_chemical_formula_sum   'Ho8 Tm2 Si5 Bi1'
_cell_volume   395.87943873
_cell_formula_units_Z   1
loop_
 _symmetry_equiv_pos_site_id
 _symmetry_equiv_pos_as_xyz
  1  'x, y, z'
loop_
 _atom_site_type_symbol
 _atom_site_label
 _atom_site_symmetry_multiplicity
 _atom_site_fract_x
 _atom_site_fract_y
 _atom_site_fract_z
 _atom_site_occupancy
  Ho  Ho0  1  0.677031  0.330540  0.504852  1
  Ho  Ho1  1  0.330540  0.677031  0.504852  1
  Ho  Ho2  1  0.767929  0.767929  0.249712  1
  Ho  Ho3  1  0.239764  0.984607  0.249636  1
  Ho  Ho4  1  0.984607  0.239764  0.249636  1
  Ho  Ho5  1  0.240061  0.240061  0.750186  1
  Ho  Ho6  1  0.754919  0.998264  0.750429  1
  Ho  Ho7  1  0.998264  0.754919  0.750429  1
  Tm  Tm8  1  0.330701  0.677103  0.995109  1
  Tm  Tm9  1  0.677103  0.330701  0.995109  1
  Si  Si10  1  0.603675  0.998589  0.248792  1
  Si  Si11  1  0.998589  0.603675  0.248792  1
  Si  Si12  1  0.606748  0.606748  0.750728  1
  Si  Si13  1  0.393517  0.002863  0.751259  1
  Si  Si14  1  0.002863  0.393517  0.751259  1
  Bi  Bi15  1  0.393691  0.393691  0.249219  1
