# generated using pymatgen
data_Lu3In3IrAu2
_symmetry_space_group_name_H-M   'P 1'
_cell_length_a   7.80705200
_cell_length_b   7.80705255
_cell_length_c   3.71755400
_cell_angle_alpha   90.00000000
_cell_angle_beta   90.00000000
_cell_angle_gamma   119.99999031
_symmetry_Int_Tables_number   1
_chemical_formula_structural   Lu3In3IrAu2
_chemical_formula_sum   'Lu3 In3 Ir1 Au2'
_cell_volume   196.22852286
_cell_formula_units_Z   1
loop_
 _symmetry_equiv_pos_site_id
 _symmetry_equiv_pos_as_xyz
  1  'x, y, z'
loop_
 _atom_site_type_symbol
 _atom_site_label
 _atom_site_symmetry_multiplicity
 _atom_site_fract_x
 _atom_site_fract_y
 _atom_site_fract_z
 _atom_site_occupancy
  Lu  Lu0  1  0.394952  0.977866  0.500000  1
  Lu  Lu1  1  0.022134  0.417086  0.500000  1
  Lu  Lu2  1  0.582914  0.605048  0.500000  1
  In  In3  1  0.729123  0.998614  0.000000  1
  In  In4  1  0.001386  0.730509  0.000000  1
  In  In5  1  0.269491  0.270877  0.000000  1
  Ir  Ir6  1  0.333333  0.666667  0.000000  1
  Au  Au7  1  0.666667  0.333333  0.000000  1
  Au  Au8  1  0.000000  0.000000  0.500000  1
