# generated using pymatgen
data_Lu12Si12TcIr3
_symmetry_space_group_name_H-M   'P 1'
_cell_length_a   4.16258900
_cell_length_b   10.51703793
_cell_length_c   12.06375825
_cell_angle_alpha   90.09696218
_cell_angle_beta   90.00000000
_cell_angle_gamma   90.00000000
_symmetry_Int_Tables_number   1
_chemical_formula_structural   Lu12Si12TcIr3
_chemical_formula_sum   'Lu12 Si12 Tc1 Ir3'
_cell_volume   528.12773612
_cell_formula_units_Z   1
loop_
 _symmetry_equiv_pos_site_id
 _symmetry_equiv_pos_as_xyz
  1  'x, y, z'
loop_
 _atom_site_type_symbol
 _atom_site_label
 _atom_site_symmetry_multiplicity
 _atom_site_fract_x
 _atom_site_fract_y
 _atom_site_fract_z
 _atom_site_occupancy
  Lu  Lu0  1  0.250000  0.877629  0.019071  1
  Lu  Lu1  1  0.250000  0.621526  0.520294  1
  Lu  Lu2  1  0.750000  0.120395  0.981413  1
  Lu  Lu3  1  0.750000  0.377888  0.481393  1
  Lu  Lu4  1  0.250000  0.921288  0.602681  1
  Lu  Lu5  1  0.250000  0.579882  0.104397  1
  Lu  Lu6  1  0.750000  0.078705  0.395442  1
  Lu  Lu7  1  0.750000  0.420660  0.895811  1
  Lu  Lu8  1  0.250000  0.662487  0.798435  1
  Lu  Lu9  1  0.250000  0.841015  0.299358  1
  Lu  Lu10  1  0.750000  0.341419  0.200218  1
  Lu  Lu11  1  0.750000  0.158133  0.700786  1
  Si  Si12  1  0.250000  0.012441  0.822066  1
  Si  Si13  1  0.250000  0.486560  0.322619  1
  Si  Si14  1  0.750000  0.986831  0.178147  1
  Si  Si15  1  0.750000  0.514804  0.678843  1
  Si  Si16  1  0.250000  0.248327  0.842433  1
  Si  Si17  1  0.250000  0.250333  0.340968  1
  Si  Si18  1  0.750000  0.751603  0.158566  1
  Si  Si19  1  0.750000  0.751502  0.657934  1
  Si  Si20  1  0.250000  0.196084  0.543047  1
  Si  Si21  1  0.250000  0.301432  0.044563  1
  Si  Si22  1  0.750000  0.802915  0.455444  1
  Si  Si23  1  0.750000  0.695794  0.955835  1
  Tc  Tc24  1  0.250000  0.391294  0.678535  1
  Ir  Ir25  1  0.250000  0.109229  0.178088  1
  Ir  Ir26  1  0.750000  0.610195  0.321047  1
  Ir  Ir27  1  0.750000  0.889626  0.822564  1
