# generated using pymatgen
data_SrNdTh(AgSn)4
_symmetry_space_group_name_H-M   'P 1'
_cell_length_a   9.01454959
_cell_length_b   9.01455003
_cell_length_c   9.01455012
_cell_angle_alpha   149.75110224
_cell_angle_beta   130.30453585
_cell_angle_gamma   59.28984850
_symmetry_Int_Tables_number   1
_chemical_formula_structural   SrNdTh(AgSn)4
_chemical_formula_sum   'Sr1 Nd1 Th1 Ag4 Sn4'
_cell_volume   279.21038531
_cell_formula_units_Z   1
loop_
 _symmetry_equiv_pos_site_id
 _symmetry_equiv_pos_as_xyz
  1  'x, y, z'
loop_
 _atom_site_type_symbol
 _atom_site_label
 _atom_site_symmetry_multiplicity
 _atom_site_fract_x
 _atom_site_fract_y
 _atom_site_fract_z
 _atom_site_occupancy
  Sr  Sr0  1  0.500342  0.000342  0.500000  1
  Nd  Nd1  1  0.129437  0.129437  0.000000  1
  Th  Th2  1  0.870344  0.870344  0.000000  1
  Ag  Ag3  1  0.474528  0.670193  0.804336  1
  Ag  Ag4  1  0.865857  0.670193  0.195664  1
  Ag  Ag5  1  0.134180  0.329863  0.804317  1
  Ag  Ag6  1  0.525547  0.329863  0.195683  1
  Sn  Sn7  1  0.282758  0.782758  0.500000  1
  Sn  Sn8  1  0.718160  0.218160  0.500000  1
  Sn  Sn9  1  0.813201  0.499424  0.313777  1
  Sn  Sn10  1  0.185647  0.499424  0.686223  1
