# generated using pymatgen
data_Tm12Co6Pb
_symmetry_space_group_name_H-M   'P 1'
_cell_length_a   8.25599231
_cell_length_b   8.25599205
_cell_length_c   8.25599300
_cell_angle_alpha   109.47122542
_cell_angle_beta   109.47122478
_cell_angle_gamma   109.47121714
_symmetry_Int_Tables_number   1
_chemical_formula_structural   Tm12Co6Pb
_chemical_formula_sum   'Tm12 Co6 Pb1'
_cell_volume   433.19750042
_cell_formula_units_Z   1
loop_
 _symmetry_equiv_pos_site_id
 _symmetry_equiv_pos_as_xyz
  1  'x, y, z'
loop_
 _atom_site_type_symbol
 _atom_site_label
 _atom_site_symmetry_multiplicity
 _atom_site_fract_x
 _atom_site_fract_y
 _atom_site_fract_z
 _atom_site_occupancy
  Tm  Tm0  1  0.805798  0.696015  0.501814  1
  Tm  Tm1  1  0.194202  0.303985  0.498186  1
  Tm  Tm2  1  0.194202  0.696015  0.890217  1
  Tm  Tm3  1  0.805798  0.303985  0.109783  1
  Tm  Tm4  1  0.696015  0.501814  0.805798  1
  Tm  Tm5  1  0.303985  0.498186  0.194202  1
  Tm  Tm6  1  0.696015  0.890217  0.194202  1
  Tm  Tm7  1  0.303985  0.109783  0.805798  1
  Tm  Tm8  1  0.501814  0.805798  0.696015  1
  Tm  Tm9  1  0.498186  0.194202  0.303985  1
  Tm  Tm10  1  0.109783  0.805798  0.303985  1
  Tm  Tm11  1  0.890217  0.194202  0.696015  1
  Co  Co12  1  0.885790  0.385790  0.500000  1
  Co  Co13  1  0.114210  0.614210  0.500000  1
  Co  Co14  1  0.385790  0.500000  0.885790  1
  Co  Co15  1  0.614210  0.500000  0.114210  1
  Co  Co16  1  0.500000  0.885790  0.385790  1
  Co  Co17  1  0.500000  0.114210  0.614210  1
  Pb  Pb18  1  0.000000  0.000000  0.000000  1
