# generated using pymatgen
data_Y6Er14Cd6FeNi
_symmetry_space_group_name_H-M   'P 1'
_cell_length_a   9.55207100
_cell_length_b   9.55207149
_cell_length_c   9.70434700
_cell_angle_alpha   90.00000000
_cell_angle_beta   90.00000000
_cell_angle_gamma   119.99999484
_symmetry_Int_Tables_number   1
_chemical_formula_structural   Y6Er14Cd6FeNi
_chemical_formula_sum   'Y6 Er14 Cd6 Fe1 Ni1'
_cell_volume   766.81760952
_cell_formula_units_Z   1
loop_
 _symmetry_equiv_pos_site_id
 _symmetry_equiv_pos_as_xyz
  1  'x, y, z'
loop_
 _atom_site_type_symbol
 _atom_site_label
 _atom_site_symmetry_multiplicity
 _atom_site_fract_x
 _atom_site_fract_y
 _atom_site_fract_z
 _atom_site_occupancy
  Y  Y0  1  0.541255  0.458745  0.250000  1
  Y  Y1  1  0.541255  0.082509  0.250000  1
  Y  Y2  1  0.917491  0.458745  0.250000  1
  Y  Y3  1  0.456957  0.543043  0.750000  1
  Y  Y4  1  0.456957  0.913914  0.750000  1
  Y  Y5  1  0.086086  0.543043  0.750000  1
  Er  Er6  1  0.000000  0.000000  0.499896  1
  Er  Er7  1  0.000000  0.000000  0.000104  1
  Er  Er8  1  0.212070  0.787930  0.435687  1
  Er  Er9  1  0.212070  0.424142  0.435687  1
  Er  Er10  1  0.575858  0.787930  0.435687  1
  Er  Er11  1  0.789007  0.210993  0.562770  1
  Er  Er12  1  0.789007  0.578013  0.562770  1
  Er  Er13  1  0.421987  0.210993  0.562770  1
  Er  Er14  1  0.789007  0.210993  0.937230  1
  Er  Er15  1  0.789007  0.578013  0.937230  1
  Er  Er16  1  0.421987  0.210993  0.937230  1
  Er  Er17  1  0.212070  0.787930  0.064313  1
  Er  Er18  1  0.212070  0.424142  0.064313  1
  Er  Er19  1  0.575858  0.787930  0.064313  1
  Cd  Cd20  1  0.885430  0.114570  0.250000  1
  Cd  Cd21  1  0.885430  0.770861  0.250000  1
  Cd  Cd22  1  0.229139  0.114570  0.250000  1
  Cd  Cd23  1  0.114613  0.885387  0.750000  1
  Cd  Cd24  1  0.114613  0.229227  0.750000  1
  Cd  Cd25  1  0.770773  0.885387  0.750000  1
  Fe  Fe26  1  0.333333  0.666667  0.250000  1
  Ni  Ni27  1  0.666667  0.333333  0.750000  1
