# generated using pymatgen
data_PaCl3F2
_symmetry_space_group_name_H-M   'P 1'
_cell_length_a   11.07505840
_cell_length_b   11.07493271
_cell_length_c   11.07498201
_cell_angle_alpha   97.49583747
_cell_angle_beta   97.49606432
_cell_angle_gamma   137.65483859
_symmetry_Int_Tables_number   1
_chemical_formula_structural   PaCl3F2
_chemical_formula_sum   'Pa4 Cl12 F8'
_cell_volume   853.24424168
_cell_formula_units_Z   4
loop_
 _symmetry_equiv_pos_site_id
 _symmetry_equiv_pos_as_xyz
  1  'x, y, z'
loop_
 _atom_site_type_symbol
 _atom_site_label
 _atom_site_symmetry_multiplicity
 _atom_site_fract_x
 _atom_site_fract_y
 _atom_site_fract_z
 _atom_site_occupancy
  Pa  Pa0  1  0.972393  0.801560  0.736973  1
  Pa  Pa1  1  0.801579  0.064588  0.829162  1
  Pa  Pa2  1  0.064583  0.235419  0.263023  1
  Pa  Pa3  1  0.235397  0.972391  0.170840  1
  Cl  Cl4  1  0.662408  0.966114  0.589759  1
  Cl  Cl5  1  0.966106  0.376373  0.303721  1
  Cl  Cl6  1  0.908740  0.664956  0.160029  1
  Cl  Cl7  1  0.376355  0.072640  0.410243  1
  Cl  Cl8  1  0.072642  0.662378  0.696282  1
  Cl  Cl9  1  0.822266  0.717301  0.503636  1
  Cl  Cl10  1  0.717318  0.213684  0.895042  1
  Cl  Cl11  1  0.318626  0.822254  0.104959  1
  Cl  Cl12  1  0.504940  0.748721  0.839969  1
  Cl  Cl13  1  0.748706  0.908750  0.243787  1
  Cl  Cl14  1  0.664967  0.504921  0.756212  1
  Cl  Cl15  1  0.213661  0.318627  0.496361  1
  F  F16  1  0.147492  0.104019  0.202827  1
  F  F17  1  0.474874  0.227907  0.160842  1
  F  F18  1  0.314036  0.474892  0.246972  1
  F  F19  1  0.227917  0.067068  0.753033  1
  F  F20  1  0.104030  0.901195  0.956522  1
  F  F21  1  0.944675  0.147515  0.043481  1
  F  F22  1  0.067083  0.314052  0.839158  1
  F  F23  1  0.901209  0.944678  0.797166  1
