# generated using pymatgen
data_Tb7YSc11Si16Au
_symmetry_space_group_name_H-M   'P 1'
_cell_length_a   7.04054611
_cell_length_b   7.41353393
_cell_length_c   14.06133816
_cell_angle_alpha   89.98468429
_cell_angle_beta   89.99164990
_cell_angle_gamma   89.83616863
_symmetry_Int_Tables_number   1
_chemical_formula_structural   Tb7YSc11Si16Au
_chemical_formula_sum   'Tb7 Y1 Sc11 Si16 Au1'
_cell_volume   733.93311616
_cell_formula_units_Z   1
loop_
 _symmetry_equiv_pos_site_id
 _symmetry_equiv_pos_as_xyz
  1  'x, y, z'
loop_
 _atom_site_type_symbol
 _atom_site_label
 _atom_site_symmetry_multiplicity
 _atom_site_fract_x
 _atom_site_fract_y
 _atom_site_fract_z
 _atom_site_occupancy
  Tb  Tb0  1  0.991292  0.814740  0.900557  1
  Tb  Tb1  1  0.484017  0.672778  0.900619  1
  Tb  Tb2  1  0.991335  0.814821  0.599464  1
  Tb  Tb3  1  0.510774  0.323724  0.096634  1
  Tb  Tb4  1  0.010824  0.174227  0.403698  1
  Tb  Tb5  1  0.510804  0.323752  0.403373  1
  Tb  Tb6  1  0.484014  0.672881  0.599433  1
  Y  Y7  1  0.010807  0.174320  0.096393  1
  Sc  Sc8  1  0.838815  0.497762  0.249982  1
  Sc  Sc9  1  0.340045  0.002805  0.249972  1
  Sc  Sc10  1  0.657197  0.998923  0.749987  1
  Sc  Sc11  1  0.324744  0.183675  0.626799  1
  Sc  Sc12  1  0.671338  0.823562  0.375260  1
  Sc  Sc13  1  0.171074  0.678370  0.374022  1
  Sc  Sc14  1  0.671287  0.823599  0.124696  1
  Sc  Sc15  1  0.836601  0.327946  0.626824  1
  Sc  Sc16  1  0.324720  0.183767  0.873213  1
  Sc  Sc17  1  0.836579  0.327828  0.873136  1
  Sc  Sc18  1  0.171041  0.678398  0.125892  1
  Si  Si19  1  0.027457  0.098845  0.750043  1
  Si  Si20  1  0.968639  0.886175  0.249980  1
  Si  Si21  1  0.467447  0.618304  0.249989  1
  Si  Si22  1  0.537008  0.383908  0.750019  1
  Si  Si23  1  0.289255  0.886288  0.750003  1
  Si  Si24  1  0.713450  0.126349  0.249873  1
  Si  Si25  1  0.212485  0.373201  0.250000  1
  Si  Si26  1  0.778191  0.627464  0.750010  1
  Si  Si27  1  0.160630  0.459439  0.530752  1
  Si  Si28  1  0.843487  0.535527  0.462056  1
  Si  Si29  1  0.345343  0.964903  0.463103  1
  Si  Si30  1  0.843506  0.535526  0.037994  1
  Si  Si31  1  0.657256  0.033730  0.540518  1
  Si  Si32  1  0.160615  0.459260  0.969285  1
  Si  Si33  1  0.657257  0.033752  0.959454  1
  Si  Si34  1  0.345209  0.964907  0.036979  1
  Au  Au35  1  0.155456  0.514551  0.749988  1
