# generated using pymatgen
data_Pr3InSn2Pd3
_symmetry_space_group_name_H-M   'P 1'
_cell_length_a   7.67338015
_cell_length_b   7.67337910
_cell_length_c   4.20156800
_cell_angle_alpha   90.00000000
_cell_angle_beta   90.00000000
_cell_angle_gamma   119.85491063
_symmetry_Int_Tables_number   1
_chemical_formula_structural   Pr3InSn2Pd3
_chemical_formula_sum   'Pr3 In1 Sn2 Pd3'
_cell_volume   214.55986552
_cell_formula_units_Z   1
loop_
 _symmetry_equiv_pos_site_id
 _symmetry_equiv_pos_as_xyz
  1  'x, y, z'
loop_
 _atom_site_type_symbol
 _atom_site_label
 _atom_site_symmetry_multiplicity
 _atom_site_fract_x
 _atom_site_fract_y
 _atom_site_fract_z
 _atom_site_occupancy
  Pr  Pr0  1  0.000441  0.587822  0.000000  1
  Pr  Pr1  1  0.413791  0.413791  0.000000  1
  Pr  Pr2  1  0.587822  0.000441  0.000000  1
  In  In3  1  0.748190  0.748190  0.500000  1
  Sn  Sn4  1  0.998184  0.247502  0.500000  1
  Sn  Sn5  1  0.247502  0.998184  0.500000  1
  Pd  Pd6  1  0.666348  0.332010  0.500000  1
  Pd  Pd7  1  0.005711  0.005711  0.000000  1
  Pd  Pd8  1  0.332010  0.666348  0.500000  1
