# generated using pymatgen
data_Ca5Pr3(Si3Au)4
_symmetry_space_group_name_H-M   'P 1'
_cell_length_a   8.28342000
_cell_length_b   8.28093154
_cell_length_c   8.48234700
_cell_angle_alpha   90.00000000
_cell_angle_beta   90.00000000
_cell_angle_gamma   120.00994912
_symmetry_Int_Tables_number   1
_chemical_formula_structural   Ca5Pr3(Si3Au)4
_chemical_formula_sum   'Ca5 Pr3 Si12 Au4'
_cell_volume   503.83924727
_cell_formula_units_Z   1
loop_
 _symmetry_equiv_pos_site_id
 _symmetry_equiv_pos_as_xyz
  1  'x, y, z'
loop_
 _atom_site_type_symbol
 _atom_site_label
 _atom_site_symmetry_multiplicity
 _atom_site_fract_x
 _atom_site_fract_y
 _atom_site_fract_z
 _atom_site_occupancy
  Ca  Ca0  1  0.498786  0.501131  0.750000  1
  Ca  Ca1  1  0.501267  0.498997  0.250000  1
  Ca  Ca2  1  0.002344  0.501131  0.750000  1
  Ca  Ca3  1  0.997729  0.498997  0.250000  1
  Ca  Ca4  1  0.498749  0.997500  0.750000  1
  Pr  Pr5  1  0.501347  0.002694  0.250000  1
  Pr  Pr6  1  0.000040  0.000080  0.750000  1
  Pr  Pr7  1  0.000011  0.000023  0.250000  1
  Si  Si8  1  0.837278  0.163451  0.000808  1
  Si  Si9  1  0.162706  0.836559  0.999679  1
  Si  Si10  1  0.326175  0.163451  0.000808  1
  Si  Si11  1  0.162706  0.836559  0.500321  1
  Si  Si12  1  0.673855  0.836559  0.999679  1
  Si  Si13  1  0.837278  0.163451  0.499192  1
  Si  Si14  1  0.836486  0.672973  0.001040  1
  Si  Si15  1  0.673855  0.836559  0.500321  1
  Si  Si16  1  0.163434  0.326869  0.999703  1
  Si  Si17  1  0.326175  0.163451  0.499192  1
  Si  Si18  1  0.163434  0.326869  0.500297  1
  Si  Si19  1  0.836486  0.672973  0.498960  1
  Au  Au20  1  0.667356  0.334711  0.994771  1
  Au  Au21  1  0.332575  0.665150  0.002488  1
  Au  Au22  1  0.332575  0.665150  0.497512  1
  Au  Au23  1  0.667356  0.334711  0.505229  1
