# generated using pymatgen
data_ScNb4(Re3Tc)6
_symmetry_space_group_name_H-M   'P 1'
_cell_length_a   8.40986383
_cell_length_b   8.41701401
_cell_length_c   8.41701491
_cell_angle_alpha   109.55655379
_cell_angle_beta   109.50653325
_cell_angle_gamma   109.38500706
_symmetry_Int_Tables_number   1
_chemical_formula_structural   ScNb4(Re3Tc)6
_chemical_formula_sum   'Sc1 Nb4 Re18 Tc6'
_cell_volume   458.45610608
_cell_formula_units_Z   1
loop_
 _symmetry_equiv_pos_site_id
 _symmetry_equiv_pos_as_xyz
  1  'x, y, z'
loop_
 _atom_site_type_symbol
 _atom_site_label
 _atom_site_symmetry_multiplicity
 _atom_site_fract_x
 _atom_site_fract_y
 _atom_site_fract_z
 _atom_site_occupancy
  Sc  Sc0  1  0.000000  0.999784  0.999784  1
  Nb  Nb1  1  0.369249  0.369528  0.369096  1
  Nb  Nb2  1  0.001189  0.630624  0.999842  1
  Nb  Nb3  1  0.630751  0.999847  0.000279  1
  Nb  Nb4  1  0.998811  0.998653  0.629435  1
  Re  Re5  1  0.600428  0.601151  0.281199  1
  Re  Re6  1  0.806086  0.806029  0.180941  1
  Re  Re7  1  0.375904  0.193984  0.000066  1
  Re  Re8  1  0.193914  0.374855  0.999944  1
  Re  Re9  1  0.622359  0.816752  0.622691  1
  Re  Re10  1  0.377641  0.000332  0.194393  1
  Re  Re11  1  0.000152  0.377324  0.195389  1
  Re  Re12  1  0.817997  0.622695  0.622487  1
  Re  Re13  1  0.182003  0.804490  0.804698  1
  Re  Re14  1  0.804443  0.180248  0.805386  1
  Re  Re15  1  0.195557  0.000943  0.375805  1
  Re  Re16  1  0.999848  0.195237  0.377172  1
  Re  Re17  1  0.624096  0.624162  0.818080  1
  Re  Re18  1  0.399666  0.000249  0.681051  1
  Re  Re19  1  0.600334  0.281386  0.600584  1
  Re  Re20  1  0.682349  0.401428  0.001738  1
  Re  Re21  1  0.399572  0.680770  0.000723  1
  Re  Re22  1  0.317651  0.319389  0.719079  1
  Tc  Tc23  1  0.999418  0.400054  0.682946  1
  Tc  Tc24  1  0.281595  0.599536  0.599576  1
  Tc  Tc25  1  0.718405  0.317982  0.317942  1
  Tc  Tc26  1  0.317446  0.718049  0.318435  1
  Tc  Tc27  1  0.682554  0.000990  0.400604  1
  Tc  Tc28  1  0.000582  0.683529  0.400636  1
