# generated using pymatgen
data_Th6ReI15
_symmetry_space_group_name_H-M   'P 1'
_cell_length_a   10.79509484
_cell_length_b   10.79509507
_cell_length_c   10.79509400
_cell_angle_alpha   109.47122051
_cell_angle_beta   109.47122094
_cell_angle_gamma   109.47122256
_symmetry_Int_Tables_number   1
_chemical_formula_structural   Th6ReI15
_chemical_formula_sum   'Th6 Re1 I15'
_cell_volume   968.40597367
_cell_formula_units_Z   1
loop_
 _symmetry_equiv_pos_site_id
 _symmetry_equiv_pos_as_xyz
  1  'x, y, z'
loop_
 _atom_site_type_symbol
 _atom_site_label
 _atom_site_symmetry_multiplicity
 _atom_site_fract_x
 _atom_site_fract_y
 _atom_site_fract_z
 _atom_site_occupancy
  Th  Th0  1  0.768290  0.768290  0.000000  1
  Th  Th1  1  0.231710  0.000000  0.231710  1
  Th  Th2  1  0.768290  0.000000  0.768290  1
  Th  Th3  1  0.000000  0.768290  0.768290  1
  Th  Th4  1  0.000000  0.231710  0.231710  1
  Th  Th5  1  0.231710  0.231710  0.000000  1
  Re  Re6  1  0.000000  0.000000  0.000000  1
  I  I7  1  0.500000  0.000000  0.500000  1
  I  I8  1  0.000000  0.500000  0.500000  1
  I  I9  1  0.500000  0.500000  0.000000  1
  I  I10  1  0.496065  0.748032  0.748032  1
  I  I11  1  0.748032  0.000000  0.251968  1
  I  I12  1  0.503935  0.251968  0.251968  1
  I  I13  1  0.251968  0.251968  0.503935  1
  I  I14  1  0.251968  0.748032  0.000000  1
  I  I15  1  0.000000  0.251968  0.748032  1
  I  I16  1  0.000000  0.748032  0.251968  1
  I  I17  1  0.251968  0.000000  0.748032  1
  I  I18  1  0.251968  0.503935  0.251968  1
  I  I19  1  0.748032  0.251968  0.000000  1
  I  I20  1  0.748032  0.496065  0.748032  1
  I  I21  1  0.748032  0.748032  0.496065  1
