# generated using pymatgen
data_Al3Cu3(Pd2Pt)2
_symmetry_space_group_name_H-M   'P 1'
_cell_length_a   4.04013603
_cell_length_b   6.87124900
_cell_length_c   12.21946510
_cell_angle_alpha   90.00000000
_cell_angle_beta   89.98582026
_cell_angle_gamma   90.00000000
_symmetry_Int_Tables_number   1
_chemical_formula_structural   Al3Cu3(Pd2Pt)2
_chemical_formula_sum   'Al6 Cu6 Pd8 Pt4'
_cell_volume   339.22187989
_cell_formula_units_Z   2
loop_
 _symmetry_equiv_pos_site_id
 _symmetry_equiv_pos_as_xyz
  1  'x, y, z'
loop_
 _atom_site_type_symbol
 _atom_site_label
 _atom_site_symmetry_multiplicity
 _atom_site_fract_x
 _atom_site_fract_y
 _atom_site_fract_z
 _atom_site_occupancy
  Al  Al0  1  0.999969  0.000000  0.003695  1
  Al  Al1  1  0.500067  0.500001  0.162984  1
  Al  Al2  1  0.000062  0.000000  0.330045  1
  Al  Al3  1  0.500013  0.500001  0.500147  1
  Al  Al4  1  0.999935  0.000000  0.666538  1
  Al  Al5  1  0.499942  0.500001  0.836616  1
  Cu  Cu6  1  0.999983  0.500001  0.996710  1
  Cu  Cu7  1  0.500043  0.000000  0.169968  1
  Cu  Cu8  1  0.000124  0.500001  0.337408  1
  Cu  Cu9  1  0.499902  0.000000  0.500358  1
  Cu  Cu10  1  0.000044  0.500001  0.666257  1
  Cu  Cu11  1  0.499916  0.000000  0.829259  1
  Pd  Pd12  1  0.500045  0.250951  0.334279  1
  Pd  Pd13  1  0.500045  0.749050  0.334279  1
  Pd  Pd14  1  0.000003  0.246631  0.500491  1
  Pd  Pd15  1  0.000003  0.753370  0.500491  1
  Pd  Pd16  1  0.499983  0.253318  0.666176  1
  Pd  Pd17  1  0.499983  0.746683  0.666176  1
  Pd  Pd18  1  0.999961  0.249077  0.832389  1
  Pd  Pd19  1  0.999961  0.750922  0.832389  1
  Pt  Pt20  1  0.499982  0.243733  0.999262  1
  Pt  Pt21  1  0.499982  0.756266  0.999262  1
  Pt  Pt22  1  0.000024  0.256267  0.167409  1
  Pt  Pt23  1  0.000024  0.743732  0.167409  1
