# generated using pymatgen
data_Dy4Lu6Sn5Pb3
_symmetry_space_group_name_H-M   'P 1'
_cell_length_a   7.99412300
_cell_length_b   8.11162505
_cell_length_c   15.31856898
_cell_angle_alpha   90.05821605
_cell_angle_beta   90.00000000
_cell_angle_gamma   90.00000000
_symmetry_Int_Tables_number   1
_chemical_formula_structural   Dy4Lu6Sn5Pb3
_chemical_formula_sum   'Dy8 Lu12 Sn10 Pb6'
_cell_volume   993.33712246
_cell_formula_units_Z   2
loop_
 _symmetry_equiv_pos_site_id
 _symmetry_equiv_pos_as_xyz
  1  'x, y, z'
loop_
 _atom_site_type_symbol
 _atom_site_label
 _atom_site_symmetry_multiplicity
 _atom_site_fract_x
 _atom_site_fract_y
 _atom_site_fract_z
 _atom_site_occupancy
  Dy  Dy0  1  0.525258  0.322640  0.901552  1
  Dy  Dy1  1  0.025258  0.177360  0.598448  1
  Dy  Dy2  1  0.475769  0.680735  0.400963  1
  Dy  Dy3  1  0.975769  0.819265  0.099037  1
  Dy  Dy4  1  0.478883  0.676658  0.098849  1
  Dy  Dy5  1  0.978883  0.823342  0.401151  1
  Dy  Dy6  1  0.522349  0.320125  0.598748  1
  Dy  Dy7  1  0.022349  0.179875  0.901252  1
  Lu  Lu8  1  0.366987  0.838112  0.874982  1
  Lu  Lu9  1  0.866987  0.661888  0.625018  1
  Lu  Lu10  1  0.630919  0.161714  0.375523  1
  Lu  Lu11  1  0.130919  0.338286  0.124477  1
  Lu  Lu12  1  0.633763  0.164164  0.124187  1
  Lu  Lu13  1  0.133763  0.335836  0.375813  1
  Lu  Lu14  1  0.366618  0.839604  0.624229  1
  Lu  Lu15  1  0.866618  0.660396  0.875771  1
  Lu  Lu16  1  0.197347  0.504502  0.750044  1
  Lu  Lu17  1  0.697347  0.995498  0.749956  1
  Lu  Lu18  1  0.802266  0.495359  0.248770  1
  Lu  Lu19  1  0.302266  0.004641  0.251230  1
  Sn  Sn20  1  0.293620  0.038053  0.458369  1
  Sn  Sn21  1  0.793620  0.461947  0.041631  1
  Sn  Sn22  1  0.562582  0.622311  0.749841  1
  Sn  Sn23  1  0.062582  0.877689  0.750159  1
  Sn  Sn24  1  0.436539  0.378620  0.250084  1
  Sn  Sn25  1  0.936539  0.121380  0.249916  1
  Sn  Sn26  1  0.332012  0.149339  0.750219  1
  Sn  Sn27  1  0.832012  0.350661  0.749781  1
  Sn  Sn28  1  0.668725  0.851562  0.250005  1
  Sn  Sn29  1  0.168725  0.648438  0.249995  1
  Pb  Pb30  1  0.292990  0.038069  0.041337  1
  Pb  Pb31  1  0.792990  0.461931  0.458663  1
  Pb  Pb32  1  0.706400  0.961612  0.541097  1
  Pb  Pb33  1  0.206400  0.538388  0.958903  1
  Pb  Pb34  1  0.706975  0.961796  0.958659  1
  Pb  Pb35  1  0.206975  0.538204  0.541341  1
