# generated using pymatgen
data_MgTa6(B4Ru3)2
_symmetry_space_group_name_H-M   'P 1'
_cell_length_a   9.54530380
_cell_length_b   9.52824563
_cell_length_c   3.14158700
_cell_angle_alpha   90.00000000
_cell_angle_beta   90.00000000
_cell_angle_gamma   119.73644016
_symmetry_Int_Tables_number   1
_chemical_formula_structural   MgTa6(B4Ru3)2
_chemical_formula_sum   'Mg1 Ta6 B8 Ru6'
_cell_volume   248.10168166
_cell_formula_units_Z   1
loop_
 _symmetry_equiv_pos_site_id
 _symmetry_equiv_pos_as_xyz
  1  'x, y, z'
loop_
 _atom_site_type_symbol
 _atom_site_label
 _atom_site_symmetry_multiplicity
 _atom_site_fract_x
 _atom_site_fract_y
 _atom_site_fract_z
 _atom_site_occupancy
  Mg  Mg0  1  0.710105  0.622343  0.000000  1
  Ta  Ta1  1  0.998585  0.999118  0.000000  1
  Ta  Ta2  1  0.363125  0.087205  0.000000  1
  Ta  Ta3  1  0.914760  0.282723  0.000000  1
  Ta  Ta4  1  0.278666  0.364353  0.000000  1
  Ta  Ta5  1  0.640183  0.914477  0.000000  1
  Ta  Ta6  1  0.084561  0.723748  0.000000  1
  B  B7  1  0.667419  0.334912  0.000000  1
  B  B8  1  0.341684  0.667593  0.000000  1
  B  B9  1  0.153358  0.936440  0.500000  1
  B  B10  1  0.064967  0.220040  0.500000  1
  B  B11  1  0.784303  0.849616  0.500000  1
  B  B12  1  0.848580  0.067974  0.500000  1
  B  B13  1  0.936780  0.784463  0.500000  1
  B  B14  1  0.218060  0.153595  0.500000  1
  Ru  Ru15  1  0.353737  0.843997  0.500000  1
  Ru  Ru16  1  0.158035  0.514310  0.500000  1
  Ru  Ru17  1  0.487515  0.644083  0.500000  1
  Ru  Ru18  1  0.642410  0.152449  0.500000  1
  Ru  Ru19  1  0.844294  0.485625  0.500000  1
  Ru  Ru20  1  0.508874  0.350936  0.500000  1
