# generated using pymatgen
data_Tb2Nd3Co(P2Ru3)6
_symmetry_space_group_name_H-M   'P 1'
_cell_length_a   12.53689600
_cell_length_b   12.56696823
_cell_length_c   3.99574000
_cell_angle_alpha   90.00000000
_cell_angle_beta   90.00000000
_cell_angle_gamma   119.92087311
_symmetry_Int_Tables_number   1
_chemical_formula_structural   Tb2Nd3Co(P2Ru3)6
_chemical_formula_sum   'Tb2 Nd3 Co1 P12 Ru18'
_cell_volume   545.62482217
_cell_formula_units_Z   1
loop_
 _symmetry_equiv_pos_site_id
 _symmetry_equiv_pos_as_xyz
  1  'x, y, z'
loop_
 _atom_site_type_symbol
 _atom_site_label
 _atom_site_symmetry_multiplicity
 _atom_site_fract_x
 _atom_site_fract_y
 _atom_site_fract_z
 _atom_site_occupancy
  Tb  Tb0  1  0.000077  0.184381  0.500000  1
  Tb  Tb1  1  0.815696  0.815619  0.500000  1
  Nd  Nd2  1  0.333823  0.666766  0.000000  1
  Nd  Nd3  1  0.667058  0.333234  0.000000  1
  Nd  Nd4  1  0.183249  0.000000  0.500000  1
  Co  Co5  1  0.998767  0.000000  0.000000  1
  P  P6  1  0.374457  0.000000  0.000000  1
  P  P7  1  0.999653  0.373289  0.000000  1
  P  P8  1  0.626364  0.626711  0.000000  1
  P  P9  1  0.306035  0.475422  0.500000  1
  P  P10  1  0.526400  0.831382  0.500000  1
  P  P11  1  0.168764  0.694125  0.500000  1
  P  P12  1  0.830613  0.524578  0.500000  1
  P  P13  1  0.695018  0.168618  0.500000  1
  P  P14  1  0.474639  0.305875  0.500000  1
  P  P15  1  0.822531  0.000000  0.000000  1
  P  P16  1  0.997671  0.820419  0.000000  1
  P  P17  1  0.177251  0.179581  0.000000  1
  Ru  Ru18  1  0.189953  0.374546  0.000000  1
  Ru  Ru19  1  0.626838  0.816885  0.000000  1
  Ru  Ru20  1  0.182895  0.807468  0.000000  1
  Ru  Ru21  1  0.815406  0.625454  0.000000  1
  Ru  Ru22  1  0.809952  0.183115  0.000000  1
  Ru  Ru23  1  0.375426  0.192532  0.000000  1
  Ru  Ru24  1  0.556959  0.000000  0.000000  1
  Ru  Ru25  1  0.998958  0.555462  0.000000  1
  Ru  Ru26  1  0.443496  0.444538  0.000000  1
  Ru  Ru27  1  0.124399  0.490861  0.500000  1
  Ru  Ru28  1  0.510372  0.634749  0.500000  1
  Ru  Ru29  1  0.366887  0.875493  0.500000  1
  Ru  Ru30  1  0.633537  0.509139  0.500000  1
  Ru  Ru31  1  0.875622  0.365251  0.500000  1
  Ru  Ru32  1  0.491393  0.124507  0.500000  1
  Ru  Ru33  1  0.721646  0.000000  0.500000  1
  Ru  Ru34  1  0.998637  0.719076  0.500000  1
  Ru  Ru35  1  0.279560  0.280924  0.500000  1
