# generated using pymatgen
data_Dy2Sc2CrB12Rh
_symmetry_space_group_name_H-M   'P 1'
_cell_length_a   3.51243400
_cell_length_b   8.98207450
_cell_length_c   11.37110088
_cell_angle_alpha   89.90308876
_cell_angle_beta   90.00000000
_cell_angle_gamma   90.00000000
_symmetry_Int_Tables_number   1
_chemical_formula_structural   Dy2Sc2CrB12Rh
_chemical_formula_sum   'Dy4 Sc4 Cr2 B24 Rh2'
_cell_volume   358.74571008
_cell_formula_units_Z   2
loop_
 _symmetry_equiv_pos_site_id
 _symmetry_equiv_pos_as_xyz
  1  'x, y, z'
loop_
 _atom_site_type_symbol
 _atom_site_label
 _atom_site_symmetry_multiplicity
 _atom_site_fract_x
 _atom_site_fract_y
 _atom_site_fract_z
 _atom_site_occupancy
  Dy  Dy0  1  0.000000  0.816822  0.088166  1
  Dy  Dy1  1  0.000000  0.183178  0.911834  1
  Dy  Dy2  1  0.000000  0.324041  0.416600  1
  Dy  Dy3  1  0.000000  0.675959  0.583400  1
  Sc  Sc4  1  0.000000  0.448183  0.128458  1
  Sc  Sc5  1  0.000000  0.551817  0.871542  1
  Sc  Sc6  1  0.000000  0.940431  0.374035  1
  Sc  Sc7  1  0.000000  0.059569  0.625965  1
  Cr  Cr8  1  0.000000  0.640789  0.317309  1
  Cr  Cr9  1  0.000000  0.359211  0.682691  1
  B  B10  1  0.500000  0.054797  0.066646  1
  B  B11  1  0.500000  0.945203  0.933354  1
  B  B12  1  0.500000  0.554220  0.431912  1
  B  B13  1  0.500000  0.445780  0.568088  1
  B  B14  1  0.500000  0.254740  0.080609  1
  B  B15  1  0.500000  0.745260  0.919391  1
  B  B16  1  0.500000  0.751643  0.418132  1
  B  B17  1  0.500000  0.248357  0.581868  1
  B  B18  1  0.500000  0.294359  0.235304  1
  B  B19  1  0.500000  0.705641  0.764696  1
  B  B20  1  0.500000  0.793726  0.265643  1
  B  B21  1  0.500000  0.206274  0.734357  1
  B  B22  1  0.500000  0.128531  0.318241  1
  B  B23  1  0.500000  0.871469  0.681759  1
  B  B24  1  0.500000  0.628908  0.183700  1
  B  B25  1  0.500000  0.371092  0.816300  1
  B  B26  1  0.500000  0.481713  0.286171  1
  B  B27  1  0.500000  0.518287  0.713829  1
  B  B28  1  0.500000  0.980655  0.214845  1
  B  B29  1  0.500000  0.019345  0.785155  1
  B  B30  1  0.500000  0.099213  0.472869  1
  B  B31  1  0.500000  0.900787  0.527131  1
  B  B32  1  0.500000  0.599132  0.026477  1
  B  B33  1  0.500000  0.400868  0.973523  1
  Rh  Rh34  1  0.000000  0.139846  0.180827  1
  Rh  Rh35  1  0.000000  0.860154  0.819173  1
