# generated using pymatgen
data_ScTa2B2Ru5
_symmetry_space_group_name_H-M   'P 1'
_cell_length_a   9.44507302
_cell_length_b   9.44507302
_cell_length_c   3.07420100
_cell_angle_alpha   90.00000000
_cell_angle_beta   90.00000000
_cell_angle_gamma   89.99191981
_symmetry_Int_Tables_number   1
_chemical_formula_structural   ScTa2B2Ru5
_chemical_formula_sum   'Sc2 Ta4 B4 Ru10'
_cell_volume   274.24763755
_cell_formula_units_Z   2
loop_
 _symmetry_equiv_pos_site_id
 _symmetry_equiv_pos_as_xyz
  1  'x, y, z'
loop_
 _atom_site_type_symbol
 _atom_site_label
 _atom_site_symmetry_multiplicity
 _atom_site_fract_x
 _atom_site_fract_y
 _atom_site_fract_z
 _atom_site_occupancy
  Sc  Sc0  1  0.825237  0.674763  0.000000  1
  Sc  Sc1  1  0.174763  0.325237  0.000000  1
  Ta  Ta2  1  0.323018  0.823018  0.000000  1
  Ta  Ta3  1  0.676982  0.176982  0.000000  1
  Ta  Ta4  1  0.500000  0.500000  0.000000  1
  Ta  Ta5  1  0.000000  0.000000  0.000000  1
  B  B6  1  0.622773  0.877227  0.000000  1
  B  B7  1  0.377227  0.122773  0.000000  1
  B  B8  1  0.119554  0.619554  0.000000  1
  B  B9  1  0.880446  0.380446  0.000000  1
  Ru  Ru10  1  0.564373  0.720601  0.500000  1
  Ru  Ru11  1  0.435627  0.279399  0.500000  1
  Ru  Ru12  1  0.077710  0.784175  0.500000  1
  Ru  Ru13  1  0.922290  0.215825  0.500000  1
  Ru  Ru14  1  0.284175  0.577710  0.500000  1
  Ru  Ru15  1  0.715825  0.422290  0.500000  1
  Ru  Ru16  1  0.220601  0.064373  0.500000  1
  Ru  Ru17  1  0.779399  0.935627  0.500000  1
  Ru  Ru18  1  0.500000  0.000000  0.500000  1
  Ru  Ru19  1  0.000000  0.500000  0.500000  1
