# generated using pymatgen
data_Sr21Al3Ga5AgSn6
_symmetry_space_group_name_H-M   'P 1'
_cell_length_a   12.16907097
_cell_length_b   12.18258823
_cell_length_c   12.18258629
_cell_angle_alpha   60.03910906
_cell_angle_beta   60.00904210
_cell_angle_gamma   60.00904166
_symmetry_Int_Tables_number   1
_chemical_formula_structural   Sr21Al3Ga5AgSn6
_chemical_formula_sum   'Sr21 Al3 Ga5 Ag1 Sn6'
_cell_volume   1277.64165228
_cell_formula_units_Z   1
loop_
 _symmetry_equiv_pos_site_id
 _symmetry_equiv_pos_as_xyz
  1  'x, y, z'
loop_
 _atom_site_type_symbol
 _atom_site_label
 _atom_site_symmetry_multiplicity
 _atom_site_fract_x
 _atom_site_fract_y
 _atom_site_fract_z
 _atom_site_occupancy
  Sr  Sr0  1  0.870911  0.869877  0.389899  1
  Sr  Sr1  1  0.606284  0.131060  0.131060  1
  Sr  Sr2  1  0.870911  0.389899  0.869877  1
  Sr  Sr3  1  0.131135  0.131148  0.131148  1
  Sr  Sr4  1  0.389395  0.870366  0.870366  1
  Sr  Sr5  1  0.870746  0.869741  0.869741  1
  Sr  Sr6  1  0.172782  0.826269  0.500443  1
  Sr  Sr7  1  0.825533  0.499081  0.499081  1
  Sr  Sr8  1  0.130983  0.131025  0.606363  1
  Sr  Sr9  1  0.825758  0.176039  0.499121  1
  Sr  Sr10  1  0.173023  0.500519  0.500519  1
  Sr  Sr11  1  0.130983  0.606363  0.131025  1
  Sr  Sr12  1  0.499462  0.499298  0.175349  1
  Sr  Sr13  1  0.499441  0.175092  0.826214  1
  Sr  Sr14  1  0.499441  0.826214  0.175092  1
  Sr  Sr15  1  0.499398  0.499224  0.825983  1
  Sr  Sr16  1  0.499462  0.175349  0.499298  1
  Sr  Sr17  1  0.172782  0.500443  0.826269  1
  Sr  Sr18  1  0.999483  0.000177  0.000177  1
  Sr  Sr19  1  0.499398  0.825983  0.499224  1
  Sr  Sr20  1  0.825758  0.499121  0.176039  1
  Al  Al21  1  0.695580  0.916683  0.694007  1
  Al  Al22  1  0.695580  0.694007  0.916683  1
  Al  Al23  1  0.695452  0.693829  0.693829  1
  Ga  Ga24  1  0.305944  0.080706  0.306531  1
  Ga  Ga25  1  0.920961  0.693086  0.693086  1
  Ga  Ga26  1  0.305944  0.306531  0.080706  1
  Ga  Ga27  1  0.080623  0.306374  0.306374  1
  Ga  Ga28  1  0.306149  0.306672  0.306672  1
  Ag  Ag29  1  0.499624  0.500071  0.500071  1
  Sn  Sn30  1  0.784351  0.215540  0.784506  1
  Sn  Sn31  1  0.784734  0.215733  0.215733  1
  Sn  Sn32  1  0.215914  0.784382  0.215617  1
  Sn  Sn33  1  0.215807  0.783976  0.783976  1
  Sn  Sn34  1  0.784351  0.784506  0.215540  1
  Sn  Sn35  1  0.215914  0.215617  0.784382  1
