# generated using pymatgen
data_HfZr(VFe)2
_symmetry_space_group_name_H-M   'P 1'
_cell_length_a   5.04378977
_cell_length_b   5.03164661
_cell_length_c   5.03164663
_cell_angle_alpha   61.62389610
_cell_angle_beta   59.92014122
_cell_angle_gamma   59.92014664
_symmetry_Int_Tables_number   1
_chemical_formula_structural   HfZr(VFe)2
_chemical_formula_sum   'Hf1 Zr1 V2 Fe2'
_cell_volume   91.23709452
_cell_formula_units_Z   1
loop_
 _symmetry_equiv_pos_site_id
 _symmetry_equiv_pos_as_xyz
  1  'x, y, z'
loop_
 _atom_site_type_symbol
 _atom_site_label
 _atom_site_symmetry_multiplicity
 _atom_site_fract_x
 _atom_site_fract_y
 _atom_site_fract_z
 _atom_site_occupancy
  Hf  Hf0  1  0.252491  0.247509  0.247509  1
  Zr  Zr1  1  0.997111  0.002889  0.002889  1
  V  V2  1  0.125381  0.624671  0.624671  1
  V  V3  1  0.625279  0.624671  0.624671  1
  Fe  Fe4  1  0.624870  0.624839  0.125423  1
  Fe  Fe5  1  0.624870  0.125423  0.624839  1
