# generated using pymatgen
data_Ho11ErInCo4Ni
_symmetry_space_group_name_H-M   'P 1'
_cell_length_a   8.26083704
_cell_length_b   8.25722310
_cell_length_c   8.26008676
_cell_angle_alpha   110.71514327
_cell_angle_beta   110.71261340
_cell_angle_gamma   107.03361251
_symmetry_Int_Tables_number   1
_chemical_formula_structural   Ho11ErInCo4Ni
_chemical_formula_sum   'Ho11 Er1 In1 Co4 Ni1'
_cell_volume   433.03323297
_cell_formula_units_Z   1
loop_
 _symmetry_equiv_pos_site_id
 _symmetry_equiv_pos_as_xyz
  1  'x, y, z'
loop_
 _atom_site_type_symbol
 _atom_site_label
 _atom_site_symmetry_multiplicity
 _atom_site_fract_x
 _atom_site_fract_y
 _atom_site_fract_z
 _atom_site_occupancy
  Ho  Ho0  1  0.684757  0.379705  0.694986  1
  Ho  Ho1  1  0.315210  0.010060  0.694900  1
  Ho  Ho2  1  0.684747  0.989449  0.304748  1
  Ho  Ho3  1  0.186313  0.292776  0.478697  1
  Ho  Ho4  1  0.813323  0.706983  0.520700  1
  Ho  Ho5  1  0.186325  0.706990  0.893711  1
  Ho  Ho6  1  0.814148  0.292768  0.106522  1
  Ho  Ho7  1  0.406222  0.211458  0.194931  1
  Ho  Ho8  1  0.593354  0.788310  0.804605  1
  Ho  Ho9  1  0.016572  0.211469  0.805273  1
  Ho  Ho10  1  0.983749  0.788315  0.194988  1
  Er  Er11  1  0.315401  0.620543  0.305197  1
  In  In12  1  0.500574  0.500644  0.000796  1
  Co  Co13  1  0.112831  0.612606  0.499856  1
  Co  Co14  1  0.887726  0.387805  0.500159  1
  Co  Co15  1  0.377536  0.999456  0.377402  1
  Co  Co16  1  0.622119  0.999449  0.621974  1
  Ni  Ni17  1  0.999094  0.001214  0.000557  1
