# generated using pymatgen
data_HoEr5GaCoRu
_symmetry_space_group_name_H-M   'P 1'
_cell_length_a   8.26178818
_cell_length_b   8.26121272
_cell_length_c   8.25853100
_cell_angle_alpha   105.50511018
_cell_angle_beta   110.67382731
_cell_angle_gamma   112.31907756
_symmetry_Int_Tables_number   1
_chemical_formula_structural   HoEr5GaCoRu
_chemical_formula_sum   'Ho2 Er10 Ga2 Co2 Ru2'
_cell_volume   432.22129150
_cell_formula_units_Z   2
loop_
 _symmetry_equiv_pos_site_id
 _symmetry_equiv_pos_as_xyz
  1  'x, y, z'
loop_
 _atom_site_type_symbol
 _atom_site_label
 _atom_site_symmetry_multiplicity
 _atom_site_fract_x
 _atom_site_fract_y
 _atom_site_fract_z
 _atom_site_occupancy
  Ho  Ho0  1  0.693294  0.254971  0.948274  1
  Ho  Ho1  1  0.306706  0.745029  0.051726  1
  Er  Er2  1  0.693557  0.744853  0.438410  1
  Er  Er3  1  0.306443  0.255147  0.561590  1
  Er  Er4  1  0.815420  0.139488  0.324573  1
  Er  Er5  1  0.814923  0.490831  0.675398  1
  Er  Er6  1  0.184580  0.860512  0.675427  1
  Er  Er7  1  0.185077  0.509169  0.324602  1
  Er  Er8  1  0.600372  0.780454  0.819650  1
  Er  Er9  1  0.960755  0.780707  0.180353  1
  Er  Er10  1  0.039245  0.219293  0.819647  1
  Er  Er11  1  0.399628  0.219546  0.180350  1
  Ga  Ga12  1  0.500000  0.500000  0.000000  1
  Ga  Ga13  1  0.500000  0.000000  0.500000  1
  Co  Co14  1  0.000214  0.113144  0.113352  1
  Co  Co15  1  0.999786  0.886856  0.886648  1
  Ru  Ru16  1  0.826819  0.500196  0.326985  1
  Ru  Ru17  1  0.173181  0.499804  0.673015  1
