# generated using pymatgen
data_La3Pr2Nd(IrBr3)2
_symmetry_space_group_name_H-M   'P 1'
_cell_length_a   10.61015684
_cell_length_b   10.63437225
_cell_length_c   10.63437196
_cell_angle_alpha   108.75125758
_cell_angle_beta   109.59317217
_cell_angle_gamma   110.16647470
_symmetry_Int_Tables_number   1
_chemical_formula_structural   La3Pr2Nd(IrBr3)2
_chemical_formula_sum   'La6 Pr4 Nd2 Ir4 Br12'
_cell_volume   922.46759194
_cell_formula_units_Z   2
loop_
 _symmetry_equiv_pos_site_id
 _symmetry_equiv_pos_as_xyz
  1  'x, y, z'
loop_
 _atom_site_type_symbol
 _atom_site_label
 _atom_site_symmetry_multiplicity
 _atom_site_fract_x
 _atom_site_fract_y
 _atom_site_fract_z
 _atom_site_occupancy
  La  La0  1  0.467641  0.485150  0.232248  1
  La  La1  1  0.742998  0.228667  0.264174  1
  La  La2  1  0.757002  0.021176  0.485669  1
  La  La3  1  0.228089  0.464958  0.485836  1
  La  La4  1  0.271911  0.757749  0.236869  1
  La  La5  1  0.032359  0.264608  0.017510  1
  Pr  Pr6  1  0.481407  0.237645  0.468569  1
  Pr  Pr7  1  0.018593  0.487163  0.756240  1
  Pr  Pr8  1  0.266765  0.016207  0.032621  1
  Pr  Pr9  1  0.233235  0.265855  0.749441  1
  Nd  Nd10  1  0.017168  0.030855  0.263508  1
  Nd  Nd11  1  0.482832  0.746341  0.013688  1
  Ir  Ir12  1  0.249108  0.251793  0.248903  1
  Ir  Ir13  1  0.501766  0.999780  0.250984  1
  Ir  Ir14  1  0.998234  0.249219  0.498014  1
  Ir  Ir15  1  0.250892  0.499795  0.002684  1
  Br  Br16  1  0.250728  0.754557  0.747994  1
  Br  Br17  1  0.508574  0.502135  0.755161  1
  Br  Br18  1  0.991426  0.746589  0.993562  1
  Br  Br19  1  0.745273  0.252293  0.752238  1
  Br  Br20  1  0.999731  0.991937  0.746900  1
  Br  Br21  1  0.249272  0.997266  0.503830  1
  Br  Br22  1  0.754727  0.506966  0.507020  1
  Br  Br23  1  0.500269  0.247169  0.992208  1
  Br  Br24  1  0.755454  0.748008  0.246330  1
  Br  Br25  1  0.744546  0.990877  0.992552  1
  Br  Br26  1  0.994806  0.501508  0.248543  1
  Br  Br27  1  0.505194  0.753736  0.506702  1
