# generated using pymatgen
data_Ce4TlInCuRh3
_symmetry_space_group_name_H-M   'P 1'
_cell_length_a   7.74824819
_cell_length_b   7.74559191
_cell_length_c   3.72821900
_cell_angle_alpha   90.00000000
_cell_angle_beta   90.00000000
_cell_angle_gamma   89.64472301
_symmetry_Int_Tables_number   1
_chemical_formula_structural   Ce4TlInCuRh3
_chemical_formula_sum   'Ce4 Tl1 In1 Cu1 Rh3'
_cell_volume   223.74389893
_cell_formula_units_Z   1
loop_
 _symmetry_equiv_pos_site_id
 _symmetry_equiv_pos_as_xyz
  1  'x, y, z'
loop_
 _atom_site_type_symbol
 _atom_site_label
 _atom_site_symmetry_multiplicity
 _atom_site_fract_x
 _atom_site_fract_y
 _atom_site_fract_z
 _atom_site_occupancy
  Ce  Ce0  1  0.673442  0.176989  0.500000  1
  Ce  Ce1  1  0.340858  0.837153  0.500000  1
  Ce  Ce2  1  0.169717  0.318104  0.500000  1
  Ce  Ce3  1  0.815752  0.666189  0.500000  1
  Tl  Tl4  1  0.000900  0.992024  0.000000  1
  In  In5  1  0.493844  0.500227  0.000000  1
  Cu  Cu6  1  0.129166  0.623959  0.000000  1
  Rh  Rh7  1  0.875671  0.382526  0.000000  1
  Rh  Rh8  1  0.631367  0.862043  0.000000  1
  Rh  Rh9  1  0.369283  0.140787  0.000000  1
