# generated using pymatgen
data_Zr4Si4Ir3Ru
_symmetry_space_group_name_H-M   'P 1'
_cell_length_a   4.00102000
_cell_length_b   6.56644267
_cell_length_c   7.44090489
_cell_angle_alpha   90.18652243
_cell_angle_beta   90.00000000
_cell_angle_gamma   90.00000000
_symmetry_Int_Tables_number   1
_chemical_formula_structural   Zr4Si4Ir3Ru
_chemical_formula_sum   'Zr4 Si4 Ir3 Ru1'
_cell_volume   195.48990308
_cell_formula_units_Z   1
loop_
 _symmetry_equiv_pos_site_id
 _symmetry_equiv_pos_as_xyz
  1  'x, y, z'
loop_
 _atom_site_type_symbol
 _atom_site_label
 _atom_site_symmetry_multiplicity
 _atom_site_fract_x
 _atom_site_fract_y
 _atom_site_fract_z
 _atom_site_occupancy
  Zr  Zr0  1  0.250000  0.018986  0.318429  1
  Zr  Zr1  1  0.250000  0.514687  0.182614  1
  Zr  Zr2  1  0.750000  0.985175  0.682538  1
  Zr  Zr3  1  0.750000  0.482387  0.816462  1
  Si  Si4  1  0.250000  0.279905  0.622048  1
  Si  Si5  1  0.250000  0.782296  0.880849  1
  Si  Si6  1  0.750000  0.721545  0.381005  1
  Si  Si7  1  0.750000  0.217590  0.116368  1
  Ir  Ir8  1  0.250000  0.653319  0.563905  1
  Ir  Ir9  1  0.750000  0.843988  0.064111  1
  Ir  Ir10  1  0.750000  0.347396  0.434804  1
  Ru  Ru11  1  0.250000  0.152725  0.936866  1
