# generated using pymatgen
data_Ca4Si2GePd27
_symmetry_space_group_name_H-M   'P 1'
_cell_length_a   8.90117097
_cell_length_b   8.90117097
_cell_length_c   7.13364884
_cell_angle_alpha   90.35714481
_cell_angle_beta   90.35714481
_cell_angle_gamma   88.59952867
_symmetry_Int_Tables_number   1
_chemical_formula_structural   Ca4Si2GePd27
_chemical_formula_sum   'Ca4 Si2 Ge1 Pd27'
_cell_volume   565.01475881
_cell_formula_units_Z   1
loop_
 _symmetry_equiv_pos_site_id
 _symmetry_equiv_pos_as_xyz
  1  'x, y, z'
loop_
 _atom_site_type_symbol
 _atom_site_label
 _atom_site_symmetry_multiplicity
 _atom_site_fract_x
 _atom_site_fract_y
 _atom_site_fract_z
 _atom_site_occupancy
  Ca  Ca0  1  0.510669  0.010669  0.936158  1
  Ca  Ca1  1  0.989331  0.489331  0.063842  1
  Ca  Ca2  1  0.003353  0.996647  0.500000  1
  Ca  Ca3  1  0.496647  0.503353  0.500000  1
  Si  Si4  1  0.506547  0.006547  0.443696  1
  Si  Si5  1  0.993453  0.493453  0.556304  1
  Ge  Ge6  1  0.250000  0.750000  0.000000  1
  Pd  Pd7  1  0.339844  0.839844  0.599618  1
  Pd  Pd8  1  0.333516  0.168055  0.620159  1
  Pd  Pd9  1  0.668055  0.833516  0.620159  1
  Pd  Pd10  1  0.668041  0.168041  0.617492  1
  Pd  Pd11  1  0.160156  0.660156  0.400382  1
  Pd  Pd12  1  0.166484  0.331945  0.379841  1
  Pd  Pd13  1  0.831945  0.666484  0.379841  1
  Pd  Pd14  1  0.831959  0.331959  0.382508  1
  Pd  Pd15  1  0.500975  0.773448  0.253349  1
  Pd  Pd16  1  0.496577  0.235016  0.255581  1
  Pd  Pd17  1  0.273448  0.000975  0.253349  1
  Pd  Pd18  1  0.735016  0.996577  0.255581  1
  Pd  Pd19  1  0.999025  0.726552  0.746651  1
  Pd  Pd20  1  0.003423  0.264984  0.744419  1
  Pd  Pd21  1  0.226552  0.499025  0.746651  1
  Pd  Pd22  1  0.764984  0.503423  0.744419  1
  Pd  Pd23  1  0.497400  0.355123  0.855277  1
  Pd  Pd24  1  0.487989  0.665589  0.862014  1
  Pd  Pd25  1  0.855123  0.997400  0.855277  1
  Pd  Pd26  1  0.165589  0.987989  0.862014  1
  Pd  Pd27  1  0.002600  0.144877  0.144723  1
  Pd  Pd28  1  0.012011  0.834411  0.137986  1
  Pd  Pd29  1  0.644877  0.502600  0.144723  1
  Pd  Pd30  1  0.334411  0.512011  0.137986  1
  Pd  Pd31  1  0.250000  0.250000  0.000000  1
  Pd  Pd32  1  0.750000  0.750000  0.000000  1
  Pd  Pd33  1  0.750000  0.250000  0.000000  1
