# generated using pymatgen
data_Tm8CdAgRh2
_symmetry_space_group_name_H-M   'P 1'
_cell_length_a   9.47714943
_cell_length_b   9.46100899
_cell_length_c   9.46100889
_cell_angle_alpha   59.85940131
_cell_angle_beta   59.94354698
_cell_angle_gamma   59.94354817
_symmetry_Int_Tables_number   1
_chemical_formula_structural   Tm8CdAgRh2
_chemical_formula_sum   'Tm16 Cd2 Ag2 Rh4'
_cell_volume   598.69237355
_cell_formula_units_Z   2
loop_
 _symmetry_equiv_pos_site_id
 _symmetry_equiv_pos_as_xyz
  1  'x, y, z'
loop_
 _atom_site_type_symbol
 _atom_site_label
 _atom_site_symmetry_multiplicity
 _atom_site_fract_x
 _atom_site_fract_y
 _atom_site_fract_z
 _atom_site_occupancy
  Tm  Tm0  1  0.067303  0.061073  0.435314  1
  Tm  Tm1  1  0.436309  0.061073  0.435314  1
  Tm  Tm2  1  0.067303  0.435314  0.061073  1
  Tm  Tm3  1  0.051810  0.649133  0.649133  1
  Tm  Tm4  1  0.436309  0.435314  0.061073  1
  Tm  Tm5  1  0.650586  0.049679  0.649150  1
  Tm  Tm6  1  0.187736  0.811829  0.189386  1
  Tm  Tm7  1  0.187736  0.189386  0.811829  1
  Tm  Tm8  1  0.811048  0.811829  0.189386  1
  Tm  Tm9  1  0.436656  0.063344  0.063344  1
  Tm  Tm10  1  0.810849  0.189151  0.189151  1
  Tm  Tm11  1  0.065443  0.434557  0.434557  1
  Tm  Tm12  1  0.811048  0.189386  0.811829  1
  Tm  Tm13  1  0.188021  0.811979  0.811979  1
  Tm  Tm14  1  0.650586  0.649150  0.049679  1
  Tm  Tm15  1  0.649927  0.649133  0.649133  1
  Cd  Cd16  1  0.418182  0.421072  0.421072  1
  Cd  Cd17  1  0.739672  0.421072  0.421072  1
  Ag  Ag18  1  0.416185  0.751025  0.416602  1
  Ag  Ag19  1  0.416185  0.416602  0.751025  1
  Rh  Rh20  1  0.857675  0.856264  0.428386  1
  Rh  Rh21  1  0.858223  0.857124  0.857124  1
  Rh  Rh22  1  0.427529  0.857124  0.857124  1
  Rh  Rh23  1  0.857675  0.428386  0.856264  1
