# generated using pymatgen
data_Yb5U3(Si3Pt)4
_symmetry_space_group_name_H-M   'P 1'
_cell_length_a   8.18438900
_cell_length_b   8.18438877
_cell_length_c   8.11051200
_cell_angle_alpha   90.00000000
_cell_angle_beta   90.00000000
_cell_angle_gamma   120.03274094
_symmetry_Int_Tables_number   1
_chemical_formula_structural   Yb5U3(Si3Pt)4
_chemical_formula_sum   'Yb5 U3 Si12 Pt4'
_cell_volume   470.33580351
_cell_formula_units_Z   1
loop_
 _symmetry_equiv_pos_site_id
 _symmetry_equiv_pos_as_xyz
  1  'x, y, z'
loop_
 _atom_site_type_symbol
 _atom_site_label
 _atom_site_symmetry_multiplicity
 _atom_site_fract_x
 _atom_site_fract_y
 _atom_site_fract_z
 _atom_site_occupancy
  Yb  Yb0  1  0.500475  0.001164  0.250000  1
  Yb  Yb1  1  0.499395  0.998886  0.750000  1
  Yb  Yb2  1  0.998836  0.499525  0.250000  1
  Yb  Yb3  1  0.001114  0.500605  0.750000  1
  Yb  Yb4  1  0.500479  0.499521  0.250000  1
  U  U5  1  0.499680  0.500320  0.750000  1
  U  U6  1  0.999907  0.000093  0.250000  1
  U  U7  1  0.000017  0.999983  0.750000  1
  Si  Si8  1  0.163122  0.326422  0.000409  1
  Si  Si9  1  0.836912  0.673673  0.997297  1
  Si  Si10  1  0.673578  0.836878  0.000409  1
  Si  Si11  1  0.836912  0.673673  0.502703  1
  Si  Si12  1  0.326327  0.163088  0.997297  1
  Si  Si13  1  0.163122  0.326422  0.499591  1
  Si  Si14  1  0.165074  0.834926  0.001080  1
  Si  Si15  1  0.326327  0.163088  0.502703  1
  Si  Si16  1  0.834973  0.165027  0.997781  1
  Si  Si17  1  0.673578  0.836878  0.499591  1
  Si  Si18  1  0.834973  0.165027  0.502219  1
  Si  Si19  1  0.165074  0.834926  0.498920  1
  Pt  Pt20  1  0.335034  0.664966  0.995922  1
  Pt  Pt21  1  0.665029  0.334971  0.995779  1
  Pt  Pt22  1  0.665029  0.334971  0.504221  1
  Pt  Pt23  1  0.335034  0.664966  0.504078  1
