# generated using pymatgen
data_HoEr7Lu8(Ga3Co)2
_symmetry_space_group_name_H-M   'P 1'
_cell_length_a   9.83061100
_cell_length_b   9.83061137
_cell_length_c   6.86127000
_cell_angle_alpha   90.00000000
_cell_angle_beta   90.00000000
_cell_angle_gamma   120.00000212
_symmetry_Int_Tables_number   1
_chemical_formula_structural   HoEr7Lu8(Ga3Co)2
_chemical_formula_sum   'Ho1 Er7 Lu8 Ga6 Co2'
_cell_volume   574.24360986
_cell_formula_units_Z   1
loop_
 _symmetry_equiv_pos_site_id
 _symmetry_equiv_pos_as_xyz
  1  'x, y, z'
loop_
 _atom_site_type_symbol
 _atom_site_label
 _atom_site_symmetry_multiplicity
 _atom_site_fract_x
 _atom_site_fract_y
 _atom_site_fract_z
 _atom_site_occupancy
  Ho  Ho0  1  0.000000  0.000000  0.730748  1
  Er  Er1  1  0.464284  0.535716  0.207994  1
  Er  Er2  1  0.071433  0.535716  0.207994  1
  Er  Er3  1  0.464284  0.928567  0.207994  1
  Er  Er4  1  0.535716  0.464284  0.707997  1
  Er  Er5  1  0.928568  0.464284  0.707997  1
  Er  Er6  1  0.535716  0.071432  0.707997  1
  Er  Er7  1  0.000000  0.000000  0.230905  1
  Lu  Lu8  1  0.173882  0.826118  0.511160  1
  Lu  Lu9  1  0.652235  0.826118  0.511160  1
  Lu  Lu10  1  0.173882  0.347765  0.511160  1
  Lu  Lu11  1  0.826133  0.173867  0.011418  1
  Lu  Lu12  1  0.347735  0.173867  0.011418  1
  Lu  Lu13  1  0.826133  0.652265  0.011418  1
  Lu  Lu14  1  0.333333  0.666667  0.826583  1
  Lu  Lu15  1  0.666667  0.333333  0.326474  1
  Ga  Ga16  1  0.163589  0.836411  0.958903  1
  Ga  Ga17  1  0.672819  0.836411  0.958903  1
  Ga  Ga18  1  0.163589  0.327181  0.958903  1
  Ga  Ga19  1  0.836421  0.163579  0.458612  1
  Ga  Ga20  1  0.327159  0.163579  0.458612  1
  Ga  Ga21  1  0.836421  0.672841  0.458612  1
  Co  Co22  1  0.333333  0.666667  0.445648  1
  Co  Co23  1  0.666667  0.333333  0.945427  1
