# generated using pymatgen
data_Y3Ti(P3Ir4)2
_symmetry_space_group_name_H-M   'P 1'
_cell_length_a   3.97880800
_cell_length_b   11.20480100
_cell_length_c   12.85606400
_cell_angle_alpha   90.00000000
_cell_angle_beta   90.00000000
_cell_angle_gamma   90.00000000
_symmetry_Int_Tables_number   1
_chemical_formula_structural   Y3Ti(P3Ir4)2
_chemical_formula_sum   'Y6 Ti2 P12 Ir16'
_cell_volume   573.14585511
_cell_formula_units_Z   2
loop_
 _symmetry_equiv_pos_site_id
 _symmetry_equiv_pos_as_xyz
  1  'x, y, z'
loop_
 _atom_site_type_symbol
 _atom_site_label
 _atom_site_symmetry_multiplicity
 _atom_site_fract_x
 _atom_site_fract_y
 _atom_site_fract_z
 _atom_site_occupancy
  Y  Y0  1  0.000000  0.500000  0.518740  1
  Y  Y1  1  0.500000  0.000000  0.481260  1
  Y  Y2  1  0.500000  0.817964  0.202376  1
  Y  Y3  1  0.500000  0.182036  0.202376  1
  Y  Y4  1  0.000000  0.682036  0.797624  1
  Y  Y5  1  0.000000  0.317964  0.797624  1
  Ti  Ti6  1  0.500000  0.500000  0.156541  1
  Ti  Ti7  1  0.000000  0.000000  0.843459  1
  P  P8  1  0.500000  0.500000  0.877007  1
  P  P9  1  0.000000  0.000000  0.122993  1
  P  P10  1  0.500000  0.500000  0.348762  1
  P  P11  1  0.000000  0.000000  0.651238  1
  P  P12  1  0.500000  0.312994  0.617418  1
  P  P13  1  0.500000  0.687006  0.617418  1
  P  P14  1  0.000000  0.187006  0.382582  1
  P  P15  1  0.000000  0.812994  0.382582  1
  P  P16  1  0.500000  0.845648  0.887776  1
  P  P17  1  0.500000  0.154352  0.887776  1
  P  P18  1  0.000000  0.654352  0.112224  1
  P  P19  1  0.000000  0.345648  0.112224  1
  Ir  Ir20  1  0.500000  0.500000  0.697885  1
  Ir  Ir21  1  0.000000  0.000000  0.302115  1
  Ir  Ir22  1  0.000000  0.500000  0.990549  1
  Ir  Ir23  1  0.500000  0.000000  0.009451  1
  Ir  Ir24  1  0.500000  0.331119  0.983383  1
  Ir  Ir25  1  0.500000  0.668881  0.983383  1
  Ir  Ir26  1  0.000000  0.168881  0.016617  1
  Ir  Ir27  1  0.000000  0.831119  0.016617  1
  Ir  Ir28  1  0.500000  0.291885  0.430690  1
  Ir  Ir29  1  0.500000  0.708115  0.430690  1
  Ir  Ir30  1  0.000000  0.208115  0.569310  1
  Ir  Ir31  1  0.000000  0.791885  0.569310  1
  Ir  Ir32  1  0.500000  0.873427  0.710149  1
  Ir  Ir33  1  0.500000  0.126573  0.710149  1
  Ir  Ir34  1  0.000000  0.626573  0.289851  1
  Ir  Ir35  1  0.000000  0.373427  0.289851  1
