# generated using pymatgen
data_DyEr7Re2(B12Ru)2
_symmetry_space_group_name_H-M   'P 1'
_cell_length_a   3.64859500
_cell_length_b   9.11308505
_cell_length_c   11.49441100
_cell_angle_alpha   90.20466320
_cell_angle_beta   90.00000000
_cell_angle_gamma   90.00000000
_symmetry_Int_Tables_number   1
_chemical_formula_structural   DyEr7Re2(B12Ru)2
_chemical_formula_sum   'Dy1 Er7 Re2 B24 Ru2'
_cell_volume   382.18622813
_cell_formula_units_Z   1
loop_
 _symmetry_equiv_pos_site_id
 _symmetry_equiv_pos_as_xyz
  1  'x, y, z'
loop_
 _atom_site_type_symbol
 _atom_site_label
 _atom_site_symmetry_multiplicity
 _atom_site_fract_x
 _atom_site_fract_y
 _atom_site_fract_z
 _atom_site_occupancy
  Dy  Dy0  1  0.000000  0.320940  0.412544  1
  Er  Er1  1  0.000000  0.679213  0.587571  1
  Er  Er2  1  0.000000  0.824652  0.084399  1
  Er  Er3  1  0.000000  0.175348  0.915580  1
  Er  Er4  1  0.000000  0.942874  0.370579  1
  Er  Er5  1  0.000000  0.056942  0.629455  1
  Er  Er6  1  0.000000  0.443081  0.129072  1
  Er  Er7  1  0.000000  0.556922  0.870840  1
  Re  Re8  1  0.000000  0.138405  0.179499  1
  Re  Re9  1  0.000000  0.861424  0.820319  1
  B  B10  1  0.500000  0.554217  0.433221  1
  B  B11  1  0.500000  0.446181  0.567004  1
  B  B12  1  0.500000  0.053086  0.066551  1
  B  B13  1  0.500000  0.946892  0.933417  1
  B  B14  1  0.500000  0.749009  0.419173  1
  B  B15  1  0.500000  0.250970  0.581197  1
  B  B16  1  0.500000  0.249385  0.080721  1
  B  B17  1  0.500000  0.750611  0.919235  1
  B  B18  1  0.500000  0.791053  0.265652  1
  B  B19  1  0.500000  0.208946  0.734387  1
  B  B20  1  0.500000  0.292103  0.234700  1
  B  B21  1  0.500000  0.707724  0.765022  1
  B  B22  1  0.500000  0.631069  0.185694  1
  B  B23  1  0.500000  0.368982  0.814296  1
  B  B24  1  0.500000  0.131081  0.314960  1
  B  B25  1  0.500000  0.868667  0.684836  1
  B  B26  1  0.500000  0.982160  0.212391  1
  B  B27  1  0.500000  0.017800  0.787591  1
  B  B28  1  0.500000  0.483395  0.287965  1
  B  B29  1  0.500000  0.516994  0.711908  1
  B  B30  1  0.500000  0.602966  0.028619  1
  B  B31  1  0.500000  0.397058  0.971353  1
  B  B32  1  0.500000  0.102936  0.471661  1
  B  B33  1  0.500000  0.896628  0.528457  1
  Ru  Ru34  1  0.000000  0.638213  0.321447  1
  Ru  Ru35  1  0.000000  0.362072  0.678684  1
