# generated using pymatgen
data_Y4Be5Cu2Ir7
_symmetry_space_group_name_H-M   'P 1'
_cell_length_a   5.54427600
_cell_length_b   5.32771057
_cell_length_c   21.82303229
_cell_angle_alpha   90.04511631
_cell_angle_beta   90.00000000
_cell_angle_gamma   121.35400399
_symmetry_Int_Tables_number   1
_chemical_formula_structural   Y4Be5Cu2Ir7
_chemical_formula_sum   'Y8 Be10 Cu4 Ir14'
_cell_volume   550.48104486
_cell_formula_units_Z   2
loop_
 _symmetry_equiv_pos_site_id
 _symmetry_equiv_pos_as_xyz
  1  'x, y, z'
loop_
 _atom_site_type_symbol
 _atom_site_label
 _atom_site_symmetry_multiplicity
 _atom_site_fract_x
 _atom_site_fract_y
 _atom_site_fract_z
 _atom_site_occupancy
  Y  Y0  1  0.331689  0.663380  0.526042  1
  Y  Y1  1  0.668311  0.336620  0.473958  1
  Y  Y2  1  0.665565  0.331129  0.026957  1
  Y  Y3  1  0.334435  0.668871  0.973043  1
  Y  Y4  1  0.332277  0.664556  0.672616  1
  Y  Y5  1  0.667723  0.335444  0.327384  1
  Y  Y6  1  0.666939  0.333877  0.175430  1
  Y  Y7  1  0.333061  0.666123  0.824570  1
  Be  Be8  1  0.000000  0.000000  0.000000  1
  Be  Be9  1  0.000000  0.000000  0.500000  1
  Be  Be10  1  0.344000  0.688001  0.169130  1
  Be  Be11  1  0.656000  0.311999  0.830870  1
  Be  Be12  1  0.661115  0.322228  0.669832  1
  Be  Be13  1  0.338885  0.677772  0.330168  1
  Be  Be14  1  0.988023  0.976045  0.169641  1
  Be  Be15  1  0.011977  0.023955  0.830359  1
  Be  Be16  1  0.004647  0.009293  0.670530  1
  Be  Be17  1  0.995353  0.990707  0.329470  1
  Cu  Cu18  1  0.167327  0.334654  0.091685  1
  Cu  Cu19  1  0.832673  0.665346  0.908315  1
  Cu  Cu20  1  0.166887  0.333772  0.248883  1
  Cu  Cu21  1  0.833113  0.666228  0.751117  1
  Ir  Ir22  1  0.669350  0.835058  0.089354  1
  Ir  Ir23  1  0.832261  0.664522  0.591699  1
  Ir  Ir24  1  0.330650  0.164942  0.910646  1
  Ir  Ir25  1  0.167739  0.335478  0.408301  1
  Ir  Ir26  1  0.165708  0.835058  0.089354  1
  Ir  Ir27  1  0.330983  0.164366  0.590700  1
  Ir  Ir28  1  0.834292  0.164942  0.910646  1
  Ir  Ir29  1  0.669017  0.835634  0.409300  1
  Ir  Ir30  1  0.833383  0.164366  0.590700  1
  Ir  Ir31  1  0.166617  0.835634  0.409300  1
  Ir  Ir32  1  0.666354  0.834789  0.249179  1
  Ir  Ir33  1  0.333646  0.165211  0.750821  1
  Ir  Ir34  1  0.168436  0.834789  0.249179  1
  Ir  Ir35  1  0.831564  0.165211  0.750821  1
