# generated using pymatgen
data_DyEr2Si2GeRu2
_symmetry_space_group_name_H-M   'P 1'
_cell_length_a   5.72392811
_cell_length_b   5.72392781
_cell_length_c   13.85810000
_cell_angle_alpha   90.00000000
_cell_angle_beta   90.00000000
_cell_angle_gamma   137.26734476
_symmetry_Int_Tables_number   1
_chemical_formula_structural   DyEr2Si2GeRu2
_chemical_formula_sum   'Dy2 Er4 Si4 Ge2 Ru4'
_cell_volume   308.10025078
_cell_formula_units_Z   2
loop_
 _symmetry_equiv_pos_site_id
 _symmetry_equiv_pos_as_xyz
  1  'x, y, z'
loop_
 _atom_site_type_symbol
 _atom_site_label
 _atom_site_symmetry_multiplicity
 _atom_site_fract_x
 _atom_site_fract_y
 _atom_site_fract_z
 _atom_site_occupancy
  Dy  Dy0  1  0.644423  0.355577  0.250000  1
  Dy  Dy1  1  0.355577  0.644423  0.750000  1
  Er  Er2  1  0.924587  0.075413  0.387479  1
  Er  Er3  1  0.075413  0.924587  0.612521  1
  Er  Er4  1  0.924587  0.075413  0.112521  1
  Er  Er5  1  0.075413  0.924587  0.887479  1
  Si  Si6  1  0.616501  0.383499  0.461564  1
  Si  Si7  1  0.383499  0.616501  0.538436  1
  Si  Si8  1  0.616501  0.383499  0.038436  1
  Si  Si9  1  0.383499  0.616501  0.961564  1
  Ge  Ge10  1  0.338654  0.661346  0.250000  1
  Ge  Ge11  1  0.661346  0.338654  0.750000  1
  Ru  Ru12  1  0.788274  0.211726  0.921057  1
  Ru  Ru13  1  0.211726  0.788274  0.078943  1
  Ru  Ru14  1  0.788274  0.211726  0.578943  1
  Ru  Ru15  1  0.211726  0.788274  0.421057  1
