# generated using pymatgen
data_Pr2Nd4VCo17P12
_symmetry_space_group_name_H-M   'P 1'
_cell_length_a   3.77200700
_cell_length_b   10.69120200
_cell_length_c   12.42107900
_cell_angle_alpha   90.00000000
_cell_angle_beta   90.00000000
_cell_angle_gamma   90.00000000
_symmetry_Int_Tables_number   1
_chemical_formula_structural   Pr2Nd4VCo17P12
_chemical_formula_sum   'Pr2 Nd4 V1 Co17 P12'
_cell_volume   500.90843982
_cell_formula_units_Z   1
loop_
 _symmetry_equiv_pos_site_id
 _symmetry_equiv_pos_as_xyz
  1  'x, y, z'
loop_
 _atom_site_type_symbol
 _atom_site_label
 _atom_site_symmetry_multiplicity
 _atom_site_fract_x
 _atom_site_fract_y
 _atom_site_fract_z
 _atom_site_occupancy
  Pr  Pr0  1  0.000000  0.500000  0.522847  1
  Pr  Pr1  1  0.500000  0.000000  0.478614  1
  Nd  Nd2  1  0.500000  0.818320  0.206338  1
  Nd  Nd3  1  0.500000  0.181680  0.206338  1
  Nd  Nd4  1  0.000000  0.682429  0.795734  1
  Nd  Nd5  1  0.000000  0.317571  0.795734  1
  V  V6  1  0.500000  0.500000  0.150881  1
  Co  Co7  1  0.000000  0.000000  0.842456  1
  Co  Co8  1  0.500000  0.500000  0.704499  1
  Co  Co9  1  0.000000  0.000000  0.294854  1
  Co  Co10  1  0.000000  0.500000  0.987792  1
  Co  Co11  1  0.500000  0.000000  0.012790  1
  Co  Co12  1  0.500000  0.332121  0.994463  1
  Co  Co13  1  0.500000  0.667879  0.994463  1
  Co  Co14  1  0.000000  0.165786  0.004590  1
  Co  Co15  1  0.000000  0.834214  0.004590  1
  Co  Co16  1  0.500000  0.296402  0.430309  1
  Co  Co17  1  0.500000  0.703598  0.430309  1
  Co  Co18  1  0.000000  0.203456  0.569949  1
  Co  Co19  1  0.000000  0.796544  0.569949  1
  Co  Co20  1  0.500000  0.881646  0.710821  1
  Co  Co21  1  0.500000  0.118354  0.710821  1
  Co  Co22  1  0.000000  0.619095  0.289594  1
  Co  Co23  1  0.000000  0.380905  0.289594  1
  P  P24  1  0.500000  0.500000  0.886127  1
  P  P25  1  0.000000  0.000000  0.113193  1
  P  P26  1  0.500000  0.500000  0.341347  1
  P  P27  1  0.000000  0.000000  0.661783  1
  P  P28  1  0.500000  0.305379  0.615129  1
  P  P29  1  0.500000  0.694621  0.615129  1
  P  P30  1  0.000000  0.194290  0.386217  1
  P  P31  1  0.000000  0.805710  0.386217  1
  P  P32  1  0.500000  0.850112  0.894368  1
  P  P33  1  0.500000  0.149888  0.894368  1
  P  P34  1  0.000000  0.653518  0.103895  1
  P  P35  1  0.000000  0.346482  0.103895  1
