# generated using pymatgen
data_HoTm2LuAu2
_symmetry_space_group_name_H-M   'P 1'
_cell_length_a   4.85475400
_cell_length_b   7.05070000
_cell_length_c   8.83722200
_cell_angle_alpha   90.00000000
_cell_angle_beta   90.00000000
_cell_angle_gamma   90.00000000
_symmetry_Int_Tables_number   1
_chemical_formula_structural   HoTm2LuAu2
_chemical_formula_sum   'Ho2 Tm4 Lu2 Au4'
_cell_volume   302.49293069
_cell_formula_units_Z   2
loop_
 _symmetry_equiv_pos_site_id
 _symmetry_equiv_pos_as_xyz
  1  'x, y, z'
loop_
 _atom_site_type_symbol
 _atom_site_label
 _atom_site_symmetry_multiplicity
 _atom_site_fract_x
 _atom_site_fract_y
 _atom_site_fract_z
 _atom_site_occupancy
  Ho  Ho0  1  0.250000  0.483293  0.178017  1
  Ho  Ho1  1  0.250000  0.983293  0.321983  1
  Tm  Tm2  1  0.750000  0.149422  0.076781  1
  Tm  Tm3  1  0.750000  0.649422  0.423219  1
  Tm  Tm4  1  0.750000  0.517415  0.821627  1
  Tm  Tm5  1  0.750000  0.017415  0.678373  1
  Lu  Lu6  1  0.250000  0.850606  0.922325  1
  Lu  Lu7  1  0.250000  0.350606  0.577675  1
  Au  Au8  1  0.250000  0.255480  0.896557  1
  Au  Au9  1  0.250000  0.755480  0.603443  1
  Au  Au10  1  0.750000  0.743784  0.100856  1
  Au  Au11  1  0.750000  0.243784  0.399144  1
