# generated using pymatgen
data_Tb4TmSi3O
_symmetry_space_group_name_H-M   'P 1'
_cell_length_a   8.42163100
_cell_length_b   8.42163091
_cell_length_c   6.21015600
_cell_angle_alpha   90.00000000
_cell_angle_beta   90.00000000
_cell_angle_gamma   120.00000426
_symmetry_Int_Tables_number   1
_chemical_formula_structural   Tb4TmSi3O
_chemical_formula_sum   'Tb8 Tm2 Si6 O2'
_cell_volume   381.43938686
_cell_formula_units_Z   2
loop_
 _symmetry_equiv_pos_site_id
 _symmetry_equiv_pos_as_xyz
  1  'x, y, z'
loop_
 _atom_site_type_symbol
 _atom_site_label
 _atom_site_symmetry_multiplicity
 _atom_site_fract_x
 _atom_site_fract_y
 _atom_site_fract_z
 _atom_site_occupancy
  Tb  Tb0  1  0.333333  0.666667  0.500000  1
  Tb  Tb1  1  0.666667  0.333333  0.500000  1
  Tb  Tb2  1  0.767692  0.767692  0.751159  1
  Tb  Tb3  1  0.232308  0.000000  0.751159  1
  Tb  Tb4  1  0.000000  0.232308  0.751159  1
  Tb  Tb5  1  0.232308  0.232308  0.248841  1
  Tb  Tb6  1  0.767692  0.000000  0.248841  1
  Tb  Tb7  1  0.000000  0.767692  0.248841  1
  Tm  Tm8  1  0.666667  0.333333  0.000000  1
  Tm  Tm9  1  0.333333  0.666667  0.000000  1
  Si  Si10  1  0.399965  0.399965  0.754574  1
  Si  Si11  1  0.600035  0.000000  0.754574  1
  Si  Si12  1  0.000000  0.600035  0.754574  1
  Si  Si13  1  0.600035  0.600035  0.245426  1
  Si  Si14  1  0.399965  0.000000  0.245426  1
  Si  Si15  1  0.000000  0.399965  0.245426  1
  O  O16  1  0.000000  0.000000  0.000000  1
  O  O17  1  0.000000  0.000000  0.500000  1
