# generated using pymatgen
data_Li2FeNi11As7
_symmetry_space_group_name_H-M   'P 1'
_cell_length_a   9.38105266
_cell_length_b   9.37557494
_cell_length_c   3.66241600
_cell_angle_alpha   90.00000000
_cell_angle_beta   90.00000000
_cell_angle_gamma   119.80382758
_symmetry_Int_Tables_number   1
_chemical_formula_structural   Li2FeNi11As7
_chemical_formula_sum   'Li2 Fe1 Ni11 As7'
_cell_volume   279.51356888
_cell_formula_units_Z   1
loop_
 _symmetry_equiv_pos_site_id
 _symmetry_equiv_pos_as_xyz
  1  'x, y, z'
loop_
 _atom_site_type_symbol
 _atom_site_label
 _atom_site_symmetry_multiplicity
 _atom_site_fract_x
 _atom_site_fract_y
 _atom_site_fract_z
 _atom_site_occupancy
  Li  Li0  1  0.999603  0.998209  0.000000  1
  Li  Li1  1  0.332105  0.668253  0.500000  1
  Fe  Fe2  1  0.826625  0.611808  0.000000  1
  Ni  Ni3  1  0.282220  0.896533  0.000000  1
  Ni  Ni4  1  0.609782  0.714688  0.000000  1
  Ni  Ni5  1  0.100566  0.385482  0.000000  1
  Ni  Ni6  1  0.784882  0.172319  0.000000  1
  Ni  Ni7  1  0.389994  0.215299  0.000000  1
  Ni  Ni8  1  0.713821  0.951145  0.500000  1
  Ni  Ni9  1  0.239259  0.286694  0.500000  1
  Ni  Ni10  1  0.049210  0.763842  0.500000  1
  Ni  Ni11  1  0.541621  0.117907  0.500000  1
  Ni  Ni12  1  0.572080  0.460489  0.500000  1
  Ni  Ni13  1  0.891498  0.425441  0.500000  1
  As  As14  1  0.536639  0.917469  0.000000  1
  As  As15  1  0.378445  0.462904  0.000000  1
  As  As16  1  0.079960  0.619765  0.000000  1
  As  As17  1  0.961008  0.207482  0.500000  1
  As  As18  1  0.251316  0.039847  0.500000  1
  As  As19  1  0.788635  0.745476  0.500000  1
  As  As20  1  0.670732  0.338947  0.000000  1
