# generated using pymatgen
data_Dy9Y3(OsRh)2
_symmetry_space_group_name_H-M   'P 1'
_cell_length_a   6.36268863
_cell_length_b   7.32396387
_cell_length_c   9.20222600
_cell_angle_alpha   90.00000000
_cell_angle_beta   90.00000000
_cell_angle_gamma   89.68599172
_symmetry_Int_Tables_number   1
_chemical_formula_structural   Dy9Y3(OsRh)2
_chemical_formula_sum   'Dy9 Y3 Os2 Rh2'
_cell_volume   428.81822636
_cell_formula_units_Z   1
loop_
 _symmetry_equiv_pos_site_id
 _symmetry_equiv_pos_as_xyz
  1  'x, y, z'
loop_
 _atom_site_type_symbol
 _atom_site_label
 _atom_site_symmetry_multiplicity
 _atom_site_fract_x
 _atom_site_fract_y
 _atom_site_fract_z
 _atom_site_occupancy
  Dy  Dy0  1  0.326652  0.680826  0.066334  1
  Dy  Dy1  1  0.167816  0.173780  0.439794  1
  Dy  Dy2  1  0.673281  0.318507  0.567115  1
  Dy  Dy3  1  0.832322  0.826079  0.939299  1
  Dy  Dy4  1  0.673281  0.318507  0.932885  1
  Dy  Dy5  1  0.832322  0.826079  0.560701  1
  Dy  Dy6  1  0.326652  0.680826  0.433666  1
  Dy  Dy7  1  0.167816  0.173780  0.060206  1
  Dy  Dy8  1  0.372432  0.961721  0.750000  1
  Y  Y9  1  0.867684  0.535394  0.250000  1
  Y  Y10  1  0.626643  0.037128  0.250000  1
  Y  Y11  1  0.131963  0.465408  0.750000  1
  Os  Os12  1  0.040586  0.884337  0.250000  1
  Os  Os13  1  0.962123  0.115651  0.750000  1
  Rh  Rh14  1  0.446313  0.385081  0.250000  1
  Rh  Rh15  1  0.552115  0.616896  0.750000  1
