# generated using pymatgen
data_Sc5Mn2C7
_symmetry_space_group_name_H-M   'P 1'
_cell_length_a   7.69621180
_cell_length_b   7.69621168
_cell_length_c   3.22302100
_cell_angle_alpha   90.00000000
_cell_angle_beta   90.00000000
_cell_angle_gamma   121.74540681
_symmetry_Int_Tables_number   1
_chemical_formula_structural   Sc5Mn2C7
_chemical_formula_sum   'Sc5 Mn2 C7'
_cell_volume   162.34448698
_cell_formula_units_Z   1
loop_
 _symmetry_equiv_pos_site_id
 _symmetry_equiv_pos_as_xyz
  1  'x, y, z'
loop_
 _atom_site_type_symbol
 _atom_site_label
 _atom_site_symmetry_multiplicity
 _atom_site_fract_x
 _atom_site_fract_y
 _atom_site_fract_z
 _atom_site_occupancy
  Sc  Sc0  1  0.079994  0.340721  0.500000  1
  Sc  Sc1  1  0.340721  0.079994  0.500000  1
  Sc  Sc2  1  0.500000  0.500000  0.000000  1
  Sc  Sc3  1  0.920006  0.659279  0.500000  1
  Sc  Sc4  1  0.659279  0.920006  0.500000  1
  Mn  Mn5  1  0.711604  0.288396  0.000000  1
  Mn  Mn6  1  0.288396  0.711604  0.000000  1
  C  C7  1  0.000000  0.000000  0.000000  1
  C  C8  1  0.000000  0.500000  0.000000  1
  C  C9  1  0.500000  0.000000  0.000000  1
  C  C10  1  0.179838  0.179838  0.000000  1
  C  C11  1  0.820162  0.820162  0.000000  1
  C  C12  1  0.625510  0.374490  0.500000  1
  C  C13  1  0.374490  0.625510  0.500000  1
