# generated using pymatgen
data_TbAl5Pt3
_symmetry_space_group_name_H-M   'P 1'
_cell_length_a   4.09114100
_cell_length_b   7.41050800
_cell_length_c   20.64566300
_cell_angle_alpha   90.00000000
_cell_angle_beta   90.00000000
_cell_angle_gamma   90.00000000
_symmetry_Int_Tables_number   1
_chemical_formula_structural   TbAl5Pt3
_chemical_formula_sum   'Tb4 Al20 Pt12'
_cell_volume   625.92350701
_cell_formula_units_Z   4
loop_
 _symmetry_equiv_pos_site_id
 _symmetry_equiv_pos_as_xyz
  1  'x, y, z'
loop_
 _atom_site_type_symbol
 _atom_site_label
 _atom_site_symmetry_multiplicity
 _atom_site_fract_x
 _atom_site_fract_y
 _atom_site_fract_z
 _atom_site_occupancy
  Tb  Tb0  1  0.250000  0.116455  0.639865  1
  Tb  Tb1  1  0.750000  0.883545  0.360135  1
  Tb  Tb2  1  0.250000  0.383545  0.139865  1
  Tb  Tb3  1  0.750000  0.616455  0.860135  1
  Al  Al4  1  0.750000  0.354341  0.382396  1
  Al  Al5  1  0.750000  0.883982  0.983710  1
  Al  Al6  1  0.750000  0.685706  0.200172  1
  Al  Al7  1  0.250000  0.869657  0.491161  1
  Al  Al8  1  0.250000  0.630343  0.991161  1
  Al  Al9  1  0.250000  0.314294  0.799828  1
  Al  Al10  1  0.750000  0.075316  0.208930  1
  Al  Al11  1  0.250000  0.645659  0.617604  1
  Al  Al12  1  0.250000  0.575316  0.291070  1
  Al  Al13  1  0.250000  0.185706  0.299828  1
  Al  Al14  1  0.750000  0.145659  0.882396  1
  Al  Al15  1  0.250000  0.924684  0.791070  1
  Al  Al16  1  0.750000  0.369657  0.008839  1
  Al  Al17  1  0.750000  0.616018  0.483710  1
  Al  Al18  1  0.750000  0.130343  0.508839  1
  Al  Al19  1  0.250000  0.116018  0.016290  1
  Al  Al20  1  0.250000  0.854341  0.117604  1
  Al  Al21  1  0.250000  0.383982  0.516290  1
  Al  Al22  1  0.750000  0.424684  0.708930  1
  Al  Al23  1  0.750000  0.814294  0.700172  1
  Pt  Pt24  1  0.750000  0.382692  0.259925  1
  Pt  Pt25  1  0.250000  0.882692  0.240075  1
  Pt  Pt26  1  0.250000  0.617308  0.740075  1
  Pt  Pt27  1  0.750000  0.117308  0.759925  1
  Pt  Pt28  1  0.250000  0.160271  0.426220  1
  Pt  Pt29  1  0.750000  0.418781  0.585581  1
  Pt  Pt30  1  0.750000  0.081219  0.085581  1
  Pt  Pt31  1  0.250000  0.918781  0.914419  1
  Pt  Pt32  1  0.750000  0.839729  0.573780  1
  Pt  Pt33  1  0.250000  0.339729  0.926220  1
  Pt  Pt34  1  0.750000  0.660271  0.073780  1
  Pt  Pt35  1  0.250000  0.581219  0.414419  1
