# generated using pymatgen
data_Ca2CeYHg4
_symmetry_space_group_name_H-M   'P 1'
_cell_length_a   7.51733900
_cell_length_b   7.54161500
_cell_length_c   7.47496200
_cell_angle_alpha   90.00000000
_cell_angle_beta   90.00092986
_cell_angle_gamma   90.00000000
_symmetry_Int_Tables_number   1
_chemical_formula_structural   Ca2CeYHg4
_chemical_formula_sum   'Ca4 Ce2 Y2 Hg8'
_cell_volume   423.77709798
_cell_formula_units_Z   2
loop_
 _symmetry_equiv_pos_site_id
 _symmetry_equiv_pos_as_xyz
  1  'x, y, z'
loop_
 _atom_site_type_symbol
 _atom_site_label
 _atom_site_symmetry_multiplicity
 _atom_site_fract_x
 _atom_site_fract_y
 _atom_site_fract_z
 _atom_site_occupancy
  Ca  Ca0  1  0.749468  0.249995  0.000060  1
  Ca  Ca1  1  0.249459  0.749997  0.499942  1
  Ca  Ca2  1  0.750539  0.250003  0.500058  1
  Ca  Ca3  1  0.250533  0.750005  0.999941  1
  Ce  Ce4  1  0.250503  0.250011  0.999995  1
  Ce  Ce5  1  0.749496  0.749989  0.000005  1
  Y  Y6  1  0.750488  0.750001  0.500007  1
  Y  Y7  1  0.249511  0.249999  0.499993  1
  Hg  Hg8  1  0.999857  0.499955  0.253159  1
  Hg  Hg9  1  0.000267  0.000166  0.253132  1
  Hg  Hg10  1  0.499841  0.999962  0.255158  1
  Hg  Hg11  1  0.500247  0.500168  0.255107  1
  Hg  Hg12  1  0.499752  0.499834  0.744892  1
  Hg  Hg13  1  0.500158  0.000038  0.744841  1
  Hg  Hg14  1  0.999735  0.999834  0.746869  1
  Hg  Hg15  1  0.000145  0.500047  0.746842  1
