# generated using pymatgen
data_Sr4Ir5RhO19
_symmetry_space_group_name_H-M   'P 1'
_cell_length_a   8.13000958
_cell_length_b   8.12995053
_cell_length_c   8.13000808
_cell_angle_alpha   109.18723655
_cell_angle_beta   109.72436527
_cell_angle_gamma   109.50279308
_symmetry_Int_Tables_number   1
_chemical_formula_structural   Sr4Ir5RhO19
_chemical_formula_sum   'Sr4 Ir5 Rh1 O19'
_cell_volume   413.65367882
_cell_formula_units_Z   1
loop_
 _symmetry_equiv_pos_site_id
 _symmetry_equiv_pos_as_xyz
  1  'x, y, z'
loop_
 _atom_site_type_symbol
 _atom_site_label
 _atom_site_symmetry_multiplicity
 _atom_site_fract_x
 _atom_site_fract_y
 _atom_site_fract_z
 _atom_site_occupancy
  Sr  Sr0  1  0.998973  0.999390  0.294478  1
  Sr  Sr1  1  0.004191  0.296674  0.999147  1
  Sr  Sr2  1  0.702473  0.703326  0.707517  1
  Sr  Sr3  1  0.295088  0.000610  0.999583  1
  Ir  Ir4  1  0.842055  0.340039  0.502042  1
  Ir  Ir5  1  0.498323  0.161009  0.659325  1
  Ir  Ir6  1  0.162003  0.659961  0.502016  1
  Ir  Ir7  1  0.498316  0.838991  0.337315  1
  Ir  Ir8  1  0.659299  0.500000  0.159299  1
  Rh  Rh9  1  0.341198  0.500000  0.841198  1
  O  O10  1  0.358186  0.000000  0.358186  1
  O  O11  1  0.359071  0.355578  0.003381  1
  O  O12  1  0.999726  0.641113  0.641110  1
  O  O13  1  0.647802  0.644422  0.003493  1
  O  O14  1  0.999996  0.358887  0.358612  1
  O  O15  1  0.639202  0.000000  0.639202  1
  O  O16  1  0.999308  0.000000  0.999308  1
  O  O17  1  0.340015  0.290984  0.629716  1
  O  O18  1  0.045050  0.338616  0.705917  1
  O  O19  1  0.707357  0.365919  0.659521  1
  O  O20  1  0.367301  0.661384  0.706432  1
  O  O21  1  0.293358  0.952093  0.659000  1
  O  O22  1  0.637080  0.341683  0.294650  1
  O  O23  1  0.293602  0.634081  0.341440  1
  O  O24  1  0.706907  0.047907  0.341264  1
  O  O25  1  0.952967  0.658317  0.295398  1
  O  O26  1  0.656340  0.705543  0.361625  1
  O  O27  1  0.656081  0.294457  0.950796  1
  O  O28  1  0.338732  0.709016  0.049030  1
