# generated using pymatgen
data_Tm4B12MoIr
_symmetry_space_group_name_H-M   'P 1'
_cell_length_a   3.62375300
_cell_length_b   9.13221413
_cell_length_c   11.52192805
_cell_angle_alpha   89.70419904
_cell_angle_beta   90.00000000
_cell_angle_gamma   90.00000000
_symmetry_Int_Tables_number   1
_chemical_formula_structural   Tm4B12MoIr
_chemical_formula_sum   'Tm8 B24 Mo2 Ir2'
_cell_volume   381.28879705
_cell_formula_units_Z   2
loop_
 _symmetry_equiv_pos_site_id
 _symmetry_equiv_pos_as_xyz
  1  'x, y, z'
loop_
 _atom_site_type_symbol
 _atom_site_label
 _atom_site_symmetry_multiplicity
 _atom_site_fract_x
 _atom_site_fract_y
 _atom_site_fract_z
 _atom_site_occupancy
  Tm  Tm0  1  0.000000  0.324428  0.416808  1
  Tm  Tm1  1  0.000000  0.675572  0.583192  1
  Tm  Tm2  1  0.000000  0.816896  0.088505  1
  Tm  Tm3  1  0.000000  0.183104  0.911495  1
  Tm  Tm4  1  0.000000  0.942557  0.373820  1
  Tm  Tm5  1  0.000000  0.057443  0.626181  1
  Tm  Tm6  1  0.000000  0.445523  0.127737  1
  Tm  Tm7  1  0.000000  0.554477  0.872262  1
  B  B8  1  0.500000  0.551476  0.434349  1
  B  B9  1  0.500000  0.448524  0.565651  1
  B  B10  1  0.500000  0.053944  0.065398  1
  B  B11  1  0.500000  0.946056  0.934602  1
  B  B12  1  0.500000  0.750217  0.421036  1
  B  B13  1  0.500000  0.249783  0.578964  1
  B  B14  1  0.500000  0.250128  0.079115  1
  B  B15  1  0.500000  0.749872  0.920885  1
  B  B16  1  0.500000  0.795313  0.263298  1
  B  B17  1  0.500000  0.204687  0.736702  1
  B  B18  1  0.500000  0.290964  0.234069  1
  B  B19  1  0.500000  0.709035  0.765931  1
  B  B20  1  0.500000  0.632002  0.182280  1
  B  B21  1  0.500000  0.367998  0.817720  1
  B  B22  1  0.500000  0.130658  0.315479  1
  B  B23  1  0.500000  0.869342  0.684521  1
  B  B24  1  0.500000  0.981882  0.211767  1
  B  B25  1  0.500000  0.018118  0.788233  1
  B  B26  1  0.500000  0.478630  0.286403  1
  B  B27  1  0.500000  0.521370  0.713597  1
  B  B28  1  0.500000  0.605900  0.028044  1
  B  B29  1  0.500000  0.394100  0.971956  1
  B  B30  1  0.500000  0.104618  0.470105  1
  B  B31  1  0.500000  0.895382  0.529895  1
  Mo  Mo32  1  0.000000  0.638930  0.319148  1
  Mo  Mo33  1  0.000000  0.361070  0.680852  1
  Ir  Ir34  1  0.000000  0.137123  0.177515  1
  Ir  Ir35  1  0.000000  0.862877  0.822485  1
