# generated using pymatgen
data_RbPr3CBr6
_symmetry_space_group_name_H-M   'P 1'
_cell_length_a   9.13141405
_cell_length_b   9.16611640
_cell_length_c   9.83320775
_cell_angle_alpha   69.22815604
_cell_angle_beta   86.72631887
_cell_angle_gamma   89.65637628
_symmetry_Int_Tables_number   1
_chemical_formula_structural   RbPr3CBr6
_chemical_formula_sum   'Rb2 Pr6 C2 Br12'
_cell_volume   768.19298313
_cell_formula_units_Z   2
loop_
 _symmetry_equiv_pos_site_id
 _symmetry_equiv_pos_as_xyz
  1  'x, y, z'
loop_
 _atom_site_type_symbol
 _atom_site_label
 _atom_site_symmetry_multiplicity
 _atom_site_fract_x
 _atom_site_fract_y
 _atom_site_fract_z
 _atom_site_occupancy
  Rb  Rb0  1  0.481692  0.321399  0.347125  1
  Rb  Rb1  1  0.518309  0.678601  0.652875  1
  Pr  Pr2  1  0.914558  0.737244  0.003885  1
  Pr  Pr3  1  0.085442  0.262756  0.996114  1
  Pr  Pr4  1  0.737147  0.086282  0.999702  1
  Pr  Pr5  1  0.262852  0.913718  0.000299  1
  Pr  Pr6  1  0.982656  0.872786  0.328506  1
  Pr  Pr7  1  0.017343  0.127214  0.671495  1
  C  C8  1  0.004025  0.028828  0.923318  1
  C  C9  1  0.995974  0.971172  0.076682  1
  Br  Br10  1  0.092089  0.188230  0.327292  1
  Br  Br11  1  0.907911  0.811770  0.672708  1
  Br  Br12  1  0.208040  0.592183  0.998676  1
  Br  Br13  1  0.791961  0.407817  0.001324  1
  Br  Br14  1  0.406518  0.203594  0.009626  1
  Br  Br15  1  0.593481  0.796407  0.990373  1
  Br  Br16  1  0.673100  0.993738  0.327136  1
  Br  Br17  1  0.326900  0.006262  0.672864  1
  Br  Br18  1  0.291603  0.760911  0.325068  1
  Br  Br19  1  0.708397  0.239089  0.674932  1
  Br  Br20  1  0.852319  0.577407  0.326430  1
  Br  Br21  1  0.147680  0.422593  0.673570  1
