# generated using pymatgen
data_Y3ErHf2(SnRh)6
_symmetry_space_group_name_H-M   'P 1'
_cell_length_a   7.51934637
_cell_length_b   7.46498056
_cell_length_c   7.58890200
_cell_angle_alpha   90.00000000
_cell_angle_beta   90.00000000
_cell_angle_gamma   119.74618203
_symmetry_Int_Tables_number   1
_chemical_formula_structural   Y3ErHf2(SnRh)6
_chemical_formula_sum   'Y3 Er1 Hf2 Sn6 Rh6'
_cell_volume   369.84814425
_cell_formula_units_Z   1
loop_
 _symmetry_equiv_pos_site_id
 _symmetry_equiv_pos_as_xyz
  1  'x, y, z'
loop_
 _atom_site_type_symbol
 _atom_site_label
 _atom_site_symmetry_multiplicity
 _atom_site_fract_x
 _atom_site_fract_y
 _atom_site_fract_z
 _atom_site_occupancy
  Y  Y0  1  0.000196  0.403498  0.750000  1
  Y  Y1  1  0.589328  0.593057  0.750000  1
  Y  Y2  1  0.410189  0.003496  0.750000  1
  Er  Er3  1  0.998087  0.402151  0.250000  1
  Hf  Hf4  1  0.606060  0.600674  0.250000  1
  Hf  Hf5  1  0.395202  0.996714  0.250000  1
  Sn  Sn6  1  0.262346  0.263813  0.490404  1
  Sn  Sn7  1  0.000812  0.734537  0.502338  1
  Sn  Sn8  1  0.000812  0.734537  0.997662  1
  Sn  Sn9  1  0.737002  0.999931  0.491160  1
  Sn  Sn10  1  0.737002  0.999931  0.008840  1
  Sn  Sn11  1  0.262346  0.263813  0.009596  1
  Rh  Rh12  1  0.343776  0.675434  0.466657  1
  Rh  Rh13  1  0.656403  0.331798  0.470201  1
  Rh  Rh14  1  0.343776  0.675434  0.033343  1
  Rh  Rh15  1  0.000429  0.002828  0.750000  1
  Rh  Rh16  1  0.999830  0.986559  0.250000  1
  Rh  Rh17  1  0.656403  0.331798  0.029799  1
