# generated using pymatgen
data_YLu3(ZnPd)4
_symmetry_space_group_name_H-M   'P 1'
_cell_length_a   4.07967400
_cell_length_b   6.98186361
_cell_length_c   8.14003160
_cell_angle_alpha   89.84288554
_cell_angle_beta   90.00000000
_cell_angle_gamma   90.00000000
_symmetry_Int_Tables_number   1
_chemical_formula_structural   YLu3(ZnPd)4
_chemical_formula_sum   'Y1 Lu3 Zn4 Pd4'
_cell_volume   231.85756961
_cell_formula_units_Z   1
loop_
 _symmetry_equiv_pos_site_id
 _symmetry_equiv_pos_as_xyz
  1  'x, y, z'
loop_
 _atom_site_type_symbol
 _atom_site_label
 _atom_site_symmetry_multiplicity
 _atom_site_fract_x
 _atom_site_fract_y
 _atom_site_fract_z
 _atom_site_occupancy
  Y  Y0  1  0.750000  0.454012  0.812237  1
  Lu  Lu1  1  0.250000  0.046905  0.311713  1
  Lu  Lu2  1  0.250000  0.546876  0.189052  1
  Lu  Lu3  1  0.750000  0.953446  0.687576  1
  Zn  Zn4  1  0.250000  0.636372  0.564548  1
  Zn  Zn5  1  0.250000  0.134670  0.935134  1
  Zn  Zn6  1  0.750000  0.364231  0.433795  1
  Zn  Zn7  1  0.750000  0.864555  0.065266  1
  Pd  Pd8  1  0.250000  0.245442  0.618289  1
  Pd  Pd9  1  0.250000  0.751565  0.879775  1
  Pd  Pd10  1  0.750000  0.751815  0.379499  1
  Pd  Pd11  1  0.750000  0.250112  0.123114  1
