# generated using pymatgen
data_Tb5YAl24Os5Rh3
_symmetry_space_group_name_H-M   'P 1'
_cell_length_a   8.81286833
_cell_length_b   8.79207301
_cell_length_c   9.57971345
_cell_angle_alpha   90.24062011
_cell_angle_beta   89.92458254
_cell_angle_gamma   119.36322628
_symmetry_Int_Tables_number   1
_chemical_formula_structural   Tb5YAl24Os5Rh3
_chemical_formula_sum   'Tb5 Y1 Al24 Os5 Rh3'
_cell_volume   646.90244670
_cell_formula_units_Z   1
loop_
 _symmetry_equiv_pos_site_id
 _symmetry_equiv_pos_as_xyz
  1  'x, y, z'
loop_
 _atom_site_type_symbol
 _atom_site_label
 _atom_site_symmetry_multiplicity
 _atom_site_fract_x
 _atom_site_fract_y
 _atom_site_fract_z
 _atom_site_occupancy
  Tb  Tb0  1  0.185809  0.385546  0.251101  1
  Tb  Tb1  1  0.814091  0.614423  0.748835  1
  Tb  Tb2  1  0.616673  0.813091  0.251434  1
  Tb  Tb3  1  0.383263  0.186939  0.748527  1
  Tb  Tb4  1  0.190626  0.804478  0.251273  1
  Y  Y5  1  0.809220  0.195677  0.748723  1
  Al  Al6  1  0.332158  0.666463  0.023323  1
  Al  Al7  1  0.667565  0.333636  0.976482  1
  Al  Al8  1  0.667378  0.332178  0.522148  1
  Al  Al9  1  0.332980  0.667539  0.477961  1
  Al  Al10  1  0.163143  0.326871  0.575851  1
  Al  Al11  1  0.836901  0.673144  0.424131  1
  Al  Al12  1  0.673956  0.837982  0.576432  1
  Al  Al13  1  0.837227  0.673432  0.076087  1
  Al  Al14  1  0.326115  0.161993  0.423607  1
  Al  Al15  1  0.162723  0.326539  0.923875  1
  Al  Al16  1  0.165452  0.836182  0.575468  1
  Al  Al17  1  0.325799  0.164200  0.077092  1
  Al  Al18  1  0.834680  0.163830  0.424476  1
  Al  Al19  1  0.674153  0.836070  0.922948  1
  Al  Al20  1  0.837118  0.166127  0.075784  1
  Al  Al21  1  0.162702  0.833727  0.923900  1
  Al  Al22  1  0.560607  0.124549  0.250101  1
  Al  Al23  1  0.439639  0.875772  0.749911  1
  Al  Al24  1  0.873326  0.438389  0.249548  1
  Al  Al25  1  0.126403  0.561335  0.750336  1
  Al  Al26  1  0.560010  0.439463  0.249969  1
  Al  Al27  1  0.439989  0.560621  0.750721  1
  Al  Al28  1  0.998406  0.001075  0.250050  1
  Al  Al29  1  0.001764  0.998737  0.749896  1
  Os  Os30  1  0.999777  0.499805  0.999925  1
  Os  Os31  1  0.500107  0.999968  0.499993  1
  Os  Os32  1  0.000106  0.500031  0.499920  1
  Os  Os33  1  0.999987  0.000012  0.999718  1
  Os  Os34  1  0.999981  0.000006  0.499856  1
  Rh  Rh35  1  0.499982  0.000126  0.999975  1
  Rh  Rh36  1  0.500077  0.500039  0.000167  1
  Rh  Rh37  1  0.500107  0.500002  0.500457  1
