# generated using pymatgen
data_Ti12Al4O
_symmetry_space_group_name_H-M   'P 1'
_cell_length_a   5.77863500
_cell_length_b   4.64848611
_cell_length_c   9.98399700
_cell_angle_alpha   89.96042222
_cell_angle_beta   90.00000000
_cell_angle_gamma   90.00000000
_symmetry_Int_Tables_number   1
_chemical_formula_structural   Ti12Al4O
_chemical_formula_sum   'Ti12 Al4 O1'
_cell_volume   268.18911022
_cell_formula_units_Z   1
loop_
 _symmetry_equiv_pos_site_id
 _symmetry_equiv_pos_as_xyz
  1  'x, y, z'
loop_
 _atom_site_type_symbol
 _atom_site_label
 _atom_site_symmetry_multiplicity
 _atom_site_fract_x
 _atom_site_fract_y
 _atom_site_fract_z
 _atom_site_occupancy
  Ti  Ti0  1  0.000000  0.763341  0.170698  1
  Ti  Ti1  1  0.500000  0.752089  0.667253  1
  Ti  Ti2  1  0.755110  0.751083  0.415761  1
  Ti  Ti3  1  0.255347  0.761911  0.914013  1
  Ti  Ti4  1  0.244890  0.751083  0.415761  1
  Ti  Ti5  1  0.744653  0.761911  0.914013  1
  Ti  Ti6  1  0.500000  0.247911  0.332747  1
  Ti  Ti7  1  0.000000  0.236659  0.829302  1
  Ti  Ti8  1  0.744653  0.238089  0.085987  1
  Ti  Ti9  1  0.244890  0.248917  0.584239  1
  Ti  Ti10  1  0.255347  0.238089  0.085987  1
  Ti  Ti11  1  0.755110  0.248917  0.584239  1
  Al  Al12  1  0.500000  0.745341  0.167882  1
  Al  Al13  1  0.000000  0.746580  0.666153  1
  Al  Al14  1  0.000000  0.253420  0.333847  1
  Al  Al15  1  0.500000  0.254659  0.832117  1
  O  O16  1  0.000000  0.500000  0.000000  1
