# generated using pymatgen
data_Pr8Y5Ho3(ScSi4)4
_symmetry_space_group_name_H-M   'P 1'
_cell_length_a   7.39720683
_cell_length_b   7.77842820
_cell_length_c   14.72885444
_cell_angle_alpha   89.98873055
_cell_angle_beta   90.04905251
_cell_angle_gamma   89.97639118
_symmetry_Int_Tables_number   1
_chemical_formula_structural   Pr8Y5Ho3(ScSi4)4
_chemical_formula_sum   'Pr8 Y5 Ho3 Sc4 Si16'
_cell_volume   847.47788652
_cell_formula_units_Z   1
loop_
 _symmetry_equiv_pos_site_id
 _symmetry_equiv_pos_as_xyz
  1  'x, y, z'
loop_
 _atom_site_type_symbol
 _atom_site_label
 _atom_site_symmetry_multiplicity
 _atom_site_fract_x
 _atom_site_fract_y
 _atom_site_fract_z
 _atom_site_occupancy
  Pr  Pr0  1  0.020599  0.180181  0.400549  1
  Pr  Pr1  1  0.520596  0.320019  0.400655  1
  Pr  Pr2  1  0.479949  0.679700  0.902070  1
  Pr  Pr3  1  0.479419  0.679915  0.598809  1
  Pr  Pr4  1  0.979566  0.820183  0.598771  1
  Pr  Pr5  1  0.980172  0.820032  0.902351  1
  Pr  Pr6  1  0.519689  0.320415  0.098048  1
  Pr  Pr7  1  0.019964  0.179810  0.098355  1
  Y  Y8  1  0.320162  0.177333  0.625292  1
  Y  Y9  1  0.679825  0.822730  0.374446  1
  Y  Y10  1  0.179948  0.677193  0.374401  1
  Y  Y11  1  0.820571  0.322769  0.875529  1
  Y  Y12  1  0.820288  0.322543  0.625471  1
  Ho  Ho13  1  0.320630  0.177334  0.875096  1
  Ho  Ho14  1  0.179584  0.677395  0.125241  1
  Ho  Ho15  1  0.679302  0.822885  0.125089  1
  Sc  Sc16  1  0.652762  0.987381  0.750624  1
  Sc  Sc17  1  0.847158  0.488045  0.249013  1
  Sc  Sc18  1  0.347138  0.012057  0.249111  1
  Sc  Sc19  1  0.153073  0.512504  0.750685  1
  Si  Si20  1  0.277274  0.873725  0.750722  1
  Si  Si21  1  0.480368  0.605549  0.249105  1
  Si  Si22  1  0.020466  0.104672  0.750890  1
  Si  Si23  1  0.519471  0.394928  0.750566  1
  Si  Si24  1  0.145955  0.468604  0.539723  1
  Si  Si25  1  0.980070  0.894389  0.249023  1
  Si  Si26  1  0.722181  0.126527  0.249152  1
  Si  Si27  1  0.853784  0.532304  0.040539  1
  Si  Si28  1  0.352975  0.967961  0.039923  1
  Si  Si29  1  0.147750  0.467916  0.960916  1
  Si  Si30  1  0.646196  0.031399  0.539760  1
  Si  Si31  1  0.353820  0.968783  0.459883  1
  Si  Si32  1  0.853782  0.531238  0.460083  1
  Si  Si33  1  0.777430  0.626784  0.750491  1
  Si  Si34  1  0.222263  0.373647  0.249222  1
  Si  Si35  1  0.645819  0.031151  0.960398  1
