# generated using pymatgen
data_Ac8CeZr3Se20
_symmetry_space_group_name_H-M   'P 1'
_cell_length_a   8.05107068
_cell_length_b   8.74258200
_cell_length_c   12.68130900
_cell_angle_alpha   90.00000000
_cell_angle_beta   89.45540557
_cell_angle_gamma   90.00000000
_symmetry_Int_Tables_number   1
_chemical_formula_structural   Ac8CeZr3Se20
_chemical_formula_sum   'Ac8 Ce1 Zr3 Se20'
_cell_volume   892.56082283
_cell_formula_units_Z   1
loop_
 _symmetry_equiv_pos_site_id
 _symmetry_equiv_pos_as_xyz
  1  'x, y, z'
loop_
 _atom_site_type_symbol
 _atom_site_label
 _atom_site_symmetry_multiplicity
 _atom_site_fract_x
 _atom_site_fract_y
 _atom_site_fract_z
 _atom_site_occupancy
  Ac  Ac0  1  0.955267  0.000221  0.176328  1
  Ac  Ac1  1  0.547962  0.499524  0.670601  1
  Ac  Ac2  1  0.046362  0.498909  0.822658  1
  Ac  Ac3  1  0.451314  0.001140  0.329315  1
  Ac  Ac4  1  0.046362  0.001091  0.822658  1
  Ac  Ac5  1  0.451314  0.498860  0.329315  1
  Ac  Ac6  1  0.955267  0.499779  0.176328  1
  Ac  Ac7  1  0.547962  0.000476  0.670601  1
  Ce  Ce8  1  0.436076  0.750000  0.009226  1
  Zr  Zr9  1  0.075769  0.750000  0.509126  1
  Zr  Zr10  1  0.572003  0.250000  0.993557  1
  Zr  Zr11  1  0.925319  0.250000  0.490529  1
  Se  Se12  1  0.829548  0.966197  0.427575  1
  Se  Se13  1  0.668566  0.525137  0.914624  1
  Se  Se14  1  0.171070  0.465779  0.572646  1
  Se  Se15  1  0.330235  0.043307  0.084729  1
  Se  Se16  1  0.171070  0.034221  0.572646  1
  Se  Se17  1  0.330235  0.456693  0.084729  1
  Se  Se18  1  0.829548  0.533803  0.427575  1
  Se  Se19  1  0.668566  0.974863  0.914624  1
  Se  Se20  1  0.655583  0.750000  0.195700  1
  Se  Se21  1  0.854130  0.750000  0.683612  1
  Se  Se22  1  0.352086  0.250000  0.815514  1
  Se  Se23  1  0.144044  0.250000  0.317554  1
  Se  Se24  1  0.437734  0.750000  0.505380  1
  Se  Se25  1  0.049575  0.750000  0.003728  1
  Se  Se26  1  0.562487  0.250000  0.493681  1
  Se  Se27  1  0.936164  0.250000  0.994691  1
  Se  Se28  1  0.165715  0.750000  0.297512  1
  Se  Se29  1  0.329524  0.750000  0.789213  1
  Se  Se30  1  0.836696  0.250000  0.700607  1
  Se  Se31  1  0.666445  0.250000  0.203417  1
