# generated using pymatgen
data_Pr5Nd(HfSb5)2
_symmetry_space_group_name_H-M   'P 1'
_cell_length_a   9.54834100
_cell_length_b   9.54950792
_cell_length_c   6.38385200
_cell_angle_alpha   90.00000000
_cell_angle_beta   90.00000000
_cell_angle_gamma   119.99596130
_symmetry_Int_Tables_number   1
_chemical_formula_structural   Pr5Nd(HfSb5)2
_chemical_formula_sum   'Pr5 Nd1 Hf2 Sb10'
_cell_volume   504.12708188
_cell_formula_units_Z   1
loop_
 _symmetry_equiv_pos_site_id
 _symmetry_equiv_pos_as_xyz
  1  'x, y, z'
loop_
 _atom_site_type_symbol
 _atom_site_label
 _atom_site_symmetry_multiplicity
 _atom_site_fract_x
 _atom_site_fract_y
 _atom_site_fract_z
 _atom_site_occupancy
  Pr  Pr0  1  0.382896  0.000000  0.750000  1
  Pr  Pr1  1  0.999888  0.617346  0.250000  1
  Pr  Pr2  1  0.000136  0.382707  0.750000  1
  Pr  Pr3  1  0.382542  0.382654  0.250000  1
  Pr  Pr4  1  0.617429  0.617293  0.750000  1
  Nd  Nd5  1  0.617467  0.000000  0.250000  1
  Hf  Hf6  1  0.999863  0.000000  0.000783  1
  Hf  Hf7  1  0.999863  0.000000  0.499217  1
  Sb  Sb8  1  0.261618  0.000000  0.250000  1
  Sb  Sb9  1  0.739030  0.000000  0.750000  1
  Sb  Sb10  1  0.999251  0.260749  0.250000  1
  Sb  Sb11  1  0.999891  0.739277  0.750000  1
  Sb  Sb12  1  0.738502  0.739251  0.250000  1
  Sb  Sb13  1  0.260615  0.260723  0.750000  1
  Sb  Sb14  1  0.333873  0.667243  0.001821  1
  Sb  Sb15  1  0.666631  0.332757  0.001821  1
  Sb  Sb16  1  0.666631  0.332757  0.498179  1
  Sb  Sb17  1  0.333873  0.667243  0.498179  1
