# generated using pymatgen
data_Yb3(SiIr)4
_symmetry_space_group_name_H-M   'P 1'
_cell_length_a   6.44174132
_cell_length_b   6.44174149
_cell_length_c   6.44174100
_cell_angle_alpha   109.47121910
_cell_angle_beta   109.47121962
_cell_angle_gamma   109.47122113
_symmetry_Int_Tables_number   1
_chemical_formula_structural   Yb3(SiIr)4
_chemical_formula_sum   'Yb3 Si4 Ir4'
_cell_volume   205.77279325
_cell_formula_units_Z   1
loop_
 _symmetry_equiv_pos_site_id
 _symmetry_equiv_pos_as_xyz
  1  'x, y, z'
loop_
 _atom_site_type_symbol
 _atom_site_label
 _atom_site_symmetry_multiplicity
 _atom_site_fract_x
 _atom_site_fract_y
 _atom_site_fract_z
 _atom_site_occupancy
  Yb  Yb0  1  0.000000  0.500000  0.500000  1
  Yb  Yb1  1  0.500000  0.000000  0.500000  1
  Yb  Yb2  1  0.500000  0.500000  0.000000  1
  Si  Si3  1  0.632735  0.000000  0.000000  1
  Si  Si4  1  0.000000  0.632735  0.000000  1
  Si  Si5  1  0.000000  0.000000  0.632735  1
  Si  Si6  1  0.367265  0.367265  0.367265  1
  Ir  Ir7  1  0.278219  0.000000  0.000000  1
  Ir  Ir8  1  0.000000  0.278219  0.000000  1
  Ir  Ir9  1  0.000000  0.000000  0.278219  1
  Ir  Ir10  1  0.721781  0.721781  0.721781  1
