# generated using pymatgen
data_NaHo5TmCo6Sn23
_symmetry_space_group_name_H-M   'P 1'
_cell_length_a   9.69615219
_cell_length_b   9.69615105
_cell_length_c   9.94731825
_cell_angle_alpha   90.02213481
_cell_angle_beta   89.97786187
_cell_angle_gamma   119.99589401
_symmetry_Int_Tables_number   1
_chemical_formula_structural   NaHo5TmCo6Sn23
_chemical_formula_sum   'Na1 Ho5 Tm1 Co6 Sn23'
_cell_volume   809.94096358
_cell_formula_units_Z   1
loop_
 _symmetry_equiv_pos_site_id
 _symmetry_equiv_pos_as_xyz
  1  'x, y, z'
loop_
 _atom_site_type_symbol
 _atom_site_label
 _atom_site_symmetry_multiplicity
 _atom_site_fract_x
 _atom_site_fract_y
 _atom_site_fract_z
 _atom_site_occupancy
  Na  Na0  1  0.000013  0.999987  0.999979  1
  Ho  Ho1  1  0.519939  0.039818  0.694550  1
  Ho  Ho2  1  0.960182  0.480061  0.694550  1
  Ho  Ho3  1  0.039827  0.519823  0.305464  1
  Ho  Ho4  1  0.480177  0.960173  0.305464  1
  Ho  Ho5  1  0.480003  0.519997  0.305714  1
  Tm  Tm6  1  0.519383  0.480617  0.694685  1
  Co  Co7  1  0.170636  0.829364  0.798798  1
  Co  Co8  1  0.171396  0.341659  0.798769  1
  Co  Co9  1  0.658341  0.828604  0.798769  1
  Co  Co10  1  0.341438  0.170757  0.201129  1
  Co  Co11  1  0.829243  0.658562  0.201129  1
  Co  Co12  1  0.829324  0.170676  0.201054  1
  Sn  Sn13  1  0.666588  0.333412  0.184493  1
  Sn  Sn14  1  0.666360  0.333640  0.881799  1
  Sn  Sn15  1  0.333398  0.666602  0.117895  1
  Sn  Sn16  1  0.344074  0.344049  0.999970  1
  Sn  Sn17  1  0.999907  0.655756  0.000085  1
  Sn  Sn18  1  0.655744  0.999866  0.999796  1
  Sn  Sn19  1  0.655951  0.655926  0.999970  1
  Sn  Sn20  1  0.333466  0.666534  0.815507  1
  Sn  Sn21  1  0.436927  0.218858  0.454042  1
  Sn  Sn22  1  0.218541  0.781459  0.546058  1
  Sn  Sn23  1  0.218927  0.436851  0.546302  1
  Sn  Sn24  1  0.563149  0.781073  0.546302  1
  Sn  Sn25  1  0.116407  0.883593  0.271704  1
  Sn  Sn26  1  0.781142  0.563073  0.454042  1
  Sn  Sn27  1  0.781479  0.218521  0.453904  1
  Sn  Sn28  1  0.344244  0.000093  0.000085  1
  Sn  Sn29  1  0.116659  0.232923  0.271935  1
  Sn  Sn30  1  0.767077  0.883341  0.271935  1
  Sn  Sn31  1  0.233201  0.116933  0.727986  1
  Sn  Sn32  1  0.883067  0.766799  0.727986  1
  Sn  Sn33  1  0.883622  0.116378  0.728311  1
  Sn  Sn34  1  0.000034  0.999966  0.500040  1
  Sn  Sn35  1  0.000134  0.344256  0.999796  1
