# generated using pymatgen
data_Dy3Y17(Bi2Rh)4
_symmetry_space_group_name_H-M   'P 1'
_cell_length_a   8.05991610
_cell_length_b   9.01680313
_cell_length_c   12.49832513
_cell_angle_alpha   89.98776745
_cell_angle_beta   89.98898675
_cell_angle_gamma   89.98517025
_symmetry_Int_Tables_number   1
_chemical_formula_structural   Dy3Y17(Bi2Rh)4
_chemical_formula_sum   'Dy3 Y17 Bi8 Rh4'
_cell_volume   908.31167058
_cell_formula_units_Z   1
loop_
 _symmetry_equiv_pos_site_id
 _symmetry_equiv_pos_as_xyz
  1  'x, y, z'
loop_
 _atom_site_type_symbol
 _atom_site_label
 _atom_site_symmetry_multiplicity
 _atom_site_fract_x
 _atom_site_fract_y
 _atom_site_fract_z
 _atom_site_occupancy
  Dy  Dy0  1  0.676871  0.459002  0.565614  1
  Dy  Dy1  1  0.822926  0.459000  0.065643  1
  Dy  Dy2  1  0.177096  0.540966  0.934287  1
  Y  Y3  1  0.840979  0.749756  0.793426  1
  Y  Y4  1  0.159004  0.250262  0.206509  1
  Y  Y5  1  0.340977  0.250351  0.706409  1
  Y  Y6  1  0.659100  0.749842  0.293496  1
  Y  Y7  1  0.374904  0.749767  0.694110  1
  Y  Y8  1  0.625082  0.250215  0.306023  1
  Y  Y9  1  0.874875  0.250235  0.805884  1
  Y  Y10  1  0.125127  0.749839  0.194117  1
  Y  Y11  1  0.953649  0.749664  0.501356  1
  Y  Y12  1  0.045996  0.250303  0.498828  1
  Y  Y13  1  0.453829  0.250630  0.998704  1
  Y  Y14  1  0.546199  0.749370  0.001286  1
  Y  Y15  1  0.678090  0.041162  0.566096  1
  Y  Y16  1  0.321907  0.958625  0.433829  1
  Y  Y17  1  0.178148  0.958603  0.933814  1
  Y  Y18  1  0.321804  0.541222  0.433781  1
  Y  Y19  1  0.821913  0.041470  0.066159  1
  Bi  Bi20  1  0.569259  0.491598  0.826446  1
  Bi  Bi21  1  0.430823  0.508414  0.173592  1
  Bi  Bi22  1  0.069354  0.508427  0.673463  1
  Bi  Bi23  1  0.430832  0.991616  0.173298  1
  Bi  Bi24  1  0.930854  0.491590  0.326576  1
  Bi  Bi25  1  0.569216  0.008447  0.826719  1
  Bi  Bi26  1  0.930906  0.008453  0.326684  1
  Bi  Bi27  1  0.069154  0.991606  0.673331  1
  Rh  Rh28  1  0.571158  0.749038  0.510361  1
  Rh  Rh29  1  0.430014  0.250524  0.490139  1
  Rh  Rh30  1  0.070357  0.251526  0.989929  1
  Rh  Rh31  1  0.929598  0.748476  0.010091  1
