# generated using pymatgen
data_Th6Cd23C
_symmetry_space_group_name_H-M   'P 1'
_cell_length_a   10.01182793
_cell_length_b   9.97149183
_cell_length_c   10.01070112
_cell_angle_alpha   60.15015911
_cell_angle_beta   60.24437550
_cell_angle_gamma   60.13690028
_symmetry_Int_Tables_number   1
_chemical_formula_structural   Th6Cd23C
_chemical_formula_sum   'Th6 Cd23 C1'
_cell_volume   709.51393411
_cell_formula_units_Z   1
loop_
 _symmetry_equiv_pos_site_id
 _symmetry_equiv_pos_as_xyz
  1  'x, y, z'
loop_
 _atom_site_type_symbol
 _atom_site_label
 _atom_site_symmetry_multiplicity
 _atom_site_fract_x
 _atom_site_fract_y
 _atom_site_fract_z
 _atom_site_occupancy
  Th  Th0  1  0.814126  0.815278  0.185851  1
  Th  Th1  1  0.185282  0.814744  0.185236  1
  Th  Th2  1  0.814116  0.184720  0.185882  1
  Th  Th3  1  0.185874  0.184722  0.814149  1
  Th  Th4  1  0.814718  0.185256  0.814764  1
  Th  Th5  1  0.185884  0.815280  0.814118  1
  Cd  Cd6  1  0.830868  0.831504  0.506131  1
  Cd  Cd7  1  0.830886  0.506402  0.830898  1
  Cd  Cd8  1  0.506141  0.831498  0.830857  1
  Cd  Cd9  1  0.830923  0.831804  0.830902  1
  Cd  Cd10  1  0.169132  0.168496  0.493869  1
  Cd  Cd11  1  0.169114  0.493598  0.169102  1
  Cd  Cd12  1  0.493859  0.168502  0.169143  1
  Cd  Cd13  1  0.169077  0.168196  0.169098  1
  Cd  Cd14  1  0.619988  0.619527  0.140955  1
  Cd  Cd15  1  0.619596  0.141333  0.619602  1
  Cd  Cd16  1  0.140964  0.619505  0.619998  1
  Cd  Cd17  1  0.619586  0.619442  0.619619  1
  Cd  Cd18  1  0.380012  0.380473  0.859045  1
  Cd  Cd19  1  0.380404  0.858667  0.380398  1
  Cd  Cd20  1  0.859036  0.380495  0.380002  1
  Cd  Cd21  1  0.380414  0.380558  0.380381  1
  Cd  Cd22  1  0.000000  0.000000  0.500000  1
  Cd  Cd23  1  0.500000  0.000000  0.500000  1
  Cd  Cd24  1  0.000000  0.500000  0.500000  1
  Cd  Cd25  1  0.500000  0.500000  0.000000  1
  Cd  Cd26  1  0.000000  0.500000  0.000000  1
  Cd  Cd27  1  0.500000  0.000000  0.000000  1
  Cd  Cd28  1  0.500000  0.500000  0.500000  1
  C  C29  1  0.000000  0.000000  0.000000  1
