# generated using pymatgen
data_La7PaGaPd24
_symmetry_space_group_name_H-M   'P 1'
_cell_length_a   8.54747146
_cell_length_b   8.54747146
_cell_length_c   8.54747146
_cell_angle_alpha   89.82258905
_cell_angle_beta   89.82258905
_cell_angle_gamma   89.82258905
_symmetry_Int_Tables_number   1
_chemical_formula_structural   La7PaGaPd24
_chemical_formula_sum   'La7 Pa1 Ga1 Pd24'
_cell_volume   624.46304794
_cell_formula_units_Z   1
loop_
 _symmetry_equiv_pos_site_id
 _symmetry_equiv_pos_as_xyz
  1  'x, y, z'
loop_
 _atom_site_type_symbol
 _atom_site_label
 _atom_site_symmetry_multiplicity
 _atom_site_fract_x
 _atom_site_fract_y
 _atom_site_fract_z
 _atom_site_occupancy
  La  La0  1  0.747900  0.747900  0.747900  1
  La  La1  1  0.747774  0.747774  0.251749  1
  La  La2  1  0.747774  0.251749  0.747774  1
  La  La3  1  0.251995  0.251995  0.750070  1
  La  La4  1  0.251995  0.750070  0.251995  1
  La  La5  1  0.251749  0.747774  0.747774  1
  La  La6  1  0.750070  0.251995  0.251995  1
  Pa  Pa7  1  0.251898  0.251898  0.251898  1
  Ga  Ga8  1  0.998684  0.998684  0.998684  1
  Pd  Pd9  1  0.260625  0.495525  0.008014  1
  Pd  Pd10  1  0.739499  0.498662  0.000315  1
  Pd  Pd11  1  0.008014  0.260625  0.495525  1
  Pd  Pd12  1  0.495525  0.260625  0.008014  1
  Pd  Pd13  1  0.000315  0.739499  0.498662  1
  Pd  Pd14  1  0.498662  0.739499  0.000315  1
  Pd  Pd15  1  0.495525  0.008014  0.260625  1
  Pd  Pd16  1  0.260625  0.008014  0.495525  1
  Pd  Pd17  1  0.498662  0.000315  0.739499  1
  Pd  Pd18  1  0.739499  0.000315  0.498662  1
  Pd  Pd19  1  0.008014  0.495525  0.260625  1
  Pd  Pd20  1  0.000315  0.498662  0.739499  1
  Pd  Pd21  1  0.253672  0.494478  0.494478  1
  Pd  Pd22  1  0.747009  0.499060  0.499060  1
  Pd  Pd23  1  0.494478  0.253672  0.494478  1
  Pd  Pd24  1  0.499060  0.747009  0.499060  1
  Pd  Pd25  1  0.494478  0.494478  0.253672  1
  Pd  Pd26  1  0.499060  0.499060  0.747009  1
  Pd  Pd27  1  0.292215  0.004794  0.004794  1
  Pd  Pd28  1  0.705002  0.000159  0.000159  1
  Pd  Pd29  1  0.004794  0.292215  0.004794  1
  Pd  Pd30  1  0.000159  0.705002  0.000159  1
  Pd  Pd31  1  0.004794  0.004794  0.292215  1
  Pd  Pd32  1  0.000159  0.000159  0.705002  1
