# generated using pymatgen
data_Ta3Be8Ni4W9C2
_symmetry_space_group_name_H-M   'P 1'
_cell_length_a   7.61723027
_cell_length_b   7.61722983
_cell_length_c   7.60760405
_cell_angle_alpha   59.95813281
_cell_angle_beta   59.95813110
_cell_angle_gamma   59.99999885
_symmetry_Int_Tables_number   1
_chemical_formula_structural   Ta3Be8Ni4W9C2
_chemical_formula_sum   'Ta3 Be8 Ni4 W9 C2'
_cell_volume   311.92624428
_cell_formula_units_Z   1
loop_
 _symmetry_equiv_pos_site_id
 _symmetry_equiv_pos_as_xyz
  1  'x, y, z'
loop_
 _atom_site_type_symbol
 _atom_site_label
 _atom_site_symmetry_multiplicity
 _atom_site_fract_x
 _atom_site_fract_y
 _atom_site_fract_z
 _atom_site_occupancy
  Ta  Ta0  1  0.049882  0.049882  0.449672  1
  Ta  Ta1  1  0.450564  0.049882  0.449672  1
  Ta  Ta2  1  0.049882  0.450564  0.449672  1
  Be  Be3  1  0.420763  0.420763  0.737711  1
  Be  Be4  1  0.422391  0.734075  0.421143  1
  Be  Be5  1  0.734075  0.422391  0.421143  1
  Be  Be6  1  0.422391  0.422391  0.421143  1
  Be  Be7  1  0.829712  0.829712  0.510864  1
  Be  Be8  1  0.828076  0.514310  0.829540  1
  Be  Be9  1  0.514310  0.828076  0.829540  1
  Be  Be10  1  0.828076  0.828076  0.829540  1
  Ni  Ni11  1  0.625812  0.625812  0.122563  1
  Ni  Ni12  1  0.624330  0.125129  0.626211  1
  Ni  Ni13  1  0.125129  0.624330  0.626211  1
  Ni  Ni14  1  0.624330  0.624330  0.626211  1
  W  W15  1  0.450527  0.450527  0.048853  1
  W  W16  1  0.050094  0.450527  0.048853  1
  W  W17  1  0.450527  0.050094  0.048853  1
  W  W18  1  0.198112  0.198112  0.805562  1
  W  W19  1  0.798214  0.198112  0.805562  1
  W  W20  1  0.198112  0.798214  0.805562  1
  W  W21  1  0.800509  0.800509  0.197140  1
  W  W22  1  0.201842  0.800509  0.197140  1
  W  W23  1  0.800509  0.201842  0.197140  1
  C  C24  1  0.252445  0.252445  0.242664  1
  C  C25  1  0.999387  0.999387  0.001839  1
