# generated using pymatgen
data_Th4Al24Pt7Rh2
_symmetry_space_group_name_H-M   'P 1'
_cell_length_a   7.62088185
_cell_length_b   7.62195573
_cell_length_c   13.22494715
_cell_angle_alpha   84.53280618
_cell_angle_beta   101.11744370
_cell_angle_gamma   119.84365672
_symmetry_Int_Tables_number   1
_chemical_formula_structural   Th4Al24Pt7Rh2
_chemical_formula_sum   'Th4 Al24 Pt7 Rh2'
_cell_volume   653.80874070
_cell_formula_units_Z   1
loop_
 _symmetry_equiv_pos_site_id
 _symmetry_equiv_pos_as_xyz
  1  'x, y, z'
loop_
 _atom_site_type_symbol
 _atom_site_label
 _atom_site_symmetry_multiplicity
 _atom_site_fract_x
 _atom_site_fract_y
 _atom_site_fract_z
 _atom_site_occupancy
  Th  Th0  1  0.732380  0.998757  0.192632  1
  Th  Th1  1  0.268356  0.002135  0.807266  1
  Th  Th2  1  0.062132  0.667583  0.192777  1
  Th  Th3  1  0.937069  0.331692  0.807441  1
  Al  Al4  1  0.806331  0.866373  0.817805  1
  Al  Al5  1  0.194238  0.133083  0.182150  1
  Al  Al6  1  0.983722  0.669815  0.947334  1
  Al  Al7  1  0.022918  0.334039  0.052645  1
  Al  Al8  1  0.400628  0.662778  0.819669  1
  Al  Al9  1  0.596716  0.336335  0.182668  1
  Al  Al10  1  0.877522  0.665467  0.666187  1
  Al  Al11  1  0.123340  0.334568  0.333349  1
  Al  Al12  1  0.602766  0.463509  0.816821  1
  Al  Al13  1  0.397370  0.539776  0.180775  1
  Al  Al14  1  0.232565  0.344311  0.664552  1
  Al  Al15  1  0.767433  0.655717  0.335458  1
  Al  Al16  1  0.851558  0.333051  0.557702  1
  Al  Al17  1  0.186204  0.999786  0.557575  1
  Al  Al18  1  0.814511  0.000278  0.442454  1
  Al  Al19  1  0.347680  0.998736  0.052730  1
  Al  Al20  1  0.648580  0.994617  0.947277  1
  Al  Al21  1  0.554437  0.988590  0.666718  1
  Al  Al22  1  0.445676  0.010341  0.333747  1
  Al  Al23  1  0.520745  0.666975  0.560664  1
  Al  Al24  1  0.479399  0.332925  0.439195  1
  Al  Al25  1  0.679060  0.669079  0.040338  1
  Al  Al26  1  0.317642  0.334220  0.959678  1
  Al  Al27  1  0.148313  0.666308  0.442465  1
  Pt  Pt28  1  0.545959  0.324601  0.637317  1
  Pt  Pt29  1  0.454280  0.675020  0.362396  1
  Pt  Pt30  1  0.887812  0.008081  0.638622  1
  Pt  Pt31  1  0.112492  0.991658  0.361354  1
  Pt  Pt32  1  0.671930  0.327973  0.999855  1
  Pt  Pt33  1  0.203999  0.666617  0.638676  1
  Pt  Pt34  1  0.796331  0.332959  0.361582  1
  Rh  Rh35  1  0.328111  0.671991  0.000112  1
  Rh  Rh36  1  0.999796  0.000256  0.000014  1
