# generated using pymatgen
data_DyErFe14(SiC)3
_symmetry_space_group_name_H-M   'P 1'
_cell_length_a   6.43940881
_cell_length_b   6.43940936
_cell_length_c   6.43940800
_cell_angle_alpha   83.48789738
_cell_angle_beta   83.48789177
_cell_angle_gamma   83.48790914
_symmetry_Int_Tables_number   1
_chemical_formula_structural   DyErFe14(SiC)3
_chemical_formula_sum   'Dy1 Er1 Fe14 Si3 C3'
_cell_volume   262.21094301
_cell_formula_units_Z   1
loop_
 _symmetry_equiv_pos_site_id
 _symmetry_equiv_pos_as_xyz
  1  'x, y, z'
loop_
 _atom_site_type_symbol
 _atom_site_label
 _atom_site_symmetry_multiplicity
 _atom_site_fract_x
 _atom_site_fract_y
 _atom_site_fract_z
 _atom_site_occupancy
  Dy  Dy0  1  0.653548  0.653548  0.653548  1
  Er  Er1  1  0.346230  0.346230  0.346230  1
  Fe  Fe2  1  0.715390  0.284469  0.000189  1
  Fe  Fe3  1  0.000189  0.715390  0.284469  1
  Fe  Fe4  1  0.284469  0.000189  0.715390  1
  Fe  Fe5  1  0.000189  0.284469  0.715390  1
  Fe  Fe6  1  0.715390  0.000189  0.284469  1
  Fe  Fe7  1  0.284469  0.715390  0.000189  1
  Fe  Fe8  1  0.340739  0.861616  0.340739  1
  Fe  Fe9  1  0.340739  0.340739  0.861616  1
  Fe  Fe10  1  0.861616  0.340739  0.340739  1
  Fe  Fe11  1  0.659061  0.138641  0.659061  1
  Fe  Fe12  1  0.659061  0.659061  0.138641  1
  Fe  Fe13  1  0.138641  0.659061  0.659061  1
  Fe  Fe14  1  0.903118  0.903118  0.903118  1
  Fe  Fe15  1  0.097057  0.097057  0.097057  1
  Si  Si16  1  0.000035  0.000035  0.499940  1
  Si  Si17  1  0.499940  0.000035  0.000035  1
  Si  Si18  1  0.000035  0.499940  0.000035  1
  C  C19  1  0.499649  0.499649  0.000785  1
  C  C20  1  0.000785  0.499649  0.499649  1
  C  C21  1  0.499649  0.000785  0.499649  1
