# generated using pymatgen
data_BeBr27
_symmetry_space_group_name_H-M   'P 1'
_cell_length_a   16.17324817
_cell_length_b   16.17324920
_cell_length_c   16.17324900
_cell_angle_alpha   118.46216438
_cell_angle_beta   118.46216636
_cell_angle_gamma   118.46216636
_symmetry_Int_Tables_number   1
_chemical_formula_structural   BeBr27
_chemical_formula_sum   'Be1 Br27'
_cell_volume   1351.98567722
_cell_formula_units_Z   1
loop_
 _symmetry_equiv_pos_site_id
 _symmetry_equiv_pos_as_xyz
  1  'x, y, z'
loop_
 _atom_site_type_symbol
 _atom_site_label
 _atom_site_symmetry_multiplicity
 _atom_site_fract_x
 _atom_site_fract_y
 _atom_site_fract_z
 _atom_site_occupancy
  Be  Be0  1  0.888169  0.888169  0.888169  1
  Br  Br1  1  0.472053  0.250562  0.250562  1
  Br  Br2  1  0.250562  0.250562  0.472053  1
  Br  Br3  1  0.250562  0.472053  0.250562  1
  Br  Br4  1  0.339753  0.473842  0.710788  1
  Br  Br5  1  0.416397  0.002679  0.416397  1
  Br  Br6  1  0.416397  0.416397  0.002679  1
  Br  Br7  1  0.002679  0.416397  0.416397  1
  Br  Br8  1  0.058087  0.720985  0.192621  1
  Br  Br9  1  0.192621  0.058087  0.720985  1
  Br  Br10  1  0.720985  0.192621  0.058087  1
  Br  Br11  1  0.720985  0.058087  0.192621  1
  Br  Br12  1  0.192621  0.720985  0.058087  1
  Br  Br13  1  0.058087  0.192621  0.720985  1
  Br  Br14  1  0.431462  0.957414  0.693613  1
  Br  Br15  1  0.693613  0.431462  0.957414  1
  Br  Br16  1  0.957414  0.693613  0.431462  1
  Br  Br17  1  0.957414  0.431462  0.693613  1
  Br  Br18  1  0.693613  0.957414  0.431462  1
  Br  Br19  1  0.431462  0.693613  0.957414  1
  Br  Br20  1  0.339753  0.710788  0.473842  1
  Br  Br21  1  0.473842  0.339753  0.710788  1
  Br  Br22  1  0.710788  0.473842  0.339753  1
  Br  Br23  1  0.710788  0.339753  0.473842  1
  Br  Br24  1  0.473842  0.710788  0.339753  1
  Br  Br25  1  0.804731  0.933310  0.933310  1
  Br  Br26  1  0.933310  0.933310  0.804731  1
  Br  Br27  1  0.933310  0.804731  0.933310  1
