# generated using pymatgen
data_Cd3Co3(TeO6)2
_symmetry_space_group_name_H-M   'P 1'
_cell_length_a   11.02099431
_cell_length_b   11.02099446
_cell_length_c   11.02099400
_cell_angle_alpha   109.47122162
_cell_angle_beta   109.47122191
_cell_angle_gamma   109.47122168
_symmetry_Int_Tables_number   1
_chemical_formula_structural   Cd3Co3(TeO6)2
_chemical_formula_sum   'Cd12 Co12 Te8 O48'
_cell_volume   1030.48202287
_cell_formula_units_Z   4
loop_
 _symmetry_equiv_pos_site_id
 _symmetry_equiv_pos_as_xyz
  1  'x, y, z'
loop_
 _atom_site_type_symbol
 _atom_site_label
 _atom_site_symmetry_multiplicity
 _atom_site_fract_x
 _atom_site_fract_y
 _atom_site_fract_z
 _atom_site_occupancy
  Cd  Cd0  1  0.250000  0.375000  0.125000  1
  Cd  Cd1  1  0.750000  0.625000  0.875000  1
  Cd  Cd2  1  0.750000  0.125000  0.375000  1
  Cd  Cd3  1  0.125000  0.250000  0.375000  1
  Cd  Cd4  1  0.375000  0.750000  0.125000  1
  Cd  Cd5  1  0.250000  0.875000  0.625000  1
  Cd  Cd6  1  0.875000  0.750000  0.625000  1
  Cd  Cd7  1  0.625000  0.250000  0.875000  1
  Cd  Cd8  1  0.375000  0.125000  0.250000  1
  Cd  Cd9  1  0.625000  0.875000  0.750000  1
  Cd  Cd10  1  0.125000  0.375000  0.750000  1
  Cd  Cd11  1  0.875000  0.625000  0.250000  1
  Co  Co12  1  0.250000  0.625000  0.375000  1
  Co  Co13  1  0.750000  0.375000  0.625000  1
  Co  Co14  1  0.750000  0.875000  0.125000  1
  Co  Co15  1  0.375000  0.250000  0.625000  1
  Co  Co16  1  0.625000  0.750000  0.375000  1
  Co  Co17  1  0.250000  0.125000  0.875000  1
  Co  Co18  1  0.125000  0.750000  0.875000  1
  Co  Co19  1  0.875000  0.250000  0.125000  1
  Co  Co20  1  0.625000  0.375000  0.250000  1
  Co  Co21  1  0.375000  0.625000  0.750000  1
  Co  Co22  1  0.875000  0.125000  0.750000  1
  Co  Co23  1  0.125000  0.875000  0.250000  1
  Te  Te24  1  0.000000  0.000000  0.000000  1
  Te  Te25  1  0.500000  0.000000  0.500000  1
  Te  Te26  1  0.000000  0.500000  0.500000  1
  Te  Te27  1  0.500000  0.000000  0.000000  1
  Te  Te28  1  0.500000  0.500000  0.000000  1
  Te  Te29  1  0.500000  0.500000  0.500000  1
  Te  Te30  1  0.000000  0.000000  0.500000  1
  Te  Te31  1  0.000000  0.500000  0.000000  1
  O  O32  1  0.477055  0.380749  0.307031  1
  O  O33  1  0.522945  0.619251  0.692969  1
  O  O34  1  0.573718  0.170025  0.192969  1
  O  O35  1  0.926282  0.119251  0.596306  1
  O  O36  1  0.307031  0.477055  0.380749  1
  O  O37  1  0.329975  0.926282  0.307031  1
  O  O38  1  0.426282  0.829975  0.807031  1
  O  O39  1  0.073718  0.880749  0.403694  1
  O  O40  1  0.692969  0.522945  0.619251  1
  O  O41  1  0.670025  0.073718  0.692969  1
  O  O42  1  0.022945  0.329975  0.903694  1
  O  O43  1  0.192969  0.573718  0.170025  1
  O  O44  1  0.119251  0.022945  0.192969  1
  O  O45  1  0.977055  0.670025  0.096306  1
  O  O46  1  0.807031  0.426282  0.829975  1
  O  O47  1  0.880749  0.977055  0.807031  1
  O  O48  1  0.596306  0.926282  0.119251  1
  O  O49  1  0.170025  0.477055  0.596306  1
  O  O50  1  0.403694  0.073718  0.880749  1
  O  O51  1  0.829975  0.522945  0.403694  1
  O  O52  1  0.903694  0.022945  0.329975  1
  O  O53  1  0.380749  0.573718  0.903694  1
  O  O54  1  0.096306  0.977055  0.670025  1
  O  O55  1  0.619251  0.426282  0.096306  1
  O  O56  1  0.380749  0.307031  0.477055  1
  O  O57  1  0.573718  0.903694  0.380749  1
  O  O58  1  0.619251  0.692969  0.522945  1
  O  O59  1  0.426282  0.096306  0.619251  1
  O  O60  1  0.119251  0.596306  0.926282  1
  O  O61  1  0.022945  0.192969  0.119251  1
  O  O62  1  0.880749  0.403694  0.073718  1
  O  O63  1  0.977055  0.807031  0.880749  1
  O  O64  1  0.329975  0.903694  0.022945  1
  O  O65  1  0.926282  0.307031  0.329975  1
  O  O66  1  0.670025  0.096306  0.977055  1
  O  O67  1  0.073718  0.692969  0.670025  1
  O  O68  1  0.170025  0.192969  0.573718  1
  O  O69  1  0.477055  0.596306  0.170025  1
  O  O70  1  0.829975  0.807031  0.426282  1
  O  O71  1  0.522945  0.403694  0.829975  1
  O  O72  1  0.307031  0.329975  0.926282  1
  O  O73  1  0.692969  0.670025  0.073718  1
  O  O74  1  0.192969  0.119251  0.022945  1
  O  O75  1  0.807031  0.880749  0.977055  1
  O  O76  1  0.903694  0.380749  0.573718  1
  O  O77  1  0.096306  0.619251  0.426282  1
  O  O78  1  0.596306  0.170025  0.477055  1
  O  O79  1  0.403694  0.829975  0.522945  1
