# generated using pymatgen
data_La6Tb2YRh6
_symmetry_space_group_name_H-M   'P 1'
_cell_length_a   7.65746909
_cell_length_b   7.65746791
_cell_length_c   7.65746999
_cell_angle_alpha   70.87661172
_cell_angle_beta   70.87660760
_cell_angle_gamma   70.87659956
_symmetry_Int_Tables_number   1
_chemical_formula_structural   La6Tb2YRh6
_chemical_formula_sum   'La6 Tb2 Y1 Rh6'
_cell_volume   388.42508492
_cell_formula_units_Z   1
loop_
 _symmetry_equiv_pos_site_id
 _symmetry_equiv_pos_as_xyz
  1  'x, y, z'
loop_
 _atom_site_type_symbol
 _atom_site_label
 _atom_site_symmetry_multiplicity
 _atom_site_fract_x
 _atom_site_fract_y
 _atom_site_fract_z
 _atom_site_occupancy
  La  La0  1  0.159643  0.388676  0.671500  1
  La  La1  1  0.671500  0.159643  0.388676  1
  La  La2  1  0.388676  0.671500  0.159643  1
  La  La3  1  0.840357  0.611324  0.328500  1
  La  La4  1  0.328500  0.840357  0.611324  1
  La  La5  1  0.611324  0.328500  0.840357  1
  Tb  Tb6  1  0.801986  0.801986  0.801986  1
  Tb  Tb7  1  0.198014  0.198014  0.198014  1
  Y  Y8  1  0.000000  0.000000  0.000000  1
  Rh  Rh9  1  0.957235  0.161656  0.592514  1
  Rh  Rh10  1  0.592514  0.957235  0.161656  1
  Rh  Rh11  1  0.161656  0.592514  0.957235  1
  Rh  Rh12  1  0.042765  0.838344  0.407486  1
  Rh  Rh13  1  0.407486  0.042765  0.838344  1
  Rh  Rh14  1  0.838344  0.407486  0.042765  1
