# generated using pymatgen
data_ZrCoTeO6
_symmetry_space_group_name_H-M   'P 1'
_cell_length_a   4.95172312
_cell_length_b   5.01735703
_cell_length_c   8.95776613
_cell_angle_alpha   90.00114050
_cell_angle_beta   90.00230334
_cell_angle_gamma   89.98451364
_symmetry_Int_Tables_number   1
_chemical_formula_structural   ZrCoTeO6
_chemical_formula_sum   'Zr2 Co2 Te2 O12'
_cell_volume   222.55177491
_cell_formula_units_Z   2
loop_
 _symmetry_equiv_pos_site_id
 _symmetry_equiv_pos_as_xyz
  1  'x, y, z'
loop_
 _atom_site_type_symbol
 _atom_site_label
 _atom_site_symmetry_multiplicity
 _atom_site_fract_x
 _atom_site_fract_y
 _atom_site_fract_z
 _atom_site_occupancy
  Zr  Zr0  1  0.499917  0.999978  0.117008  1
  Zr  Zr1  1  0.000090  0.499939  0.882845  1
  Co  Co2  1  0.499953  0.499999  0.510925  1
  Co  Co3  1  0.000141  0.999994  0.489174  1
  Te  Te4  1  0.999928  0.500068  0.251374  1
  Te  Te5  1  0.500110  0.000013  0.748567  1
  O  O6  1  0.262102  0.785204  0.253063  1
  O  O7  1  0.737903  0.214973  0.252782  1
  O  O8  1  0.761821  0.715123  0.747295  1
  O  O9  1  0.238108  0.284804  0.747063  1
  O  O10  1  0.292907  0.805834  0.603126  1
  O  O11  1  0.706811  0.193752  0.602920  1
  O  O12  1  0.793244  0.693726  0.397007  1
  O  O13  1  0.206929  0.306073  0.396810  1
  O  O14  1  0.805440  0.677639  0.084268  1
  O  O15  1  0.305407  0.822614  0.915808  1
  O  O16  1  0.694602  0.177592  0.915745  1
  O  O17  1  0.194586  0.322676  0.084220  1
