# generated using pymatgen
data_La5Pr3(HoRu2)2
_symmetry_space_group_name_H-M   'P 1'
_cell_length_a   6.63795819
_cell_length_b   7.25728524
_cell_length_c   9.03542010
_cell_angle_alpha   95.32987532
_cell_angle_beta   111.35159741
_cell_angle_gamma   89.90189745
_symmetry_Int_Tables_number   1
_chemical_formula_structural   La5Pr3(HoRu2)2
_chemical_formula_sum   'La5 Pr3 Ho2 Ru4'
_cell_volume   403.39834499
_cell_formula_units_Z   1
loop_
 _symmetry_equiv_pos_site_id
 _symmetry_equiv_pos_as_xyz
  1  'x, y, z'
loop_
 _atom_site_type_symbol
 _atom_site_label
 _atom_site_symmetry_multiplicity
 _atom_site_fract_x
 _atom_site_fract_y
 _atom_site_fract_z
 _atom_site_occupancy
  La  La0  1  0.979502  0.909148  0.183630  1
  La  La1  1  0.794155  0.594311  0.814340  1
  La  La2  1  0.021185  0.092507  0.815048  1
  La  La3  1  0.203653  0.406281  0.184838  1
  La  La4  1  0.633728  0.815219  0.423877  1
  Pr  Pr5  1  0.208434  0.685341  0.573902  1
  Pr  Pr6  1  0.364491  0.187939  0.572349  1
  Pr  Pr7  1  0.793472  0.315325  0.427569  1
  Ho  Ho8  1  0.430808  0.749261  0.998110  1
  Ho  Ho9  1  0.569216  0.250021  0.000771  1
  Ru  Ru10  1  0.818287  0.583839  0.213725  1
  Ru  Ru11  1  0.607961  0.918752  0.787245  1
  Ru  Ru12  1  0.179056  0.417134  0.789159  1
  Ru  Ru13  1  0.396055  0.074924  0.215438  1
