# generated using pymatgen
data_Er2Ni3P7Ru9
_symmetry_space_group_name_H-M   'P 1'
_cell_length_a   9.35454200
_cell_length_b   9.35454199
_cell_length_c   3.81209300
_cell_angle_alpha   90.00000000
_cell_angle_beta   90.00000000
_cell_angle_gamma   120.00000004
_symmetry_Int_Tables_number   1
_chemical_formula_structural   Er2Ni3P7Ru9
_chemical_formula_sum   'Er2 Ni3 P7 Ru9'
_cell_volume   288.89443537
_cell_formula_units_Z   1
loop_
 _symmetry_equiv_pos_site_id
 _symmetry_equiv_pos_as_xyz
  1  'x, y, z'
loop_
 _atom_site_type_symbol
 _atom_site_label
 _atom_site_symmetry_multiplicity
 _atom_site_fract_x
 _atom_site_fract_y
 _atom_site_fract_z
 _atom_site_occupancy
  Er  Er0  1  0.333333  0.666667  0.000000  1
  Er  Er1  1  0.000000  0.000000  0.500000  1
  Ni  Ni2  1  0.938231  0.444883  0.000000  1
  Ni  Ni3  1  0.506651  0.061769  0.000000  1
  Ni  Ni4  1  0.555117  0.493349  0.000000  1
  P  P5  1  0.964777  0.220044  0.000000  1
  P  P6  1  0.255267  0.035223  0.000000  1
  P  P7  1  0.779956  0.744733  0.000000  1
  P  P8  1  0.071597  0.623312  0.500000  1
  P  P9  1  0.551714  0.928403  0.500000  1
  P  P10  1  0.376688  0.448286  0.500000  1
  P  P11  1  0.666667  0.333333  0.000000  1
  Ru  Ru12  1  0.728881  0.966490  0.000000  1
  Ru  Ru13  1  0.237609  0.271119  0.000000  1
  Ru  Ru14  1  0.033510  0.762391  0.000000  1
  Ru  Ru15  1  0.099754  0.385732  0.500000  1
  Ru  Ru16  1  0.285977  0.900246  0.500000  1
  Ru  Ru17  1  0.614268  0.714023  0.500000  1
  Ru  Ru18  1  0.750703  0.209784  0.500000  1
  Ru  Ru19  1  0.459081  0.249297  0.500000  1
  Ru  Ru20  1  0.790216  0.540919  0.500000  1
