# generated using pymatgen
data_PmTiAsF
_symmetry_space_group_name_H-M   'P 1'
_cell_length_a   3.90669600
_cell_length_b   3.90669600
_cell_length_c   9.32093400
_cell_angle_alpha   90.00000000
_cell_angle_beta   90.00000000
_cell_angle_gamma   90.00000000
_symmetry_Int_Tables_number   1
_chemical_formula_structural   PmTiAsF
_chemical_formula_sum   'Pm2 Ti2 As2 F2'
_cell_volume   142.25864525
_cell_formula_units_Z   2
loop_
 _symmetry_equiv_pos_site_id
 _symmetry_equiv_pos_as_xyz
  1  'x, y, z'
loop_
 _atom_site_type_symbol
 _atom_site_label
 _atom_site_symmetry_multiplicity
 _atom_site_fract_x
 _atom_site_fract_y
 _atom_site_fract_z
 _atom_site_occupancy
  Pm  Pm0  1  0.500001  0.000000  0.170213  1
  Pm  Pm1  1  0.000000  0.500001  0.829786  1
  Ti  Ti2  1  0.000000  0.000000  0.500000  1
  Ti  Ti3  1  0.500001  0.500001  0.500000  1
  As  As4  1  0.000000  0.500001  0.305604  1
  As  As5  1  0.500001  0.000000  0.694395  1
  F  F6  1  0.000000  0.000000  0.000000  1
  F  F7  1  0.500001  0.500001  0.000000  1
