# generated using pymatgen
data_Dy5Si11Tc3PIr16
_symmetry_space_group_name_H-M   'P 1'
_cell_length_a   12.82338200
_cell_length_b   12.78756211
_cell_length_c   4.00295200
_cell_angle_alpha   90.00000000
_cell_angle_beta   90.00000000
_cell_angle_gamma   120.09270466
_symmetry_Int_Tables_number   1
_chemical_formula_structural   Dy5Si11Tc3PIr16
_chemical_formula_sum   'Dy5 Si11 Tc3 P1 Ir16'
_cell_volume   567.93010936
_cell_formula_units_Z   1
loop_
 _symmetry_equiv_pos_site_id
 _symmetry_equiv_pos_as_xyz
  1  'x, y, z'
loop_
 _atom_site_type_symbol
 _atom_site_label
 _atom_site_symmetry_multiplicity
 _atom_site_fract_x
 _atom_site_fract_y
 _atom_site_fract_z
 _atom_site_occupancy
  Dy  Dy0  1  0.333232  0.666550  0.500000  1
  Dy  Dy1  1  0.666683  0.333450  0.500000  1
  Dy  Dy2  1  0.999357  0.811800  0.000000  1
  Dy  Dy3  1  0.187557  0.188200  0.000000  1
  Dy  Dy4  1  0.813291  0.000000  0.000000  1
  Si  Si5  1  0.999688  0.627073  0.500000  1
  Si  Si6  1  0.372615  0.372927  0.500000  1
  Si  Si7  1  0.626594  0.000000  0.500000  1
  Si  Si8  1  0.520792  0.686082  0.000000  1
  Si  Si9  1  0.314671  0.835232  0.000000  1
  Si  Si10  1  0.165950  0.479430  0.000000  1
  Si  Si11  1  0.479439  0.164768  0.000000  1
  Si  Si12  1  0.686519  0.520570  0.000000  1
  Si  Si13  1  0.834710  0.313918  0.000000  1
  Si  Si14  1  0.999004  0.179757  0.500000  1
  Si  Si15  1  0.819247  0.820243  0.500000  1
  Tc  Tc16  1  0.000694  0.441133  0.500000  1
  Tc  Tc17  1  0.559561  0.558867  0.500000  1
  Tc  Tc18  1  0.440353  0.000000  0.500000  1
  P  P19  1  0.181782  0.000000  0.500000  1
  Ir  Ir20  1  0.512475  0.872882  0.000000  1
  Ir  Ir21  1  0.128128  0.640773  0.000000  1
  Ir  Ir22  1  0.360378  0.486705  0.000000  1
  Ir  Ir23  1  0.487356  0.359227  0.000000  1
  Ir  Ir24  1  0.873673  0.513295  0.000000  1
  Ir  Ir25  1  0.639594  0.127118  0.000000  1
  Ir  Ir26  1  0.999735  0.279049  0.000000  1
  Ir  Ir27  1  0.720686  0.720951  0.000000  1
  Ir  Ir28  1  0.276567  0.000000  0.000000  1
  Ir  Ir29  1  0.624362  0.806966  0.500000  1
  Ir  Ir30  1  0.191849  0.819506  0.500000  1
  Ir  Ir31  1  0.182191  0.374980  0.500000  1
  Ir  Ir32  1  0.372343  0.180494  0.500000  1
  Ir  Ir33  1  0.807211  0.625020  0.500000  1
  Ir  Ir34  1  0.817395  0.193034  0.500000  1
  Ir  Ir35  1  0.004321  0.000000  0.500000  1
