# generated using pymatgen
data_AcInCu5
_symmetry_space_group_name_H-M   'P 1'
_cell_length_a   5.23666300
_cell_length_b   8.56219300
_cell_length_c   10.71044400
_cell_angle_alpha   90.00000000
_cell_angle_beta   90.00000000
_cell_angle_gamma   90.00000000
_symmetry_Int_Tables_number   1
_chemical_formula_structural   AcInCu5
_chemical_formula_sum   'Ac4 In4 Cu20'
_cell_volume   480.22759728
_cell_formula_units_Z   4
loop_
 _symmetry_equiv_pos_site_id
 _symmetry_equiv_pos_as_xyz
  1  'x, y, z'
loop_
 _atom_site_type_symbol
 _atom_site_label
 _atom_site_symmetry_multiplicity
 _atom_site_fract_x
 _atom_site_fract_y
 _atom_site_fract_z
 _atom_site_occupancy
  Ac  Ac0  1  0.250000  0.757308  0.060576  1
  Ac  Ac1  1  0.750000  0.242692  0.939424  1
  Ac  Ac2  1  0.750000  0.742692  0.560576  1
  Ac  Ac3  1  0.250000  0.257308  0.439424  1
  In  In4  1  0.250000  0.642222  0.362737  1
  In  In5  1  0.750000  0.357778  0.637263  1
  In  In6  1  0.750000  0.857778  0.862737  1
  In  In7  1  0.250000  0.142222  0.137263  1
  Cu  Cu8  1  0.250000  0.818808  0.744190  1
  Cu  Cu9  1  0.750000  0.181192  0.255810  1
  Cu  Cu10  1  0.750000  0.681192  0.244190  1
  Cu  Cu11  1  0.250000  0.318808  0.755810  1
  Cu  Cu12  1  0.497301  0.566468  0.812440  1
  Cu  Cu13  1  0.502699  0.433532  0.187560  1
  Cu  Cu14  1  0.502699  0.933532  0.312440  1
  Cu  Cu15  1  0.997301  0.433532  0.187560  1
  Cu  Cu16  1  0.497301  0.066468  0.687560  1
  Cu  Cu17  1  0.002699  0.566468  0.812440  1
  Cu  Cu18  1  0.002699  0.066468  0.687560  1
  Cu  Cu19  1  0.997301  0.933532  0.312440  1
  Cu  Cu20  1  0.250000  0.558227  0.611263  1
  Cu  Cu21  1  0.750000  0.441773  0.388737  1
  Cu  Cu22  1  0.750000  0.941773  0.111263  1
  Cu  Cu23  1  0.250000  0.058227  0.888737  1
  Cu  Cu24  1  0.250000  0.918532  0.513692  1
  Cu  Cu25  1  0.750000  0.081468  0.486308  1
  Cu  Cu26  1  0.750000  0.581468  0.013692  1
  Cu  Cu27  1  0.250000  0.418532  0.986308  1
