# generated using pymatgen
data_Ta2Nb3Cu4Si3Ge
_symmetry_space_group_name_H-M   'P 1'
_cell_length_a   7.46213885
_cell_length_b   7.46213982
_cell_length_c   7.47247738
_cell_angle_alpha   93.75554458
_cell_angle_beta   93.00900249
_cell_angle_gamma   151.86562560
_symmetry_Int_Tables_number   1
_chemical_formula_structural   Ta2Nb3Cu4Si3Ge
_chemical_formula_sum   'Ta2 Nb3 Cu4 Si3 Ge1'
_cell_volume   190.33336062
_cell_formula_units_Z   1
loop_
 _symmetry_equiv_pos_site_id
 _symmetry_equiv_pos_as_xyz
  1  'x, y, z'
loop_
 _atom_site_type_symbol
 _atom_site_label
 _atom_site_symmetry_multiplicity
 _atom_site_fract_x
 _atom_site_fract_y
 _atom_site_fract_z
 _atom_site_occupancy
  Ta  Ta0  1  0.502481  0.499763  0.002244  1
  Ta  Ta1  1  0.126942  0.807065  0.934006  1
  Nb  Nb2  1  0.196822  0.129143  0.325965  1
  Nb  Nb3  1  0.806211  0.868125  0.674336  1
  Nb  Nb4  1  0.875678  0.197361  0.073039  1
  Cu  Cu5  1  0.396781  0.917782  0.314564  1
  Cu  Cu6  1  0.596509  0.081010  0.677518  1
  Cu  Cu7  1  0.916020  0.602741  0.518760  1
  Cu  Cu8  1  0.078920  0.395999  0.474919  1
  Si  Si9  1  0.440861  0.248103  0.688964  1
  Si  Si10  1  0.561527  0.752432  0.313959  1
  Si  Si11  1  0.752856  0.439832  0.192688  1
  Ge  Ge12  1  0.248392  0.560645  0.809037  1
