# generated using pymatgen
data_La3Cd3AgPd2
_symmetry_space_group_name_H-M   'P 1'
_cell_length_a   8.00460400
_cell_length_b   8.00460364
_cell_length_c   4.04771200
_cell_angle_alpha   90.00000000
_cell_angle_beta   90.00000000
_cell_angle_gamma   120.00000147
_symmetry_Int_Tables_number   1
_chemical_formula_structural   La3Cd3AgPd2
_chemical_formula_sum   'La3 Cd3 Ag1 Pd2'
_cell_volume   224.60525517
_cell_formula_units_Z   1
loop_
 _symmetry_equiv_pos_site_id
 _symmetry_equiv_pos_as_xyz
  1  'x, y, z'
loop_
 _atom_site_type_symbol
 _atom_site_label
 _atom_site_symmetry_multiplicity
 _atom_site_fract_x
 _atom_site_fract_y
 _atom_site_fract_z
 _atom_site_occupancy
  La  La0  1  0.415433  0.415433  0.500000  1
  La  La1  1  0.584567  0.000000  0.500000  1
  La  La2  1  0.000000  0.584567  0.500000  1
  Cd  Cd3  1  0.744441  0.744441  0.000000  1
  Cd  Cd4  1  0.255559  0.000000  0.000000  1
  Cd  Cd5  1  0.000000  0.255559  0.000000  1
  Ag  Ag6  1  0.000000  0.000000  0.500000  1
  Pd  Pd7  1  0.666667  0.333333  0.000000  1
  Pd  Pd8  1  0.333333  0.666667  0.000000  1
