# generated using pymatgen
data_Nd6Sn6Pd5Pt
_symmetry_space_group_name_H-M   'P 1'
_cell_length_a   7.68260500
_cell_length_b   7.68260467
_cell_length_c   8.26278500
_cell_angle_alpha   90.00000000
_cell_angle_beta   90.00000000
_cell_angle_gamma   119.99999713
_symmetry_Int_Tables_number   1
_chemical_formula_structural   Nd6Sn6Pd5Pt
_chemical_formula_sum   'Nd6 Sn6 Pd5 Pt1'
_cell_volume   422.35154474
_cell_formula_units_Z   1
loop_
 _symmetry_equiv_pos_site_id
 _symmetry_equiv_pos_as_xyz
  1  'x, y, z'
loop_
 _atom_site_type_symbol
 _atom_site_label
 _atom_site_symmetry_multiplicity
 _atom_site_fract_x
 _atom_site_fract_y
 _atom_site_fract_z
 _atom_site_occupancy
  Nd  Nd0  1  0.411076  0.998863  0.249003  1
  Nd  Nd1  1  0.587788  0.588924  0.249003  1
  Nd  Nd2  1  0.001137  0.412212  0.249003  1
  Nd  Nd3  1  0.410141  0.997001  0.750972  1
  Nd  Nd4  1  0.586860  0.589859  0.750972  1
  Nd  Nd5  1  0.002999  0.413140  0.750972  1
  Sn  Sn6  1  0.749193  0.002561  0.000062  1
  Sn  Sn7  1  0.252462  0.251070  0.500081  1
  Sn  Sn8  1  0.998607  0.747538  0.500081  1
  Sn  Sn9  1  0.997439  0.746632  0.000062  1
  Sn  Sn10  1  0.253368  0.250807  0.000062  1
  Sn  Sn11  1  0.748930  0.001393  0.500081  1
  Pd  Pd12  1  0.333333  0.666667  0.498045  1
  Pd  Pd13  1  0.666667  0.333333  0.998248  1
  Pd  Pd14  1  0.666667  0.333333  0.501943  1
  Pd  Pd15  1  0.000000  0.000000  0.249026  1
  Pd  Pd16  1  0.000000  0.000000  0.751107  1
  Pt  Pt17  1  0.333333  0.666667  0.001276  1
