# generated using pymatgen
data_Y11Er5(ScBi3)4
_symmetry_space_group_name_H-M   'P 1'
_cell_length_a   8.12220223
_cell_length_b   9.40780904
_cell_length_c   11.98032732
_cell_angle_alpha   90.00495027
_cell_angle_beta   90.02599475
_cell_angle_gamma   90.00881060
_symmetry_Int_Tables_number   1
_chemical_formula_structural   Y11Er5(ScBi3)4
_chemical_formula_sum   'Y11 Er5 Sc4 Bi12'
_cell_volume   915.44219094
_cell_formula_units_Z   1
loop_
 _symmetry_equiv_pos_site_id
 _symmetry_equiv_pos_as_xyz
  1  'x, y, z'
loop_
 _atom_site_type_symbol
 _atom_site_label
 _atom_site_symmetry_multiplicity
 _atom_site_fract_x
 _atom_site_fract_y
 _atom_site_fract_z
 _atom_site_occupancy
  Y  Y0  1  0.185462  0.749900  0.720384  1
  Y  Y1  1  0.685519  0.750014  0.779672  1
  Y  Y2  1  0.814452  0.249883  0.279652  1
  Y  Y3  1  0.314483  0.250110  0.220439  1
  Y  Y4  1  0.196811  0.936638  0.441185  1
  Y  Y5  1  0.303316  0.063348  0.941230  1
  Y  Y6  1  0.803100  0.436649  0.558823  1
  Y  Y7  1  0.354399  0.749851  0.215072  1
  Y  Y8  1  0.853964  0.749733  0.284747  1
  Y  Y9  1  0.645736  0.249944  0.784767  1
  Y  Y10  1  0.145797  0.249961  0.715061  1
  Er  Er11  1  0.302991  0.436182  0.941153  1
  Er  Er12  1  0.802906  0.063879  0.558842  1
  Er  Er13  1  0.696994  0.935877  0.058807  1
  Er  Er14  1  0.197080  0.563873  0.441149  1
  Er  Er15  1  0.697089  0.564090  0.058792  1
  Sc  Sc16  1  0.025433  0.749988  0.988344  1
  Sc  Sc17  1  0.525767  0.749822  0.511648  1
  Sc  Sc18  1  0.974147  0.250142  0.011671  1
  Sc  Sc19  1  0.474292  0.249748  0.488357  1
  Bi  Bi20  1  0.434808  0.003611  0.668407  1
  Bi  Bi21  1  0.934698  0.496357  0.831683  1
  Bi  Bi22  1  0.565263  0.503657  0.331525  1
  Bi  Bi23  1  0.065185  0.996304  0.168434  1
  Bi  Bi24  1  0.565580  0.996257  0.331638  1
  Bi  Bi25  1  0.065289  0.503672  0.168316  1
  Bi  Bi26  1  0.434462  0.496291  0.668386  1
  Bi  Bi27  1  0.934386  0.003647  0.831619  1
  Bi  Bi28  1  0.404886  0.749316  0.958050  1
  Bi  Bi29  1  0.904629  0.750496  0.542015  1
  Bi  Bi30  1  0.595664  0.250263  0.042168  1
  Bi  Bi31  1  0.095410  0.250499  0.457963  1
