# generated using pymatgen
data_Tb3Dy2YNi2
_symmetry_space_group_name_H-M   'P 1'
_cell_length_a   6.34686901
_cell_length_b   6.84647600
_cell_length_c   9.60190401
_cell_angle_alpha   90.00000000
_cell_angle_beta   89.99379167
_cell_angle_gamma   90.00000000
_symmetry_Int_Tables_number   1
_chemical_formula_structural   Tb3Dy2YNi2
_chemical_formula_sum   'Tb6 Dy4 Y2 Ni4'
_cell_volume   417.23812292
_cell_formula_units_Z   2
loop_
 _symmetry_equiv_pos_site_id
 _symmetry_equiv_pos_as_xyz
  1  'x, y, z'
loop_
 _atom_site_type_symbol
 _atom_site_label
 _atom_site_symmetry_multiplicity
 _atom_site_fract_x
 _atom_site_fract_y
 _atom_site_fract_z
 _atom_site_occupancy
  Tb  Tb0  1  0.322518  0.678121  0.066320  1
  Tb  Tb1  1  0.177482  0.178121  0.433680  1
  Tb  Tb2  1  0.677807  0.321867  0.565373  1
  Tb  Tb3  1  0.822193  0.821867  0.934627  1
  Tb  Tb4  1  0.858266  0.535276  0.250029  1
  Tb  Tb5  1  0.641734  0.035276  0.249971  1
  Dy  Dy6  1  0.677824  0.321801  0.934641  1
  Dy  Dy7  1  0.822176  0.821801  0.565359  1
  Dy  Dy8  1  0.322508  0.678160  0.433759  1
  Dy  Dy9  1  0.177492  0.178160  0.066241  1
  Y  Y10  1  0.140631  0.466381  0.750020  1
  Y  Y11  1  0.359369  0.966381  0.749980  1
  Ni  Ni12  1  0.054932  0.890617  0.250052  1
  Ni  Ni13  1  0.445068  0.390617  0.249948  1
  Ni  Ni14  1  0.940283  0.107778  0.750067  1
  Ni  Ni15  1  0.559717  0.607778  0.749933  1
