# generated using pymatgen
data_Tb5V3(Co4P3)4
_symmetry_space_group_name_H-M   'P 1'
_cell_length_a   12.08897300
_cell_length_b   12.08897249
_cell_length_c   3.68339100
_cell_angle_alpha   90.00000000
_cell_angle_beta   90.00000000
_cell_angle_gamma   119.99999319
_symmetry_Int_Tables_number   1
_chemical_formula_structural   Tb5V3(Co4P3)4
_chemical_formula_sum   'Tb5 V3 Co16 P12'
_cell_volume   466.18391098
_cell_formula_units_Z   1
loop_
 _symmetry_equiv_pos_site_id
 _symmetry_equiv_pos_as_xyz
  1  'x, y, z'
loop_
 _atom_site_type_symbol
 _atom_site_label
 _atom_site_symmetry_multiplicity
 _atom_site_fract_x
 _atom_site_fract_y
 _atom_site_fract_z
 _atom_site_occupancy
  Tb  Tb0  1  0.666667  0.333333  0.000000  1
  Tb  Tb1  1  0.333333  0.666667  0.000000  1
  Tb  Tb2  1  0.186369  0.186369  0.500000  1
  Tb  Tb3  1  0.813631  0.000000  0.500000  1
  Tb  Tb4  1  0.000000  0.813631  0.500000  1
  V  V5  1  0.557056  0.557056  0.000000  1
  V  V6  1  0.442944  0.000000  0.000000  1
  V  V7  1  0.000000  0.442944  0.000000  1
  Co  Co8  1  0.823189  0.200106  0.000000  1
  Co  Co9  1  0.799894  0.623082  0.000000  1
  Co  Co10  1  0.376918  0.176811  0.000000  1
  Co  Co11  1  0.200106  0.823189  0.000000  1
  Co  Co12  1  0.623082  0.799894  0.000000  1
  Co  Co13  1  0.176811  0.376918  0.000000  1
  Co  Co14  1  0.644334  0.125651  0.500000  1
  Co  Co15  1  0.874349  0.518683  0.500000  1
  Co  Co16  1  0.481317  0.355666  0.500000  1
  Co  Co17  1  0.125651  0.644334  0.500000  1
  Co  Co18  1  0.518683  0.874349  0.500000  1
  Co  Co19  1  0.355666  0.481317  0.500000  1
  Co  Co20  1  0.717714  0.717714  0.500000  1
  Co  Co21  1  0.282286  0.000000  0.500000  1
  Co  Co22  1  0.000000  0.282286  0.500000  1
  Co  Co23  1  0.000000  0.000000  0.000000  1
  P  P24  1  0.363919  0.363919  0.000000  1
  P  P25  1  0.636081  0.000000  0.000000  1
  P  P26  1  0.000000  0.636081  0.000000  1
  P  P27  1  0.836055  0.315853  0.500000  1
  P  P28  1  0.684147  0.520202  0.500000  1
  P  P29  1  0.479798  0.163945  0.500000  1
  P  P30  1  0.315853  0.836055  0.500000  1
  P  P31  1  0.520202  0.684147  0.500000  1
  P  P32  1  0.163945  0.479798  0.500000  1
  P  P33  1  0.820050  0.820050  0.000000  1
  P  P34  1  0.179950  0.000000  0.000000  1
  P  P35  1  0.000000  0.179950  0.000000  1
