# generated using pymatgen
data_Y4Tm3Lu3Ir4
_symmetry_space_group_name_H-M   'P 1'
_cell_length_a   6.40136817
_cell_length_b   7.21079748
_cell_length_c   8.43104236
_cell_angle_alpha   97.12200896
_cell_angle_beta   112.11345614
_cell_angle_gamma   89.96946816
_symmetry_Int_Tables_number   1
_chemical_formula_structural   Y4Tm3Lu3Ir4
_chemical_formula_sum   'Y4 Tm3 Lu3 Ir4'
_cell_volume   357.30842211
_cell_formula_units_Z   1
loop_
 _symmetry_equiv_pos_site_id
 _symmetry_equiv_pos_as_xyz
  1  'x, y, z'
loop_
 _atom_site_type_symbol
 _atom_site_label
 _atom_site_symmetry_multiplicity
 _atom_site_fract_x
 _atom_site_fract_y
 _atom_site_fract_z
 _atom_site_occupancy
  Y  Y0  1  0.974578  0.920458  0.190621  1
  Y  Y1  1  0.785962  0.581153  0.811631  1
  Y  Y2  1  0.026093  0.079235  0.810560  1
  Y  Y3  1  0.213965  0.419577  0.188598  1
  Tm  Tm4  1  0.794600  0.316436  0.440009  1
  Tm  Tm5  1  0.426613  0.750099  0.000025  1
  Tm  Tm6  1  0.573692  0.249533  0.999443  1
  Lu  Lu7  1  0.644081  0.816244  0.438998  1
  Lu  Lu8  1  0.205717  0.683435  0.560763  1
  Lu  Lu9  1  0.355444  0.183867  0.560884  1
  Ir  Ir10  1  0.818372  0.574947  0.223135  1
  Ir  Ir11  1  0.593067  0.925338  0.774772  1
  Ir  Ir12  1  0.182649  0.425580  0.777300  1
  Ir  Ir13  1  0.405170  0.074097  0.223261  1
