# generated using pymatgen
data_Zr6Sc4Al12Ir2Pt5
_symmetry_space_group_name_H-M   'P 1'
_cell_length_a   8.93614119
_cell_length_b   8.93614186
_cell_length_c   8.95108068
_cell_angle_alpha   60.00212318
_cell_angle_beta   60.00206094
_cell_angle_gamma   60.04651423
_symmetry_Int_Tables_number   1
_chemical_formula_structural   Zr6Sc4Al12Ir2Pt5
_chemical_formula_sum   'Zr6 Sc4 Al12 Ir2 Pt5'
_cell_volume   505.62289093
_cell_formula_units_Z   1
loop_
 _symmetry_equiv_pos_site_id
 _symmetry_equiv_pos_as_xyz
  1  'x, y, z'
loop_
 _atom_site_type_symbol
 _atom_site_label
 _atom_site_symmetry_multiplicity
 _atom_site_fract_x
 _atom_site_fract_y
 _atom_site_fract_z
 _atom_site_occupancy
  Zr  Zr0  1  0.681971  0.681972  0.316120  1
  Zr  Zr1  1  0.316505  0.686181  0.313868  1
  Zr  Zr2  1  0.686181  0.316506  0.313869  1
  Zr  Zr3  1  0.318165  0.318165  0.684984  1
  Zr  Zr4  1  0.682860  0.314607  0.686239  1
  Zr  Zr5  1  0.314608  0.682859  0.686241  1
  Sc  Sc6  1  0.880876  0.880878  0.358187  1
  Sc  Sc7  1  0.881539  0.359241  0.882151  1
  Sc  Sc8  1  0.359240  0.881538  0.882152  1
  Sc  Sc9  1  0.878580  0.878581  0.882917  1
  Al  Al10  1  0.120846  0.120845  0.636252  1
  Al  Al11  1  0.119769  0.635220  0.118834  1
  Al  Al12  1  0.635220  0.119769  0.118832  1
  Al  Al13  1  0.123821  0.123820  0.118159  1
  Al  Al14  1  0.663281  0.663282  0.013279  1
  Al  Al15  1  0.661380  0.013592  0.664213  1
  Al  Al16  1  0.013593  0.661380  0.664212  1
  Al  Al17  1  0.661693  0.661693  0.661932  1
  Al  Al18  1  0.335440  0.335440  0.991216  1
  Al  Al19  1  0.337394  0.990004  0.335081  1
  Al  Al20  1  0.990005  0.337394  0.335081  1
  Al  Al21  1  0.337066  0.337065  0.337192  1
  Ir  Ir22  1  0.000739  0.498648  0.001061  1
  Ir  Ir23  1  0.498648  0.000739  0.001062  1
  Pt  Pt24  1  0.000048  0.000050  0.000171  1
  Pt  Pt25  1  0.001083  0.001083  0.498108  1
  Pt  Pt26  1  0.499512  0.001013  0.498649  1
  Pt  Pt27  1  0.001014  0.499512  0.498649  1
  Pt  Pt28  1  0.498923  0.498922  0.001290  1
