# generated using pymatgen
data_Pr16Cd4Co3Ru
_symmetry_space_group_name_H-M   'P 1'
_cell_length_a   9.94933695
_cell_length_b   9.89453598
_cell_length_c   9.89453700
_cell_angle_alpha   59.99999993
_cell_angle_beta   60.18203653
_cell_angle_gamma   60.18203634
_symmetry_Int_Tables_number   1
_chemical_formula_structural   Pr16Cd4Co3Ru
_chemical_formula_sum   'Pr16 Cd4 Co3 Ru1'
_cell_volume   690.65242117
_cell_formula_units_Z   1
loop_
 _symmetry_equiv_pos_site_id
 _symmetry_equiv_pos_as_xyz
  1  'x, y, z'
loop_
 _atom_site_type_symbol
 _atom_site_label
 _atom_site_symmetry_multiplicity
 _atom_site_fract_x
 _atom_site_fract_y
 _atom_site_fract_z
 _atom_site_occupancy
  Pr  Pr0  1  0.342579  0.347473  0.347473  1
  Pr  Pr1  1  0.342579  0.347473  0.962473  1
  Pr  Pr2  1  0.342579  0.962473  0.347473  1
  Pr  Pr3  1  0.962899  0.345700  0.345700  1
  Pr  Pr4  1  0.814032  0.189090  0.189090  1
  Pr  Pr5  1  0.190026  0.810710  0.810710  1
  Pr  Pr6  1  0.190026  0.810710  0.188555  1
  Pr  Pr7  1  0.814032  0.189090  0.807789  1
  Pr  Pr8  1  0.190026  0.188555  0.810710  1
  Pr  Pr9  1  0.814032  0.807789  0.189090  1
  Pr  Pr10  1  0.937732  0.562043  0.562043  1
  Pr  Pr11  1  0.564094  0.938471  0.938471  1
  Pr  Pr12  1  0.564094  0.938471  0.558964  1
  Pr  Pr13  1  0.937732  0.562043  0.938183  1
  Pr  Pr14  1  0.564094  0.558964  0.938471  1
  Pr  Pr15  1  0.937732  0.938183  0.562043  1
  Cd  Cd16  1  0.579280  0.579095  0.579095  1
  Cd  Cd17  1  0.579280  0.579095  0.262528  1
  Cd  Cd18  1  0.579280  0.262528  0.579095  1
  Cd  Cd19  1  0.260979  0.579674  0.579674  1
  Co  Co20  1  0.137299  0.140870  0.140870  1
  Co  Co21  1  0.137299  0.140870  0.580962  1
  Co  Co22  1  0.137299  0.580962  0.140870  1
  Ru  Ru23  1  0.580999  0.139667  0.139667  1
