# generated using pymatgen
data_Pr5TiMoO12
_symmetry_space_group_name_H-M   'P 1'
_cell_length_a   7.11147162
_cell_length_b   7.11147233
_cell_length_c   7.69245352
_cell_angle_alpha   74.38582396
_cell_angle_beta   74.38581885
_cell_angle_gamma   50.87277246
_symmetry_Int_Tables_number   1
_chemical_formula_structural   Pr5TiMoO12
_chemical_formula_sum   'Pr5 Ti1 Mo1 O12'
_cell_volume   288.07298045
_cell_formula_units_Z   1
loop_
 _symmetry_equiv_pos_site_id
 _symmetry_equiv_pos_as_xyz
  1  'x, y, z'
loop_
 _atom_site_type_symbol
 _atom_site_label
 _atom_site_symmetry_multiplicity
 _atom_site_fract_x
 _atom_site_fract_y
 _atom_site_fract_z
 _atom_site_occupancy
  Pr  Pr0  1  0.314785  0.298191  0.358344  1
  Pr  Pr1  1  0.701809  0.685215  0.641656  1
  Pr  Pr2  1  0.692797  0.691838  0.167520  1
  Pr  Pr3  1  0.308162  0.307203  0.832480  1
  Pr  Pr4  1  0.002565  0.997435  0.500000  1
  Ti  Ti5  1  0.759294  0.240706  0.000000  1
  Mo  Mo6  1  0.238539  0.761461  0.000000  1
  O  O7  1  0.099848  0.593960  0.576071  1
  O  O8  1  0.990128  0.007522  0.177306  1
  O  O9  1  0.406040  0.900152  0.423929  1
  O  O10  1  0.498890  0.502873  0.174823  1
  O  O11  1  0.102192  0.584965  0.077994  1
  O  O12  1  0.909851  0.403230  0.419839  1
  O  O13  1  0.992478  0.009872  0.822694  1
  O  O14  1  0.596770  0.090148  0.580161  1
  O  O15  1  0.497127  0.501110  0.825177  1
  O  O16  1  0.578095  0.104405  0.077868  1
  O  O17  1  0.415035  0.897808  0.922006  1
  O  O18  1  0.895595  0.421905  0.922132  1
