# generated using pymatgen
data_Sr2Ac5Pr3Sn8
_symmetry_space_group_name_H-M   'P 1'
_cell_length_a   8.53928300
_cell_length_b   8.67539662
_cell_length_c   16.60887700
_cell_angle_alpha   89.70805789
_cell_angle_beta   90.00000000
_cell_angle_gamma   90.00000000
_symmetry_Int_Tables_number   1
_chemical_formula_structural   Sr2Ac5Pr3Sn8
_chemical_formula_sum   'Sr4 Ac10 Pr6 Sn16'
_cell_volume   1230.39732043
_cell_formula_units_Z   2
loop_
 _symmetry_equiv_pos_site_id
 _symmetry_equiv_pos_as_xyz
  1  'x, y, z'
loop_
 _atom_site_type_symbol
 _atom_site_label
 _atom_site_symmetry_multiplicity
 _atom_site_fract_x
 _atom_site_fract_y
 _atom_site_fract_z
 _atom_site_occupancy
  Sr  Sr0  1  0.310240  0.498607  0.750013  1
  Sr  Sr1  1  0.810240  0.001393  0.749987  1
  Sr  Sr2  1  0.690399  0.501192  0.251348  1
  Sr  Sr3  1  0.190399  0.998808  0.248652  1
  Ac  Ac4  1  0.494503  0.816143  0.906103  1
  Ac  Ac5  1  0.994503  0.683857  0.593897  1
  Ac  Ac6  1  0.505031  0.180722  0.403275  1
  Ac  Ac7  1  0.005031  0.319278  0.096725  1
  Ac  Ac8  1  0.505298  0.183860  0.096347  1
  Ac  Ac9  1  0.005298  0.316140  0.403653  1
  Ac  Ac10  1  0.492931  0.816403  0.594693  1
  Ac  Ac11  1  0.992931  0.683597  0.905307  1
  Ac  Ac12  1  0.640059  0.334611  0.882584  1
  Ac  Ac13  1  0.140059  0.165389  0.617416  1
  Pr  Pr14  1  0.360112  0.667712  0.374860  1
  Pr  Pr15  1  0.860112  0.832288  0.125140  1
  Pr  Pr16  1  0.358486  0.665601  0.120865  1
  Pr  Pr17  1  0.858486  0.834399  0.379135  1
  Pr  Pr18  1  0.644130  0.332025  0.621718  1
  Pr  Pr19  1  0.144130  0.167975  0.878282  1
  Sn  Sn20  1  0.189853  0.957924  0.037656  1
  Sn  Sn21  1  0.689853  0.542076  0.462344  1
  Sn  Sn22  1  0.794662  0.041225  0.536479  1
  Sn  Sn23  1  0.294662  0.458775  0.963521  1
  Sn  Sn24  1  0.818216  0.036835  0.965093  1
  Sn  Sn25  1  0.318216  0.463165  0.534907  1
  Sn  Sn26  1  0.195407  0.950866  0.456136  1
  Sn  Sn27  1  0.695407  0.549134  0.043864  1
  Sn  Sn28  1  0.691508  0.634000  0.749185  1
  Sn  Sn29  1  0.191508  0.866000  0.750815  1
  Sn  Sn30  1  0.308748  0.370529  0.248736  1
  Sn  Sn31  1  0.808748  0.129471  0.251264  1
  Sn  Sn32  1  0.438131  0.109628  0.752736  1
  Sn  Sn33  1  0.938131  0.390372  0.747264  1
  Sn  Sn34  1  0.562285  0.886126  0.248940  1
  Sn  Sn35  1  0.062285  0.613874  0.251060  1
