# generated using pymatgen
data_Tb2UCo2
_symmetry_space_group_name_H-M   'P 1'
_cell_length_a   5.94283736
_cell_length_b   5.94283702
_cell_length_c   5.94283691
_cell_angle_alpha   145.12956993
_cell_angle_beta   118.77523202
_cell_angle_gamma   72.43293284
_symmetry_Int_Tables_number   1
_chemical_formula_structural   Tb2UCo2
_chemical_formula_sum   'Tb2 U1 Co2'
_cell_volume   103.34639896
_cell_formula_units_Z   1
loop_
 _symmetry_equiv_pos_site_id
 _symmetry_equiv_pos_as_xyz
  1  'x, y, z'
loop_
 _atom_site_type_symbol
 _atom_site_label
 _atom_site_symmetry_multiplicity
 _atom_site_fract_x
 _atom_site_fract_y
 _atom_site_fract_z
 _atom_site_occupancy
  Tb  Tb0  1  0.695298  0.195299  0.500000  1
  Tb  Tb1  1  0.304701  0.804701  0.500000  1
  U  U2  1  0.000000  0.000000  0.000000  1
  Co  Co3  1  0.728343  0.500000  0.228343  1
  Co  Co4  1  0.271656  0.500000  0.771657  1
