# generated using pymatgen
data_Er2Tm3Zr3(Co4As3)4
_symmetry_space_group_name_H-M   'P 1'
_cell_length_a   12.70691300
_cell_length_b   12.70691335
_cell_length_c   3.81735100
_cell_angle_alpha   90.00000000
_cell_angle_beta   90.00000000
_cell_angle_gamma   120.00000690
_symmetry_Int_Tables_number   1
_chemical_formula_structural   Er2Tm3Zr3(Co4As3)4
_chemical_formula_sum   'Er2 Tm3 Zr3 Co16 As12'
_cell_volume   533.79293444
_cell_formula_units_Z   1
loop_
 _symmetry_equiv_pos_site_id
 _symmetry_equiv_pos_as_xyz
  1  'x, y, z'
loop_
 _atom_site_type_symbol
 _atom_site_label
 _atom_site_symmetry_multiplicity
 _atom_site_fract_x
 _atom_site_fract_y
 _atom_site_fract_z
 _atom_site_occupancy
  Er  Er0  1  0.333333  0.666667  0.000000  1
  Er  Er1  1  0.666667  0.333333  0.000000  1
  Tm  Tm2  1  0.182512  0.182512  0.500000  1
  Tm  Tm3  1  0.817488  0.000000  0.500000  1
  Tm  Tm4  1  0.000000  0.817488  0.500000  1
  Zr  Zr5  1  0.560827  0.560827  0.000000  1
  Zr  Zr6  1  0.439173  0.000000  0.000000  1
  Zr  Zr7  1  0.000000  0.439173  0.000000  1
  Co  Co8  1  0.720613  0.720613  0.500000  1
  Co  Co9  1  0.279387  0.000000  0.500000  1
  Co  Co10  1  0.000000  0.279387  0.500000  1
  Co  Co11  1  0.177829  0.373057  0.000000  1
  Co  Co12  1  0.626943  0.804772  0.000000  1
  Co  Co13  1  0.195228  0.822171  0.000000  1
  Co  Co14  1  0.804772  0.626943  0.000000  1
  Co  Co15  1  0.822171  0.195228  0.000000  1
  Co  Co16  1  0.373057  0.177829  0.000000  1
  Co  Co17  1  0.357334  0.480020  0.500000  1
  Co  Co18  1  0.519980  0.877316  0.500000  1
  Co  Co19  1  0.122684  0.642666  0.500000  1
  Co  Co20  1  0.877316  0.519980  0.500000  1
  Co  Co21  1  0.642666  0.122684  0.500000  1
  Co  Co22  1  0.480020  0.357334  0.500000  1
  Co  Co23  1  0.000000  0.000000  0.000000  1
  As  As24  1  0.823579  0.823579  0.000000  1
  As  As25  1  0.176421  0.000000  0.000000  1
  As  As26  1  0.000000  0.176421  0.000000  1
  As  As27  1  0.173911  0.482284  0.500000  1
  As  As28  1  0.517716  0.691627  0.500000  1
  As  As29  1  0.308373  0.826089  0.500000  1
  As  As30  1  0.691627  0.517716  0.500000  1
  As  As31  1  0.826089  0.308373  0.500000  1
  As  As32  1  0.482284  0.173911  0.500000  1
  As  As33  1  0.350911  0.350911  0.000000  1
  As  As34  1  0.649089  0.000000  0.000000  1
  As  As35  1  0.000000  0.649089  0.000000  1
