# generated using pymatgen
data_Tm4Al2B4Ir3Rh7
_symmetry_space_group_name_H-M   'P 1'
_cell_length_a   9.52200909
_cell_length_b   9.51922508
_cell_length_c   3.14246000
_cell_angle_alpha   90.00000000
_cell_angle_beta   90.00000000
_cell_angle_gamma   90.01530998
_symmetry_Int_Tables_number   1
_chemical_formula_structural   Tm4Al2B4Ir3Rh7
_chemical_formula_sum   'Tm4 Al2 B4 Ir3 Rh7'
_cell_volume   284.83931342
_cell_formula_units_Z   1
loop_
 _symmetry_equiv_pos_site_id
 _symmetry_equiv_pos_as_xyz
  1  'x, y, z'
loop_
 _atom_site_type_symbol
 _atom_site_label
 _atom_site_symmetry_multiplicity
 _atom_site_fract_x
 _atom_site_fract_y
 _atom_site_fract_z
 _atom_site_occupancy
  Tm  Tm0  1  0.178266  0.677458  0.000000  1
  Tm  Tm1  1  0.322080  0.178051  0.000000  1
  Tm  Tm2  1  0.676641  0.822917  0.000000  1
  Tm  Tm3  1  0.822652  0.322426  0.000000  1
  Al  Al4  1  0.999834  0.000091  0.000000  1
  Al  Al5  1  0.500265  0.499685  0.000000  1
  B  B6  1  0.121122  0.378307  0.000000  1
  B  B7  1  0.378467  0.878164  0.000000  1
  B  B8  1  0.621272  0.121386  0.000000  1
  B  B9  1  0.879033  0.623719  0.000000  1
  Ir  Ir10  1  0.000594  0.499339  0.500000  1
  Ir  Ir11  1  0.499000  0.000616  0.500000  1
  Ir  Ir12  1  0.931393  0.781227  0.500000  1
  Rh  Rh13  1  0.069164  0.218103  0.500000  1
  Rh  Rh14  1  0.218394  0.930951  0.500000  1
  Rh  Rh15  1  0.281879  0.430706  0.500000  1
  Rh  Rh16  1  0.430942  0.718424  0.500000  1
  Rh  Rh17  1  0.569639  0.281234  0.500000  1
  Rh  Rh18  1  0.718346  0.568489  0.500000  1
  Rh  Rh19  1  0.781018  0.068708  0.500000  1
