# generated using pymatgen
data_Y7Ho(InPt)2
_symmetry_space_group_name_H-M   'P 1'
_cell_length_a   9.75282007
_cell_length_b   9.76650516
_cell_length_c   9.75282205
_cell_angle_alpha   59.95357724
_cell_angle_beta   59.86505015
_cell_angle_gamma   59.95357760
_symmetry_Int_Tables_number   1
_chemical_formula_structural   Y7Ho(InPt)2
_chemical_formula_sum   'Y14 Ho2 In4 Pt4'
_cell_volume   655.74553218
_cell_formula_units_Z   2
loop_
 _symmetry_equiv_pos_site_id
 _symmetry_equiv_pos_as_xyz
  1  'x, y, z'
loop_
 _atom_site_type_symbol
 _atom_site_label
 _atom_site_symmetry_multiplicity
 _atom_site_fract_x
 _atom_site_fract_y
 _atom_site_fract_z
 _atom_site_occupancy
  Y  Y0  1  0.187563  0.188405  0.811841  1
  Y  Y1  1  0.600995  0.601850  0.195304  1
  Y  Y2  1  0.441009  0.058991  0.441009  1
  Y  Y3  1  0.441485  0.440557  0.059547  1
  Y  Y4  1  0.812287  0.187713  0.812287  1
  Y  Y5  1  0.188290  0.811710  0.188290  1
  Y  Y6  1  0.441485  0.058412  0.059547  1
  Y  Y7  1  0.187563  0.812191  0.811841  1
  Y  Y8  1  0.059076  0.440924  0.059076  1
  Y  Y9  1  0.811841  0.812191  0.187563  1
  Y  Y10  1  0.195304  0.601850  0.600995  1
  Y  Y11  1  0.059547  0.440557  0.441485  1
  Y  Y12  1  0.059547  0.058412  0.441485  1
  Y  Y13  1  0.811841  0.188405  0.187563  1
  Ho  Ho14  1  0.599846  0.199583  0.599846  1
  Ho  Ho15  1  0.599846  0.600724  0.599846  1
  In  In16  1  0.833491  0.834003  0.833491  1
  In  In17  1  0.832553  0.833115  0.501218  1
  In  In18  1  0.501218  0.833115  0.832553  1
  In  In19  1  0.833491  0.499014  0.833491  1
  Pt  Pt20  1  0.393535  0.820590  0.393535  1
  Pt  Pt21  1  0.393535  0.392340  0.393535  1
  Pt  Pt22  1  0.820906  0.392673  0.393747  1
  Pt  Pt23  1  0.393747  0.392673  0.820906  1
