# generated using pymatgen
data_Tb3Y5Cd2IrPt
_symmetry_space_group_name_H-M   'P 1'
_cell_length_a   9.69651564
_cell_length_b   9.69966825
_cell_length_c   9.67083952
_cell_angle_alpha   60.07672064
_cell_angle_beta   60.10911326
_cell_angle_gamma   60.35459947
_symmetry_Int_Tables_number   1
_chemical_formula_structural   Tb3Y5Cd2IrPt
_chemical_formula_sum   'Tb6 Y10 Cd4 Ir2 Pt2'
_cell_volume   645.77889311
_cell_formula_units_Z   2
loop_
 _symmetry_equiv_pos_site_id
 _symmetry_equiv_pos_as_xyz
  1  'x, y, z'
loop_
 _atom_site_type_symbol
 _atom_site_label
 _atom_site_symmetry_multiplicity
 _atom_site_fract_x
 _atom_site_fract_y
 _atom_site_fract_z
 _atom_site_occupancy
  Tb  Tb0  1  0.350213  0.350860  0.346792  1
  Tb  Tb1  1  0.350860  0.350213  0.952135  1
  Tb  Tb2  1  0.356077  0.943800  0.349760  1
  Tb  Tb3  1  0.943800  0.356077  0.350361  1
  Tb  Tb4  1  0.806718  0.190596  0.189824  1
  Tb  Tb5  1  0.190596  0.806718  0.812862  1
  Y  Y6  1  0.191034  0.805966  0.190791  1
  Y  Y7  1  0.805966  0.191034  0.812209  1
  Y  Y8  1  0.191895  0.191895  0.808105  1
  Y  Y9  1  0.810771  0.810771  0.189229  1
  Y  Y10  1  0.937967  0.564580  0.561375  1
  Y  Y11  1  0.564580  0.937967  0.936078  1
  Y  Y12  1  0.564623  0.937971  0.561335  1
  Y  Y13  1  0.937971  0.564623  0.936070  1
  Y  Y14  1  0.563106  0.563106  0.936894  1
  Y  Y15  1  0.937422  0.937422  0.562578  1
  Cd  Cd16  1  0.581648  0.580888  0.581970  1
  Cd  Cd17  1  0.580888  0.581648  0.255495  1
  Cd  Cd18  1  0.580348  0.255734  0.582361  1
  Cd  Cd19  1  0.255734  0.580348  0.581559  1
  Ir  Ir20  1  0.141807  0.572277  0.142373  1
  Ir  Ir21  1  0.572277  0.141807  0.143543  1
  Pt  Pt22  1  0.141413  0.142288  0.145038  1
  Pt  Pt23  1  0.142288  0.141413  0.571261  1
