# generated using pymatgen
data_Y4Er12MgAg3Rh4
_symmetry_space_group_name_H-M   'P 1'
_cell_length_a   9.50679509
_cell_length_b   9.52216923
_cell_length_c   9.51851597
_cell_angle_alpha   60.15880305
_cell_angle_beta   60.09630251
_cell_angle_gamma   60.06418430
_symmetry_Int_Tables_number   1
_chemical_formula_structural   Y4Er12MgAg3Rh4
_chemical_formula_sum   'Y4 Er12 Mg1 Ag3 Rh4'
_cell_volume   610.75870275
_cell_formula_units_Z   1
loop_
 _symmetry_equiv_pos_site_id
 _symmetry_equiv_pos_as_xyz
  1  'x, y, z'
loop_
 _atom_site_type_symbol
 _atom_site_label
 _atom_site_symmetry_multiplicity
 _atom_site_fract_x
 _atom_site_fract_y
 _atom_site_fract_z
 _atom_site_occupancy
  Y  Y0  1  0.814503  0.185311  0.815212  1
  Y  Y1  1  0.184878  0.813371  0.184460  1
  Y  Y2  1  0.814492  0.815204  0.185238  1
  Y  Y3  1  0.185083  0.184195  0.813389  1
  Er  Er4  1  0.604089  0.599002  0.598555  1
  Er  Er5  1  0.598018  0.599729  0.205721  1
  Er  Er6  1  0.598280  0.205247  0.599691  1
  Er  Er7  1  0.186068  0.604086  0.603789  1
  Er  Er8  1  0.060523  0.437193  0.437026  1
  Er  Er9  1  0.434293  0.064210  0.063857  1
  Er  Er10  1  0.435942  0.063170  0.436212  1
  Er  Er11  1  0.059127  0.437931  0.060475  1
  Er  Er12  1  0.435873  0.436269  0.063010  1
  Er  Er13  1  0.059080  0.060736  0.437700  1
  Er  Er14  1  0.187059  0.809912  0.809977  1
  Er  Er15  1  0.813356  0.187460  0.187165  1
  Mg  Mg16  1  0.540751  0.819626  0.822207  1
  Ag  Ag17  1  0.832669  0.833968  0.834397  1
  Ag  Ag18  1  0.833091  0.837486  0.498517  1
  Ag  Ag19  1  0.833461  0.498288  0.837450  1
  Rh  Rh20  1  0.388638  0.393800  0.393969  1
  Rh  Rh21  1  0.389307  0.400590  0.819988  1
  Rh  Rh22  1  0.389307  0.821064  0.399700  1
  Rh  Rh23  1  0.822114  0.392155  0.392293  1
