# generated using pymatgen
data_Tb4TmRh2
_symmetry_space_group_name_H-M   'P 1'
_cell_length_a   6.41222543
_cell_length_b   7.13812332
_cell_length_c   8.67470896
_cell_angle_alpha   96.89125908
_cell_angle_beta   111.69052186
_cell_angle_gamma   89.99999803
_symmetry_Int_Tables_number   1
_chemical_formula_structural   Tb4TmRh2
_chemical_formula_sum   'Tb8 Tm2 Rh4'
_cell_volume   365.84972668
_cell_formula_units_Z   2
loop_
 _symmetry_equiv_pos_site_id
 _symmetry_equiv_pos_as_xyz
  1  'x, y, z'
loop_
 _atom_site_type_symbol
 _atom_site_label
 _atom_site_symmetry_multiplicity
 _atom_site_fract_x
 _atom_site_fract_y
 _atom_site_fract_z
 _atom_site_occupancy
  Tb  Tb0  1  0.792448  0.081226  0.812968  1
  Tb  Tb1  1  0.979480  0.418774  0.187032  1
  Tb  Tb2  1  0.207552  0.918774  0.187032  1
  Tb  Tb3  1  0.020520  0.581226  0.812968  1
  Tb  Tb4  1  0.209965  0.188306  0.564373  1
  Tb  Tb5  1  0.645592  0.311694  0.435627  1
  Tb  Tb6  1  0.790035  0.811694  0.435627  1
  Tb  Tb7  1  0.354408  0.688306  0.564373  1
  Tm  Tm8  1  0.425674  0.250000  0.000000  1
  Tm  Tm9  1  0.574326  0.750000  0.000000  1
  Rh  Rh10  1  0.595174  0.426769  0.782324  1
  Rh  Rh11  1  0.812849  0.073231  0.217676  1
  Rh  Rh12  1  0.404826  0.573231  0.217676  1
  Rh  Rh13  1  0.187151  0.926769  0.782324  1
