# generated using pymatgen
data_Ta2Al(Co10B3)2
_symmetry_space_group_name_H-M   'P 1'
_cell_length_a   7.42952305
_cell_length_b   7.42952359
_cell_length_c   7.42952500
_cell_angle_alpha   60.00000709
_cell_angle_beta   60.00000467
_cell_angle_gamma   60.00000296
_symmetry_Int_Tables_number   1
_chemical_formula_structural   Ta2Al(Co10B3)2
_chemical_formula_sum   'Ta2 Al1 Co20 B6'
_cell_volume   289.97996914
_cell_formula_units_Z   1
loop_
 _symmetry_equiv_pos_site_id
 _symmetry_equiv_pos_as_xyz
  1  'x, y, z'
loop_
 _atom_site_type_symbol
 _atom_site_label
 _atom_site_symmetry_multiplicity
 _atom_site_fract_x
 _atom_site_fract_y
 _atom_site_fract_z
 _atom_site_occupancy
  Ta  Ta0  1  0.250000  0.250000  0.250000  1
  Ta  Ta1  1  0.750000  0.750000  0.750000  1
  Al  Al2  1  0.000000  0.000000  0.000000  1
  Co  Co3  1  0.849163  0.383613  0.383613  1
  Co  Co4  1  0.383613  0.849163  0.383613  1
  Co  Co5  1  0.383613  0.383613  0.849163  1
  Co  Co6  1  0.383613  0.383613  0.383613  1
  Co  Co7  1  0.150837  0.616387  0.616387  1
  Co  Co8  1  0.616387  0.150837  0.616387  1
  Co  Co9  1  0.616387  0.616387  0.150837  1
  Co  Co10  1  0.616387  0.616387  0.616387  1
  Co  Co11  1  0.659075  0.000000  0.000000  1
  Co  Co12  1  0.659075  0.000000  0.340925  1
  Co  Co13  1  0.659075  0.340925  0.000000  1
  Co  Co14  1  0.000000  0.659075  0.340925  1
  Co  Co15  1  0.000000  0.659075  0.000000  1
  Co  Co16  1  0.340925  0.659075  0.000000  1
  Co  Co17  1  0.000000  0.340925  0.659075  1
  Co  Co18  1  0.340925  0.000000  0.659075  1
  Co  Co19  1  0.000000  0.000000  0.659075  1
  Co  Co20  1  0.340925  0.000000  0.000000  1
  Co  Co21  1  0.000000  0.340925  0.000000  1
  Co  Co22  1  0.000000  0.000000  0.340925  1
  B  B23  1  0.725039  0.274961  0.274961  1
  B  B24  1  0.725039  0.274961  0.725039  1
  B  B25  1  0.725039  0.725039  0.274961  1
  B  B26  1  0.274961  0.725039  0.725039  1
  B  B27  1  0.274961  0.725039  0.274961  1
  B  B28  1  0.274961  0.274961  0.725039  1
