# generated using pymatgen
data_Nd4Ga10CuPd5
_symmetry_space_group_name_H-M   'P 1'
_cell_length_a   8.74586535
_cell_length_b   8.74586624
_cell_length_c   5.82075200
_cell_angle_alpha   70.59747063
_cell_angle_beta   70.59746856
_cell_angle_gamma   95.03090047
_symmetry_Int_Tables_number   1
_chemical_formula_structural   Nd4Ga10CuPd5
_chemical_formula_sum   'Nd4 Ga10 Cu1 Pd5'
_cell_volume   386.15540050
_cell_formula_units_Z   1
loop_
 _symmetry_equiv_pos_site_id
 _symmetry_equiv_pos_as_xyz
  1  'x, y, z'
loop_
 _atom_site_type_symbol
 _atom_site_label
 _atom_site_symmetry_multiplicity
 _atom_site_fract_x
 _atom_site_fract_y
 _atom_site_fract_z
 _atom_site_occupancy
  Nd  Nd0  1  0.864990  0.589059  0.774875  1
  Nd  Nd1  1  0.410941  0.135010  0.725125  1
  Nd  Nd2  1  0.134729  0.411533  0.229947  1
  Nd  Nd3  1  0.588467  0.865271  0.270053  1
  Ga  Ga4  1  0.067050  0.261565  0.840892  1
  Ga  Ga5  1  0.738435  0.932950  0.659108  1
  Ga  Ga6  1  0.933316  0.738094  0.169404  1
  Ga  Ga7  1  0.261906  0.066684  0.330596  1
  Ga  Ga8  1  0.208725  0.791275  0.750000  1
  Ga  Ga9  1  0.790119  0.209881  0.250000  1
  Ga  Ga10  1  0.500493  0.499507  0.750000  1
  Ga  Ga11  1  0.499591  0.500409  0.250000  1
  Ga  Ga12  1  0.790801  0.209199  0.750000  1
  Ga  Ga13  1  0.210118  0.789882  0.250000  1
  Cu  Cu14  1  0.000101  0.999899  0.250000  1
  Pd  Pd15  1  0.261817  0.547337  0.599345  1
  Pd  Pd16  1  0.452663  0.738183  0.900655  1
  Pd  Pd17  1  0.738328  0.452873  0.405458  1
  Pd  Pd18  1  0.547127  0.261672  0.094542  1
  Pd  Pd19  1  0.000284  0.999716  0.750000  1
