# generated using pymatgen
data_LuScP7IrRu11
_symmetry_space_group_name_H-M   'P 1'
_cell_length_a   9.34632610
_cell_length_b   9.39237224
_cell_length_c   3.92673300
_cell_angle_alpha   90.00000000
_cell_angle_beta   90.00000000
_cell_angle_gamma   119.69106594
_symmetry_Int_Tables_number   1
_chemical_formula_structural   LuScP7IrRu11
_chemical_formula_sum   'Lu1 Sc1 P7 Ir1 Ru11'
_cell_volume   299.44826361
_cell_formula_units_Z   1
loop_
 _symmetry_equiv_pos_site_id
 _symmetry_equiv_pos_as_xyz
  1  'x, y, z'
loop_
 _atom_site_type_symbol
 _atom_site_label
 _atom_site_symmetry_multiplicity
 _atom_site_fract_x
 _atom_site_fract_y
 _atom_site_fract_z
 _atom_site_occupancy
  Lu  Lu0  1  0.331451  0.663560  0.000000  1
  Sc  Sc1  1  0.667583  0.334881  0.500000  1
  P  P2  1  0.598288  0.713851  0.500000  1
  P  P3  1  0.999471  0.000309  0.000000  1
  P  P4  1  0.277279  0.877764  0.500000  1
  P  P5  1  0.119565  0.401327  0.500000  1
  P  P6  1  0.883349  0.574203  0.000000  1
  P  P7  1  0.428868  0.310263  0.000000  1
  P  P8  1  0.695220  0.122858  0.000000  1
  Ir  Ir9  1  0.549339  0.941806  0.500000  1
  Ru  Ru10  1  0.392789  0.443917  0.500000  1
  Ru  Ru11  1  0.913352  0.124352  0.500000  1
  Ru  Ru12  1  0.210195  0.085926  0.500000  1
  Ru  Ru13  1  0.876391  0.792477  0.500000  1
  Ru  Ru14  1  0.725764  0.893332  0.000000  1
  Ru  Ru15  1  0.109470  0.836096  0.000000  1
  Ru  Ru16  1  0.164943  0.272165  0.000000  1
  Ru  Ru17  1  0.431203  0.070654  0.000000  1
  Ru  Ru18  1  0.932615  0.360453  0.000000  1
  Ru  Ru19  1  0.641556  0.573481  0.000000  1
  Ru  Ru20  1  0.051308  0.606323  0.500000  1
