# generated using pymatgen
data_Nd14Th2Cd4Co3Ir
_symmetry_space_group_name_H-M   'P 1'
_cell_length_a   9.88245989
_cell_length_b   9.84743028
_cell_length_c   9.89754600
_cell_angle_alpha   59.83150000
_cell_angle_beta   59.94948244
_cell_angle_gamma   60.21981605
_symmetry_Int_Tables_number   1
_chemical_formula_structural   Nd14Th2Cd4Co3Ir
_chemical_formula_sum   'Nd14 Th2 Cd4 Co3 Ir1'
_cell_volume   681.07137189
_cell_formula_units_Z   1
loop_
 _symmetry_equiv_pos_site_id
 _symmetry_equiv_pos_as_xyz
  1  'x, y, z'
loop_
 _atom_site_type_symbol
 _atom_site_label
 _atom_site_symmetry_multiplicity
 _atom_site_fract_x
 _atom_site_fract_y
 _atom_site_fract_z
 _atom_site_occupancy
  Nd  Nd0  1  0.343067  0.955572  0.350680  1
  Nd  Nd1  1  0.957989  0.347503  0.347254  1
  Nd  Nd2  1  0.815733  0.189497  0.189562  1
  Nd  Nd3  1  0.190933  0.809794  0.810583  1
  Nd  Nd4  1  0.190933  0.809794  0.188690  1
  Nd  Nd5  1  0.815733  0.189497  0.805208  1
  Nd  Nd6  1  0.190409  0.188190  0.810700  1
  Nd  Nd7  1  0.814638  0.804850  0.190256  1
  Nd  Nd8  1  0.939865  0.561277  0.564316  1
  Nd  Nd9  1  0.559581  0.943500  0.936840  1
  Nd  Nd10  1  0.559581  0.943500  0.560079  1
  Nd  Nd11  1  0.939865  0.561277  0.934541  1
  Nd  Nd12  1  0.560263  0.558796  0.940471  1
  Nd  Nd13  1  0.936132  0.938039  0.562914  1
  Th  Th14  1  0.334765  0.344977  0.348596  1
  Th  Th15  1  0.334765  0.344977  0.971661  1
  Cd  Cd16  1  0.579138  0.578719  0.581296  1
  Cd  Cd17  1  0.579138  0.578719  0.260847  1
  Cd  Cd18  1  0.579135  0.259897  0.580483  1
  Cd  Cd19  1  0.258158  0.578974  0.581434  1
  Co  Co20  1  0.148133  0.149962  0.132788  1
  Co  Co21  1  0.148133  0.149962  0.569116  1
  Co  Co22  1  0.155502  0.563720  0.140389  1
  Ir  Ir23  1  0.568406  0.149008  0.141293  1
