# generated using pymatgen
data_Dy7RhI12
_symmetry_space_group_name_H-M   'P 1'
_cell_length_a   9.80910320
_cell_length_b   9.80910340
_cell_length_c   9.80910351
_cell_angle_alpha   106.94124963
_cell_angle_beta   106.94125185
_cell_angle_gamma   106.94124693
_symmetry_Int_Tables_number   1
_chemical_formula_structural   Dy7RhI12
_chemical_formula_sum   'Dy7 Rh1 I12'
_cell_volume   787.27639781
_cell_formula_units_Z   1
loop_
 _symmetry_equiv_pos_site_id
 _symmetry_equiv_pos_as_xyz
  1  'x, y, z'
loop_
 _atom_site_type_symbol
 _atom_site_label
 _atom_site_symmetry_multiplicity
 _atom_site_fract_x
 _atom_site_fract_y
 _atom_site_fract_z
 _atom_site_occupancy
  Dy  Dy0  1  0.500000  0.500000  0.500000  1
  Dy  Dy1  1  0.905533  0.976754  0.704705  1
  Dy  Dy2  1  0.976754  0.704705  0.905533  1
  Dy  Dy3  1  0.704705  0.905533  0.976754  1
  Dy  Dy4  1  0.094467  0.023246  0.295295  1
  Dy  Dy5  1  0.023246  0.295295  0.094467  1
  Dy  Dy6  1  0.295295  0.094467  0.023246  1
  Rh  Rh7  1  0.000000  0.000000  0.000000  1
  I  I8  1  0.535086  0.837184  0.612294  1
  I  I9  1  0.837184  0.612294  0.535086  1
  I  I10  1  0.612294  0.535086  0.837184  1
  I  I11  1  0.464914  0.162816  0.387706  1
  I  I12  1  0.162816  0.387706  0.464914  1
  I  I13  1  0.387706  0.464914  0.162816  1
  I  I14  1  0.676341  0.224291  0.070660  1
  I  I15  1  0.224291  0.070660  0.676341  1
  I  I16  1  0.070660  0.676341  0.224291  1
  I  I17  1  0.323659  0.775709  0.929340  1
  I  I18  1  0.775709  0.929340  0.323659  1
  I  I19  1  0.929340  0.323659  0.775709  1
