# generated using pymatgen
data_ErPa3O8
_symmetry_space_group_name_H-M   'P 1'
_cell_length_a   5.43089605
_cell_length_b   5.43089605
_cell_length_c   5.43089605
_cell_angle_alpha   90.01073936
_cell_angle_beta   90.01073936
_cell_angle_gamma   90.01073936
_symmetry_Int_Tables_number   1
_chemical_formula_structural   ErPa3O8
_chemical_formula_sum   'Er1 Pa3 O8'
_cell_volume   160.18227127
_cell_formula_units_Z   1
loop_
 _symmetry_equiv_pos_site_id
 _symmetry_equiv_pos_as_xyz
  1  'x, y, z'
loop_
 _atom_site_type_symbol
 _atom_site_label
 _atom_site_symmetry_multiplicity
 _atom_site_fract_x
 _atom_site_fract_y
 _atom_site_fract_z
 _atom_site_occupancy
  Er  Er0  1  0.000000  0.000000  0.000000  1
  Pa  Pa1  1  0.499999  0.000000  0.499999  1
  Pa  Pa2  1  0.499999  0.499999  0.000000  1
  Pa  Pa3  1  0.000000  0.499999  0.499999  1
  O  O4  1  0.252499  0.252499  0.252499  1
  O  O5  1  0.249591  0.747239  0.750505  1
  O  O6  1  0.750505  0.249591  0.747239  1
  O  O7  1  0.747239  0.750505  0.249591  1
  O  O8  1  0.747498  0.747498  0.747498  1
  O  O9  1  0.750411  0.252758  0.249497  1
  O  O10  1  0.249497  0.750411  0.252758  1
  O  O11  1  0.252758  0.249497  0.750411  1
