# generated using pymatgen
data_Ho3PdRuRh
_symmetry_space_group_name_H-M   'P 1'
_cell_length_a   3.41903100
_cell_length_b   3.41903100
_cell_length_c   10.41689700
_cell_angle_alpha   90.00000000
_cell_angle_beta   90.00000000
_cell_angle_gamma   90.00000000
_symmetry_Int_Tables_number   1
_chemical_formula_structural   Ho3PdRuRh
_chemical_formula_sum   'Ho3 Pd1 Ru1 Rh1'
_cell_volume   121.77116108
_cell_formula_units_Z   1
loop_
 _symmetry_equiv_pos_site_id
 _symmetry_equiv_pos_as_xyz
  1  'x, y, z'
loop_
 _atom_site_type_symbol
 _atom_site_label
 _atom_site_symmetry_multiplicity
 _atom_site_fract_x
 _atom_site_fract_y
 _atom_site_fract_z
 _atom_site_occupancy
  Ho  Ho0  1  0.000000  0.000000  0.995452  1
  Ho  Ho1  1  0.000000  0.000000  0.325540  1
  Ho  Ho2  1  0.000000  0.000000  0.677756  1
  Pd  Pd3  1  0.500001  0.500001  0.498524  1
  Ru  Ru4  1  0.500001  0.500001  0.832705  1
  Rh  Rh5  1  0.500001  0.500001  0.170022  1
