# generated using pymatgen
data_Li2Y3ScPt3
_symmetry_space_group_name_H-M   'P 1'
_cell_length_a   7.27447700
_cell_length_b   7.31053223
_cell_length_c   4.11678400
_cell_angle_alpha   90.00000000
_cell_angle_beta   90.00000000
_cell_angle_gamma   119.83698131
_symmetry_Int_Tables_number   1
_chemical_formula_structural   Li2Y3ScPt3
_chemical_formula_sum   'Li2 Y3 Sc1 Pt3'
_cell_volume   189.91118848
_cell_formula_units_Z   1
loop_
 _symmetry_equiv_pos_site_id
 _symmetry_equiv_pos_as_xyz
  1  'x, y, z'
loop_
 _atom_site_type_symbol
 _atom_site_label
 _atom_site_symmetry_multiplicity
 _atom_site_fract_x
 _atom_site_fract_y
 _atom_site_fract_z
 _atom_site_occupancy
  Li  Li0  1  0.245316  0.247688  0.000000  1
  Li  Li1  1  0.997627  0.752312  0.000000  1
  Y  Y2  1  0.390364  0.000000  0.500000  1
  Y  Y3  1  0.014693  0.426608  0.500000  1
  Y  Y4  1  0.588086  0.573392  0.500000  1
  Sc  Sc5  1  0.758072  0.000000  0.000000  1
  Pt  Pt6  1  0.988210  0.000000  0.500000  1
  Pt  Pt7  1  0.669519  0.321405  0.000000  1
  Pt  Pt8  1  0.348114  0.678595  0.000000  1
