# generated using pymatgen
data_Th8AlSi11Ir4
_symmetry_space_group_name_H-M   'P 1'
_cell_length_a   8.29454500
_cell_length_b   8.29454556
_cell_length_c   8.50337500
_cell_angle_alpha   89.99975132
_cell_angle_beta   90.00024868
_cell_angle_gamma   119.99045462
_symmetry_Int_Tables_number   1
_chemical_formula_structural   Th8AlSi11Ir4
_chemical_formula_sum   'Th8 Al1 Si11 Ir4'
_cell_volume   506.69765372
_cell_formula_units_Z   1
loop_
 _symmetry_equiv_pos_site_id
 _symmetry_equiv_pos_as_xyz
  1  'x, y, z'
loop_
 _atom_site_type_symbol
 _atom_site_label
 _atom_site_symmetry_multiplicity
 _atom_site_fract_x
 _atom_site_fract_y
 _atom_site_fract_z
 _atom_site_occupancy
  Th  Th0  1  0.500741  0.499259  0.751262  1
  Th  Th1  1  0.500863  0.499137  0.248729  1
  Th  Th2  1  0.000996  0.501970  0.750013  1
  Th  Th3  1  0.000724  0.501813  0.249977  1
  Th  Th4  1  0.498030  0.999004  0.750013  1
  Th  Th5  1  0.498187  0.999276  0.249977  1
  Th  Th6  1  0.001300  0.998700  0.748813  1
  Th  Th7  1  0.001278  0.998722  0.251188  1
  Al  Al8  1  0.832818  0.167182  0.999870  1
  Si  Si9  1  0.166431  0.833569  0.000121  1
  Si  Si10  1  0.331948  0.165667  0.999880  1
  Si  Si11  1  0.166573  0.833427  0.499853  1
  Si  Si12  1  0.666891  0.830518  0.000127  1
  Si  Si13  1  0.833630  0.166370  0.500164  1
  Si  Si14  1  0.834333  0.668052  0.999880  1
  Si  Si15  1  0.667173  0.833404  0.499867  1
  Si  Si16  1  0.169482  0.333109  0.000127  1
  Si  Si17  1  0.333239  0.166796  0.500121  1
  Si  Si18  1  0.166596  0.332827  0.499867  1
  Si  Si19  1  0.833204  0.666761  0.500121  1
  Ir  Ir20  1  0.662426  0.337574  0.999871  1
  Ir  Ir21  1  0.332890  0.667110  0.000138  1
  Ir  Ir22  1  0.333611  0.666389  0.499895  1
  Ir  Ir23  1  0.666634  0.333366  0.500128  1
