# generated using pymatgen
data_Yb4GaSnPt4
_symmetry_space_group_name_H-M   'P 1'
_cell_length_a   5.67099681
_cell_length_b   5.67099571
_cell_length_c   8.05701601
_cell_angle_alpha   77.87895327
_cell_angle_beta   77.87895571
_cell_angle_gamma   59.16860443
_symmetry_Int_Tables_number   1
_chemical_formula_structural   Yb4GaSnPt4
_chemical_formula_sum   'Yb4 Ga1 Sn1 Pt4'
_cell_volume   215.91355472
_cell_formula_units_Z   1
loop_
 _symmetry_equiv_pos_site_id
 _symmetry_equiv_pos_as_xyz
  1  'x, y, z'
loop_
 _atom_site_type_symbol
 _atom_site_label
 _atom_site_symmetry_multiplicity
 _atom_site_fract_x
 _atom_site_fract_y
 _atom_site_fract_z
 _atom_site_occupancy
  Yb  Yb0  1  0.792837  0.506087  0.851009  1
  Yb  Yb1  1  0.493913  0.207163  0.648991  1
  Yb  Yb2  1  0.204258  0.496415  0.150099  1
  Yb  Yb3  1  0.503585  0.795742  0.349901  1
  Ga  Ga4  1  0.862654  0.137346  0.250000  1
  Sn  Sn5  1  0.157807  0.842193  0.750000  1
  Pt  Pt6  1  0.994489  0.731173  0.492432  1
  Pt  Pt7  1  0.268827  0.005511  0.007568  1
  Pt  Pt8  1  0.988488  0.266856  0.489338  1
  Pt  Pt9  1  0.733144  0.011512  0.010662  1
