# generated using pymatgen
data_Y3HoTm4(B6Os)4
_symmetry_space_group_name_H-M   'P 1'
_cell_length_a   3.63074400
_cell_length_b   9.10429000
_cell_length_c   11.49076300
_cell_angle_alpha   89.99923217
_cell_angle_beta   90.00000000
_cell_angle_gamma   90.00000000
_symmetry_Int_Tables_number   1
_chemical_formula_structural   Y3HoTm4(B6Os)4
_chemical_formula_sum   'Y3 Ho1 Tm4 B24 Os4'
_cell_volume   379.83115010
_cell_formula_units_Z   1
loop_
 _symmetry_equiv_pos_site_id
 _symmetry_equiv_pos_as_xyz
  1  'x, y, z'
loop_
 _atom_site_type_symbol
 _atom_site_label
 _atom_site_symmetry_multiplicity
 _atom_site_fract_x
 _atom_site_fract_y
 _atom_site_fract_z
 _atom_site_occupancy
  Y  Y0  1  0.000000  0.321462  0.413930  1
  Y  Y1  1  0.000000  0.678555  0.586078  1
  Y  Y2  1  0.000000  0.821485  0.086048  1
  Ho  Ho3  1  0.000000  0.178449  0.913971  1
  Tm  Tm4  1  0.000000  0.944066  0.372960  1
  Tm  Tm5  1  0.000000  0.055985  0.627093  1
  Tm  Tm6  1  0.000000  0.443961  0.126928  1
  Tm  Tm7  1  0.000000  0.555842  0.872996  1
  B  B8  1  0.500000  0.554253  0.432816  1
  B  B9  1  0.500000  0.445724  0.567222  1
  B  B10  1  0.500000  0.054420  0.066911  1
  B  B11  1  0.500000  0.946081  0.932819  1
  B  B12  1  0.500000  0.748949  0.419535  1
  B  B13  1  0.500000  0.251068  0.580524  1
  B  B14  1  0.500000  0.248834  0.080110  1
  B  B15  1  0.500000  0.751127  0.919518  1
  B  B16  1  0.500000  0.791522  0.266475  1
  B  B17  1  0.500000  0.208388  0.733804  1
  B  B18  1  0.500000  0.291482  0.233452  1
  B  B19  1  0.500000  0.708525  0.766513  1
  B  B20  1  0.500000  0.630954  0.185009  1
  B  B21  1  0.500000  0.368729  0.815179  1
  B  B22  1  0.500000  0.130978  0.314949  1
  B  B23  1  0.500000  0.869083  0.685066  1
  B  B24  1  0.500000  0.982961  0.213506  1
  B  B25  1  0.500000  0.017412  0.786643  1
  B  B26  1  0.500000  0.482899  0.286428  1
  B  B27  1  0.500000  0.517023  0.713589  1
  B  B28  1  0.500000  0.605575  0.029167  1
  B  B29  1  0.500000  0.394018  0.970720  1
  B  B30  1  0.500000  0.105551  0.470840  1
  B  B31  1  0.500000  0.894466  0.529169  1
  Os  Os32  1  0.000000  0.637834  0.320686  1
  Os  Os33  1  0.000000  0.361997  0.679498  1
  Os  Os34  1  0.000000  0.137847  0.179025  1
  Os  Os35  1  0.000000  0.862492  0.820820  1
