# generated using pymatgen
data_YErSc2(Ga3Rh)6
_symmetry_space_group_name_H-M   'P 1'
_cell_length_a   7.52398318
_cell_length_b   7.52617449
_cell_length_c   9.46623900
_cell_angle_alpha   90.00000000
_cell_angle_beta   90.00000000
_cell_angle_gamma   119.76156148
_symmetry_Int_Tables_number   1
_chemical_formula_structural   YErSc2(Ga3Rh)6
_chemical_formula_sum   'Y1 Er1 Sc2 Ga18 Rh6'
_cell_volume   465.33814465
_cell_formula_units_Z   1
loop_
 _symmetry_equiv_pos_site_id
 _symmetry_equiv_pos_as_xyz
  1  'x, y, z'
loop_
 _atom_site_type_symbol
 _atom_site_label
 _atom_site_symmetry_multiplicity
 _atom_site_fract_x
 _atom_site_fract_y
 _atom_site_fract_z
 _atom_site_occupancy
  Y  Y0  1  0.996867  0.668948  0.250000  1
  Er  Er1  1  0.669183  0.997003  0.250000  1
  Sc  Sc2  1  0.000502  0.330059  0.750000  1
  Sc  Sc3  1  0.330138  0.000871  0.750000  1
  Ga  Ga4  1  0.126439  0.127188  0.250000  1
  Ga  Ga5  1  0.879757  0.880065  0.750000  1
  Ga  Ga6  1  0.001950  0.334315  0.075448  1
  Ga  Ga7  1  0.004259  0.664773  0.911775  1
  Ga  Ga8  1  0.004259  0.664773  0.588225  1
  Ga  Ga9  1  0.335813  0.002656  0.424343  1
  Ga  Ga10  1  0.001950  0.334315  0.424552  1
  Ga  Ga11  1  0.664964  0.004409  0.587572  1
  Ga  Ga12  1  0.664964  0.004409  0.912428  1
  Ga  Ga13  1  0.335813  0.002656  0.075657  1
  Ga  Ga14  1  0.327296  0.327485  0.575716  1
  Ga  Ga15  1  0.666012  0.666567  0.441079  1
  Ga  Ga16  1  0.666012  0.666567  0.058921  1
  Ga  Ga17  1  0.327296  0.327485  0.924284  1
  Ga  Ga18  1  0.340609  0.548341  0.250000  1
  Ga  Ga19  1  0.660287  0.445200  0.750000  1
  Ga  Ga20  1  0.547471  0.338990  0.250000  1
  Ga  Ga21  1  0.445088  0.660755  0.750000  1
  Rh  Rh22  1  0.672815  0.329216  0.999077  1
  Rh  Rh23  1  0.329265  0.672801  0.999248  1
  Rh  Rh24  1  0.329265  0.672801  0.500752  1
  Rh  Rh25  1  0.672815  0.329216  0.500923  1
  Rh  Rh26  1  0.999455  0.999064  0.998838  1
  Rh  Rh27  1  0.999455  0.999064  0.501162  1
