# generated using pymatgen
data_Tb13DyEr2(InIr)4
_symmetry_space_group_name_H-M   'P 1'
_cell_length_a   9.70148588
_cell_length_b   9.69325877
_cell_length_c   9.68886706
_cell_angle_alpha   60.04360563
_cell_angle_beta   59.97215289
_cell_angle_gamma   59.99325547
_symmetry_Int_Tables_number   1
_chemical_formula_structural   Tb13DyEr2(InIr)4
_chemical_formula_sum   'Tb13 Dy1 Er2 In4 Ir4'
_cell_volume   644.31061872
_cell_formula_units_Z   1
loop_
 _symmetry_equiv_pos_site_id
 _symmetry_equiv_pos_as_xyz
  1  'x, y, z'
loop_
 _atom_site_type_symbol
 _atom_site_label
 _atom_site_symmetry_multiplicity
 _atom_site_fract_x
 _atom_site_fract_y
 _atom_site_fract_z
 _atom_site_occupancy
  Tb  Tb0  1  0.309922  0.690662  0.311050  1
  Tb  Tb1  1  0.939815  0.559523  0.559419  1
  Tb  Tb2  1  0.310109  0.311546  0.690234  1
  Tb  Tb3  1  0.097635  0.098571  0.098410  1
  Tb  Tb4  1  0.559135  0.558891  0.939809  1
  Tb  Tb5  1  0.099653  0.100435  0.702047  1
  Tb  Tb6  1  0.690242  0.311004  0.689496  1
  Tb  Tb7  1  0.690663  0.689906  0.310430  1
  Tb  Tb8  1  0.690869  0.310934  0.310556  1
  Tb  Tb9  1  0.308947  0.691110  0.691052  1
  Tb  Tb10  1  0.559465  0.939532  0.559103  1
  Tb  Tb11  1  0.702750  0.099849  0.099733  1
  Tb  Tb12  1  0.559582  0.939759  0.939917  1
  Dy  Dy13  1  0.099660  0.702340  0.100326  1
  Er  Er14  1  0.940767  0.939633  0.559035  1
  Er  Er15  1  0.941053  0.558750  0.940029  1
  In  In16  1  0.332918  0.333255  0.332965  1
  In  In17  1  0.001700  0.332531  0.332318  1
  In  In18  1  0.332401  0.001787  0.332358  1
  In  In19  1  0.332422  0.332561  0.001728  1
  Ir  Ir20  1  0.892644  0.889046  0.890375  1
  Ir  Ir21  1  0.891482  0.891218  0.326289  1
  Ir  Ir22  1  0.325121  0.890382  0.891479  1
  Ir  Ir23  1  0.891045  0.326772  0.891842  1
