# generated using pymatgen
data_Tm2Lu2FeSi4Rh
_symmetry_space_group_name_H-M   'P 1'
_cell_length_a   5.55606251
_cell_length_b   5.55606154
_cell_length_c   9.85153743
_cell_angle_alpha   63.62864006
_cell_angle_beta   63.62864631
_cell_angle_gamma   43.79018347
_symmetry_Int_Tables_number   1
_chemical_formula_structural   Tm2Lu2FeSi4Rh
_chemical_formula_sum   'Tm2 Lu2 Fe1 Si4 Rh1'
_cell_volume   184.77172911
_cell_formula_units_Z   1
loop_
 _symmetry_equiv_pos_site_id
 _symmetry_equiv_pos_as_xyz
  1  'x, y, z'
loop_
 _atom_site_type_symbol
 _atom_site_label
 _atom_site_symmetry_multiplicity
 _atom_site_fract_x
 _atom_site_fract_y
 _atom_site_fract_z
 _atom_site_occupancy
  Tm  Tm0  1  0.812654  0.812654  0.108260  1
  Tm  Tm1  1  0.186246  0.186246  0.890686  1
  Lu  Lu2  1  0.002006  0.002006  0.324907  1
  Lu  Lu3  1  0.000460  0.000460  0.672200  1
  Fe  Fe4  1  0.271707  0.271707  0.375523  1
  Si  Si5  1  0.648781  0.648781  0.431399  1
  Si  Si6  1  0.362762  0.362762  0.557261  1
  Si  Si7  1  0.502377  0.502377  0.127885  1
  Si  Si8  1  0.485153  0.485153  0.881444  1
  Rh  Rh9  1  0.727853  0.727853  0.630435  1
