# generated using pymatgen
data_Dy5PaAl24ZnRu7
_symmetry_space_group_name_H-M   'P 1'
_cell_length_a   8.84677502
_cell_length_b   8.84677441
_cell_length_c   9.52414386
_cell_angle_alpha   89.97380549
_cell_angle_beta   90.02619700
_cell_angle_gamma   119.83627341
_symmetry_Int_Tables_number   1
_chemical_formula_structural   Dy5PaAl24ZnRu7
_chemical_formula_sum   'Dy5 Pa1 Al24 Zn1 Ru7'
_cell_volume   646.60729381
_cell_formula_units_Z   1
loop_
 _symmetry_equiv_pos_site_id
 _symmetry_equiv_pos_as_xyz
  1  'x, y, z'
loop_
 _atom_site_type_symbol
 _atom_site_label
 _atom_site_symmetry_multiplicity
 _atom_site_fract_x
 _atom_site_fract_y
 _atom_site_fract_z
 _atom_site_occupancy
  Dy  Dy0  1  0.192489  0.384865  0.247921  1
  Dy  Dy1  1  0.809925  0.612887  0.753043  1
  Dy  Dy2  1  0.615135  0.807511  0.247921  1
  Dy  Dy3  1  0.387113  0.190075  0.753043  1
  Dy  Dy4  1  0.192325  0.807675  0.254171  1
  Pa  Pa5  1  0.803865  0.196135  0.742963  1
  Al  Al6  1  0.327672  0.672328  0.023018  1
  Al  Al7  1  0.669441  0.330559  0.979891  1
  Al  Al8  1  0.663503  0.336497  0.515002  1
  Al  Al9  1  0.332068  0.667932  0.482334  1
  Al  Al10  1  0.163059  0.324166  0.576971  1
  Al  Al11  1  0.838395  0.675454  0.424041  1
  Al  Al12  1  0.675834  0.836941  0.576971  1
  Al  Al13  1  0.850182  0.677758  0.081067  1
  Al  Al14  1  0.324546  0.161605  0.424041  1
  Al  Al15  1  0.150522  0.321394  0.917882  1
  Al  Al16  1  0.162929  0.837071  0.577806  1
  Al  Al17  1  0.322242  0.149818  0.081067  1
  Al  Al18  1  0.837481  0.162519  0.419045  1
  Al  Al19  1  0.678606  0.849478  0.917882  1
  Al  Al20  1  0.837019  0.162981  0.078210  1
  Al  Al21  1  0.163076  0.836924  0.923578  1
  Al  Al22  1  0.560779  0.119612  0.248916  1
  Al  Al23  1  0.435217  0.874169  0.751720  1
  Al  Al24  1  0.880388  0.439221  0.248916  1
  Al  Al25  1  0.125831  0.564783  0.751720  1
  Al  Al26  1  0.564558  0.435442  0.254881  1
  Al  Al27  1  0.436961  0.563039  0.744431  1
  Al  Al28  1  0.998781  0.001219  0.250206  1
  Al  Al29  1  0.000785  0.999215  0.749532  1
  Zn  Zn30  1  0.499042  0.500958  0.999995  1
  Ru  Ru31  1  0.502166  0.001687  0.996650  1
  Ru  Ru32  1  0.998313  0.497834  0.996650  1
  Ru  Ru33  1  0.504909  0.003894  0.505095  1
  Ru  Ru34  1  0.996106  0.495091  0.505095  1
  Ru  Ru35  1  0.498401  0.501599  0.498610  1
  Ru  Ru36  1  0.999888  0.000112  0.999998  1
  Ru  Ru37  1  0.000449  0.999551  0.499718  1
