# generated using pymatgen
data_Ta6VCr(Co2N)2
_symmetry_space_group_name_H-M   'P 1'
_cell_length_a   7.99553528
_cell_length_b   8.01530507
_cell_length_c   8.01530466
_cell_angle_alpha   60.11984198
_cell_angle_beta   60.08155692
_cell_angle_gamma   60.08156025
_symmetry_Int_Tables_number   1
_chemical_formula_structural   Ta6VCr(Co2N)2
_chemical_formula_sum   'Ta12 V2 Cr2 Co8 N4'
_cell_volume   363.99857833
_cell_formula_units_Z   2
loop_
 _symmetry_equiv_pos_site_id
 _symmetry_equiv_pos_as_xyz
  1  'x, y, z'
loop_
 _atom_site_type_symbol
 _atom_site_label
 _atom_site_symmetry_multiplicity
 _atom_site_fract_x
 _atom_site_fract_y
 _atom_site_fract_z
 _atom_site_occupancy
  Ta  Ta0  1  0.804619  0.804793  0.194167  1
  Ta  Ta1  1  0.196419  0.194167  0.804793  1
  Ta  Ta2  1  0.804619  0.194167  0.804793  1
  Ta  Ta3  1  0.196419  0.804793  0.194167  1
  Ta  Ta4  1  0.192878  0.807122  0.807122  1
  Ta  Ta5  1  0.802201  0.197799  0.197799  1
  Ta  Ta6  1  0.445381  0.445207  0.055833  1
  Ta  Ta7  1  0.053581  0.055833  0.445207  1
  Ta  Ta8  1  0.445381  0.055833  0.445207  1
  Ta  Ta9  1  0.053581  0.445207  0.055833  1
  Ta  Ta10  1  0.057122  0.442878  0.442878  1
  Ta  Ta11  1  0.447799  0.052201  0.052201  1
  V  V12  1  0.125000  0.625000  0.625000  1
  V  V13  1  0.625000  0.625000  0.625000  1
  Cr  Cr14  1  0.625000  0.125000  0.625000  1
  Cr  Cr15  1  0.625000  0.625000  0.125000  1
  Co  Co16  1  0.728905  0.423015  0.423015  1
  Co  Co17  1  0.423975  0.730306  0.421744  1
  Co  Co18  1  0.423975  0.421744  0.730306  1
  Co  Co19  1  0.425068  0.423015  0.423015  1
  Co  Co20  1  0.521095  0.826985  0.826985  1
  Co  Co21  1  0.826025  0.519694  0.828256  1
  Co  Co22  1  0.826025  0.828256  0.519694  1
  Co  Co23  1  0.824932  0.826985  0.826985  1
  N  N24  1  0.625000  0.125000  0.125000  1
  N  N25  1  0.125000  0.625000  0.125000  1
  N  N26  1  0.125000  0.125000  0.625000  1
  N  N27  1  0.125000  0.125000  0.125000  1
