# generated using pymatgen
data_Ca(Zn2Au)2
_symmetry_space_group_name_H-M   'P 1'
_cell_length_a   7.73657900
_cell_length_b   7.73657900
_cell_length_c   4.36296300
_cell_angle_alpha   90.00000000
_cell_angle_beta   90.00000000
_cell_angle_gamma   90.00000000
_symmetry_Int_Tables_number   1
_chemical_formula_structural   Ca(Zn2Au)2
_chemical_formula_sum   'Ca2 Zn8 Au4'
_cell_volume   261.14364350
_cell_formula_units_Z   2
loop_
 _symmetry_equiv_pos_site_id
 _symmetry_equiv_pos_as_xyz
  1  'x, y, z'
loop_
 _atom_site_type_symbol
 _atom_site_label
 _atom_site_symmetry_multiplicity
 _atom_site_fract_x
 _atom_site_fract_y
 _atom_site_fract_z
 _atom_site_occupancy
  Ca  Ca0  1  0.500000  0.500000  0.500000  1
  Ca  Ca1  1  0.000000  0.000000  0.000000  1
  Zn  Zn2  1  0.352893  0.097032  0.500000  1
  Zn  Zn3  1  0.647107  0.902968  0.500000  1
  Zn  Zn4  1  0.852893  0.402968  0.000000  1
  Zn  Zn5  1  0.147107  0.597032  0.000000  1
  Zn  Zn6  1  0.097032  0.352893  0.500000  1
  Zn  Zn7  1  0.902968  0.647107  0.500000  1
  Zn  Zn8  1  0.402968  0.852893  0.000000  1
  Zn  Zn9  1  0.597032  0.147107  0.000000  1
  Au  Au10  1  0.785638  0.214362  0.500000  1
  Au  Au11  1  0.214362  0.785638  0.500000  1
  Au  Au12  1  0.285638  0.285638  0.000000  1
  Au  Au13  1  0.714362  0.714362  0.000000  1
