# generated using pymatgen
data_LiGaPdO4
_symmetry_space_group_name_H-M   'P 1'
_cell_length_a   6.07173798
_cell_length_b   10.33085603
_cell_length_c   6.03468748
_cell_angle_alpha   73.97468633
_cell_angle_beta   120.22975407
_cell_angle_gamma   107.13661993
_symmetry_Int_Tables_number   1
_chemical_formula_structural   LiGaPdO4
_chemical_formula_sum   'Li4 Ga4 Pd4 O16'
_cell_volume   308.77648202
_cell_formula_units_Z   4
loop_
 _symmetry_equiv_pos_site_id
 _symmetry_equiv_pos_as_xyz
  1  'x, y, z'
loop_
 _atom_site_type_symbol
 _atom_site_label
 _atom_site_symmetry_multiplicity
 _atom_site_fract_x
 _atom_site_fract_y
 _atom_site_fract_z
 _atom_site_occupancy
  Li  Li0  1  0.680333  0.569643  0.291206  1
  Li  Li1  1  0.180587  0.069669  0.791328  1
  Li  Li2  1  0.819680  0.930347  0.208829  1
  Li  Li3  1  0.319408  0.430326  0.708662  1
  Ga  Ga4  1  0.999893  0.500015  0.999902  1
  Ga  Ga5  1  0.500101  0.000015  0.500056  1
  Ga  Ga6  1  0.249912  0.749997  0.249827  1
  Ga  Ga7  1  0.750078  0.250006  0.750155  1
  Pd  Pd8  1  0.250058  0.750016  0.749940  1
  Pd  Pd9  1  0.250076  0.250002  0.250053  1
  Pd  Pd10  1  0.749971  0.249991  0.250046  1
  Pd  Pd11  1  0.749886  0.750002  0.749930  1
  O  O12  1  0.158035  0.868296  0.393541  1
  O  O13  1  0.657870  0.368298  0.893470  1
  O  O14  1  0.895299  0.630890  0.105724  1
  O  O15  1  0.395414  0.130920  0.605746  1
  O  O16  1  0.604668  0.869082  0.394298  1
  O  O17  1  0.104617  0.369101  0.894257  1
  O  O18  1  0.341978  0.631669  0.106473  1
  O  O19  1  0.842132  0.131729  0.606540  1
  O  O20  1  0.120442  0.858273  0.882428  1
  O  O21  1  0.620436  0.358275  0.382436  1
  O  O22  1  0.891642  0.629639  0.653835  1
  O  O23  1  0.391729  0.129629  0.153957  1
  O  O24  1  0.608340  0.870336  0.846176  1
  O  O25  1  0.108283  0.370385  0.346032  1
  O  O26  1  0.379559  0.641723  0.617560  1
  O  O27  1  0.879572  0.141724  0.117593  1
