# generated using pymatgen
data_Pr8Dy7Ho5Si16
_symmetry_space_group_name_H-M   'P 1'
_cell_length_a   7.54282709
_cell_length_b   7.81640407
_cell_length_c   14.86387709
_cell_angle_alpha   90.00586096
_cell_angle_beta   89.98882035
_cell_angle_gamma   89.98588457
_symmetry_Int_Tables_number   1
_chemical_formula_structural   Pr8Dy7Ho5Si16
_chemical_formula_sum   'Pr8 Dy7 Ho5 Si16'
_cell_volume   876.34121276
_cell_formula_units_Z   1
loop_
 _symmetry_equiv_pos_site_id
 _symmetry_equiv_pos_as_xyz
  1  'x, y, z'
loop_
 _atom_site_type_symbol
 _atom_site_label
 _atom_site_symmetry_multiplicity
 _atom_site_fract_x
 _atom_site_fract_y
 _atom_site_fract_z
 _atom_site_occupancy
  Pr  Pr0  1  0.974502  0.820084  0.098146  1
  Pr  Pr1  1  0.474534  0.679916  0.401826  1
  Pr  Pr2  1  0.525497  0.320105  0.901826  1
  Pr  Pr3  1  0.025440  0.179907  0.598188  1
  Pr  Pr4  1  0.025400  0.179920  0.901822  1
  Pr  Pr5  1  0.525470  0.320063  0.598188  1
  Pr  Pr6  1  0.474591  0.679930  0.098132  1
  Pr  Pr7  1  0.974544  0.820069  0.401822  1
  Dy  Dy8  1  0.181430  0.678623  0.623111  1
  Dy  Dy9  1  0.818597  0.321388  0.123079  1
  Dy  Dy10  1  0.318584  0.178621  0.376910  1
  Dy  Dy11  1  0.318594  0.178592  0.123061  1
  Dy  Dy12  1  0.818567  0.321371  0.376916  1
  Dy  Dy13  1  0.181419  0.678670  0.876908  1
  Dy  Dy14  1  0.681440  0.821372  0.623143  1
  Ho  Ho15  1  0.649006  0.989416  0.249983  1
  Ho  Ho16  1  0.149001  0.510594  0.249999  1
  Ho  Ho17  1  0.850940  0.489566  0.750034  1
  Ho  Ho18  1  0.350996  0.010530  0.750025  1
  Ho  Ho19  1  0.681398  0.821443  0.876872  1
  Si  Si20  1  0.767471  0.620392  0.249991  1
  Si  Si21  1  0.267455  0.879630  0.250001  1
  Si  Si22  1  0.732468  0.120197  0.750102  1
  Si  Si23  1  0.232513  0.379576  0.750016  1
  Si  Si24  1  0.023626  0.111114  0.249993  1
  Si  Si25  1  0.523633  0.388875  0.249986  1
  Si  Si26  1  0.476605  0.611343  0.750110  1
  Si  Si27  1  0.976120  0.888796  0.750130  1
  Si  Si28  1  0.856822  0.530938  0.959842  1
  Si  Si29  1  0.357070  0.969287  0.540081  1
  Si  Si30  1  0.643050  0.030507  0.039926  1
  Si  Si31  1  0.142927  0.469293  0.459932  1
  Si  Si32  1  0.142923  0.469327  0.040063  1
  Si  Si33  1  0.642927  0.030699  0.459925  1
  Si  Si34  1  0.357344  0.969132  0.959835  1
  Si  Si35  1  0.857098  0.530711  0.540078  1
