# generated using pymatgen
data_Tb5Dy3Hf11ZrSi16
_symmetry_space_group_name_H-M   'P 1'
_cell_length_a   7.29261824
_cell_length_b   7.29223939
_cell_length_c   13.40260207
_cell_angle_alpha   90.01146541
_cell_angle_beta   89.97989899
_cell_angle_gamma   89.98041498
_symmetry_Int_Tables_number   1
_chemical_formula_structural   Tb5Dy3Hf11ZrSi16
_chemical_formula_sum   'Tb5 Dy3 Hf11 Zr1 Si16'
_cell_volume   712.74381856
_cell_formula_units_Z   1
loop_
 _symmetry_equiv_pos_site_id
 _symmetry_equiv_pos_as_xyz
  1  'x, y, z'
loop_
 _atom_site_type_symbol
 _atom_site_label
 _atom_site_symmetry_multiplicity
 _atom_site_fract_x
 _atom_site_fract_y
 _atom_site_fract_z
 _atom_site_occupancy
  Tb  Tb0  1  0.503681  0.844028  0.034965  1
  Tb  Tb1  1  0.844118  0.503674  0.965053  1
  Tb  Tb2  1  0.496023  0.156324  0.534898  1
  Tb  Tb3  1  0.343851  0.996041  0.784812  1
  Tb  Tb4  1  0.656249  0.003748  0.284999  1
  Dy  Dy5  1  0.996292  0.344069  0.215172  1
  Dy  Dy6  1  0.003555  0.656029  0.714917  1
  Dy  Dy7  1  0.156088  0.496250  0.465012  1
  Hf  Hf8  1  0.825647  0.825397  0.500031  1
  Hf  Hf9  1  0.325392  0.674555  0.250240  1
  Hf  Hf10  1  0.674766  0.325614  0.749785  1
  Hf  Hf11  1  0.149288  0.995504  0.374552  1
  Hf  Hf12  1  0.850802  0.004358  0.874209  1
  Hf  Hf13  1  0.504163  0.649538  0.624301  1
  Hf  Hf14  1  0.350446  0.495601  0.875635  1
  Hf  Hf15  1  0.495529  0.350546  0.124384  1
  Hf  Hf16  1  0.649580  0.504141  0.375686  1
  Hf  Hf17  1  0.995560  0.149309  0.625419  1
  Hf  Hf18  1  0.004372  0.850772  0.125798  1
  Zr  Zr19  1  0.174372  0.174469  0.000019  1
  Si  Si20  1  0.362909  0.295210  0.317126  1
  Si  Si21  1  0.636893  0.704872  0.816889  1
  Si  Si22  1  0.204784  0.862742  0.567086  1
  Si  Si23  1  0.136482  0.793746  0.932822  1
  Si  Si24  1  0.793934  0.136674  0.067261  1
  Si  Si25  1  0.863253  0.205159  0.432929  1
  Si  Si26  1  0.294837  0.363414  0.682902  1
  Si  Si27  1  0.705033  0.636540  0.183055  1
  Si  Si28  1  0.295398  0.048367  0.186476  1
  Si  Si29  1  0.705009  0.951200  0.685490  1
  Si  Si30  1  0.451390  0.794937  0.435586  1
  Si  Si31  1  0.205109  0.549900  0.064696  1
  Si  Si32  1  0.550077  0.205265  0.935392  1
  Si  Si33  1  0.795407  0.451705  0.564425  1
  Si  Si34  1  0.048194  0.295749  0.813446  1
  Si  Si35  1  0.951519  0.704556  0.314534  1
