# generated using pymatgen
data_Ce4Co3CuSn2
_symmetry_space_group_name_H-M   'P 1'
_cell_length_a   7.43617914
_cell_length_b   7.43617914
_cell_length_c   3.66737600
_cell_angle_alpha   90.00000000
_cell_angle_beta   90.00000000
_cell_angle_gamma   89.29398615
_symmetry_Int_Tables_number   1
_chemical_formula_structural   Ce4Co3CuSn2
_chemical_formula_sum   'Ce4 Co3 Cu1 Sn2'
_cell_volume   202.77861531
_cell_formula_units_Z   1
loop_
 _symmetry_equiv_pos_site_id
 _symmetry_equiv_pos_as_xyz
  1  'x, y, z'
loop_
 _atom_site_type_symbol
 _atom_site_label
 _atom_site_symmetry_multiplicity
 _atom_site_fract_x
 _atom_site_fract_y
 _atom_site_fract_z
 _atom_site_occupancy
  Ce  Ce0  1  0.311057  0.174744  0.500000  1
  Ce  Ce1  1  0.842699  0.342699  0.500000  1
  Ce  Ce2  1  0.180185  0.680185  0.500000  1
  Ce  Ce3  1  0.674744  0.811057  0.500000  1
  Co  Co4  1  0.133300  0.366917  0.000000  1
  Co  Co5  1  0.866917  0.633300  0.000000  1
  Co  Co6  1  0.373543  0.873543  0.000000  1
  Cu  Cu7  1  0.620894  0.120894  0.000000  1
  Sn  Sn8  1  0.997040  0.999623  0.000000  1
  Sn  Sn9  1  0.499623  0.497040  0.000000  1
