# generated using pymatgen
data_U4AlCr3B16
_symmetry_space_group_name_H-M   'P 1'
_cell_length_a   3.51095200
_cell_length_b   5.87152000
_cell_length_c   11.36651701
_cell_angle_alpha   90.00370435
_cell_angle_beta   90.00000000
_cell_angle_gamma   90.00000000
_symmetry_Int_Tables_number   1
_chemical_formula_structural   U4AlCr3B16
_chemical_formula_sum   'U4 Al1 Cr3 B16'
_cell_volume   234.31648398
_cell_formula_units_Z   1
loop_
 _symmetry_equiv_pos_site_id
 _symmetry_equiv_pos_as_xyz
  1  'x, y, z'
loop_
 _atom_site_type_symbol
 _atom_site_label
 _atom_site_symmetry_multiplicity
 _atom_site_fract_x
 _atom_site_fract_y
 _atom_site_fract_z
 _atom_site_occupancy
  U  U0  1  0.000000  0.625368  0.350734  1
  U  U1  1  0.000000  0.373896  0.650749  1
  U  U2  1  0.000000  0.127264  0.151138  1
  U  U3  1  0.000000  0.874177  0.848012  1
  Al  Al4  1  0.000000  0.634466  0.088476  1
  Cr  Cr5  1  0.000000  0.372218  0.913276  1
  Cr  Cr6  1  0.000000  0.130217  0.414349  1
  Cr  Cr7  1  0.000000  0.868657  0.587520  1
  B  B8  1  0.500000  0.788815  0.189211  1
  B  B9  1  0.500000  0.216193  0.813304  1
  B  B10  1  0.500000  0.283582  0.314188  1
  B  B11  1  0.500000  0.715366  0.685986  1
  B  B12  1  0.500000  0.868823  0.030745  1
  B  B13  1  0.500000  0.135029  0.965548  1
  B  B14  1  0.500000  0.364723  0.467274  1
  B  B15  1  0.500000  0.634929  0.533135  1
  B  B16  1  0.500000  0.885455  0.453727  1
  B  B17  1  0.500000  0.113751  0.546833  1
  B  B18  1  0.500000  0.380962  0.044145  1
  B  B19  1  0.500000  0.611835  0.950362  1
  B  B20  1  0.500000  0.974642  0.308535  1
  B  B21  1  0.500000  0.026375  0.691823  1
  B  B22  1  0.500000  0.468292  0.193858  1
  B  B23  1  0.500000  0.524966  0.807074  1
