# generated using pymatgen
data_TiNb11Al8(CoC)4
_symmetry_space_group_name_H-M   'P 1'
_cell_length_a   8.23180748
_cell_length_b   8.21056082
_cell_length_c   8.23180825
_cell_angle_alpha   60.08534841
_cell_angle_beta   59.96268434
_cell_angle_gamma   60.08534601
_symmetry_Int_Tables_number   1
_chemical_formula_structural   TiNb11Al8(CoC)4
_chemical_formula_sum   'Ti1 Nb11 Al8 Co4 C4'
_cell_volume   393.80786107
_cell_formula_units_Z   1
loop_
 _symmetry_equiv_pos_site_id
 _symmetry_equiv_pos_as_xyz
  1  'x, y, z'
loop_
 _atom_site_type_symbol
 _atom_site_label
 _atom_site_symmetry_multiplicity
 _atom_site_fract_x
 _atom_site_fract_y
 _atom_site_fract_z
 _atom_site_occupancy
  Ti  Ti0  1  0.688434  0.311566  0.688434  1
  Nb  Nb1  1  0.938504  0.559089  0.560885  1
  Nb  Nb2  1  0.560885  0.941522  0.938504  1
  Nb  Nb3  1  0.940353  0.559647  0.940353  1
  Nb  Nb4  1  0.560885  0.559089  0.938504  1
  Nb  Nb5  1  0.938504  0.941522  0.560885  1
  Nb  Nb6  1  0.688726  0.691527  0.310963  1
  Nb  Nb7  1  0.310963  0.691527  0.688726  1
  Nb  Nb8  1  0.688726  0.308784  0.310963  1
  Nb  Nb9  1  0.310963  0.308784  0.688726  1
  Nb  Nb10  1  0.559873  0.940127  0.559873  1
  Nb  Nb11  1  0.310203  0.689797  0.310203  1
  Al  Al12  1  0.331725  0.331706  0.331725  1
  Al  Al13  1  0.245624  0.918189  0.917995  1
  Al  Al14  1  0.917924  0.245097  0.917924  1
  Al  Al15  1  0.917995  0.918189  0.245624  1
  Al  Al16  1  0.331725  0.004845  0.331725  1
  Al  Al17  1  0.333525  0.331626  0.003224  1
  Al  Al18  1  0.003224  0.331626  0.333525  1
  Al  Al19  1  0.917924  0.919052  0.917924  1
  Co  Co20  1  0.125096  0.125241  0.125096  1
  Co  Co21  1  0.625167  0.124830  0.125173  1
  Co  Co22  1  0.125096  0.624568  0.125096  1
  Co  Co23  1  0.125173  0.124830  0.625167  1
  C  C24  1  0.626232  0.619067  0.626232  1
  C  C25  1  0.124806  0.624841  0.625511  1
  C  C26  1  0.626232  0.128469  0.626232  1
  C  C27  1  0.625511  0.624841  0.124806  1
