# generated using pymatgen
data_Sr2TaNbF14
_symmetry_space_group_name_H-M   'P 1'
_cell_length_a   7.34684800
_cell_length_b   4.97912772
_cell_length_c   6.83748625
_cell_angle_alpha   85.50094925
_cell_angle_beta   90.00000000
_cell_angle_gamma   90.00000000
_symmetry_Int_Tables_number   1
_chemical_formula_structural   Sr2TaNbF14
_chemical_formula_sum   'Sr2 Ta1 Nb1 F14'
_cell_volume   249.35064785
_cell_formula_units_Z   1
loop_
 _symmetry_equiv_pos_site_id
 _symmetry_equiv_pos_as_xyz
  1  'x, y, z'
loop_
 _atom_site_type_symbol
 _atom_site_label
 _atom_site_symmetry_multiplicity
 _atom_site_fract_x
 _atom_site_fract_y
 _atom_site_fract_z
 _atom_site_occupancy
  Sr  Sr0  1  0.250000  0.028766  0.683674  1
  Sr  Sr1  1  0.750000  0.973102  0.315305  1
  Ta  Ta2  1  0.750000  0.535225  0.779436  1
  Nb  Nb3  1  0.250000  0.465609  0.219712  1
  F  F4  1  0.250000  0.654085  0.951024  1
  F  F5  1  0.527582  0.326027  0.782324  1
  F  F6  1  0.750000  0.346972  0.046742  1
  F  F7  1  0.026210  0.675025  0.217849  1
  F  F8  1  0.250000  0.172599  0.045618  1
  F  F9  1  0.076306  0.190952  0.360216  1
  F  F10  1  0.423694  0.190952  0.360216  1
  F  F11  1  0.577274  0.807098  0.641000  1
  F  F12  1  0.972418  0.326027  0.782324  1
  F  F13  1  0.750000  0.825393  0.953984  1
  F  F14  1  0.473790  0.675025  0.217849  1
  F  F15  1  0.750000  0.418432  0.505440  1
  F  F16  1  0.922726  0.807098  0.641000  1
  F  F17  1  0.250000  0.581609  0.496286  1
