# generated using pymatgen
data_Ce3Pa(BeB10)2
_symmetry_space_group_name_H-M   'P 1'
_cell_length_a   4.13064400
_cell_length_b   5.54533001
_cell_length_c   10.98112502
_cell_angle_alpha   89.99310026
_cell_angle_beta   90.00000000
_cell_angle_gamma   90.00000000
_symmetry_Int_Tables_number   1
_chemical_formula_structural   Ce3Pa(BeB10)2
_chemical_formula_sum   'Ce3 Pa1 Be2 B20'
_cell_volume   251.53127743
_cell_formula_units_Z   1
loop_
 _symmetry_equiv_pos_site_id
 _symmetry_equiv_pos_as_xyz
  1  'x, y, z'
loop_
 _atom_site_type_symbol
 _atom_site_label
 _atom_site_symmetry_multiplicity
 _atom_site_fract_x
 _atom_site_fract_y
 _atom_site_fract_z
 _atom_site_occupancy
  Ce  Ce0  1  0.500000  0.694998  0.135302  1
  Ce  Ce1  1  0.500000  0.805304  0.634788  1
  Ce  Ce2  1  0.500000  0.194642  0.364792  1
  Pa  Pa3  1  0.500000  0.305161  0.864837  1
  Be  Be4  1  0.000000  0.500503  0.500185  1
  Be  Be5  1  0.000000  0.000482  0.000118  1
  B  B6  1  0.000000  0.128603  0.539366  1
  B  B7  1  0.000000  0.871787  0.461175  1
  B  B8  1  0.000000  0.627215  0.961000  1
  B  B9  1  0.000000  0.369594  0.036752  1
  B  B10  1  0.000000  0.161402  0.698491  1
  B  B11  1  0.000000  0.839348  0.302628  1
  B  B12  1  0.300720  0.196944  0.110089  1
  B  B13  1  0.301224  0.802603  0.888695  1
  B  B14  1  0.699820  0.696899  0.388555  1
  B  B15  1  0.699351  0.303147  0.612617  1
  B  B16  1  0.698776  0.802603  0.888695  1
  B  B17  1  0.699280  0.196944  0.110089  1
  B  B18  1  0.300649  0.303147  0.612617  1
  B  B19  1  0.300180  0.696899  0.388555  1
  B  B20  1  0.000000  0.026702  0.185227  1
  B  B21  1  0.000000  0.975476  0.815649  1
  B  B22  1  0.000000  0.526359  0.313932  1
  B  B23  1  0.000000  0.473820  0.686461  1
  B  B24  1  0.000000  0.339288  0.196242  1
  B  B25  1  0.000000  0.660133  0.803141  1
