# generated using pymatgen
data_Nd4MnIr6Ru
_symmetry_space_group_name_H-M   'P 1'
_cell_length_a   5.51772000
_cell_length_b   5.51771940
_cell_length_c   8.60084600
_cell_angle_alpha   90.00000000
_cell_angle_beta   90.00000000
_cell_angle_gamma   120.00000359
_symmetry_Int_Tables_number   1
_chemical_formula_structural   Nd4MnIr6Ru
_chemical_formula_sum   'Nd4 Mn1 Ir6 Ru1'
_cell_volume   226.77284931
_cell_formula_units_Z   1
loop_
 _symmetry_equiv_pos_site_id
 _symmetry_equiv_pos_as_xyz
  1  'x, y, z'
loop_
 _atom_site_type_symbol
 _atom_site_label
 _atom_site_symmetry_multiplicity
 _atom_site_fract_x
 _atom_site_fract_y
 _atom_site_fract_z
 _atom_site_occupancy
  Nd  Nd0  1  0.333333  0.666667  0.069705  1
  Nd  Nd1  1  0.666667  0.333333  0.930295  1
  Nd  Nd2  1  0.333333  0.666667  0.436326  1
  Nd  Nd3  1  0.666667  0.333333  0.563674  1
  Mn  Mn4  1  0.000000  0.000000  0.000000  1
  Ir  Ir5  1  0.831844  0.663689  0.247016  1
  Ir  Ir6  1  0.168156  0.336311  0.752984  1
  Ir  Ir7  1  0.336311  0.168156  0.247016  1
  Ir  Ir8  1  0.168156  0.831844  0.752984  1
  Ir  Ir9  1  0.663689  0.831844  0.752984  1
  Ir  Ir10  1  0.831844  0.168156  0.247016  1
  Ru  Ru11  1  0.000000  0.000000  0.500000  1
