# generated using pymatgen
data_Yb10AgHgBi6
_symmetry_space_group_name_H-M   'P 1'
_cell_length_a   9.40603200
_cell_length_b   9.40603143
_cell_length_c   7.11345000
_cell_angle_alpha   90.00000000
_cell_angle_beta   90.00000000
_cell_angle_gamma   120.00000201
_symmetry_Int_Tables_number   1
_chemical_formula_structural   Yb10AgHgBi6
_chemical_formula_sum   'Yb10 Ag1 Hg1 Bi6'
_cell_volume   545.03423655
_cell_formula_units_Z   1
loop_
 _symmetry_equiv_pos_site_id
 _symmetry_equiv_pos_as_xyz
  1  'x, y, z'
loop_
 _atom_site_type_symbol
 _atom_site_label
 _atom_site_symmetry_multiplicity
 _atom_site_fract_x
 _atom_site_fract_y
 _atom_site_fract_z
 _atom_site_occupancy
  Yb  Yb0  1  0.266156  0.266156  0.741155  1
  Yb  Yb1  1  0.733844  0.733844  0.258845  1
  Yb  Yb2  1  0.333333  0.666667  0.500000  1
  Yb  Yb3  1  0.266156  0.000000  0.258845  1
  Yb  Yb4  1  0.666667  0.333333  0.500000  1
  Yb  Yb5  1  0.000000  0.733844  0.741155  1
  Yb  Yb6  1  0.666667  0.333333  0.000000  1
  Yb  Yb7  1  0.000000  0.266156  0.258845  1
  Yb  Yb8  1  0.733844  0.000000  0.741155  1
  Yb  Yb9  1  0.333333  0.666667  0.000000  1
  Ag  Ag10  1  0.000000  0.000000  0.500000  1
  Hg  Hg11  1  0.000000  0.000000  0.000000  1
  Bi  Bi12  1  0.386873  0.000000  0.748039  1
  Bi  Bi13  1  0.613127  0.000000  0.251961  1
  Bi  Bi14  1  0.613127  0.613127  0.748039  1
  Bi  Bi15  1  0.000000  0.613127  0.251961  1
  Bi  Bi16  1  0.000000  0.386873  0.748039  1
  Bi  Bi17  1  0.386873  0.386873  0.251961  1
