# generated using pymatgen
data_HoSb5O13
_symmetry_space_group_name_H-M   'P 1'
_cell_length_a   7.42128200
_cell_length_b   7.35112667
_cell_length_c   10.30871042
_cell_angle_alpha   88.84270833
_cell_angle_beta   90.00000000
_cell_angle_gamma   90.00000000
_symmetry_Int_Tables_number   1
_chemical_formula_structural   HoSb5O13
_chemical_formula_sum   'Ho2 Sb10 O26'
_cell_volume   562.27475238
_cell_formula_units_Z   2
loop_
 _symmetry_equiv_pos_site_id
 _symmetry_equiv_pos_as_xyz
  1  'x, y, z'
loop_
 _atom_site_type_symbol
 _atom_site_label
 _atom_site_symmetry_multiplicity
 _atom_site_fract_x
 _atom_site_fract_y
 _atom_site_fract_z
 _atom_site_occupancy
  Ho  Ho0  1  0.500000  0.500000  0.000000  1
  Ho  Ho1  1  0.000000  0.500000  0.000000  1
  Sb  Sb2  1  0.250000  0.728345  0.731415  1
  Sb  Sb3  1  0.750000  0.271655  0.268585  1
  Sb  Sb4  1  0.500000  0.000000  0.000000  1
  Sb  Sb5  1  0.750000  0.757308  0.748979  1
  Sb  Sb6  1  0.250000  0.748095  0.251972  1
  Sb  Sb7  1  0.500000  0.500000  0.500000  1
  Sb  Sb8  1  0.000000  0.500000  0.500000  1
  Sb  Sb9  1  0.750000  0.251905  0.748028  1
  Sb  Sb10  1  0.250000  0.242692  0.251021  1
  Sb  Sb11  1  0.000000  0.000000  0.000000  1
  O  O12  1  0.448120  0.690891  0.372293  1
  O  O13  1  0.750000  0.456450  0.126520  1
  O  O14  1  0.250000  0.493891  0.160142  1
  O  O15  1  0.454498  0.309105  0.365794  1
  O  O16  1  0.556934  0.216338  0.885065  1
  O  O17  1  0.943066  0.216338  0.885065  1
  O  O18  1  0.448692  0.208247  0.120460  1
  O  O19  1  0.750000  0.000196  0.072733  1
  O  O20  1  0.250000  0.999804  0.927267  1
  O  O21  1  0.750000  0.003795  0.684203  1
  O  O22  1  0.551308  0.791753  0.879540  1
  O  O23  1  0.948692  0.791753  0.879540  1
  O  O24  1  0.443066  0.783662  0.114935  1
  O  O25  1  0.051880  0.690891  0.372293  1
  O  O26  1  0.545502  0.690895  0.634206  1
  O  O27  1  0.954498  0.690895  0.634206  1
  O  O28  1  0.250000  0.518126  0.581197  1
  O  O29  1  0.750000  0.506109  0.839858  1
  O  O30  1  0.750000  0.481874  0.418803  1
  O  O31  1  0.045502  0.309105  0.365794  1
  O  O32  1  0.551880  0.309109  0.627707  1
  O  O33  1  0.948120  0.309109  0.627707  1
  O  O34  1  0.051308  0.208247  0.120460  1
  O  O35  1  0.250000  0.996205  0.315797  1
  O  O36  1  0.056934  0.783662  0.114935  1
  O  O37  1  0.250000  0.543550  0.873480  1
