# generated using pymatgen
data_Tb4Dy8Co4TcBi
_symmetry_space_group_name_H-M   'P 1'
_cell_length_a   8.35865740
_cell_length_b   8.35864562
_cell_length_c   8.35865550
_cell_angle_alpha   111.53464096
_cell_angle_beta   110.41527769
_cell_angle_gamma   106.50597283
_symmetry_Int_Tables_number   1
_chemical_formula_structural   Tb4Dy8Co4TcBi
_chemical_formula_sum   'Tb4 Dy8 Co4 Tc1 Bi1'
_cell_volume   448.61654156
_cell_formula_units_Z   1
loop_
 _symmetry_equiv_pos_site_id
 _symmetry_equiv_pos_as_xyz
  1  'x, y, z'
loop_
 _atom_site_type_symbol
 _atom_site_label
 _atom_site_symmetry_multiplicity
 _atom_site_fract_x
 _atom_site_fract_y
 _atom_site_fract_z
 _atom_site_occupancy
  Tb  Tb0  1  0.817250  0.716112  0.533362  1
  Tb  Tb1  1  0.182750  0.283888  0.466638  1
  Tb  Tb2  1  0.182750  0.716112  0.898861  1
  Tb  Tb3  1  0.817250  0.283888  0.101139  1
  Dy  Dy4  1  0.689603  0.380359  0.690756  1
  Dy  Dy5  1  0.310397  0.619641  0.309244  1
  Dy  Dy6  1  0.689603  0.998847  0.309244  1
  Dy  Dy7  1  0.310397  0.001153  0.690756  1
  Dy  Dy8  1  0.590739  0.786901  0.803837  1
  Dy  Dy9  1  0.409261  0.213099  0.196163  1
  Dy  Dy10  1  0.983064  0.786901  0.196163  1
  Dy  Dy11  1  0.016936  0.213099  0.803837  1
  Co  Co12  1  0.621068  0.000000  0.621068  1
  Co  Co13  1  0.378932  0.000000  0.378932  1
  Co  Co14  1  0.110602  0.610602  0.499999  1
  Co  Co15  1  0.889398  0.389398  0.500001  1
  Tc  Tc16  1  0.000000  0.000000  0.000000  1
  Bi  Bi17  1  0.500000  0.500000  0.000000  1
