# generated using pymatgen
data_YHo4P12Pd3Ru16
_symmetry_space_group_name_H-M   'P 1'
_cell_length_a   12.60128200
_cell_length_b   12.60071946
_cell_length_c   3.96907200
_cell_angle_alpha   90.00000000
_cell_angle_beta   90.00000000
_cell_angle_gamma   119.99852371
_symmetry_Int_Tables_number   1
_chemical_formula_structural   YHo4P12Pd3Ru16
_chemical_formula_sum   'Y1 Ho4 P12 Pd3 Ru16'
_cell_volume   545.80328174
_cell_formula_units_Z   1
loop_
 _symmetry_equiv_pos_site_id
 _symmetry_equiv_pos_as_xyz
  1  'x, y, z'
loop_
 _atom_site_type_symbol
 _atom_site_label
 _atom_site_symmetry_multiplicity
 _atom_site_fract_x
 _atom_site_fract_y
 _atom_site_fract_z
 _atom_site_occupancy
  Y  Y0  1  0.000000  0.181299  0.500000  1
  Ho  Ho1  1  0.818805  0.818786  0.500000  1
  Ho  Ho2  1  0.181195  0.999981  0.500000  1
  Ho  Ho3  1  0.666655  0.333337  0.000000  1
  Ho  Ho4  1  0.333345  0.666684  0.000000  1
  P  P5  1  0.000000  0.814754  0.000000  1
  P  P6  1  0.185472  0.185230  0.000000  1
  P  P7  1  0.814528  0.999758  0.000000  1
  P  P8  1  0.698665  0.178888  0.500000  1
  P  P9  1  0.821128  0.519775  0.500000  1
  P  P10  1  0.480236  0.301361  0.500000  1
  P  P11  1  0.178872  0.698649  0.500000  1
  P  P12  1  0.519764  0.821126  0.500000  1
  P  P13  1  0.301335  0.480225  0.500000  1
  P  P14  1  0.000000  0.366649  0.000000  1
  P  P15  1  0.633617  0.633618  0.000000  1
  P  P16  1  0.366383  0.000001  0.000000  1
  Pd  Pd17  1  0.000000  0.553556  0.000000  1
  Pd  Pd18  1  0.446488  0.446493  0.000000  1
  Pd  Pd19  1  0.553512  0.000005  0.000000  1
  Ru  Ru20  1  0.000000  0.713391  0.500000  1
  Ru  Ru21  1  0.286855  0.286690  0.500000  1
  Ru  Ru22  1  0.713145  0.999835  0.500000  1
  Ru  Ru23  1  0.807039  0.185708  0.000000  1
  Ru  Ru24  1  0.814313  0.621708  0.000000  1
  Ru  Ru25  1  0.378296  0.192582  0.000000  1
  Ru  Ru26  1  0.185687  0.807394  0.000000  1
  Ru  Ru27  1  0.621704  0.814285  0.000000  1
  Ru  Ru28  1  0.192961  0.378667  0.000000  1
  Ru  Ru29  1  0.875618  0.368595  0.500000  1
  Ru  Ru30  1  0.631468  0.507096  0.500000  1
  Ru  Ru31  1  0.492913  0.124378  0.500000  1
  Ru  Ru32  1  0.368532  0.875628  0.500000  1
  Ru  Ru33  1  0.507087  0.631465  0.500000  1
  Ru  Ru34  1  0.124382  0.492978  0.500000  1
  Ru  Ru35  1  0.000000  0.999423  0.000000  1
