# generated using pymatgen
data_Gd6ScRhO12
_symmetry_space_group_name_H-M   'P 1'
_cell_length_a   6.67248485
_cell_length_b   6.67248499
_cell_length_c   6.67248478
_cell_angle_alpha   94.07250220
_cell_angle_beta   94.07252193
_cell_angle_gamma   94.07251766
_symmetry_Int_Tables_number   1
_chemical_formula_structural   Gd6ScRhO12
_chemical_formula_sum   'Gd6 Sc1 Rh1 O12'
_cell_volume   294.70940890
_cell_formula_units_Z   1
loop_
 _symmetry_equiv_pos_site_id
 _symmetry_equiv_pos_as_xyz
  1  'x, y, z'
loop_
 _atom_site_type_symbol
 _atom_site_label
 _atom_site_symmetry_multiplicity
 _atom_site_fract_x
 _atom_site_fract_y
 _atom_site_fract_z
 _atom_site_occupancy
  Gd  Gd0  1  0.570054  0.081126  0.260155  1
  Gd  Gd1  1  0.081126  0.260155  0.570054  1
  Gd  Gd2  1  0.739845  0.429946  0.918874  1
  Gd  Gd3  1  0.260155  0.570054  0.081126  1
  Gd  Gd4  1  0.918874  0.739845  0.429946  1
  Gd  Gd5  1  0.429946  0.918874  0.739845  1
  Sc  Sc6  1  0.000000  0.000000  0.000000  1
  Rh  Rh7  1  0.500000  0.500000  0.500000  1
  O  O8  1  0.693470  0.079054  0.933819  1
  O  O9  1  0.920946  0.066181  0.306530  1
  O  O10  1  0.414964  0.198231  0.545286  1
  O  O11  1  0.066181  0.306530  0.920946  1
  O  O12  1  0.545286  0.414964  0.198231  1
  O  O13  1  0.801769  0.454714  0.585036  1
  O  O14  1  0.198231  0.545286  0.414964  1
  O  O15  1  0.454714  0.585036  0.801769  1
  O  O16  1  0.933819  0.693470  0.079054  1
  O  O17  1  0.585036  0.801769  0.454714  1
  O  O18  1  0.079054  0.933819  0.693470  1
  O  O19  1  0.306530  0.920946  0.066181  1
