# generated using pymatgen
data_SrLaAl3O7
_symmetry_space_group_name_H-M   'P 1'
_cell_length_a   7.95576567
_cell_length_b   7.95576619
_cell_length_c   5.27611500
_cell_angle_alpha   90.00000000
_cell_angle_beta   90.00000000
_cell_angle_gamma   89.75375593
_symmetry_Int_Tables_number   1
_chemical_formula_structural   SrLaAl3O7
_chemical_formula_sum   'Sr2 La2 Al6 O14'
_cell_volume   333.94445464
_cell_formula_units_Z   2
loop_
 _symmetry_equiv_pos_site_id
 _symmetry_equiv_pos_as_xyz
  1  'x, y, z'
loop_
 _atom_site_type_symbol
 _atom_site_label
 _atom_site_symmetry_multiplicity
 _atom_site_fract_x
 _atom_site_fract_y
 _atom_site_fract_z
 _atom_site_occupancy
  Sr  Sr0  1  0.161544  0.838456  0.490412  1
  Sr  Sr1  1  0.838456  0.161544  0.490412  1
  La  La2  1  0.663699  0.663699  0.510600  1
  La  La3  1  0.336301  0.336301  0.510600  1
  Al  Al4  1  0.357362  0.642638  0.038206  1
  Al  Al5  1  0.856203  0.856203  0.962712  1
  Al  Al6  1  0.642638  0.357362  0.038206  1
  Al  Al7  1  0.143797  0.143797  0.962712  1
  Al  Al8  1  0.500000  0.000000  0.999437  1
  Al  Al9  1  0.000000  0.500000  0.999437  1
  O  O10  1  0.000000  0.000000  0.837847  1
  O  O11  1  0.500000  0.500000  0.185044  1
  O  O12  1  0.416186  0.834651  0.185440  1
  O  O13  1  0.909077  0.662003  0.808355  1
  O  O14  1  0.583814  0.165349  0.185440  1
  O  O15  1  0.090923  0.337997  0.808355  1
  O  O16  1  0.337997  0.090923  0.808355  1
  O  O17  1  0.834651  0.416186  0.185440  1
  O  O18  1  0.662003  0.909077  0.808355  1
  O  O19  1  0.165349  0.583814  0.185440  1
  O  O20  1  0.367256  0.632744  0.706051  1
  O  O21  1  0.848583  0.848583  0.293548  1
  O  O22  1  0.632744  0.367256  0.706051  1
  O  O23  1  0.151417  0.151417  0.293548  1
