# generated using pymatgen
data_Tb9Y7(AlPt)4
_symmetry_space_group_name_H-M   'P 1'
_cell_length_a   9.64589502
_cell_length_b   9.64589489
_cell_length_c   9.64441000
_cell_angle_alpha   60.00509215
_cell_angle_beta   60.00509262
_cell_angle_gamma   60.09233885
_symmetry_Int_Tables_number   1
_chemical_formula_structural   Tb9Y7(AlPt)4
_chemical_formula_sum   'Tb9 Y7 Al4 Pt4'
_cell_volume   635.01114854
_cell_formula_units_Z   1
loop_
 _symmetry_equiv_pos_site_id
 _symmetry_equiv_pos_as_xyz
  1  'x, y, z'
loop_
 _atom_site_type_symbol
 _atom_site_label
 _atom_site_symmetry_multiplicity
 _atom_site_fract_x
 _atom_site_fract_y
 _atom_site_fract_z
 _atom_site_occupancy
  Tb  Tb0  1  0.353571  0.353571  0.353906  1
  Tb  Tb1  1  0.353571  0.353571  0.938952  1
  Tb  Tb2  1  0.353745  0.937832  0.354211  1
  Tb  Tb3  1  0.937832  0.353745  0.354211  1
  Tb  Tb4  1  0.806751  0.193916  0.193032  1
  Tb  Tb5  1  0.193916  0.806751  0.806301  1
  Tb  Tb6  1  0.193916  0.806751  0.193032  1
  Tb  Tb7  1  0.806751  0.193916  0.806301  1
  Tb  Tb8  1  0.193407  0.193407  0.806593  1
  Y  Y9  1  0.805952  0.805952  0.194048  1
  Y  Y10  1  0.935780  0.563533  0.564060  1
  Y  Y11  1  0.563533  0.935780  0.936627  1
  Y  Y12  1  0.563533  0.935780  0.564060  1
  Y  Y13  1  0.935780  0.563533  0.936627  1
  Y  Y14  1  0.563904  0.563904  0.936096  1
  Y  Y15  1  0.936404  0.936404  0.563596  1
  Al  Al16  1  0.578441  0.578441  0.577663  1
  Al  Al17  1  0.578441  0.578441  0.265455  1
  Al  Al18  1  0.578153  0.266680  0.577584  1
  Al  Al19  1  0.266680  0.578153  0.577584  1
  Pt  Pt20  1  0.143290  0.143290  0.143987  1
  Pt  Pt21  1  0.143290  0.143290  0.569435  1
  Pt  Pt22  1  0.143458  0.569901  0.143321  1
  Pt  Pt23  1  0.569901  0.143458  0.143321  1
