# generated using pymatgen
data_La3Nd4MnI12
_symmetry_space_group_name_H-M   'P 1'
_cell_length_a   10.15698785
_cell_length_b   10.15874937
_cell_length_c   9.91739815
_cell_angle_alpha   106.69510233
_cell_angle_beta   106.71899143
_cell_angle_gamma   106.75442494
_symmetry_Int_Tables_number   1
_chemical_formula_structural   La3Nd4MnI12
_chemical_formula_sum   'La3 Nd4 Mn1 I12'
_cell_volume   858.57554889
_cell_formula_units_Z   1
loop_
 _symmetry_equiv_pos_site_id
 _symmetry_equiv_pos_as_xyz
  1  'x, y, z'
loop_
 _atom_site_type_symbol
 _atom_site_label
 _atom_site_symmetry_multiplicity
 _atom_site_fract_x
 _atom_site_fract_y
 _atom_site_fract_z
 _atom_site_occupancy
  La  La0  1  0.805801  0.520652  0.600596  1
  La  La1  1  0.523447  0.585826  0.768239  1
  La  La2  1  0.005332  0.007761  0.003000  1
  Nd  Nd3  1  0.199279  0.477268  0.402925  1
  Nd  Nd4  1  0.475747  0.407388  0.218239  1
  Nd  Nd5  1  0.594296  0.799339  0.520615  1
  Nd  Nd6  1  0.399664  0.196763  0.480642  1
  Mn  Mn7  1  0.500261  0.504361  0.520843  1
  I  I8  1  0.718751  0.174919  0.568639  1
  I  I9  1  0.958031  0.882108  0.651270  1
  I  I10  1  0.569943  0.716388  0.178231  1
  I  I11  1  0.123238  0.348467  0.036515  1
  I  I12  1  0.661816  0.964243  0.881999  1
  I  I13  1  0.892534  0.668528  0.971747  1
  I  I14  1  0.037485  0.121842  0.349356  1
  I  I15  1  0.809080  0.420770  0.264998  1
  I  I16  1  0.348243  0.044246  0.119195  1
  I  I17  1  0.271901  0.813431  0.419432  1
  I  I18  1  0.181450  0.575764  0.724753  1
  I  I19  1  0.423698  0.269935  0.818766  1
