# generated using pymatgen
data_Er4ReTc2B16W
_symmetry_space_group_name_H-M   'P 1'
_cell_length_a   3.58648300
_cell_length_b   5.97101046
_cell_length_c   11.54582910
_cell_angle_alpha   89.95236109
_cell_angle_beta   90.00000000
_cell_angle_gamma   90.00000000
_symmetry_Int_Tables_number   1
_chemical_formula_structural   Er4ReTc2B16W
_chemical_formula_sum   'Er4 Re1 Tc2 B16 W1'
_cell_volume   247.25300778
_cell_formula_units_Z   1
loop_
 _symmetry_equiv_pos_site_id
 _symmetry_equiv_pos_as_xyz
  1  'x, y, z'
loop_
 _atom_site_type_symbol
 _atom_site_label
 _atom_site_symmetry_multiplicity
 _atom_site_fract_x
 _atom_site_fract_y
 _atom_site_fract_z
 _atom_site_occupancy
  Er  Er0  1  0.500000  0.871901  0.152849  1
  Er  Er1  1  0.500000  0.126999  0.847084  1
  Er  Er2  1  0.500000  0.371802  0.353359  1
  Er  Er3  1  0.500000  0.627439  0.647152  1
  Re  Re4  1  0.500000  0.631090  0.913882  1
  Tc  Tc5  1  0.500000  0.864619  0.412519  1
  Tc  Tc6  1  0.500000  0.135872  0.589211  1
  B  B7  1  0.000000  0.524200  0.194664  1
  B  B8  1  0.000000  0.478567  0.805555  1
  B  B9  1  0.000000  0.022244  0.308657  1
  B  B10  1  0.000000  0.976520  0.692171  1
  B  B11  1  0.000000  0.617498  0.046733  1
  B  B12  1  0.000000  0.386363  0.950272  1
  B  B13  1  0.000000  0.113496  0.453291  1
  B  B14  1  0.000000  0.886623  0.547350  1
  B  B15  1  0.000000  0.635722  0.469461  1
  B  B16  1  0.000000  0.364381  0.531193  1
  B  B17  1  0.000000  0.132212  0.030667  1
  B  B18  1  0.000000  0.865630  0.966893  1
  B  B19  1  0.000000  0.712785  0.316027  1
  B  B20  1  0.000000  0.287961  0.684768  1
  B  B21  1  0.000000  0.209211  0.187424  1
  B  B22  1  0.000000  0.788342  0.813668  1
  W  W23  1  0.500000  0.368524  0.085151  1
