# generated using pymatgen
data_UInOF4
_symmetry_space_group_name_H-M   'P 1'
_cell_length_a   8.53747000
_cell_length_b   8.53747000
_cell_length_c   4.15325000
_cell_angle_alpha   90.00000000
_cell_angle_beta   90.00000000
_cell_angle_gamma   90.00000000
_symmetry_Int_Tables_number   1
_chemical_formula_structural   UInOF4
_chemical_formula_sum   'U2 In2 O2 F8'
_cell_volume   302.72372238
_cell_formula_units_Z   2
loop_
 _symmetry_equiv_pos_site_id
 _symmetry_equiv_pos_as_xyz
  1  'x, y, z'
loop_
 _atom_site_type_symbol
 _atom_site_label
 _atom_site_symmetry_multiplicity
 _atom_site_fract_x
 _atom_site_fract_y
 _atom_site_fract_z
 _atom_site_occupancy
  U  U0  1  0.000000  0.500000  0.009422  1
  U  U1  1  0.500000  0.000000  0.990578  1
  In  In2  1  0.000000  0.000000  0.500000  1
  In  In3  1  0.500000  0.500000  0.500000  1
  O  O4  1  0.000000  0.500000  0.509972  1
  O  O5  1  0.500000  0.000000  0.490028  1
  F  F6  1  0.750305  0.500000  0.004689  1
  F  F7  1  0.249695  0.500000  0.004689  1
  F  F8  1  0.000000  0.250305  0.004689  1
  F  F9  1  0.000000  0.749695  0.004689  1
  F  F10  1  0.749695  0.000000  0.995311  1
  F  F11  1  0.250305  0.000000  0.995311  1
  F  F12  1  0.500000  0.249695  0.995311  1
  F  F13  1  0.500000  0.750305  0.995311  1
