# generated using pymatgen
data_Na2Tc3Ni9As7
_symmetry_space_group_name_H-M   'P 1'
_cell_length_a   9.47813000
_cell_length_b   9.47812969
_cell_length_c   3.80295000
_cell_angle_alpha   90.00000000
_cell_angle_beta   90.00000000
_cell_angle_gamma   120.00000109
_symmetry_Int_Tables_number   1
_chemical_formula_structural   Na2Tc3Ni9As7
_chemical_formula_sum   'Na2 Tc3 Ni9 As7'
_cell_volume   295.86701510
_cell_formula_units_Z   1
loop_
 _symmetry_equiv_pos_site_id
 _symmetry_equiv_pos_as_xyz
  1  'x, y, z'
loop_
 _atom_site_type_symbol
 _atom_site_label
 _atom_site_symmetry_multiplicity
 _atom_site_fract_x
 _atom_site_fract_y
 _atom_site_fract_z
 _atom_site_occupancy
  Na  Na0  1  0.333333  0.666667  0.000000  1
  Na  Na1  1  0.666667  0.333333  0.500000  1
  Tc  Tc2  1  0.212127  0.115321  0.500000  1
  Tc  Tc3  1  0.884679  0.096808  0.500000  1
  Tc  Tc4  1  0.903192  0.787873  0.500000  1
  Ni  Ni5  1  0.124211  0.283767  0.000000  1
  Ni  Ni6  1  0.716233  0.840444  0.000000  1
  Ni  Ni7  1  0.159556  0.875789  0.000000  1
  Ni  Ni8  1  0.429551  0.373831  0.000000  1
  Ni  Ni9  1  0.626169  0.055720  0.000000  1
  Ni  Ni10  1  0.944280  0.570449  0.000000  1
  Ni  Ni11  1  0.050982  0.434739  0.500000  1
  Ni  Ni12  1  0.565261  0.616244  0.500000  1
  Ni  Ni13  1  0.383756  0.949018  0.500000  1
  As  As14  1  0.291776  0.411349  0.500000  1
  As  As15  1  0.588651  0.880427  0.500000  1
  As  As16  1  0.119573  0.708224  0.500000  1
  As  As17  1  0.413033  0.119245  0.000000  1
  As  As18  1  0.880755  0.293788  0.000000  1
  As  As19  1  0.706212  0.586967  0.000000  1
  As  As20  1  0.000000  0.000000  0.000000  1
