# generated using pymatgen
data_Sr4Ca3Cd(P2O7)4
_symmetry_space_group_name_H-M   'P 1'
_cell_length_a   8.83136503
_cell_length_b   5.49231959
_cell_length_c   14.20091268
_cell_angle_alpha   66.55790530
_cell_angle_beta   89.66058656
_cell_angle_gamma   89.73718138
_symmetry_Int_Tables_number   1
_chemical_formula_structural   Sr4Ca3Cd(P2O7)4
_chemical_formula_sum   'Sr4 Ca3 Cd1 P8 O28'
_cell_volume   631.94510998
_cell_formula_units_Z   1
loop_
 _symmetry_equiv_pos_site_id
 _symmetry_equiv_pos_as_xyz
  1  'x, y, z'
loop_
 _atom_site_type_symbol
 _atom_site_label
 _atom_site_symmetry_multiplicity
 _atom_site_fract_x
 _atom_site_fract_y
 _atom_site_fract_z
 _atom_site_occupancy
  Sr  Sr0  1  0.322401  0.503460  0.768754  1
  Sr  Sr1  1  0.826335  0.487270  0.731616  1
  Sr  Sr2  1  0.674952  0.494483  0.231339  1
  Sr  Sr3  1  0.174172  0.513240  0.268471  1
  Ca  Ca4  1  0.362769  0.210142  0.091701  1
  Ca  Ca5  1  0.861283  0.793040  0.405568  1
  Ca  Ca6  1  0.635056  0.794413  0.906902  1
  Cd  Cd7  1  0.143092  0.215911  0.592338  1
  P  P8  1  0.221474  0.817748  0.471909  1
  P  P9  1  0.722388  0.197990  0.027095  1
  P  P10  1  0.782100  0.188070  0.527869  1
  P  P11  1  0.275624  0.804011  0.973147  1
  P  P12  1  0.469037  0.945498  0.320263  1
  P  P13  1  0.969973  0.060355  0.178942  1
  P  P14  1  0.529882  0.054803  0.679316  1
  P  P15  1  0.029295  0.928186  0.821942  1
  O  O16  1  0.123859  0.710091  0.407404  1
  O  O17  1  0.624048  0.335041  0.082687  1
  O  O18  1  0.884702  0.315686  0.584448  1
  O  O19  1  0.372576  0.666333  0.917011  1
  O  O20  1  0.174074  0.102916  0.455289  1
  O  O21  1  0.670077  0.913783  0.050722  1
  O  O22  1  0.825308  0.900375  0.550238  1
  O  O23  1  0.329373  0.087684  0.949124  1
  O  O24  1  0.222477  0.623928  0.584663  1
  O  O25  1  0.727449  0.377347  0.912906  1
  O  O26  1  0.777417  0.371687  0.414061  1
  O  O27  1  0.272046  0.624856  0.087393  1
  O  O28  1  0.437101  0.760085  0.265362  1
  O  O29  1  0.937794  0.240555  0.236352  1
  O  O30  1  0.554974  0.233473  0.738139  1
  O  O31  1  0.058457  0.727198  0.773814  1
  O  O32  1  0.102030  0.812316  0.936200  1
  O  O33  1  0.610314  0.195796  0.567705  1
  O  O34  1  0.894865  0.192217  0.065733  1
  O  O35  1  0.395248  0.821507  0.434640  1
  O  O36  1  0.862146  0.969543  0.838352  1
  O  O37  1  0.364115  0.018865  0.658113  1
  O  O38  1  0.137321  0.034148  0.158976  1
  O  O39  1  0.636874  0.972250  0.337797  1
  O  O40  1  0.105281  0.198025  0.760000  1
  O  O41  1  0.602112  0.780804  0.737670  1
  O  O42  1  0.899743  0.784237  0.236959  1
  O  O43  1  0.398384  0.220632  0.261072  1
