# generated using pymatgen
data_UP2WO10
_symmetry_space_group_name_H-M   'P 1'
_cell_length_a   5.75321622
_cell_length_b   5.39798087
_cell_length_c   7.72504860
_cell_angle_alpha   106.05831086
_cell_angle_beta   109.95571673
_cell_angle_gamma   96.70050349
_symmetry_Int_Tables_number   1
_chemical_formula_structural   UP2WO10
_chemical_formula_sum   'U1 P2 W1 O10'
_cell_volume   210.70320123
_cell_formula_units_Z   1
loop_
 _symmetry_equiv_pos_site_id
 _symmetry_equiv_pos_as_xyz
  1  'x, y, z'
loop_
 _atom_site_type_symbol
 _atom_site_label
 _atom_site_symmetry_multiplicity
 _atom_site_fract_x
 _atom_site_fract_y
 _atom_site_fract_z
 _atom_site_occupancy
  U  U0  1  0.000000  0.500000  0.000000  1
  P  P1  1  0.329609  0.141091  0.749169  1
  P  P2  1  0.670391  0.858909  0.250831  1
  W  W3  1  0.000000  0.500000  0.500000  1
  O  O4  1  0.175294  0.186443  0.881447  1
  O  O5  1  0.274470  0.843895  0.632584  1
  O  O6  1  0.928713  0.563277  0.758631  1
  O  O7  1  0.259359  0.295597  0.604042  1
  O  O8  1  0.740641  0.704403  0.395958  1
  O  O9  1  0.616271  0.238607  0.878736  1
  O  O10  1  0.383729  0.761393  0.121264  1
  O  O11  1  0.071287  0.436723  0.241369  1
  O  O12  1  0.725530  0.156105  0.367416  1
  O  O13  1  0.824706  0.813557  0.118553  1
