# generated using pymatgen
data_Pr7Th(Si3Au)4
_symmetry_space_group_name_H-M   'P 1'
_cell_length_a   8.31097033
_cell_length_b   8.31097106
_cell_length_c   8.74453300
_cell_angle_alpha   90.00000000
_cell_angle_beta   90.00000000
_cell_angle_gamma   120.06924813
_symmetry_Int_Tables_number   1
_chemical_formula_structural   Pr7Th(Si3Au)4
_chemical_formula_sum   'Pr7 Th1 Si12 Au4'
_cell_volume   522.71779503
_cell_formula_units_Z   1
loop_
 _symmetry_equiv_pos_site_id
 _symmetry_equiv_pos_as_xyz
  1  'x, y, z'
loop_
 _atom_site_type_symbol
 _atom_site_label
 _atom_site_symmetry_multiplicity
 _atom_site_fract_x
 _atom_site_fract_y
 _atom_site_fract_z
 _atom_site_occupancy
  Pr  Pr0  1  0.500261  0.499739  0.250000  1
  Pr  Pr1  1  0.000568  0.500336  0.750000  1
  Pr  Pr2  1  0.999446  0.499661  0.250000  1
  Pr  Pr3  1  0.499664  0.999432  0.750000  1
  Pr  Pr4  1  0.500339  0.000554  0.250000  1
  Pr  Pr5  1  0.000019  0.999981  0.750000  1
  Pr  Pr6  1  0.999985  0.000015  0.250000  1
  Th  Th7  1  0.499817  0.500183  0.750000  1
  Si  Si8  1  0.835387  0.164613  0.000231  1
  Si  Si9  1  0.164606  0.835394  0.000104  1
  Si  Si10  1  0.327337  0.163907  0.998775  1
  Si  Si11  1  0.164606  0.835394  0.499896  1
  Si  Si12  1  0.672608  0.836066  0.998442  1
  Si  Si13  1  0.835387  0.164613  0.499769  1
  Si  Si14  1  0.836093  0.672663  0.998775  1
  Si  Si15  1  0.672608  0.836066  0.501558  1
  Si  Si16  1  0.163934  0.327392  0.998442  1
  Si  Si17  1  0.327337  0.163907  0.501225  1
  Si  Si18  1  0.163934  0.327392  0.501558  1
  Si  Si19  1  0.836093  0.672663  0.501225  1
  Au  Au20  1  0.666177  0.333823  0.997546  1
  Au  Au21  1  0.333807  0.666193  0.999551  1
  Au  Au22  1  0.333807  0.666193  0.500449  1
  Au  Au23  1  0.666177  0.333823  0.502454  1
