# generated using pymatgen
data_Ce4Y11Tm(CdIr)4
_symmetry_space_group_name_H-M   'P 1'
_cell_length_a   9.67014095
_cell_length_b   9.68985176
_cell_length_c   9.68985228
_cell_angle_alpha   60.00680823
_cell_angle_beta   60.06727124
_cell_angle_gamma   60.06726984
_symmetry_Int_Tables_number   1
_chemical_formula_structural   Ce4Y11Tm(CdIr)4
_chemical_formula_sum   'Ce4 Y11 Tm1 Cd4 Ir4'
_cell_volume   642.71039273
_cell_formula_units_Z   1
loop_
 _symmetry_equiv_pos_site_id
 _symmetry_equiv_pos_as_xyz
  1  'x, y, z'
loop_
 _atom_site_type_symbol
 _atom_site_label
 _atom_site_symmetry_multiplicity
 _atom_site_fract_x
 _atom_site_fract_y
 _atom_site_fract_z
 _atom_site_occupancy
  Ce  Ce0  1  0.349386  0.349020  0.349020  1
  Ce  Ce1  1  0.349258  0.349311  0.952173  1
  Ce  Ce2  1  0.349258  0.952173  0.349311  1
  Ce  Ce3  1  0.952574  0.349020  0.349020  1
  Y  Y4  1  0.189013  0.810987  0.810987  1
  Y  Y5  1  0.188042  0.811828  0.188161  1
  Y  Y6  1  0.811968  0.188161  0.811828  1
  Y  Y7  1  0.188042  0.188161  0.811828  1
  Y  Y8  1  0.811968  0.811828  0.188161  1
  Y  Y9  1  0.937819  0.562181  0.562181  1
  Y  Y10  1  0.561793  0.938207  0.938207  1
  Y  Y11  1  0.562389  0.939643  0.560766  1
  Y  Y12  1  0.937202  0.560766  0.939643  1
  Y  Y13  1  0.562389  0.560766  0.939643  1
  Y  Y14  1  0.937202  0.939643  0.560766  1
  Tm  Tm15  1  0.811063  0.188937  0.188937  1
  Cd  Cd16  1  0.582183  0.581052  0.581052  1
  Cd  Cd17  1  0.581950  0.581265  0.254835  1
  Cd  Cd18  1  0.581950  0.254835  0.581265  1
  Cd  Cd19  1  0.255715  0.581052  0.581052  1
  Ir  Ir20  1  0.139985  0.144985  0.144985  1
  Ir  Ir21  1  0.144403  0.143511  0.567682  1
  Ir  Ir22  1  0.144403  0.567682  0.143511  1
  Ir  Ir23  1  0.570045  0.144985  0.144985  1
