# generated using pymatgen
data_Lu4Mg(SiB4)2
_symmetry_space_group_name_H-M   'P 1'
_cell_length_a   7.07565300
_cell_length_b   7.07565300
_cell_length_c   7.64644400
_cell_angle_alpha   90.00000000
_cell_angle_beta   90.00000000
_cell_angle_gamma   90.00000000
_symmetry_Int_Tables_number   1
_chemical_formula_structural   Lu4Mg(SiB4)2
_chemical_formula_sum   'Lu8 Mg2 Si4 B16'
_cell_volume   382.81818947
_cell_formula_units_Z   2
loop_
 _symmetry_equiv_pos_site_id
 _symmetry_equiv_pos_as_xyz
  1  'x, y, z'
loop_
 _atom_site_type_symbol
 _atom_site_label
 _atom_site_symmetry_multiplicity
 _atom_site_fract_x
 _atom_site_fract_y
 _atom_site_fract_z
 _atom_site_occupancy
  Lu  Lu0  1  0.682078  0.182078  0.231262  1
  Lu  Lu1  1  0.317922  0.817922  0.768738  1
  Lu  Lu2  1  0.317922  0.817922  0.231262  1
  Lu  Lu3  1  0.817922  0.682078  0.231262  1
  Lu  Lu4  1  0.817922  0.682078  0.768738  1
  Lu  Lu5  1  0.682078  0.182078  0.768738  1
  Lu  Lu6  1  0.182078  0.317922  0.768738  1
  Lu  Lu7  1  0.182078  0.317922  0.231262  1
  Mg  Mg8  1  0.000000  0.000000  0.500000  1
  Mg  Mg9  1  0.500000  0.500000  0.500000  1
  Si  Si10  1  0.116157  0.616157  0.500000  1
  Si  Si11  1  0.883843  0.383843  0.500000  1
  Si  Si12  1  0.383843  0.116157  0.500000  1
  Si  Si13  1  0.616157  0.883843  0.500000  1
  B  B14  1  0.174162  0.039334  0.000000  1
  B  B15  1  0.825838  0.960666  0.000000  1
  B  B16  1  0.960666  0.174162  0.000000  1
  B  B17  1  0.325838  0.539334  0.000000  1
  B  B18  1  0.039334  0.825838  0.000000  1
  B  B19  1  0.674162  0.460666  0.000000  1
  B  B20  1  0.539334  0.674162  0.000000  1
  B  B21  1  0.460666  0.325838  0.000000  1
  B  B22  1  0.088452  0.588452  0.000000  1
  B  B23  1  0.911548  0.411548  0.000000  1
  B  B24  1  0.411548  0.088452  0.000000  1
  B  B25  1  0.588452  0.911548  0.000000  1
  B  B26  1  0.000000  0.000000  0.168301  1
  B  B27  1  0.000000  0.000000  0.831699  1
  B  B28  1  0.500000  0.500000  0.831699  1
  B  B29  1  0.500000  0.500000  0.168301  1
