# generated using pymatgen
data_Sc5Sn6Ru12W
_symmetry_space_group_name_H-M   'P 1'
_cell_length_a   4.54085700
_cell_length_b   6.39725300
_cell_length_c   13.60199300
_cell_angle_alpha   90.00000000
_cell_angle_beta   89.99803855
_cell_angle_gamma   90.00000000
_symmetry_Int_Tables_number   1
_chemical_formula_structural   Sc5Sn6Ru12W
_chemical_formula_sum   'Sc5 Sn6 Ru12 W1'
_cell_volume   395.12444506
_cell_formula_units_Z   1
loop_
 _symmetry_equiv_pos_site_id
 _symmetry_equiv_pos_as_xyz
  1  'x, y, z'
loop_
 _atom_site_type_symbol
 _atom_site_label
 _atom_site_symmetry_multiplicity
 _atom_site_fract_x
 _atom_site_fract_y
 _atom_site_fract_z
 _atom_site_occupancy
  Sc  Sc0  1  0.499890  0.500001  0.166510  1
  Sc  Sc1  1  0.999846  0.000000  0.334195  1
  Sc  Sc2  1  0.500001  0.500001  0.500000  1
  Sc  Sc3  1  0.000154  0.000000  0.665804  1
  Sc  Sc4  1  0.500109  0.500001  0.833491  1
  Sn  Sn5  1  0.000000  0.500001  0.000000  1
  Sn  Sn6  1  0.499881  0.000000  0.171002  1
  Sn  Sn7  1  0.999880  0.500001  0.332260  1
  Sn  Sn8  1  0.500001  0.000000  0.500000  1
  Sn  Sn9  1  0.000116  0.500001  0.667739  1
  Sn  Sn10  1  0.500118  0.000000  0.828999  1
  Ru  Ru11  1  0.500001  0.233145  0.000000  1
  Ru  Ru12  1  0.500001  0.766855  0.000000  1
  Ru  Ru13  1  0.999906  0.243089  0.159586  1
  Ru  Ru14  1  0.999906  0.756911  0.159586  1
  Ru  Ru15  1  0.499876  0.251714  0.332277  1
  Ru  Ru16  1  0.499876  0.748285  0.332277  1
  Ru  Ru17  1  0.000000  0.250575  0.500000  1
  Ru  Ru18  1  0.000000  0.749428  0.500000  1
  Ru  Ru19  1  0.500123  0.251714  0.667722  1
  Ru  Ru20  1  0.500123  0.748285  0.667722  1
  Ru  Ru21  1  0.000094  0.243089  0.840414  1
  Ru  Ru22  1  0.000094  0.756911  0.840414  1
  W  W23  1  0.000000  0.000000  0.000000  1
