# generated using pymatgen
data_LaNd3Cd2(PdAu)2
_symmetry_space_group_name_H-M   'P 1'
_cell_length_a   8.03438639
_cell_length_b   8.03438671
_cell_length_c   3.92772100
_cell_angle_alpha   90.00000000
_cell_angle_beta   90.00000000
_cell_angle_gamma   89.16461694
_symmetry_Int_Tables_number   1
_chemical_formula_structural   LaNd3Cd2(PdAu)2
_chemical_formula_sum   'La1 Nd3 Cd2 Pd2 Au2'
_cell_volume   253.51281207
_cell_formula_units_Z   1
loop_
 _symmetry_equiv_pos_site_id
 _symmetry_equiv_pos_as_xyz
  1  'x, y, z'
loop_
 _atom_site_type_symbol
 _atom_site_label
 _atom_site_symmetry_multiplicity
 _atom_site_fract_x
 _atom_site_fract_y
 _atom_site_fract_z
 _atom_site_occupancy
  La  La0  1  0.179990  0.320010  0.500000  1
  Nd  Nd1  1  0.667789  0.165655  0.500000  1
  Nd  Nd2  1  0.334345  0.832211  0.500000  1
  Nd  Nd3  1  0.820743  0.679257  0.500000  1
  Cd  Cd4  1  0.999023  0.998841  0.000000  1
  Cd  Cd5  1  0.501159  0.500977  0.000000  1
  Pd  Pd6  1  0.626028  0.873972  0.000000  1
  Pd  Pd7  1  0.372894  0.127106  0.000000  1
  Au  Au8  1  0.127667  0.629640  0.000000  1
  Au  Au9  1  0.870360  0.372333  0.000000  1
