# generated using pymatgen
data_Cs2Ti(SeO3)3
_symmetry_space_group_name_H-M   'P 1'
_cell_length_a   8.31367600
_cell_length_b   8.31367503
_cell_length_c   9.98612700
_cell_angle_alpha   90.00000000
_cell_angle_beta   90.00000000
_cell_angle_gamma   119.99999689
_symmetry_Int_Tables_number   1
_chemical_formula_structural   Cs2Ti(SeO3)3
_chemical_formula_sum   'Cs4 Ti2 Se6 O18'
_cell_volume   597.74213436
_cell_formula_units_Z   2
loop_
 _symmetry_equiv_pos_site_id
 _symmetry_equiv_pos_as_xyz
  1  'x, y, z'
loop_
 _atom_site_type_symbol
 _atom_site_label
 _atom_site_symmetry_multiplicity
 _atom_site_fract_x
 _atom_site_fract_y
 _atom_site_fract_z
 _atom_site_occupancy
  Cs  Cs0  1  0.333333  0.666667  0.454109  1
  Cs  Cs1  1  0.666667  0.333333  0.954109  1
  Cs  Cs2  1  0.666667  0.333333  0.545891  1
  Cs  Cs3  1  0.333333  0.666667  0.045891  1
  Ti  Ti4  1  0.000000  0.000000  0.500000  1
  Ti  Ti5  1  0.000000  0.000000  0.000000  1
  Se  Se6  1  0.214829  0.911006  0.750000  1
  Se  Se7  1  0.696178  0.785171  0.750000  1
  Se  Se8  1  0.088994  0.303822  0.750000  1
  Se  Se9  1  0.303822  0.214829  0.250000  1
  Se  Se10  1  0.911006  0.696178  0.250000  1
  Se  Se11  1  0.785171  0.088994  0.250000  1
  O  O12  1  0.167355  0.215782  0.386561  1
  O  O13  1  0.951573  0.167355  0.886561  1
  O  O14  1  0.215782  0.048427  0.886561  1
  O  O15  1  0.784218  0.951573  0.386561  1
  O  O16  1  0.048427  0.832645  0.386561  1
  O  O17  1  0.832645  0.784218  0.886561  1
  O  O18  1  0.832645  0.784218  0.613439  1
  O  O19  1  0.048427  0.832645  0.113439  1
  O  O20  1  0.784218  0.951573  0.113439  1
  O  O21  1  0.215782  0.048427  0.613439  1
  O  O22  1  0.951573  0.167355  0.613439  1
  O  O23  1  0.167355  0.215782  0.113439  1
  O  O24  1  0.562805  0.037434  0.250000  1
  O  O25  1  0.525370  0.562805  0.750000  1
  O  O26  1  0.037434  0.474630  0.750000  1
  O  O27  1  0.962566  0.525370  0.250000  1
  O  O28  1  0.474630  0.437195  0.250000  1
  O  O29  1  0.437195  0.962566  0.750000  1
