# generated using pymatgen
data_Tm3HfMn7CoP6
_symmetry_space_group_name_H-M   'P 1'
_cell_length_a   3.67591400
_cell_length_b   10.87879200
_cell_length_c   12.80116400
_cell_angle_alpha   90.00000000
_cell_angle_beta   90.00000000
_cell_angle_gamma   90.00000000
_symmetry_Int_Tables_number   1
_chemical_formula_structural   Tm3HfMn7CoP6
_chemical_formula_sum   'Tm6 Hf2 Mn14 Co2 P12'
_cell_volume   511.91219663
_cell_formula_units_Z   2
loop_
 _symmetry_equiv_pos_site_id
 _symmetry_equiv_pos_as_xyz
  1  'x, y, z'
loop_
 _atom_site_type_symbol
 _atom_site_label
 _atom_site_symmetry_multiplicity
 _atom_site_fract_x
 _atom_site_fract_y
 _atom_site_fract_z
 _atom_site_occupancy
  Tm  Tm0  1  0.000000  0.500000  0.536050  1
  Tm  Tm1  1  0.500000  0.000000  0.463950  1
  Tm  Tm2  1  0.500000  0.825959  0.207264  1
  Tm  Tm3  1  0.500000  0.174041  0.207264  1
  Tm  Tm4  1  0.000000  0.674041  0.792736  1
  Tm  Tm5  1  0.000000  0.325959  0.792736  1
  Hf  Hf6  1  0.500000  0.500000  0.165901  1
  Hf  Hf7  1  0.000000  0.000000  0.834099  1
  Mn  Mn8  1  0.000000  0.500000  0.989803  1
  Mn  Mn9  1  0.500000  0.000000  0.010197  1
  Mn  Mn10  1  0.500000  0.332693  0.995264  1
  Mn  Mn11  1  0.500000  0.667307  0.995264  1
  Mn  Mn12  1  0.000000  0.167307  0.004736  1
  Mn  Mn13  1  0.000000  0.832693  0.004736  1
  Mn  Mn14  1  0.500000  0.294945  0.435627  1
  Mn  Mn15  1  0.500000  0.705055  0.435627  1
  Mn  Mn16  1  0.000000  0.205055  0.564373  1
  Mn  Mn17  1  0.000000  0.794945  0.564373  1
  Mn  Mn18  1  0.500000  0.879023  0.693783  1
  Mn  Mn19  1  0.500000  0.120977  0.693783  1
  Mn  Mn20  1  0.000000  0.620977  0.306217  1
  Mn  Mn21  1  0.000000  0.379023  0.306217  1
  Co  Co22  1  0.500000  0.500000  0.705346  1
  Co  Co23  1  0.000000  0.000000  0.294654  1
  P  P24  1  0.500000  0.500000  0.878487  1
  P  P25  1  0.000000  0.000000  0.121513  1
  P  P26  1  0.500000  0.500000  0.371266  1
  P  P27  1  0.000000  0.000000  0.628734  1
  P  P28  1  0.500000  0.319903  0.618242  1
  P  P29  1  0.500000  0.680097  0.618242  1
  P  P30  1  0.000000  0.180097  0.381758  1
  P  P31  1  0.000000  0.819903  0.381758  1
  P  P32  1  0.500000  0.837288  0.886585  1
  P  P33  1  0.500000  0.162712  0.886585  1
  P  P34  1  0.000000  0.662712  0.113415  1
  P  P35  1  0.000000  0.337288  0.113415  1
