# generated using pymatgen
data_Hf3Tc2MoAs3
_symmetry_space_group_name_H-M   'P 1'
_cell_length_a   7.80904401
_cell_length_b   7.80904586
_cell_length_c   7.80904473
_cell_angle_alpha   126.75977505
_cell_angle_beta   125.05739723
_cell_angle_gamma   80.04596423
_symmetry_Int_Tables_number   1
_chemical_formula_structural   Hf3Tc2MoAs3
_chemical_formula_sum   'Hf6 Tc4 Mo2 As6'
_cell_volume   301.50718139
_cell_formula_units_Z   2
loop_
 _symmetry_equiv_pos_site_id
 _symmetry_equiv_pos_as_xyz
  1  'x, y, z'
loop_
 _atom_site_type_symbol
 _atom_site_label
 _atom_site_symmetry_multiplicity
 _atom_site_fract_x
 _atom_site_fract_y
 _atom_site_fract_z
 _atom_site_occupancy
  Hf  Hf0  1  0.459464  0.675585  0.716121  1
  Hf  Hf1  1  0.540536  0.256657  0.216121  1
  Hf  Hf2  1  0.748424  0.844553  0.596129  1
  Hf  Hf3  1  0.251576  0.847706  0.096129  1
  Hf  Hf4  1  0.054734  0.260335  0.705601  1
  Hf  Hf5  1  0.945266  0.650868  0.205601  1
  Tc  Tc6  1  0.098825  0.253183  0.099710  1
  Tc  Tc7  1  0.901175  0.000885  0.154357  1
  Tc  Tc8  1  0.346528  0.000885  0.599710  1
  Tc  Tc9  1  0.653472  0.253183  0.654357  1
  Mo  Mo10  1  0.500000  0.502992  0.002992  1
  Mo  Mo11  1  0.000000  0.502992  0.502992  1
  As  As12  1  0.270511  0.263484  0.492974  1
  As  As13  1  0.729489  0.222465  0.992974  1
  As  As14  1  0.329261  0.587821  0.253353  1
  As  As15  1  0.670739  0.924092  0.258560  1
  As  As16  1  0.165532  0.924092  0.753353  1
  As  As17  1  0.834468  0.587821  0.758560  1
