# generated using pymatgen
data_Hf3Tc5Sb3Ru
_symmetry_space_group_name_H-M   'P 1'
_cell_length_a   4.56132704
_cell_length_b   6.50860513
_cell_length_c   13.72901414
_cell_angle_alpha   90.01626267
_cell_angle_beta   89.99819528
_cell_angle_gamma   89.98420781
_symmetry_Int_Tables_number   1
_chemical_formula_structural   Hf3Tc5Sb3Ru
_chemical_formula_sum   'Hf6 Tc10 Sb6 Ru2'
_cell_volume   407.58524532
_cell_formula_units_Z   2
loop_
 _symmetry_equiv_pos_site_id
 _symmetry_equiv_pos_as_xyz
  1  'x, y, z'
loop_
 _atom_site_type_symbol
 _atom_site_label
 _atom_site_symmetry_multiplicity
 _atom_site_fract_x
 _atom_site_fract_y
 _atom_site_fract_z
 _atom_site_occupancy
  Hf  Hf0  1  0.000000  0.500000  0.000000  1
  Hf  Hf1  1  0.499968  0.000045  0.166757  1
  Hf  Hf2  1  0.999951  0.499998  0.333212  1
  Hf  Hf3  1  0.500000  0.000000  0.500000  1
  Hf  Hf4  1  0.000048  0.500002  0.666787  1
  Hf  Hf5  1  0.500033  0.999955  0.833243  1
  Tc  Tc6  1  0.999902  0.249241  0.165175  1
  Tc  Tc7  1  0.000025  0.750755  0.165199  1
  Tc  Tc8  1  0.500084  0.250031  0.332876  1
  Tc  Tc9  1  0.499788  0.749965  0.332842  1
  Tc  Tc10  1  0.999815  0.249381  0.499976  1
  Tc  Tc11  1  0.000185  0.750620  0.500024  1
  Tc  Tc12  1  0.500213  0.250035  0.667157  1
  Tc  Tc13  1  0.499917  0.749969  0.667123  1
  Tc  Tc14  1  0.999975  0.249245  0.834801  1
  Tc  Tc15  1  0.000098  0.750759  0.834825  1
  Sb  Sb16  1  0.000000  0.000000  0.000000  1
  Sb  Sb17  1  0.499956  0.499993  0.168511  1
  Sb  Sb18  1  0.999941  0.000006  0.333145  1
  Sb  Sb19  1  0.500000  0.500000  0.500000  1
  Sb  Sb20  1  0.000060  0.999994  0.666855  1
  Sb  Sb21  1  0.500045  0.500007  0.831490  1
  Ru  Ru22  1  0.500012  0.252638  0.000005  1
  Ru  Ru23  1  0.499988  0.747364  0.999995  1
