# generated using pymatgen
data_Pr7Er9(MgSn4)4
_symmetry_space_group_name_H-M   'P 1'
_cell_length_a   7.79800719
_cell_length_b   8.34828235
_cell_length_c   15.39446151
_cell_angle_alpha   90.06275417
_cell_angle_beta   90.02035324
_cell_angle_gamma   90.01523378
_symmetry_Int_Tables_number   1
_chemical_formula_structural   Pr7Er9(MgSn4)4
_chemical_formula_sum   'Pr7 Er9 Mg4 Sn16'
_cell_volume   1002.17821786
_cell_formula_units_Z   1
loop_
 _symmetry_equiv_pos_site_id
 _symmetry_equiv_pos_as_xyz
  1  'x, y, z'
loop_
 _atom_site_type_symbol
 _atom_site_label
 _atom_site_symmetry_multiplicity
 _atom_site_fract_x
 _atom_site_fract_y
 _atom_site_fract_z
 _atom_site_occupancy
  Pr  Pr0  1  0.000777  0.180427  0.095156  1
  Pr  Pr1  1  0.999492  0.818653  0.902749  1
  Pr  Pr2  1  0.498114  0.680362  0.905713  1
  Pr  Pr3  1  0.000208  0.818405  0.595243  1
  Pr  Pr4  1  0.500767  0.319607  0.094922  1
  Pr  Pr5  1  0.002118  0.181618  0.406497  1
  Pr  Pr6  1  0.500707  0.319251  0.406665  1
  Er  Er7  1  0.501153  0.682886  0.594324  1
  Er  Er8  1  0.335642  0.170667  0.627612  1
  Er  Er9  1  0.664062  0.828510  0.373477  1
  Er  Er10  1  0.164219  0.670022  0.373577  1
  Er  Er11  1  0.664859  0.829145  0.127336  1
  Er  Er12  1  0.834775  0.329573  0.627147  1
  Er  Er13  1  0.336179  0.170908  0.870925  1
  Er  Er14  1  0.833735  0.329533  0.871170  1
  Er  Er15  1  0.164348  0.671072  0.127103  1
  Mg  Mg16  1  0.158552  0.504388  0.749318  1
  Mg  Mg17  1  0.836788  0.497238  0.250302  1
  Mg  Mg18  1  0.338101  0.003708  0.250794  1
  Mg  Mg19  1  0.662778  0.994324  0.749254  1
  Sn  Sn20  1  0.026324  0.104402  0.749683  1
  Sn  Sn21  1  0.974306  0.894285  0.250565  1
  Sn  Sn22  1  0.473690  0.606014  0.250671  1
  Sn  Sn23  1  0.522963  0.398915  0.747836  1
  Sn  Sn24  1  0.181868  0.464452  0.541459  1
  Sn  Sn25  1  0.822599  0.540455  0.463049  1
  Sn  Sn26  1  0.325177  0.957758  0.462734  1
  Sn  Sn27  1  0.824515  0.539624  0.037910  1
  Sn  Sn28  1  0.675324  0.036194  0.540405  1
  Sn  Sn29  1  0.174695  0.459512  0.961029  1
  Sn  Sn30  1  0.676315  0.039488  0.961013  1
  Sn  Sn31  1  0.323836  0.960789  0.037806  1
  Sn  Sn32  1  0.306715  0.856916  0.747316  1
  Sn  Sn33  1  0.698945  0.138778  0.250781  1
  Sn  Sn34  1  0.198604  0.361318  0.250474  1
  Sn  Sn35  1  0.796750  0.640801  0.747985  1
