# generated using pymatgen
data_Er3Lu9In2Fe3
_symmetry_space_group_name_H-M   'P 1'
_cell_length_a   8.19491320
_cell_length_b   8.19491439
_cell_length_c   8.20563148
_cell_angle_alpha   108.43727075
_cell_angle_beta   108.43727603
_cell_angle_gamma   111.50856145
_symmetry_Int_Tables_number   1
_chemical_formula_structural   Er3Lu9In2Fe3
_chemical_formula_sum   'Er3 Lu9 In2 Fe3'
_cell_volume   424.06045897
_cell_formula_units_Z   1
loop_
 _symmetry_equiv_pos_site_id
 _symmetry_equiv_pos_as_xyz
  1  'x, y, z'
loop_
 _atom_site_type_symbol
 _atom_site_label
 _atom_site_symmetry_multiplicity
 _atom_site_fract_x
 _atom_site_fract_y
 _atom_site_fract_z
 _atom_site_occupancy
  Er  Er0  1  0.307005  0.307924  0.614929  1
  Er  Er1  1  0.692076  0.692995  0.385071  1
  Er  Er2  1  0.692860  0.307140  0.000000  1
  Lu  Lu3  1  0.308181  0.691819  0.000000  1
  Lu  Lu4  1  0.189911  0.425556  0.234876  1
  Lu  Lu5  1  0.811309  0.574800  0.764780  1
  Lu  Lu6  1  0.189981  0.953470  0.764780  1
  Lu  Lu7  1  0.955033  0.190679  0.765124  1
  Lu  Lu8  1  0.809321  0.044967  0.234876  1
  Lu  Lu9  1  0.046530  0.810019  0.235220  1
  Lu  Lu10  1  0.425200  0.188691  0.235220  1
  Lu  Lu11  1  0.574444  0.810089  0.765124  1
  In  In12  1  0.998927  0.499446  0.498373  1
  In  In13  1  0.500554  0.001073  0.501627  1
  Fe  Fe14  1  0.382410  0.383850  0.000000  1
  Fe  Fe15  1  0.616150  0.617590  0.000000  1
  Fe  Fe16  1  0.000109  0.999891  0.000000  1
