# generated using pymatgen
data_Tb6YbRhI12
_symmetry_space_group_name_H-M   'P 1'
_cell_length_a   9.82041071
_cell_length_b   9.82041021
_cell_length_c   9.82041200
_cell_angle_alpha   106.84785489
_cell_angle_beta   106.84784792
_cell_angle_gamma   106.84785410
_symmetry_Int_Tables_number   1
_chemical_formula_structural   Tb6YbRhI12
_chemical_formula_sum   'Tb6 Yb1 Rh1 I12'
_cell_volume   791.99231186
_cell_formula_units_Z   1
loop_
 _symmetry_equiv_pos_site_id
 _symmetry_equiv_pos_as_xyz
  1  'x, y, z'
loop_
 _atom_site_type_symbol
 _atom_site_label
 _atom_site_symmetry_multiplicity
 _atom_site_fract_x
 _atom_site_fract_y
 _atom_site_fract_z
 _atom_site_occupancy
  Tb  Tb0  1  0.905383  0.978716  0.701755  1
  Tb  Tb1  1  0.701755  0.905383  0.978716  1
  Tb  Tb2  1  0.978716  0.701755  0.905383  1
  Tb  Tb3  1  0.094617  0.021284  0.298245  1
  Tb  Tb4  1  0.298245  0.094617  0.021284  1
  Tb  Tb5  1  0.021284  0.298245  0.094617  1
  Yb  Yb6  1  0.500000  0.500000  0.500000  1
  Rh  Rh7  1  0.000000  0.000000  0.000000  1
  I  I8  1  0.926354  0.322460  0.774970  1
  I  I9  1  0.774970  0.926354  0.322460  1
  I  I10  1  0.322460  0.774970  0.926354  1
  I  I11  1  0.073646  0.677540  0.225030  1
  I  I12  1  0.225030  0.073646  0.677540  1
  I  I13  1  0.677540  0.225030  0.073646  1
  I  I14  1  0.543281  0.847514  0.621145  1
  I  I15  1  0.621145  0.543281  0.847514  1
  I  I16  1  0.847514  0.621145  0.543281  1
  I  I17  1  0.456719  0.152486  0.378855  1
  I  I18  1  0.378855  0.456719  0.152486  1
  I  I19  1  0.152486  0.378855  0.456719  1
