# generated using pymatgen
data_Ac3Dy2(Sn5Ir2)2
_symmetry_space_group_name_H-M   'P 1'
_cell_length_a   14.32117800
_cell_length_b   14.32117800
_cell_length_c   4.70732800
_cell_angle_alpha   90.00000000
_cell_angle_beta   90.00000000
_cell_angle_gamma   90.00000000
_symmetry_Int_Tables_number   1
_chemical_formula_structural   Ac3Dy2(Sn5Ir2)2
_chemical_formula_sum   'Ac6 Dy4 Sn20 Ir8'
_cell_volume   965.45479925
_cell_formula_units_Z   2
loop_
 _symmetry_equiv_pos_site_id
 _symmetry_equiv_pos_as_xyz
  1  'x, y, z'
loop_
 _atom_site_type_symbol
 _atom_site_label
 _atom_site_symmetry_multiplicity
 _atom_site_fract_x
 _atom_site_fract_y
 _atom_site_fract_z
 _atom_site_occupancy
  Ac  Ac0  1  0.500000  0.500000  0.000000  1
  Ac  Ac1  1  0.000000  0.000000  0.000000  1
  Ac  Ac2  1  0.887049  0.387049  0.500000  1
  Ac  Ac3  1  0.112951  0.612951  0.500000  1
  Ac  Ac4  1  0.387049  0.112951  0.500000  1
  Ac  Ac5  1  0.612951  0.887049  0.500000  1
  Dy  Dy6  1  0.674725  0.174725  0.500000  1
  Dy  Dy7  1  0.325275  0.825275  0.500000  1
  Dy  Dy8  1  0.174725  0.325275  0.500000  1
  Dy  Dy9  1  0.825275  0.674725  0.500000  1
  Sn  Sn10  1  0.570957  0.070957  0.000000  1
  Sn  Sn11  1  0.429043  0.929043  0.000000  1
  Sn  Sn12  1  0.070957  0.429043  0.000000  1
  Sn  Sn13  1  0.929043  0.570957  0.000000  1
  Sn  Sn14  1  0.655823  0.697977  0.000000  1
  Sn  Sn15  1  0.344177  0.302023  0.000000  1
  Sn  Sn16  1  0.155823  0.802023  0.000000  1
  Sn  Sn17  1  0.844177  0.197977  0.000000  1
  Sn  Sn18  1  0.302023  0.655823  0.000000  1
  Sn  Sn19  1  0.697977  0.344177  0.000000  1
  Sn  Sn20  1  0.197977  0.155823  0.000000  1
  Sn  Sn21  1  0.802023  0.844177  0.000000  1
  Sn  Sn22  1  0.665675  0.509739  0.500000  1
  Sn  Sn23  1  0.334325  0.490261  0.500000  1
  Sn  Sn24  1  0.165675  0.990261  0.500000  1
  Sn  Sn25  1  0.834325  0.009739  0.500000  1
  Sn  Sn26  1  0.490261  0.665675  0.500000  1
  Sn  Sn27  1  0.509739  0.334325  0.500000  1
  Sn  Sn28  1  0.009739  0.165675  0.500000  1
  Sn  Sn29  1  0.990261  0.834325  0.500000  1
  Ir  Ir30  1  0.747157  0.530059  0.000000  1
  Ir  Ir31  1  0.252843  0.469941  0.000000  1
  Ir  Ir32  1  0.247157  0.969941  0.000000  1
  Ir  Ir33  1  0.752843  0.030059  0.000000  1
  Ir  Ir34  1  0.469941  0.747157  0.000000  1
  Ir  Ir35  1  0.530059  0.252843  0.000000  1
  Ir  Ir36  1  0.030059  0.247157  0.000000  1
  Ir  Ir37  1  0.969941  0.752843  0.000000  1
