# generated using pymatgen
data_YLu(Th2In5)2
_symmetry_space_group_name_H-M   'P 1'
_cell_length_a   6.58215201
_cell_length_b   6.58215256
_cell_length_c   10.32680900
_cell_angle_alpha   90.00000000
_cell_angle_beta   90.00000000
_cell_angle_gamma   102.35564576
_symmetry_Int_Tables_number   1
_chemical_formula_structural   YLu(Th2In5)2
_chemical_formula_sum   'Y1 Lu1 Th4 In10'
_cell_volume   437.04347360
_cell_formula_units_Z   1
loop_
 _symmetry_equiv_pos_site_id
 _symmetry_equiv_pos_as_xyz
  1  'x, y, z'
loop_
 _atom_site_type_symbol
 _atom_site_label
 _atom_site_symmetry_multiplicity
 _atom_site_fract_x
 _atom_site_fract_y
 _atom_site_fract_z
 _atom_site_occupancy
  Y  Y0  1  0.131354  0.131354  0.750000  1
  Lu  Lu1  1  0.868400  0.868400  0.250000  1
  Th  Th2  1  0.706106  0.293682  0.000127  1
  Th  Th3  1  0.706106  0.293682  0.499873  1
  Th  Th4  1  0.293682  0.706106  0.000127  1
  Th  Th5  1  0.293682  0.706106  0.499873  1
  In  In6  1  0.510688  0.510688  0.750000  1
  In  In7  1  0.489988  0.489988  0.250000  1
  In  In8  1  0.811145  0.811145  0.545626  1
  In  In9  1  0.188634  0.188634  0.453553  1
  In  In10  1  0.811145  0.811145  0.954374  1
  In  In11  1  0.188634  0.188634  0.046447  1
  In  In12  1  0.993244  0.568315  0.750000  1
  In  In13  1  0.432482  0.006396  0.250000  1
  In  In14  1  0.006396  0.432482  0.250000  1
  In  In15  1  0.568315  0.993244  0.750000  1
