# generated using pymatgen
data_CaTh7(Sc3Sn4)4
_symmetry_space_group_name_H-M   'P 1'
_cell_length_a   7.90523178
_cell_length_b   7.98093710
_cell_length_c   15.03693540
_cell_angle_alpha   90.05117765
_cell_angle_beta   90.03976449
_cell_angle_gamma   89.96850489
_symmetry_Int_Tables_number   1
_chemical_formula_structural   CaTh7(Sc3Sn4)4
_chemical_formula_sum   'Ca1 Th7 Sc12 Sn16'
_cell_volume   948.69691039
_cell_formula_units_Z   1
loop_
 _symmetry_equiv_pos_site_id
 _symmetry_equiv_pos_as_xyz
  1  'x, y, z'
loop_
 _atom_site_type_symbol
 _atom_site_label
 _atom_site_symmetry_multiplicity
 _atom_site_fract_x
 _atom_site_fract_y
 _atom_site_fract_z
 _atom_site_occupancy
  Ca  Ca0  1  0.516573  0.325086  0.905586  1
  Th  Th1  1  0.015814  0.174670  0.594558  1
  Th  Th2  1  0.483973  0.674241  0.405401  1
  Th  Th3  1  0.983864  0.825829  0.094156  1
  Th  Th4  1  0.484976  0.675089  0.094253  1
  Th  Th5  1  0.984210  0.825352  0.405639  1
  Th  Th6  1  0.515319  0.325041  0.593904  1
  Th  Th7  1  0.015746  0.174274  0.905628  1
  Sc  Sc8  1  0.351813  0.840243  0.874003  1
  Sc  Sc9  1  0.851670  0.659559  0.626097  1
  Sc  Sc10  1  0.647741  0.160338  0.374295  1
  Sc  Sc11  1  0.146933  0.339682  0.126096  1
  Sc  Sc12  1  0.648497  0.160266  0.125997  1
  Sc  Sc13  1  0.148370  0.340104  0.374117  1
  Sc  Sc14  1  0.352234  0.840001  0.625926  1
  Sc  Sc15  1  0.852808  0.660034  0.874007  1
  Sc  Sc16  1  0.183725  0.500196  0.750050  1
  Sc  Sc17  1  0.683716  0.998712  0.749919  1
  Sc  Sc18  1  0.816775  0.499059  0.250054  1
  Sc  Sc19  1  0.316295  0.000763  0.249948  1
  Sn  Sn20  1  0.311146  0.044504  0.044577  1
  Sn  Sn21  1  0.811378  0.454346  0.456031  1
  Sn  Sn22  1  0.688898  0.954310  0.543766  1
  Sn  Sn23  1  0.188626  0.545735  0.956048  1
  Sn  Sn24  1  0.688582  0.953512  0.956263  1
  Sn  Sn25  1  0.188321  0.546111  0.543692  1
  Sn  Sn26  1  0.310969  0.045903  0.456105  1
  Sn  Sn27  1  0.811509  0.454423  0.044432  1
  Sn  Sn28  1  0.547329  0.632874  0.748929  1
  Sn  Sn29  1  0.046975  0.868054  0.749848  1
  Sn  Sn30  1  0.452972  0.367194  0.249787  1
  Sn  Sn31  1  0.952745  0.132491  0.250062  1
  Sn  Sn32  1  0.323161  0.142773  0.750790  1
  Sn  Sn33  1  0.821974  0.358747  0.750056  1
  Sn  Sn34  1  0.677306  0.858740  0.249980  1
  Sn  Sn35  1  0.177058  0.641744  0.250003  1
