# generated using pymatgen
data_Li4Nd2DySn4
_symmetry_space_group_name_H-M   'P 1'
_cell_length_a   8.75930472
_cell_length_b   8.75930499
_cell_length_c   8.75930431
_cell_angle_alpha   148.68447366
_cell_angle_beta   132.80556529
_cell_angle_gamma   57.73536374
_symmetry_Int_Tables_number   1
_chemical_formula_structural   Li4Nd2DySn4
_chemical_formula_sum   'Li4 Nd2 Dy1 Sn4'
_cell_volume   254.34371398
_cell_formula_units_Z   1
loop_
 _symmetry_equiv_pos_site_id
 _symmetry_equiv_pos_as_xyz
  1  'x, y, z'
loop_
 _atom_site_type_symbol
 _atom_site_label
 _atom_site_symmetry_multiplicity
 _atom_site_fract_x
 _atom_site_fract_y
 _atom_site_fract_z
 _atom_site_occupancy
  Li  Li0  1  0.862812  0.671917  0.190895  1
  Li  Li1  1  0.481021  0.671917  0.809105  1
  Li  Li2  1  0.518979  0.328083  0.190895  1
  Li  Li3  1  0.137188  0.328083  0.809105  1
  Nd  Nd4  1  0.129500  0.129500  0.000000  1
  Nd  Nd5  1  0.870500  0.870500  0.000000  1
  Dy  Dy6  1  0.500000  0.000000  0.500000  1
  Sn  Sn7  1  0.794714  0.500000  0.294714  1
  Sn  Sn8  1  0.205286  0.500000  0.705286  1
  Sn  Sn9  1  0.710024  0.210024  0.500000  1
  Sn  Sn10  1  0.289976  0.789976  0.500000  1
