# generated using pymatgen
data_Dy7Co4Sn23Rh2
_symmetry_space_group_name_H-M   'P 1'
_cell_length_a   9.75357504
_cell_length_b   9.75357499
_cell_length_c   10.04318987
_cell_angle_alpha   90.04135194
_cell_angle_beta   89.95864823
_cell_angle_gamma   120.03294550
_symmetry_Int_Tables_number   1
_chemical_formula_structural   Dy7Co4Sn23Rh2
_chemical_formula_sum   'Dy7 Co4 Sn23 Rh2'
_cell_volume   827.15240751
_cell_formula_units_Z   1
loop_
 _symmetry_equiv_pos_site_id
 _symmetry_equiv_pos_as_xyz
  1  'x, y, z'
loop_
 _atom_site_type_symbol
 _atom_site_label
 _atom_site_symmetry_multiplicity
 _atom_site_fract_x
 _atom_site_fract_y
 _atom_site_fract_z
 _atom_site_occupancy
  Dy  Dy0  1  0.000000  0.000000  0.000000  1
  Dy  Dy1  1  0.478638  0.521362  0.306531  1
  Dy  Dy2  1  0.521362  0.478638  0.693469  1
  Dy  Dy3  1  0.478517  0.956968  0.306471  1
  Dy  Dy4  1  0.521483  0.043032  0.693529  1
  Dy  Dy5  1  0.043032  0.521483  0.306471  1
  Dy  Dy6  1  0.956968  0.478517  0.693529  1
  Co  Co7  1  0.831452  0.664308  0.197524  1
  Co  Co8  1  0.168548  0.335692  0.802476  1
  Co  Co9  1  0.335692  0.168548  0.197524  1
  Co  Co10  1  0.664308  0.831452  0.802476  1
  Sn  Sn11  1  0.350451  0.004463  0.004851  1
  Sn  Sn12  1  0.649549  0.995537  0.995149  1
  Sn  Sn13  1  0.004463  0.350451  0.995149  1
  Sn  Sn14  1  0.995537  0.649549  0.004851  1
  Sn  Sn15  1  0.654265  0.654265  0.000000  1
  Sn  Sn16  1  0.345735  0.345735  0.000000  1
  Sn  Sn17  1  0.335781  0.664219  0.818200  1
  Sn  Sn18  1  0.664219  0.335781  0.181800  1
  Sn  Sn19  1  0.000000  0.000000  0.500000  1
  Sn  Sn20  1  0.779319  0.220681  0.456081  1
  Sn  Sn21  1  0.220681  0.779319  0.543919  1
  Sn  Sn22  1  0.780862  0.561780  0.451081  1
  Sn  Sn23  1  0.219138  0.438220  0.548919  1
  Sn  Sn24  1  0.438220  0.219138  0.451081  1
  Sn  Sn25  1  0.561780  0.780862  0.548919  1
  Sn  Sn26  1  0.333356  0.666644  0.117467  1
  Sn  Sn27  1  0.666644  0.333356  0.882533  1
  Sn  Sn28  1  0.117456  0.882544  0.274254  1
  Sn  Sn29  1  0.882544  0.117456  0.725746  1
  Sn  Sn30  1  0.123976  0.237742  0.277403  1
  Sn  Sn31  1  0.876024  0.762258  0.722597  1
  Sn  Sn32  1  0.762258  0.876024  0.277403  1
  Sn  Sn33  1  0.237742  0.123976  0.722597  1
  Rh  Rh34  1  0.832209  0.167791  0.196599  1
  Rh  Rh35  1  0.167791  0.832209  0.803401  1
