# generated using pymatgen
data_TbEr11OsRu3
_symmetry_space_group_name_H-M   'P 1'
_cell_length_a   6.26771691
_cell_length_b   7.30834665
_cell_length_c   9.04746600
_cell_angle_alpha   90.00000000
_cell_angle_beta   90.00000000
_cell_angle_gamma   90.02642773
_symmetry_Int_Tables_number   1
_chemical_formula_structural   TbEr11OsRu3
_chemical_formula_sum   'Tb1 Er11 Os1 Ru3'
_cell_volume   414.43404504
_cell_formula_units_Z   1
loop_
 _symmetry_equiv_pos_site_id
 _symmetry_equiv_pos_as_xyz
  1  'x, y, z'
loop_
 _atom_site_type_symbol
 _atom_site_label
 _atom_site_symmetry_multiplicity
 _atom_site_fract_x
 _atom_site_fract_y
 _atom_site_fract_z
 _atom_site_occupancy
  Tb  Tb0  1  0.868320  0.540156  0.250000  1
  Er  Er1  1  0.333858  0.675807  0.062095  1
  Er  Er2  1  0.168273  0.175689  0.436045  1
  Er  Er3  1  0.668194  0.323750  0.564031  1
  Er  Er4  1  0.830726  0.823946  0.935356  1
  Er  Er5  1  0.668194  0.323750  0.935969  1
  Er  Er6  1  0.830726  0.823946  0.564644  1
  Er  Er7  1  0.333858  0.675807  0.437905  1
  Er  Er8  1  0.168273  0.175689  0.063955  1
  Er  Er9  1  0.632239  0.039871  0.250000  1
  Er  Er10  1  0.130704  0.460267  0.750000  1
  Er  Er11  1  0.367336  0.961547  0.750000  1
  Os  Os12  1  0.538844  0.616417  0.750000  1
  Ru  Ru13  1  0.038699  0.884583  0.250000  1
  Ru  Ru14  1  0.460394  0.382878  0.250000  1
  Ru  Ru15  1  0.961359  0.115899  0.750000  1
