# generated using pymatgen
data_Sm7Ho(BeSi3)4
_symmetry_space_group_name_H-M   'P 1'
_cell_length_a   7.90448654
_cell_length_b   7.89941483
_cell_length_c   8.35653900
_cell_angle_alpha   90.00000000
_cell_angle_beta   90.00000000
_cell_angle_gamma   119.97878964
_symmetry_Int_Tables_number   1
_chemical_formula_structural   Sm7Ho(BeSi3)4
_chemical_formula_sum   'Sm7 Ho1 Be4 Si12'
_cell_volume   451.97919390
_cell_formula_units_Z   1
loop_
 _symmetry_equiv_pos_site_id
 _symmetry_equiv_pos_as_xyz
  1  'x, y, z'
loop_
 _atom_site_type_symbol
 _atom_site_label
 _atom_site_symmetry_multiplicity
 _atom_site_fract_x
 _atom_site_fract_y
 _atom_site_fract_z
 _atom_site_occupancy
  Sm  Sm0  1  0.000072  0.000036  0.250000  1
  Sm  Sm1  1  0.999971  0.999986  0.750000  1
  Sm  Sm2  1  0.500293  0.499693  0.250000  1
  Sm  Sm3  1  0.500293  0.000599  0.250000  1
  Sm  Sm4  1  0.999336  0.499668  0.250000  1
  Sm  Sm5  1  0.499675  0.500313  0.750000  1
  Sm  Sm6  1  0.499675  0.999362  0.750000  1
  Ho  Ho7  1  0.000563  0.500282  0.750000  1
  Be  Be8  1  0.332826  0.666413  0.498020  1
  Be  Be9  1  0.667217  0.333608  0.503834  1
  Be  Be10  1  0.667217  0.333608  0.996166  1
  Be  Be11  1  0.332826  0.666413  0.001980  1
  Si  Si12  1  0.172041  0.826683  0.501062  1
  Si  Si13  1  0.172041  0.345357  0.501062  1
  Si  Si14  1  0.655297  0.827648  0.500298  1
  Si  Si15  1  0.827987  0.173276  0.501360  1
  Si  Si16  1  0.827987  0.654712  0.501360  1
  Si  Si17  1  0.344667  0.172334  0.500653  1
  Si  Si18  1  0.827987  0.173276  0.998640  1
  Si  Si19  1  0.827987  0.654712  0.998640  1
  Si  Si20  1  0.344667  0.172334  0.999347  1
  Si  Si21  1  0.172041  0.826683  0.998938  1
  Si  Si22  1  0.172041  0.345357  0.998938  1
  Si  Si23  1  0.655297  0.827648  0.999702  1
