# generated using pymatgen
data_Y2HoLu7Cd3Os
_symmetry_space_group_name_H-M   'P 1'
_cell_length_a   9.46267409
_cell_length_b   9.45794232
_cell_length_c   9.70527500
_cell_angle_alpha   90.00000000
_cell_angle_beta   90.00000000
_cell_angle_gamma   119.98345651
_symmetry_Int_Tables_number   1
_chemical_formula_structural   Y2HoLu7Cd3Os
_chemical_formula_sum   'Y4 Ho2 Lu14 Cd6 Os2'
_cell_volume   752.35254682
_cell_formula_units_Z   2
loop_
 _symmetry_equiv_pos_site_id
 _symmetry_equiv_pos_as_xyz
  1  'x, y, z'
loop_
 _atom_site_type_symbol
 _atom_site_label
 _atom_site_symmetry_multiplicity
 _atom_site_fract_x
 _atom_site_fract_y
 _atom_site_fract_z
 _atom_site_occupancy
  Y  Y0  1  0.920932  0.460465  0.250000  1
  Y  Y1  1  0.460850  0.538854  0.750000  1
  Y  Y2  1  0.460850  0.921996  0.750000  1
  Y  Y3  1  0.077764  0.538882  0.750000  1
  Ho  Ho4  1  0.538759  0.461108  0.250000  1
  Ho  Ho5  1  0.538759  0.077651  0.250000  1
  Lu  Lu6  1  0.000191  0.000096  0.500011  1
  Lu  Lu7  1  0.000191  0.000096  0.999989  1
  Lu  Lu8  1  0.210290  0.790499  0.440584  1
  Lu  Lu9  1  0.210290  0.419793  0.440584  1
  Lu  Lu10  1  0.580473  0.790237  0.440529  1
  Lu  Lu11  1  0.789747  0.209581  0.558874  1
  Lu  Lu12  1  0.789747  0.580165  0.558874  1
  Lu  Lu13  1  0.420082  0.210040  0.558576  1
  Lu  Lu14  1  0.789747  0.209581  0.941126  1
  Lu  Lu15  1  0.789747  0.580165  0.941126  1
  Lu  Lu16  1  0.420082  0.210040  0.941424  1
  Lu  Lu17  1  0.210290  0.790499  0.059416  1
  Lu  Lu18  1  0.210290  0.419793  0.059416  1
  Lu  Lu19  1  0.580473  0.790237  0.059471  1
  Cd  Cd20  1  0.886008  0.112943  0.250000  1
  Cd  Cd21  1  0.886008  0.773065  0.250000  1
  Cd  Cd22  1  0.227685  0.113842  0.250000  1
  Cd  Cd23  1  0.113311  0.886915  0.750000  1
  Cd  Cd24  1  0.113311  0.226396  0.750000  1
  Cd  Cd25  1  0.773549  0.886774  0.750000  1
  Os  Os26  1  0.333863  0.666932  0.250000  1
  Os  Os27  1  0.666717  0.333358  0.750000  1
