# generated using pymatgen
data_Th4Mg2Pd3Rh
_symmetry_space_group_name_H-M   'P 1'
_cell_length_a   3.85872000
_cell_length_b   7.87949240
_cell_length_c   7.87949240
_cell_angle_alpha   90.08941045
_cell_angle_beta   90.00000000
_cell_angle_gamma   90.00000000
_symmetry_Int_Tables_number   1
_chemical_formula_structural   Th4Mg2Pd3Rh
_chemical_formula_sum   'Th4 Mg2 Pd3 Rh1'
_cell_volume   239.57374347
_cell_formula_units_Z   1
loop_
 _symmetry_equiv_pos_site_id
 _symmetry_equiv_pos_as_xyz
  1  'x, y, z'
loop_
 _atom_site_type_symbol
 _atom_site_label
 _atom_site_symmetry_multiplicity
 _atom_site_fract_x
 _atom_site_fract_y
 _atom_site_fract_z
 _atom_site_occupancy
  Th  Th0  1  0.500000  0.169895  0.669895  1
  Th  Th1  1  0.500000  0.820241  0.320241  1
  Th  Th2  1  0.500000  0.337061  0.173972  1
  Th  Th3  1  0.500000  0.673972  0.837061  1
  Mg  Mg4  1  0.000000  0.001032  0.000308  1
  Mg  Mg5  1  0.000000  0.500308  0.501032  1
  Pd  Pd6  1  0.000000  0.367033  0.867033  1
  Pd  Pd7  1  0.000000  0.868421  0.631001  1
  Pd  Pd8  1  0.000000  0.131001  0.368421  1
  Rh  Rh9  1  0.000000  0.631034  0.131034  1
