# generated using pymatgen
data_Na4Si12AsP11
_symmetry_space_group_name_H-M   'P 1'
_cell_length_a   3.52224500
_cell_length_b   9.93192725
_cell_length_c   17.95941260
_cell_angle_alpha   89.93217249
_cell_angle_beta   90.00000000
_cell_angle_gamma   90.00000000
_symmetry_Int_Tables_number   1
_chemical_formula_structural   Na4Si12AsP11
_chemical_formula_sum   'Na4 Si12 As1 P11'
_cell_volume   628.26796338
_cell_formula_units_Z   1
loop_
 _symmetry_equiv_pos_site_id
 _symmetry_equiv_pos_as_xyz
  1  'x, y, z'
loop_
 _atom_site_type_symbol
 _atom_site_label
 _atom_site_symmetry_multiplicity
 _atom_site_fract_x
 _atom_site_fract_y
 _atom_site_fract_z
 _atom_site_occupancy
  Na  Na0  1  0.000000  0.316218  0.300910  1
  Na  Na1  1  0.000000  0.683699  0.698595  1
  Na  Na2  1  0.000000  0.183578  0.801498  1
  Na  Na3  1  0.000000  0.823261  0.204652  1
  Si  Si4  1  0.500000  0.401079  0.035303  1
  Si  Si5  1  0.500000  0.594212  0.961123  1
  Si  Si6  1  0.500000  0.097652  0.536630  1
  Si  Si7  1  0.500000  0.902257  0.463427  1
  Si  Si8  1  0.000000  0.115285  0.012809  1
  Si  Si9  1  0.000000  0.888438  0.984431  1
  Si  Si10  1  0.000000  0.385118  0.514236  1
  Si  Si11  1  0.000000  0.614141  0.486651  1
  Si  Si12  1  0.000000  0.178095  0.138565  1
  Si  Si13  1  0.000000  0.821942  0.859517  1
  Si  Si14  1  0.000000  0.321383  0.639717  1
  Si  Si15  1  0.000000  0.676728  0.361121  1
  As  As16  1  0.500000  0.780568  0.049246  1
  P  P17  1  0.500000  0.111883  0.206720  1
  P  P18  1  0.500000  0.889088  0.791646  1
  P  P19  1  0.500000  0.388640  0.707304  1
  P  P20  1  0.500000  0.610338  0.293251  1
  P  P21  1  0.500000  0.282275  0.456662  1
  P  P22  1  0.500000  0.717928  0.543602  1
  P  P23  1  0.500000  0.218160  0.955558  1
  P  P24  1  0.000000  0.407283  0.115123  1
  P  P25  1  0.000000  0.592177  0.881619  1
  P  P26  1  0.000000  0.092091  0.616332  1
  P  P27  1  0.000000  0.906482  0.383753  1
