# generated using pymatgen
data_Nd10Si16Pd
_symmetry_space_group_name_H-M   'P 1'
_cell_length_a   11.55681032
_cell_length_b   11.51748460
_cell_length_c   11.55680995
_cell_angle_alpha   144.73979502
_cell_angle_beta   137.24194566
_cell_angle_gamma   56.64269889
_symmetry_Int_Tables_number   1
_chemical_formula_structural   Nd10Si16Pd
_chemical_formula_sum   'Nd10 Si16 Pd1'
_cell_volume   598.02724342
_cell_formula_units_Z   1
loop_
 _symmetry_equiv_pos_site_id
 _symmetry_equiv_pos_as_xyz
  1  'x, y, z'
loop_
 _atom_site_type_symbol
 _atom_site_label
 _atom_site_symmetry_multiplicity
 _atom_site_fract_x
 _atom_site_fract_y
 _atom_site_fract_z
 _atom_site_occupancy
  Nd  Nd0  1  0.753360  0.757653  0.502174  1
  Nd  Nd1  1  0.456651  0.963977  0.013023  1
  Nd  Nd2  1  0.854010  0.361425  0.012493  1
  Nd  Nd3  1  0.950954  0.963977  0.507325  1
  Nd  Nd4  1  0.150993  0.164881  0.510179  1
  Nd  Nd5  1  0.348932  0.361425  0.507415  1
  Nd  Nd6  1  0.255479  0.757653  0.004294  1
  Nd  Nd7  1  0.554182  0.564192  0.506686  1
  Nd  Nd8  1  0.057504  0.564192  0.010010  1
  Nd  Nd9  1  0.654702  0.164881  0.013888  1
  Si  Si10  1  0.202299  0.608366  0.406068  1
  Si  Si11  1  0.998544  0.074371  0.075828  1
  Si  Si12  1  0.703171  0.291986  0.588815  1
  Si  Si13  1  0.805070  0.224942  0.419874  1
  Si  Si14  1  0.904556  0.512427  0.607871  1
  Si  Si15  1  0.411732  0.850173  0.438442  1
  Si  Si16  1  0.104559  0.702928  0.598369  1
  Si  Si17  1  0.304448  0.895207  0.590760  1
  Si  Si18  1  0.595833  0.034866  0.439033  1
  Si  Si19  1  0.002661  0.422399  0.419738  1
  Si  Si20  1  0.809977  0.894226  0.084251  1
  Si  Si21  1  0.403622  0.499008  0.095388  1
  Si  Si22  1  0.109527  0.048739  0.939211  1
  Si  Si23  1  0.298253  0.231259  0.933007  1
  Si  Si24  1  0.502360  0.417025  0.914666  1
  Si  Si25  1  0.602837  0.699699  0.096863  1
  Pd  Pd26  1  0.703790  0.629619  0.925829  1
