# generated using pymatgen
data_Ba14HfBi11
_symmetry_space_group_name_H-M   'P 1'
_cell_length_a   18.23619184
_cell_length_b   18.23619249
_cell_length_c   18.23619200
_cell_angle_alpha   117.45216529
_cell_angle_beta   117.45216635
_cell_angle_gamma   94.47270462
_symmetry_Int_Tables_number   1
_chemical_formula_structural   Ba14HfBi11
_chemical_formula_sum   'Ba56 Hf4 Bi44'
_cell_volume   4438.83548120
_cell_formula_units_Z   4
loop_
 _symmetry_equiv_pos_site_id
 _symmetry_equiv_pos_as_xyz
  1  'x, y, z'
loop_
 _atom_site_type_symbol
 _atom_site_label
 _atom_site_symmetry_multiplicity
 _atom_site_fract_x
 _atom_site_fract_y
 _atom_site_fract_z
 _atom_site_occupancy
  Ba  Ba0  1  0.587373  0.871066  0.365845  1
  Ba  Ba1  1  0.121566  0.964246  0.519181  1
  Ba  Ba2  1  0.771878  0.375000  0.896878  1
  Ba  Ba3  1  0.125000  0.728122  0.103122  1
  Ba  Ba4  1  0.852385  0.195065  0.980819  1
  Ba  Ba5  1  0.128434  0.147615  0.342681  1
  Ba  Ba6  1  0.356312  0.750293  0.347165  1
  Ba  Ba7  1  0.897615  0.054935  0.519181  1
  Ba  Ba8  1  0.945065  0.464246  0.842681  1
  Ba  Ba9  1  0.035754  0.554935  0.157319  1
  Ba  Ba10  1  0.162627  0.378934  0.134155  1
  Ba  Ba11  1  0.005221  0.371066  0.283692  1
  Ba  Ba12  1  0.445065  0.602385  0.480819  1
  Ba  Ba13  1  0.304935  0.647615  0.019181  1
  Ba  Ba14  1  0.621066  0.755221  0.783692  1
  Ba  Ba15  1  0.244779  0.028471  0.865845  1
  Ba  Ba16  1  0.125000  0.228122  0.603122  1
  Ba  Ba17  1  0.490853  0.096873  0.347165  1
  Ba  Ba18  1  0.403127  0.009147  0.652835  1
  Ba  Ba19  1  0.346873  0.240853  0.847165  1
  Ba  Ba20  1  0.621566  0.102385  0.157319  1
  Ba  Ba21  1  0.478122  0.875000  0.103122  1
  Ba  Ba22  1  0.278471  0.994779  0.365845  1
  Ba  Ba23  1  0.759147  0.606312  0.106020  1
  Ba  Ba24  1  0.625000  0.021878  0.896878  1
  Ba  Ba25  1  0.500293  0.653127  0.893980  1
  Ba  Ba26  1  0.971529  0.837373  0.216308  1
  Ba  Ba27  1  0.990853  0.643688  0.393980  1
  Ba  Ba28  1  0.259147  0.153127  0.152835  1
  Ba  Ba29  1  0.397615  0.878434  0.842681  1
  Ba  Ba30  1  0.625000  0.521878  0.396878  1
  Ba  Ba31  1  0.000293  0.106312  0.847165  1
  Ba  Ba32  1  0.662627  0.528471  0.783692  1
  Ba  Ba33  1  0.628934  0.912627  0.634155  1
  Ba  Ba34  1  0.778471  0.412627  0.283692  1
  Ba  Ba35  1  0.214246  0.871566  0.019181  1
  Ba  Ba36  1  0.903127  0.250293  0.393980  1
  Ba  Ba37  1  0.804935  0.785754  0.657319  1
  Ba  Ba38  1  0.856312  0.509147  0.606020  1
  Ba  Ba39  1  0.744779  0.878934  0.216308  1
  Ba  Ba40  1  0.628434  0.285754  0.980819  1
  Ba  Ba41  1  0.749707  0.143688  0.652835  1
  Ba  Ba42  1  0.128934  0.494779  0.716308  1
  Ba  Ba43  1  0.978122  0.875000  0.603122  1
  Ba  Ba44  1  0.087373  0.721529  0.716308  1
  Ba  Ba45  1  0.121066  0.337373  0.865845  1
  Ba  Ba46  1  0.249707  0.596873  0.606020  1
  Ba  Ba47  1  0.393688  0.499707  0.152835  1
  Ba  Ba48  1  0.352385  0.371566  0.657319  1
  Ba  Ba49  1  0.846873  0.999707  0.106020  1
  Ba  Ba50  1  0.471529  0.255221  0.134155  1
  Ba  Ba51  1  0.271878  0.375000  0.396878  1
  Ba  Ba52  1  0.505221  0.221529  0.634155  1
  Ba  Ba53  1  0.535754  0.378434  0.480819  1
  Ba  Ba54  1  0.893688  0.740853  0.893980  1
  Ba  Ba55  1  0.714246  0.695065  0.342681  1
  Hf  Hf56  1  0.000000  0.000000  0.000000  1
  Hf  Hf57  1  0.250000  0.750000  0.500000  1
  Hf  Hf58  1  0.750000  0.250000  0.500000  1
  Hf  Hf59  1  0.500000  0.500000  0.000000  1
  Bi  Bi60  1  0.554351  0.699852  0.409768  1
  Bi  Bi61  1  0.137994  0.362006  0.500000  1
  Bi  Bi62  1  0.440941  0.812977  0.634864  1
  Bi  Bi63  1  0.056077  0.928114  0.865136  1
  Bi  Bi64  1  0.309059  0.437023  0.865136  1
  Bi  Bi65  1  0.855417  0.445649  0.145500  1
  Bi  Bi66  1  0.362006  0.862006  0.224011  1
  Bi  Bi67  1  0.250000  0.250000  0.000000  1
  Bi  Bi68  1  0.071886  0.937023  0.127964  1
  Bi  Bi69  1  0.959916  0.050148  0.354500  1
  Bi  Bi70  1  0.300148  0.709916  0.854500  1
  Bi  Bi71  1  0.637994  0.137994  0.775989  1
  Bi  Bi72  1  0.790084  0.199852  0.145500  1
  Bi  Bi73  1  0.887994  0.612006  0.000000  1
  Bi  Bi74  1  0.449852  0.540084  0.645500  1
  Bi  Bi75  1  0.394583  0.040084  0.090232  1
  Bi  Bi76  1  0.290084  0.144583  0.590232  1
  Bi  Bi77  1  0.556077  0.690941  0.127964  1
  Bi  Bi78  1  0.940941  0.306077  0.627964  1
  Bi  Bi79  1  0.693923  0.321886  0.634864  1
  Bi  Bi80  1  0.500000  0.000000  0.500000  1
  Bi  Bi81  1  0.612006  0.887994  0.000000  1
  Bi  Bi82  1  0.459916  0.105417  0.909768  1
  Bi  Bi83  1  0.949852  0.304351  0.909768  1
  Bi  Bi84  1  0.387994  0.387994  0.275989  1
  Bi  Bi85  1  0.187023  0.821886  0.627964  1
  Bi  Bi86  1  0.195649  0.550148  0.090232  1
  Bi  Bi87  1  0.800148  0.945649  0.590232  1
  Bi  Bi88  1  0.687023  0.059059  0.365136  1
  Bi  Bi89  1  0.695649  0.605417  0.645500  1
  Bi  Bi90  1  0.571886  0.443923  0.134864  1
  Bi  Bi91  1  0.894583  0.804351  0.354500  1
  Bi  Bi92  1  0.054351  0.644583  0.854500  1
  Bi  Bi93  1  0.678114  0.312977  0.372036  1
  Bi  Bi94  1  0.809059  0.943923  0.872036  1
  Bi  Bi95  1  0.062977  0.190941  0.134864  1
  Bi  Bi96  1  0.562977  0.428114  0.872036  1
  Bi  Bi97  1  0.178114  0.806077  0.365136  1
  Bi  Bi98  1  0.862006  0.637994  0.500000  1
  Bi  Bi99  1  0.750000  0.750000  0.000000  1
  Bi  Bi100  1  0.112006  0.112006  0.724011  1
  Bi  Bi101  1  0.193923  0.559059  0.372036  1
  Bi  Bi102  1  0.000000  0.500000  0.500000  1
  Bi  Bi103  1  0.355417  0.209916  0.409768  1
