# generated using pymatgen
data_Tb6Ce2AlPd24
_symmetry_space_group_name_H-M   'P 1'
_cell_length_a   8.38229466
_cell_length_b   8.38229506
_cell_length_c   8.38229626
_cell_angle_alpha   89.98521096
_cell_angle_beta   90.01478661
_cell_angle_gamma   90.01478530
_symmetry_Int_Tables_number   1
_chemical_formula_structural   Tb6Ce2AlPd24
_chemical_formula_sum   'Tb6 Ce2 Al1 Pd24'
_cell_volume   588.96411016
_cell_formula_units_Z   1
loop_
 _symmetry_equiv_pos_site_id
 _symmetry_equiv_pos_as_xyz
  1  'x, y, z'
loop_
 _atom_site_type_symbol
 _atom_site_label
 _atom_site_symmetry_multiplicity
 _atom_site_fract_x
 _atom_site_fract_y
 _atom_site_fract_z
 _atom_site_occupancy
  Tb  Tb0  1  0.251701  0.252074  0.252074  1
  Tb  Tb1  1  0.748299  0.747926  0.747926  1
  Tb  Tb2  1  0.747926  0.748299  0.252074  1
  Tb  Tb3  1  0.747926  0.252074  0.748299  1
  Tb  Tb4  1  0.252074  0.251701  0.747926  1
  Tb  Tb5  1  0.252074  0.747926  0.251701  1
  Ce  Ce6  1  0.253873  0.746127  0.746127  1
  Ce  Ce7  1  0.746127  0.253873  0.253873  1
  Al  Al8  1  0.000000  0.000000  0.000000  1
  Pd  Pd9  1  0.259601  0.500311  0.999439  1
  Pd  Pd10  1  0.740399  0.499689  0.000561  1
  Pd  Pd11  1  0.999439  0.259601  0.499689  1
  Pd  Pd12  1  0.500311  0.259601  0.000561  1
  Pd  Pd13  1  0.000561  0.740399  0.500311  1
  Pd  Pd14  1  0.499689  0.740399  0.999439  1
  Pd  Pd15  1  0.500311  0.000561  0.259601  1
  Pd  Pd16  1  0.259601  0.999439  0.500311  1
  Pd  Pd17  1  0.499689  0.999439  0.740399  1
  Pd  Pd18  1  0.740399  0.000561  0.499689  1
  Pd  Pd19  1  0.999439  0.499689  0.259601  1
  Pd  Pd20  1  0.000561  0.500311  0.740399  1
  Pd  Pd21  1  0.253019  0.500295  0.500295  1
  Pd  Pd22  1  0.746981  0.499705  0.499705  1
  Pd  Pd23  1  0.500295  0.253019  0.499705  1
  Pd  Pd24  1  0.499705  0.746981  0.500295  1
  Pd  Pd25  1  0.500295  0.499705  0.253019  1
  Pd  Pd26  1  0.499705  0.500295  0.746981  1
  Pd  Pd27  1  0.289003  0.000187  0.000187  1
  Pd  Pd28  1  0.710997  0.999813  0.999813  1
  Pd  Pd29  1  0.000187  0.289003  0.999813  1
  Pd  Pd30  1  0.999813  0.710997  0.000187  1
  Pd  Pd31  1  0.000187  0.999813  0.289003  1
  Pd  Pd32  1  0.999813  0.000187  0.710997  1
