# generated using pymatgen
data_LaNd5Al24Os7Au
_symmetry_space_group_name_H-M   'P 1'
_cell_length_a   8.93307894
_cell_length_b   8.93023033
_cell_length_c   9.70963886
_cell_angle_alpha   90.13226052
_cell_angle_beta   89.87668510
_cell_angle_gamma   119.61055649
_symmetry_Int_Tables_number   1
_chemical_formula_structural   LaNd5Al24Os7Au
_chemical_formula_sum   'La1 Nd5 Al24 Os7 Au1'
_cell_volume   673.42160612
_cell_formula_units_Z   1
loop_
 _symmetry_equiv_pos_site_id
 _symmetry_equiv_pos_as_xyz
  1  'x, y, z'
loop_
 _atom_site_type_symbol
 _atom_site_label
 _atom_site_symmetry_multiplicity
 _atom_site_fract_x
 _atom_site_fract_y
 _atom_site_fract_z
 _atom_site_occupancy
  La  La0  1  0.188808  0.383045  0.250655  1
  Nd  Nd1  1  0.811034  0.617024  0.749756  1
  Nd  Nd2  1  0.617286  0.811314  0.250223  1
  Nd  Nd3  1  0.383644  0.189213  0.750113  1
  Nd  Nd4  1  0.192021  0.808221  0.253176  1
  Nd  Nd5  1  0.807948  0.191705  0.746529  1
  Al  Al6  1  0.328599  0.672810  0.016074  1
  Al  Al7  1  0.672045  0.328305  0.980653  1
  Al  Al8  1  0.666896  0.332707  0.517279  1
  Al  Al9  1  0.333469  0.668342  0.486269  1
  Al  Al10  1  0.163570  0.327210  0.574070  1
  Al  Al11  1  0.836525  0.672425  0.427604  1
  Al  Al12  1  0.672543  0.836399  0.572569  1
  Al  Al13  1  0.849278  0.677069  0.076999  1
  Al  Al14  1  0.328309  0.163139  0.428095  1
  Al  Al15  1  0.150314  0.322684  0.921613  1
  Al  Al16  1  0.163525  0.836266  0.574819  1
  Al  Al17  1  0.323300  0.150127  0.077047  1
  Al  Al18  1  0.834893  0.163180  0.425474  1
  Al  Al19  1  0.677188  0.849425  0.922393  1
  Al  Al20  1  0.834916  0.163408  0.073992  1
  Al  Al21  1  0.163941  0.836327  0.925546  1
  Al  Al22  1  0.561444  0.123744  0.249314  1
  Al  Al23  1  0.438816  0.876467  0.750580  1
  Al  Al24  1  0.874597  0.438531  0.249180  1
  Al  Al25  1  0.123414  0.561318  0.750581  1
  Al  Al26  1  0.566110  0.434792  0.256449  1
  Al  Al27  1  0.435512  0.565181  0.743518  1
  Al  Al28  1  0.997462  0.000300  0.250375  1
  Al  Al29  1  0.002134  0.998291  0.749679  1
  Os  Os30  1  0.500085  0.000145  0.999603  1
  Os  Os31  1  0.000127  0.500387  0.999980  1
  Os  Os32  1  0.499946  0.000153  0.500353  1
  Os  Os33  1  0.999955  0.500137  0.499865  1
  Os  Os34  1  0.500271  0.500430  0.499736  1
  Os  Os35  1  0.999641  0.999614  0.999850  1
  Os  Os36  1  0.999636  0.999567  0.500298  1
  Au  Au37  1  0.500797  0.500599  0.999690  1
