# generated using pymatgen
data_Ho15Er5Bi12
_symmetry_space_group_name_H-M   'P 1'
_cell_length_a   8.22336602
_cell_length_b   9.49656800
_cell_length_c   11.99626903
_cell_angle_alpha   89.99961580
_cell_angle_beta   90.00815000
_cell_angle_gamma   90.00246405
_symmetry_Int_Tables_number   1
_chemical_formula_structural   Ho15Er5Bi12
_chemical_formula_sum   'Ho15 Er5 Bi12'
_cell_volume   936.83367991
_cell_formula_units_Z   1
loop_
 _symmetry_equiv_pos_site_id
 _symmetry_equiv_pos_as_xyz
  1  'x, y, z'
loop_
 _atom_site_type_symbol
 _atom_site_label
 _atom_site_symmetry_multiplicity
 _atom_site_fract_x
 _atom_site_fract_y
 _atom_site_fract_z
 _atom_site_occupancy
  Ho  Ho0  1  0.353657  0.750028  0.216302  1
  Ho  Ho1  1  0.853637  0.750005  0.283716  1
  Ho  Ho2  1  0.646324  0.250050  0.783741  1
  Ho  Ho3  1  0.146428  0.250051  0.716337  1
  Ho  Ho4  1  0.808036  0.064232  0.559007  1
  Ho  Ho5  1  0.691937  0.935743  0.058995  1
  Ho  Ho6  1  0.191967  0.564242  0.441005  1
  Ho  Ho7  1  0.476666  0.250022  0.488909  1
  Ho  Ho8  1  0.976765  0.250040  0.011073  1
  Ho  Ho9  1  0.523345  0.750030  0.511104  1
  Ho  Ho10  1  0.023366  0.749979  0.988898  1
  Ho  Ho11  1  0.314481  0.250006  0.218067  1
  Ho  Ho12  1  0.814462  0.250042  0.281887  1
  Ho  Ho13  1  0.685544  0.749965  0.781896  1
  Ho  Ho14  1  0.185514  0.750034  0.718102  1
  Er  Er15  1  0.691969  0.564302  0.058963  1
  Er  Er16  1  0.191930  0.935663  0.441022  1
  Er  Er17  1  0.308054  0.064400  0.941029  1
  Er  Er18  1  0.808078  0.435658  0.558983  1
  Er  Er19  1  0.308015  0.435613  0.941015  1
  Bi  Bi20  1  0.405408  0.749904  0.957448  1
  Bi  Bi21  1  0.905490  0.749825  0.542522  1
  Bi  Bi22  1  0.594428  0.250276  0.042483  1
  Bi  Bi23  1  0.094525  0.249814  0.457482  1
  Bi  Bi24  1  0.566040  0.996206  0.325704  1
  Bi  Bi25  1  0.066033  0.503810  0.174252  1
  Bi  Bi26  1  0.433925  0.496208  0.674327  1
  Bi  Bi27  1  0.933955  0.003814  0.825718  1
  Bi  Bi28  1  0.433868  0.003827  0.674309  1
  Bi  Bi29  1  0.933937  0.496192  0.825729  1
  Bi  Bi30  1  0.566086  0.503820  0.325692  1
  Bi  Bi31  1  0.066130  0.996199  0.174286  1
