# generated using pymatgen
data_Sr2PrHo(Ir2O7)2
_symmetry_space_group_name_H-M   'P 1'
_cell_length_a   7.39421880
_cell_length_b   7.40352981
_cell_length_c   7.39421942
_cell_angle_alpha   59.95563911
_cell_angle_beta   59.65035671
_cell_angle_gamma   59.95562974
_symmetry_Int_Tables_number   1
_chemical_formula_structural   Sr2PrHo(Ir2O7)2
_chemical_formula_sum   'Sr2 Pr1 Ho1 Ir4 O14'
_cell_volume   285.27104282
_cell_formula_units_Z   1
loop_
 _symmetry_equiv_pos_site_id
 _symmetry_equiv_pos_as_xyz
  1  'x, y, z'
loop_
 _atom_site_type_symbol
 _atom_site_label
 _atom_site_symmetry_multiplicity
 _atom_site_fract_x
 _atom_site_fract_y
 _atom_site_fract_z
 _atom_site_occupancy
  Sr  Sr0  1  0.125000  0.125000  0.625000  1
  Sr  Sr1  1  0.625000  0.125000  0.125000  1
  Pr  Pr2  1  0.125000  0.625000  0.125000  1
  Ho  Ho3  1  0.125000  0.125000  0.125000  1
  Ir  Ir4  1  0.625000  0.625000  0.625000  1
  Ir  Ir5  1  0.125000  0.625000  0.625000  1
  Ir  Ir6  1  0.625000  0.125000  0.625000  1
  Ir  Ir7  1  0.625000  0.625000  0.125000  1
  O  O8  1  0.951866  0.554342  0.544683  1
  O  O9  1  0.297818  0.299472  0.713830  1
  O  O10  1  0.953464  0.540062  0.953464  1
  O  O11  1  0.713830  0.299472  0.297818  1
  O  O12  1  0.544683  0.554342  0.951866  1
  O  O13  1  0.553397  0.947357  0.553397  1
  O  O14  1  0.536170  0.950528  0.952182  1
  O  O15  1  0.237647  0.251859  0.237647  1
  O  O16  1  0.298134  0.695658  0.705317  1
  O  O17  1  0.696603  0.302643  0.696603  1
  O  O18  1  0.012353  0.998141  0.012353  1
  O  O19  1  0.952182  0.950528  0.536170  1
  O  O20  1  0.296536  0.709938  0.296536  1
  O  O21  1  0.705317  0.695658  0.298134  1
