# generated using pymatgen
data_Ca2VNi(AsH)2
_symmetry_space_group_name_H-M   'P 1'
_cell_length_a   3.93692000
_cell_length_b   3.93692000
_cell_length_c   8.24519400
_cell_angle_alpha   90.00000000
_cell_angle_beta   90.00000000
_cell_angle_gamma   90.00000000
_symmetry_Int_Tables_number   1
_chemical_formula_structural   Ca2VNi(AsH)2
_chemical_formula_sum   'Ca2 V1 Ni1 As2 H2'
_cell_volume   127.79505764
_cell_formula_units_Z   1
loop_
 _symmetry_equiv_pos_site_id
 _symmetry_equiv_pos_as_xyz
  1  'x, y, z'
loop_
 _atom_site_type_symbol
 _atom_site_label
 _atom_site_symmetry_multiplicity
 _atom_site_fract_x
 _atom_site_fract_y
 _atom_site_fract_z
 _atom_site_occupancy
  Ca  Ca0  1  0.000000  0.500000  0.855237  1
  Ca  Ca1  1  0.500000  0.000000  0.144763  1
  V  V2  1  0.000000  0.000000  0.500000  1
  Ni  Ni3  1  0.500000  0.500000  0.500000  1
  As  As4  1  0.000000  0.500000  0.325381  1
  As  As5  1  0.500000  0.000000  0.674619  1
  H  H6  1  0.000000  0.000000  0.000000  1
  H  H7  1  0.500000  0.500000  0.000000  1
