# generated using pymatgen
data_Ba6Lu2PuO12
_symmetry_space_group_name_H-M   'P 1'
_cell_length_a   9.48512312
_cell_length_b   9.48512186
_cell_length_c   7.41652000
_cell_angle_alpha   67.42179944
_cell_angle_beta   67.42180261
_cell_angle_gamma   36.91321297
_symmetry_Int_Tables_number   1
_chemical_formula_structural   Ba6Lu2PuO12
_chemical_formula_sum   'Ba6 Lu2 Pu1 O12'
_cell_volume   366.45538222
_cell_formula_units_Z   1
loop_
 _symmetry_equiv_pos_site_id
 _symmetry_equiv_pos_as_xyz
  1  'x, y, z'
loop_
 _atom_site_type_symbol
 _atom_site_label
 _atom_site_symmetry_multiplicity
 _atom_site_fract_x
 _atom_site_fract_y
 _atom_site_fract_z
 _atom_site_occupancy
  Ba  Ba0  1  0.875708  0.875708  0.710014  1
  Ba  Ba1  1  0.221437  0.221437  0.704439  1
  Ba  Ba2  1  0.549531  0.549531  0.698807  1
  Ba  Ba3  1  0.450469  0.450469  0.301193  1
  Ba  Ba4  1  0.778563  0.778563  0.295561  1
  Ba  Ba5  1  0.124292  0.124292  0.289986  1
  Lu  Lu6  1  0.667975  0.667975  0.998566  1
  Lu  Lu7  1  0.332025  0.332025  0.001434  1
  Pu  Pu8  1  0.000000  0.000000  0.000000  1
  O  O9  1  0.948576  0.948576  0.310488  1
  O  O10  1  0.281858  0.281858  0.326850  1
  O  O11  1  0.608184  0.608184  0.326412  1
  O  O12  1  0.391816  0.391816  0.673588  1
  O  O13  1  0.718142  0.718142  0.673150  1
  O  O14  1  0.051424  0.051424  0.689512  1
  O  O15  1  0.500000  0.000000  0.000000  1
  O  O16  1  0.839251  0.319457  0.001146  1
  O  O17  1  0.160749  0.680543  0.998854  1
  O  O18  1  0.000000  0.500000  0.000000  1
  O  O19  1  0.319457  0.839251  0.001146  1
  O  O20  1  0.680543  0.160749  0.998854  1
