# generated using pymatgen
data_Ho3ThAl15(GaIr2)3
_symmetry_space_group_name_H-M   'P 1'
_cell_length_a   7.56024914
_cell_length_b   7.57355160
_cell_length_c   9.52942800
_cell_angle_alpha   90.00000000
_cell_angle_beta   90.00000000
_cell_angle_gamma   119.55083604
_symmetry_Int_Tables_number   1
_chemical_formula_structural   Ho3ThAl15(GaIr2)3
_chemical_formula_sum   'Ho3 Th1 Al15 Ga3 Ir6'
_cell_volume   474.65828925
_cell_formula_units_Z   1
loop_
 _symmetry_equiv_pos_site_id
 _symmetry_equiv_pos_as_xyz
  1  'x, y, z'
loop_
 _atom_site_type_symbol
 _atom_site_label
 _atom_site_symmetry_multiplicity
 _atom_site_fract_x
 _atom_site_fract_y
 _atom_site_fract_z
 _atom_site_occupancy
  Ho  Ho0  1  0.001114  0.327857  0.750000  1
  Ho  Ho1  1  0.671392  0.994566  0.250000  1
  Ho  Ho2  1  0.327981  0.002572  0.750000  1
  Th  Th3  1  0.994173  0.670033  0.250000  1
  Al  Al4  1  0.871328  0.873632  0.750000  1
  Al  Al5  1  0.002576  0.330731  0.070302  1
  Al  Al6  1  0.999680  0.664631  0.918866  1
  Al  Al7  1  0.999680  0.664631  0.581134  1
  Al  Al8  1  0.339932  0.006120  0.429696  1
  Al  Al9  1  0.002576  0.330731  0.429698  1
  Al  Al10  1  0.664638  0.000634  0.576393  1
  Al  Al11  1  0.664638  0.000634  0.923607  1
  Al  Al12  1  0.339932  0.006120  0.070304  1
  Al  Al13  1  0.331982  0.332113  0.562985  1
  Al  Al14  1  0.662898  0.666355  0.458952  1
  Al  Al15  1  0.662898  0.666355  0.041048  1
  Al  Al16  1  0.331982  0.332113  0.937015  1
  Al  Al17  1  0.659438  0.449558  0.750000  1
  Al  Al18  1  0.449881  0.662024  0.750000  1
  Ga  Ga19  1  0.130808  0.133412  0.250000  1
  Ga  Ga20  1  0.346623  0.549216  0.250000  1
  Ga  Ga21  1  0.542844  0.336135  0.250000  1
  Ir  Ir22  1  0.673293  0.330064  0.998577  1
  Ir  Ir23  1  0.326828  0.671401  0.998497  1
  Ir  Ir24  1  0.326828  0.671401  0.501503  1
  Ir  Ir25  1  0.673293  0.330064  0.501423  1
  Ir  Ir26  1  0.000382  0.998448  0.998230  1
  Ir  Ir27  1  0.000382  0.998448  0.501770  1
