# generated using pymatgen
data_Tb2Y2Al17CuPd6
_symmetry_space_group_name_H-M   'P 1'
_cell_length_a   7.60776280
_cell_length_b   7.60776309
_cell_length_c   9.47143200
_cell_angle_alpha   90.00000000
_cell_angle_beta   90.00000000
_cell_angle_gamma   119.06258198
_symmetry_Int_Tables_number   1
_chemical_formula_structural   Tb2Y2Al17CuPd6
_chemical_formula_sum   'Tb2 Y2 Al17 Cu1 Pd6'
_cell_volume   479.16552679
_cell_formula_units_Z   1
loop_
 _symmetry_equiv_pos_site_id
 _symmetry_equiv_pos_as_xyz
  1  'x, y, z'
loop_
 _atom_site_type_symbol
 _atom_site_label
 _atom_site_symmetry_multiplicity
 _atom_site_fract_x
 _atom_site_fract_y
 _atom_site_fract_z
 _atom_site_occupancy
  Tb  Tb0  1  0.991568  0.670312  0.250000  1
  Tb  Tb1  1  0.670312  0.991568  0.250000  1
  Y  Y2  1  0.006392  0.329069  0.750000  1
  Y  Y3  1  0.329069  0.006392  0.750000  1
  Al  Al4  1  0.866778  0.866778  0.750000  1
  Al  Al5  1  0.003807  0.327211  0.083623  1
  Al  Al6  1  0.999504  0.663608  0.923396  1
  Al  Al7  1  0.999504  0.663608  0.576604  1
  Al  Al8  1  0.327211  0.003807  0.416377  1
  Al  Al9  1  0.003807  0.327211  0.416377  1
  Al  Al10  1  0.663608  0.999504  0.576604  1
  Al  Al11  1  0.663608  0.999504  0.923396  1
  Al  Al12  1  0.327211  0.003807  0.083623  1
  Al  Al13  1  0.332952  0.332952  0.550982  1
  Al  Al14  1  0.666676  0.666676  0.442415  1
  Al  Al15  1  0.666676  0.666676  0.057585  1
  Al  Al16  1  0.332952  0.332952  0.949018  1
  Al  Al17  1  0.338011  0.543764  0.250000  1
  Al  Al18  1  0.659920  0.450954  0.750000  1
  Al  Al19  1  0.543764  0.338011  0.250000  1
  Al  Al20  1  0.450954  0.659920  0.750000  1
  Cu  Cu21  1  0.155930  0.155930  0.250000  1
  Pd  Pd22  1  0.674665  0.328012  0.000430  1
  Pd  Pd23  1  0.328012  0.674665  0.000430  1
  Pd  Pd24  1  0.328012  0.674665  0.499570  1
  Pd  Pd25  1  0.674665  0.328012  0.499570  1
  Pd  Pd26  1  0.997217  0.997217  0.994253  1
  Pd  Pd27  1  0.997217  0.997217  0.505747  1
