# generated using pymatgen
data_TmNi3PtAu
_symmetry_space_group_name_H-M   'P 1'
_cell_length_a   5.11522201
_cell_length_b   5.11522192
_cell_length_c   5.11522202
_cell_angle_alpha   58.26721541
_cell_angle_beta   58.26721328
_cell_angle_gamma   58.26721650
_symmetry_Int_Tables_number   1
_chemical_formula_structural   TmNi3PtAu
_chemical_formula_sum   'Tm1 Ni3 Pt1 Au1'
_cell_volume   90.88449181
_cell_formula_units_Z   1
loop_
 _symmetry_equiv_pos_site_id
 _symmetry_equiv_pos_as_xyz
  1  'x, y, z'
loop_
 _atom_site_type_symbol
 _atom_site_label
 _atom_site_symmetry_multiplicity
 _atom_site_fract_x
 _atom_site_fract_y
 _atom_site_fract_z
 _atom_site_occupancy
  Tm  Tm0  1  0.249955  0.249955  0.249955  1
  Ni  Ni1  1  0.623516  0.623516  0.120971  1
  Ni  Ni2  1  0.623516  0.120971  0.623516  1
  Ni  Ni3  1  0.120971  0.623516  0.623516  1
  Pt  Pt4  1  0.622545  0.622545  0.622545  1
  Au  Au5  1  0.009499  0.009499  0.009499  1
