# generated using pymatgen
data_Sm2Y4PtRh17
_symmetry_space_group_name_H-M   'P 1'
_cell_length_a   5.30328800
_cell_length_b   5.30382549
_cell_length_c   17.53604103
_cell_angle_alpha   90.00418654
_cell_angle_beta   90.00187433
_cell_angle_gamma   119.99866281
_symmetry_Int_Tables_number   1
_chemical_formula_structural   Sm2Y4PtRh17
_chemical_formula_sum   'Sm2 Y4 Pt1 Rh17'
_cell_volume   427.17169967
_cell_formula_units_Z   1
loop_
 _symmetry_equiv_pos_site_id
 _symmetry_equiv_pos_as_xyz
  1  'x, y, z'
loop_
 _atom_site_type_symbol
 _atom_site_label
 _atom_site_symmetry_multiplicity
 _atom_site_fract_x
 _atom_site_fract_y
 _atom_site_fract_z
 _atom_site_occupancy
  Sm  Sm0  1  0.333334  0.666667  0.750088  1
  Sm  Sm1  1  0.666666  0.333333  0.249912  1
  Y  Y2  1  0.333328  0.666661  0.958027  1
  Y  Y3  1  0.666672  0.333339  0.041973  1
  Y  Y4  1  0.666665  0.333331  0.457393  1
  Y  Y5  1  0.333335  0.666669  0.542607  1
  Pt  Pt6  1  0.000000  0.000000  0.500000  1
  Rh  Rh7  1  0.167525  0.832462  0.373717  1
  Rh  Rh8  1  0.167526  0.335055  0.373711  1
  Rh  Rh9  1  0.664935  0.832462  0.373717  1
  Rh  Rh10  1  0.832475  0.167538  0.626283  1
  Rh  Rh11  1  0.832474  0.664945  0.626289  1
  Rh  Rh12  1  0.335065  0.167538  0.626283  1
  Rh  Rh13  1  0.832801  0.167188  0.874305  1
  Rh  Rh14  1  0.832802  0.665611  0.874308  1
  Rh  Rh15  1  0.334386  0.167190  0.874301  1
  Rh  Rh16  1  0.167199  0.832812  0.125695  1
  Rh  Rh17  1  0.167198  0.334389  0.125692  1
  Rh  Rh18  1  0.665614  0.832810  0.125699  1
  Rh  Rh19  1  0.333323  0.666662  0.250292  1
  Rh  Rh20  1  0.666677  0.333338  0.749708  1
  Rh  Rh21  1  0.000016  0.000011  0.249909  1
  Rh  Rh22  1  0.999984  0.999989  0.750091  1
  Rh  Rh23  1  0.000000  0.000000  0.000000  1
