# generated using pymatgen
data_La4TlSnPtAu3
_symmetry_space_group_name_H-M   'P 1'
_cell_length_a   8.33472100
_cell_length_b   8.31037643
_cell_length_c   3.86596500
_cell_angle_alpha   90.00000000
_cell_angle_beta   90.00000000
_cell_angle_gamma   89.85824921
_symmetry_Int_Tables_number   1
_chemical_formula_structural   La4TlSnPtAu3
_chemical_formula_sum   'La4 Tl1 Sn1 Pt1 Au3'
_cell_volume   267.77396649
_cell_formula_units_Z   1
loop_
 _symmetry_equiv_pos_site_id
 _symmetry_equiv_pos_as_xyz
  1  'x, y, z'
loop_
 _atom_site_type_symbol
 _atom_site_label
 _atom_site_symmetry_multiplicity
 _atom_site_fract_x
 _atom_site_fract_y
 _atom_site_fract_z
 _atom_site_occupancy
  La  La0  1  0.661163  0.178673  0.500000  1
  La  La1  1  0.185848  0.314723  0.500000  1
  La  La2  1  0.827160  0.671384  0.500000  1
  La  La3  1  0.321729  0.838523  0.500000  1
  Tl  Tl4  1  0.996400  0.001158  0.000000  1
  Sn  Sn5  1  0.497203  0.502332  0.000000  1
  Pt  Pt6  1  0.380780  0.128370  0.000000  1
  Au  Au7  1  0.876856  0.374064  0.000000  1
  Au  Au8  1  0.130461  0.619826  0.000000  1
  Au  Au9  1  0.622400  0.870949  0.000000  1
