# generated using pymatgen
data_PrY3(CCl)2
_symmetry_space_group_name_H-M   'P 1'
_cell_length_a   3.68829600
_cell_length_b   3.68829684
_cell_length_c   13.90964000
_cell_angle_alpha   90.00000000
_cell_angle_beta   90.00000000
_cell_angle_gamma   119.99999249
_symmetry_Int_Tables_number   1
_chemical_formula_structural   PrY3(CCl)2
_chemical_formula_sum   'Pr1 Y3 C2 Cl2'
_cell_volume   163.86952257
_cell_formula_units_Z   1
loop_
 _symmetry_equiv_pos_site_id
 _symmetry_equiv_pos_as_xyz
  1  'x, y, z'
loop_
 _atom_site_type_symbol
 _atom_site_label
 _atom_site_symmetry_multiplicity
 _atom_site_fract_x
 _atom_site_fract_y
 _atom_site_fract_z
 _atom_site_occupancy
  Pr  Pr0  1  0.333333  0.666667  0.094330  1
  Y  Y1  1  0.666667  0.333333  0.594409  1
  Y  Y2  1  0.666667  0.333333  0.901243  1
  Y  Y3  1  0.333333  0.666667  0.410618  1
  C  C4  1  0.000000  0.000000  0.987086  1
  C  C5  1  0.000000  0.000000  0.503169  1
  Cl  Cl6  1  0.333333  0.666667  0.745178  1
  Cl  Cl7  1  0.666667  0.333333  0.263968  1
