# generated using pymatgen
data_Tb2LuPa(Ga3Ir)6
_symmetry_space_group_name_H-M   'P 1'
_cell_length_a   7.61733118
_cell_length_b   7.60856963
_cell_length_c   9.43905300
_cell_angle_alpha   90.00000000
_cell_angle_beta   90.00000000
_cell_angle_gamma   119.89314859
_symmetry_Int_Tables_number   1
_chemical_formula_structural   Tb2LuPa(Ga3Ir)6
_chemical_formula_sum   'Tb2 Lu1 Pa1 Ga18 Ir6'
_cell_volume   474.27639990
_cell_formula_units_Z   1
loop_
 _symmetry_equiv_pos_site_id
 _symmetry_equiv_pos_as_xyz
  1  'x, y, z'
loop_
 _atom_site_type_symbol
 _atom_site_label
 _atom_site_symmetry_multiplicity
 _atom_site_fract_x
 _atom_site_fract_y
 _atom_site_fract_z
 _atom_site_occupancy
  Tb  Tb0  1  0.003851  0.331172  0.750000  1
  Tb  Tb1  1  0.330953  0.002892  0.750000  1
  Lu  Lu2  1  0.669945  0.996473  0.250000  1
  Pa  Pa3  1  0.997671  0.669292  0.250000  1
  Ga  Ga4  1  0.129971  0.129893  0.250000  1
  Ga  Ga5  1  0.872522  0.873568  0.750000  1
  Ga  Ga6  1  0.997980  0.330191  0.080710  1
  Ga  Ga7  1  0.000892  0.665473  0.917187  1
  Ga  Ga8  1  0.000892  0.665473  0.582813  1
  Ga  Ga9  1  0.339028  0.002483  0.419109  1
  Ga  Ga10  1  0.997980  0.330191  0.419290  1
  Ga  Ga11  1  0.665704  0.001546  0.580320  1
  Ga  Ga12  1  0.665704  0.001546  0.919680  1
  Ga  Ga13  1  0.339028  0.002483  0.080891  1
  Ga  Ga14  1  0.331649  0.331582  0.567276  1
  Ga  Ga15  1  0.664080  0.668232  0.433822  1
  Ga  Ga16  1  0.664080  0.668232  0.066178  1
  Ga  Ga17  1  0.331649  0.331582  0.932724  1
  Ga  Ga18  1  0.339585  0.545358  0.250000  1
  Ga  Ga19  1  0.660441  0.452857  0.750000  1
  Ga  Ga20  1  0.544689  0.340105  0.250000  1
  Ga  Ga21  1  0.453075  0.661442  0.750000  1
  Ir  Ir22  1  0.673984  0.331338  0.002506  1
  Ir  Ir23  1  0.326328  0.671443  0.002532  1
  Ir  Ir24  1  0.326328  0.671443  0.497468  1
  Ir  Ir25  1  0.673984  0.331338  0.497494  1
  Ir  Ir26  1  0.999004  0.996189  0.003129  1
  Ir  Ir27  1  0.999004  0.996189  0.496871  1
