# generated using pymatgen
data_K8Mg3Mn5P8(O7F2)4
_symmetry_space_group_name_H-M   'P 1'
_cell_length_a   6.99333500
_cell_length_b   10.81134700
_cell_length_c   11.46570100
_cell_angle_alpha   90.00000000
_cell_angle_beta   90.00000000
_cell_angle_gamma   90.00000000
_symmetry_Int_Tables_number   1
_chemical_formula_structural   K8Mg3Mn5P8(O7F2)4
_chemical_formula_sum   'K8 Mg3 Mn5 P8 O28 F8'
_cell_volume   866.89151355
_cell_formula_units_Z   1
loop_
 _symmetry_equiv_pos_site_id
 _symmetry_equiv_pos_as_xyz
  1  'x, y, z'
loop_
 _atom_site_type_symbol
 _atom_site_label
 _atom_site_symmetry_multiplicity
 _atom_site_fract_x
 _atom_site_fract_y
 _atom_site_fract_z
 _atom_site_occupancy
  K  K0  1  0.501564  0.562292  0.172835  1
  K  K1  1  0.999750  0.436829  0.325124  1
  K  K2  1  0.501923  0.062147  0.826040  1
  K  K3  1  0.498436  0.437708  0.827165  1
  K  K4  1  0.001853  0.937479  0.675099  1
  K  K5  1  0.000250  0.563171  0.674876  1
  K  K6  1  0.998147  0.062521  0.324901  1
  K  K7  1  0.498077  0.937853  0.173960  1
  Mg  Mg8  1  0.000000  0.500000  0.000000  1
  Mg  Mg9  1  0.000000  0.000000  0.000000  1
  Mg  Mg10  1  0.500000  0.000000  0.500000  1
  Mn  Mn11  1  0.499616  0.247424  0.336460  1
  Mn  Mn12  1  0.500384  0.752576  0.663540  1
  Mn  Mn13  1  0.999577  0.249831  0.838157  1
  Mn  Mn14  1  0.000423  0.750169  0.161843  1
  Mn  Mn15  1  0.500000  0.500000  0.500000  1
  P  P16  1  0.784718  0.751651  0.420491  1
  P  P17  1  0.215282  0.248349  0.579509  1
  P  P18  1  0.282822  0.250681  0.077994  1
  P  P19  1  0.717054  0.248681  0.078246  1
  P  P20  1  0.717178  0.749319  0.922006  1
  P  P21  1  0.783250  0.245323  0.578169  1
  P  P22  1  0.282946  0.751319  0.921754  1
  P  P23  1  0.216750  0.754677  0.421831  1
  O  O24  1  0.000153  0.754864  0.480270  1
  O  O25  1  0.781256  0.113504  0.080372  1
  O  O26  1  0.201748  0.694056  0.301192  1
  O  O27  1  0.675757  0.325750  0.487521  1
  O  O28  1  0.701539  0.306524  0.200055  1
  O  O29  1  0.825912  0.831637  0.010357  1
  O  O30  1  0.718310  0.110415  0.582424  1
  O  O31  1  0.672537  0.832241  0.508332  1
  O  O32  1  0.725127  0.615478  0.416992  1
  O  O33  1  0.499921  0.750014  0.980433  1
  O  O34  1  0.324243  0.674250  0.512479  1
  O  O35  1  0.281690  0.889585  0.417576  1
  O  O36  1  0.218493  0.385846  0.080138  1
  O  O37  1  0.174297  0.668584  0.009877  1
  O  O38  1  0.327463  0.167759  0.491668  1
  O  O39  1  0.701294  0.808344  0.800747  1
  O  O40  1  0.798252  0.305944  0.698808  1
  O  O41  1  0.999847  0.245136  0.519730  1
  O  O42  1  0.298706  0.191656  0.199253  1
  O  O43  1  0.298461  0.693476  0.799945  1
  O  O44  1  0.274873  0.384522  0.583008  1
  O  O45  1  0.199401  0.190298  0.701265  1
  O  O46  1  0.825703  0.331416  0.990123  1
  O  O47  1  0.500079  0.249986  0.019567  1
  O  O48  1  0.800599  0.809702  0.298735  1
  O  O49  1  0.781507  0.614154  0.919862  1
  O  O50  1  0.218744  0.886496  0.919628  1
  O  O51  1  0.174088  0.168363  0.989643  1
  F  F52  1  0.104829  0.934404  0.147976  1
  F  F53  1  0.394723  0.935406  0.648296  1
  F  F54  1  0.384487  0.428041  0.343890  1
  F  F55  1  0.895171  0.065596  0.852024  1
  F  F56  1  0.103881  0.434199  0.851756  1
  F  F57  1  0.605277  0.064594  0.351704  1
  F  F58  1  0.615513  0.571959  0.656110  1
  F  F59  1  0.896119  0.565801  0.148244  1
