# generated using pymatgen
data_FeCu3Pd4
_symmetry_space_group_name_H-M   'P 1'
_cell_length_a   5.24294637
_cell_length_b   5.24482527
_cell_length_c   4.33736000
_cell_angle_alpha   90.00000000
_cell_angle_beta   90.00000000
_cell_angle_gamma   112.54726538
_symmetry_Int_Tables_number   1
_chemical_formula_structural   FeCu3Pd4
_chemical_formula_sum   'Fe1 Cu3 Pd4'
_cell_volume   110.15359721
_cell_formula_units_Z   1
loop_
 _symmetry_equiv_pos_site_id
 _symmetry_equiv_pos_as_xyz
  1  'x, y, z'
loop_
 _atom_site_type_symbol
 _atom_site_label
 _atom_site_symmetry_multiplicity
 _atom_site_fract_x
 _atom_site_fract_y
 _atom_site_fract_z
 _atom_site_occupancy
  Fe  Fe0  1  0.153433  0.360582  0.250000  1
  Cu  Cu1  1  0.638981  0.845456  0.250000  1
  Cu  Cu2  1  0.362480  0.154018  0.750001  1
  Cu  Cu3  1  0.844172  0.638616  0.750001  1
  Pd  Pd4  1  0.649334  0.351989  0.250000  1
  Pd  Pd5  1  0.139185  0.862806  0.250000  1
  Pd  Pd6  1  0.862897  0.138940  0.750001  1
  Pd  Pd7  1  0.349523  0.647597  0.750001  1
