# generated using pymatgen
data_K7Nb4V4Zn(PO5)8
_symmetry_space_group_name_H-M   'P 1'
_cell_length_a   6.55366600
_cell_length_b   10.94595500
_cell_length_c   13.15462500
_cell_angle_alpha   90.00000000
_cell_angle_beta   90.00000000
_cell_angle_gamma   90.00000000
_symmetry_Int_Tables_number   1
_chemical_formula_structural   K7Nb4V4Zn(PO5)8
_chemical_formula_sum   'K7 Nb4 V4 Zn1 P8 O40'
_cell_volume   943.66193016
_cell_formula_units_Z   1
loop_
 _symmetry_equiv_pos_site_id
 _symmetry_equiv_pos_as_xyz
  1  'x, y, z'
loop_
 _atom_site_type_symbol
 _atom_site_label
 _atom_site_symmetry_multiplicity
 _atom_site_fract_x
 _atom_site_fract_y
 _atom_site_fract_z
 _atom_site_occupancy
  K  K0  1  0.277506  0.801648  0.126744  1
  K  K1  1  0.223766  0.799031  0.630188  1
  K  K2  1  0.775772  0.299071  0.375169  1
  K  K3  1  0.805514  0.041259  0.598809  1
  K  K4  1  0.199182  0.558738  0.393802  1
  K  K5  1  0.333959  0.543051  0.904776  1
  K  K6  1  0.678699  0.097990  0.100021  1
  Nb  Nb7  1  0.995905  0.008524  0.872875  1
  Nb  Nb8  1  0.989899  0.502516  0.130960  1
  Nb  Nb9  1  0.510513  0.500173  0.633128  1
  Nb  Nb10  1  0.489390  0.002207  0.369460  1
  V  V11  1  0.252116  0.253594  0.751544  1
  V  V12  1  0.752150  0.753379  0.252590  1
  V  V13  1  0.747843  0.754990  0.754390  1
  V  V14  1  0.248835  0.254413  0.249572  1
  Zn  Zn15  1  0.758940  0.271808  0.770368  1
  P  P16  1  0.998223  0.508430  0.686476  1
  P  P17  1  0.993912  0.005593  0.316928  1
  P  P18  1  0.506012  0.006214  0.816951  1
  P  P19  1  0.495122  0.507073  0.185629  1
  P  P20  1  0.164419  0.255766  0.002799  1
  P  P21  1  0.837425  0.755661  0.000221  1
  P  P22  1  0.663974  0.752786  0.501810  1
  P  P23  1  0.332408  0.252348  0.501555  1
  O  O24  1  0.529027  0.370342  0.732933  1
  O  O25  1  0.537642  0.880666  0.275064  1
  O  O26  1  0.956457  0.891660  0.772031  1
  O  O27  1  0.036297  0.383871  0.228615  1
  O  O28  1  0.024540  0.371246  0.014979  1
  O  O29  1  0.970236  0.875207  0.985195  1
  O  O30  1  0.522064  0.867149  0.490195  1
  O  O31  1  0.470649  0.369646  0.515976  1
  O  O32  1  0.296905  0.236044  0.099287  1
  O  O33  1  0.701731  0.733727  0.905742  1
  O  O34  1  0.799380  0.732573  0.407841  1
  O  O35  1  0.192635  0.231082  0.592923  1
  O  O36  1  0.013678  0.394323  0.755995  1
  O  O37  1  0.961221  0.893664  0.248131  1
  O  O38  1  0.534456  0.892036  0.749453  1
  O  O39  1  0.460358  0.395506  0.255038  1
  O  O40  1  0.534483  0.625424  0.727537  1
  O  O41  1  0.463478  0.128379  0.276088  1
  O  O42  1  0.966805  0.148306  0.780587  1
  O  O43  1  0.965719  0.629805  0.225773  1
  O  O44  1  0.974394  0.625232  0.750115  1
  O  O45  1  0.024381  0.121075  0.251596  1
  O  O46  1  0.499996  0.122224  0.749795  1
  O  O47  1  0.527364  0.621576  0.252313  1
  O  O48  1  0.820045  0.488803  0.609578  1
  O  O49  1  0.182346  0.981754  0.387960  1
  O  O50  1  0.302021  0.993025  0.876973  1
  O  O51  1  0.683120  0.483494  0.115040  1
  O  O52  1  0.303139  0.274701  0.910379  1
  O  O53  1  0.702275  0.773745  0.095332  1
  O  O54  1  0.798520  0.774008  0.597616  1
  O  O55  1  0.202794  0.274395  0.404326  1
  O  O56  1  0.197254  0.520439  0.621923  1
  O  O57  1  0.807502  0.027907  0.389286  1
  O  O58  1  0.679015  0.020030  0.897005  1
  O  O59  1  0.309024  0.530720  0.113969  1
  O  O60  1  0.021681  0.141510  0.990441  1
  O  O61  1  0.990680  0.648040  0.014432  1
  O  O62  1  0.520698  0.638990  0.518709  1
  O  O63  1  0.484505  0.143020  0.487063  1
