# generated using pymatgen
data_RbLi4ScTe8
_symmetry_space_group_name_H-M   'P 1'
_cell_length_a   11.71517855
_cell_length_b   11.71517852
_cell_length_c   10.85904284
_cell_angle_alpha   81.59540679
_cell_angle_beta   81.59540681
_cell_angle_gamma   15.17071045
_symmetry_Int_Tables_number   1
_chemical_formula_structural   RbLi4ScTe8
_chemical_formula_sum   'Rb1 Li4 Sc1 Te8'
_cell_volume   385.75610789
_cell_formula_units_Z   1
loop_
 _symmetry_equiv_pos_site_id
 _symmetry_equiv_pos_as_xyz
  1  'x, y, z'
loop_
 _atom_site_type_symbol
 _atom_site_label
 _atom_site_symmetry_multiplicity
 _atom_site_fract_x
 _atom_site_fract_y
 _atom_site_fract_z
 _atom_site_occupancy
  Rb  Rb0  1  0.000000  0.000000  0.000000  1
  Li  Li1  1  0.217761  0.217761  0.132683  1
  Li  Li2  1  0.840026  0.840026  0.488282  1
  Li  Li3  1  0.159974  0.159974  0.511718  1
  Li  Li4  1  0.782239  0.782239  0.867317  1
  Sc  Sc5  1  0.500000  0.500000  0.500000  1
  Te  Te6  1  0.918935  0.918935  0.685779  1
  Te  Te7  1  0.081065  0.081065  0.314221  1
  Te  Te8  1  0.581094  0.581094  0.688840  1
  Te  Te9  1  0.418906  0.418906  0.311160  1
  Te  Te10  1  0.657264  0.657264  0.971338  1
  Te  Te11  1  0.342736  0.342736  0.028662  1
  Te  Te12  1  0.742059  0.742059  0.339184  1
  Te  Te13  1  0.257941  0.257941  0.660816  1
