# generated using pymatgen
data_SmErGa9PdRh2
_symmetry_space_group_name_H-M   'P 1'
_cell_length_a   7.62381768
_cell_length_b   7.62810362
_cell_length_c   9.52047300
_cell_angle_alpha   90.00000000
_cell_angle_beta   90.00000000
_cell_angle_gamma   119.80351332
_symmetry_Int_Tables_number   1
_chemical_formula_structural   SmErGa9PdRh2
_chemical_formula_sum   'Sm2 Er2 Ga18 Pd2 Rh4'
_cell_volume   480.43508506
_cell_formula_units_Z   2
loop_
 _symmetry_equiv_pos_site_id
 _symmetry_equiv_pos_as_xyz
  1  'x, y, z'
loop_
 _atom_site_type_symbol
 _atom_site_label
 _atom_site_symmetry_multiplicity
 _atom_site_fract_x
 _atom_site_fract_y
 _atom_site_fract_z
 _atom_site_occupancy
  Sm  Sm0  1  0.996705  0.670512  0.250000  1
  Sm  Sm1  1  0.003295  0.329488  0.750000  1
  Er  Er2  1  0.670149  0.996496  0.250000  1
  Er  Er3  1  0.329851  0.003504  0.750000  1
  Ga  Ga4  1  0.130602  0.131154  0.250000  1
  Ga  Ga5  1  0.869398  0.868846  0.750000  1
  Ga  Ga6  1  0.998496  0.335993  0.080736  1
  Ga  Ga7  1  0.001504  0.664007  0.919264  1
  Ga  Ga8  1  0.001504  0.664007  0.580736  1
  Ga  Ga9  1  0.339518  0.000269  0.420475  1
  Ga  Ga10  1  0.998496  0.335993  0.419264  1
  Ga  Ga11  1  0.660482  0.999731  0.579525  1
  Ga  Ga12  1  0.660482  0.999731  0.920475  1
  Ga  Ga13  1  0.339518  0.000269  0.079525  1
  Ga  Ga14  1  0.337341  0.335932  0.566579  1
  Ga  Ga15  1  0.662659  0.664068  0.433421  1
  Ga  Ga16  1  0.662659  0.664068  0.066579  1
  Ga  Ga17  1  0.337341  0.335932  0.933421  1
  Ga  Ga18  1  0.337826  0.547371  0.250000  1
  Ga  Ga19  1  0.662174  0.452629  0.750000  1
  Ga  Ga20  1  0.545389  0.335024  0.250000  1
  Ga  Ga21  1  0.454611  0.664976  0.750000  1
  Pd  Pd22  1  0.000000  0.000000  0.000000  1
  Pd  Pd23  1  0.000000  0.000000  0.500000  1
  Rh  Rh24  1  0.670118  0.328553  0.999878  1
  Rh  Rh25  1  0.329882  0.671447  0.000122  1
  Rh  Rh26  1  0.329882  0.671447  0.499878  1
  Rh  Rh27  1  0.670118  0.328553  0.500122  1
