# generated using pymatgen
data_Na12Li8Ti(SiAs4)3
_symmetry_space_group_name_H-M   'P 1'
_cell_length_a   9.54660973
_cell_length_b   9.54660869
_cell_length_c   13.85547334
_cell_angle_alpha   90.05098881
_cell_angle_beta   90.05099098
_cell_angle_gamma   143.24210453
_symmetry_Int_Tables_number   1
_chemical_formula_structural   Na12Li8Ti(SiAs4)3
_chemical_formula_sum   'Na12 Li8 Ti1 Si3 As12'
_cell_volume   755.67476453
_cell_formula_units_Z   1
loop_
 _symmetry_equiv_pos_site_id
 _symmetry_equiv_pos_as_xyz
  1  'x, y, z'
loop_
 _atom_site_type_symbol
 _atom_site_label
 _atom_site_symmetry_multiplicity
 _atom_site_fract_x
 _atom_site_fract_y
 _atom_site_fract_z
 _atom_site_occupancy
  Na  Na0  1  0.595058  0.933946  0.824608  1
  Na  Na1  1  0.268419  0.271432  0.319788  1
  Na  Na2  1  0.233156  0.234193  0.823642  1
  Na  Na3  1  0.728568  0.731581  0.680212  1
  Na  Na4  1  0.444482  0.102735  0.674288  1
  Na  Na5  1  0.897265  0.555518  0.325712  1
  Na  Na6  1  0.066054  0.404942  0.175392  1
  Na  Na7  1  0.409229  0.067955  0.176787  1
  Na  Na8  1  0.569378  0.906066  0.325244  1
  Na  Na9  1  0.093934  0.430622  0.674756  1
  Na  Na10  1  0.932045  0.590771  0.823213  1
  Na  Na11  1  0.765807  0.766844  0.176358  1
  Li  Li12  1  0.082433  0.917567  0.000000  1
  Li  Li13  1  0.581987  0.418013  0.500000  1
  Li  Li14  1  0.918049  0.081951  0.000000  1
  Li  Li15  1  0.754026  0.245974  0.000000  1
  Li  Li16  1  0.747657  0.252343  0.500000  1
  Li  Li17  1  0.245454  0.754546  0.000000  1
  Li  Li18  1  0.254598  0.745402  0.500000  1
  Li  Li19  1  0.415764  0.584236  0.500000  1
  Ti  Ti20  1  0.083331  0.916669  0.500000  1
  Si  Si21  1  0.410554  0.589446  0.000000  1
  Si  Si22  1  0.913629  0.086371  0.500000  1
  Si  Si23  1  0.589639  0.410361  0.000000  1
  As  As24  1  0.066143  0.384159  0.393745  1
  As  As25  1  0.888445  0.567062  0.107137  1
  As  As26  1  0.432938  0.111555  0.892863  1
  As  As27  1  0.615841  0.933857  0.606255  1
  As  As28  1  0.934465  0.611906  0.606738  1
  As  As29  1  0.112035  0.433767  0.893485  1
  As  As30  1  0.566233  0.887965  0.106515  1
  As  As31  1  0.388094  0.065535  0.393262  1
  As  As32  1  0.222953  0.228174  0.601111  1
  As  As33  1  0.710678  0.710167  0.903821  1
  As  As34  1  0.289833  0.289322  0.096179  1
  As  As35  1  0.771826  0.777047  0.398889  1
