# generated using pymatgen
data_ZrSc(Ga2Ni)2
_symmetry_space_group_name_H-M   'P 1'
_cell_length_a   5.24452594
_cell_length_b   5.24452677
_cell_length_c   6.37667800
_cell_angle_alpha   90.00000000
_cell_angle_beta   90.00000000
_cell_angle_gamma   134.23443653
_symmetry_Int_Tables_number   1
_chemical_formula_structural   ZrSc(Ga2Ni)2
_chemical_formula_sum   'Zr1 Sc1 Ga4 Ni2'
_cell_volume   125.66607495
_cell_formula_units_Z   1
loop_
 _symmetry_equiv_pos_site_id
 _symmetry_equiv_pos_as_xyz
  1  'x, y, z'
loop_
 _atom_site_type_symbol
 _atom_site_label
 _atom_site_symmetry_multiplicity
 _atom_site_fract_x
 _atom_site_fract_y
 _atom_site_fract_z
 _atom_site_occupancy
  Zr  Zr0  1  0.925147  0.074853  0.250000  1
  Sc  Sc1  1  0.075341  0.924659  0.750000  1
  Ga  Ga2  1  0.635204  0.364796  0.451075  1
  Ga  Ga3  1  0.364442  0.635558  0.548912  1
  Ga  Ga4  1  0.364442  0.635558  0.951088  1
  Ga  Ga5  1  0.635204  0.364796  0.048925  1
  Ni  Ni6  1  0.206357  0.793643  0.250000  1
  Ni  Ni7  1  0.793862  0.206138  0.750000  1
