# generated using pymatgen
data_P2I2O9
_symmetry_space_group_name_H-M   'P 1'
_cell_length_a   8.03757497
_cell_length_b   8.03757466
_cell_length_c   10.38592255
_cell_angle_alpha   89.26753569
_cell_angle_beta   89.26753262
_cell_angle_gamma   141.41079183
_symmetry_Int_Tables_number   1
_chemical_formula_structural   P2I2O9
_chemical_formula_sum   'P4 I4 O18'
_cell_volume   418.18472360
_cell_formula_units_Z   2
loop_
 _symmetry_equiv_pos_site_id
 _symmetry_equiv_pos_as_xyz
  1  'x, y, z'
loop_
 _atom_site_type_symbol
 _atom_site_label
 _atom_site_symmetry_multiplicity
 _atom_site_fract_x
 _atom_site_fract_y
 _atom_site_fract_z
 _atom_site_occupancy
  P  P0  1  0.951339  0.221426  0.161274  1
  P  P1  1  0.221426  0.951339  0.661274  1
  P  P2  1  0.195055  0.908363  0.225857  1
  P  P3  1  0.908363  0.195055  0.725857  1
  I  I4  1  0.597094  0.033301  0.442011  1
  I  I5  1  0.033301  0.597094  0.942011  1
  I  I6  1  0.575444  0.564021  0.201407  1
  I  I7  1  0.564021  0.575444  0.701407  1
  O  O8  1  0.834329  0.271777  0.076216  1
  O  O9  1  0.271777  0.834329  0.576216  1
  O  O10  1  0.343915  0.875074  0.289318  1
  O  O11  1  0.875074  0.343915  0.789318  1
  O  O12  1  0.908872  0.219555  0.578079  1
  O  O13  1  0.219555  0.908872  0.078079  1
  O  O14  1  0.909568  0.229364  0.306840  1
  O  O15  1  0.229364  0.909568  0.806840  1
  O  O16  1  0.492658  0.743824  0.447210  1
  O  O17  1  0.743824  0.492658  0.947210  1
  O  O18  1  0.319018  0.171498  0.271695  1
  O  O19  1  0.171498  0.319018  0.771695  1
  O  O20  1  0.255154  0.456558  0.126044  1
  O  O21  1  0.456558  0.255154  0.626044  1
  O  O22  1  0.825302  0.954450  0.124950  1
  O  O23  1  0.954450  0.825302  0.624950  1
  O  O24  1  0.900750  0.670729  0.278119  1
  O  O25  1  0.670729  0.900750  0.778119  1
