# generated using pymatgen
data_CsTbTm9(C2Br9)2
_symmetry_space_group_name_H-M   'P 1'
_cell_length_a   10.60738277
_cell_length_b   10.68354796
_cell_length_c   10.79026971
_cell_angle_alpha   113.48731561
_cell_angle_beta   87.42338147
_cell_angle_gamma   118.96120526
_symmetry_Int_Tables_number   1
_chemical_formula_structural   CsTbTm9(C2Br9)2
_chemical_formula_sum   'Cs1 Tb1 Tm9 C4 Br18'
_cell_volume   964.40605094
_cell_formula_units_Z   1
loop_
 _symmetry_equiv_pos_site_id
 _symmetry_equiv_pos_as_xyz
  1  'x, y, z'
loop_
 _atom_site_type_symbol
 _atom_site_label
 _atom_site_symmetry_multiplicity
 _atom_site_fract_x
 _atom_site_fract_y
 _atom_site_fract_z
 _atom_site_occupancy
  Cs  Cs0  1  0.499947  0.999848  0.500250  1
  Tb  Tb1  1  0.886995  0.058864  0.999198  1
  Tm  Tm2  1  0.666463  0.718411  0.704799  1
  Tm  Tm3  1  0.282254  0.363271  0.012220  1
  Tm  Tm4  1  0.093895  0.403468  0.298827  1
  Tm  Tm5  1  0.960389  0.036282  0.332496  1
  Tm  Tm6  1  0.906679  0.595446  0.700560  1
  Tm  Tm7  1  0.109038  0.942611  0.001030  1
  Tm  Tm8  1  0.040457  0.963242  0.667589  1
  Tm  Tm9  1  0.335015  0.281888  0.295740  1
  Tm  Tm10  1  0.718428  0.636196  0.987726  1
  C  C11  1  0.159127  0.228320  0.123467  1
  C  C12  1  0.842927  0.770414  0.876499  1
  C  C13  1  0.923167  0.850846  0.794884  1
  C  C14  1  0.078914  0.148034  0.205214  1
  Br  Br15  1  0.452239  0.530991  0.834652  1
  Br  Br16  1  0.381242  0.040406  0.159003  1
  Br  Br17  1  0.780453  0.858090  0.501706  1
  Br  Br18  1  0.839701  0.317017  0.158780  1
  Br  Br19  1  0.548593  0.469547  0.165558  1
  Br  Br20  1  0.220201  0.141885  0.498787  1
  Br  Br21  1  0.314582  0.100177  0.828586  1
  Br  Br22  1  0.684575  0.898350  0.173130  1
  Br  Br23  1  0.972838  0.760183  0.172605  1
  Br  Br24  1  0.933625  0.301908  0.499912  1
  Br  Br25  1  0.029465  0.241130  0.825565  1
  Br  Br26  1  0.066932  0.698107  0.500046  1
  Br  Br27  1  0.259250  0.620740  0.185693  1
  Br  Br28  1  0.740617  0.378354  0.813980  1
  Br  Br29  1  0.640146  0.436067  0.501098  1
  Br  Br30  1  0.160281  0.690629  0.846202  1
  Br  Br31  1  0.612039  0.955636  0.835460  1
  Br  Br32  1  0.359527  0.563641  0.498737  1
