# generated using pymatgen
data_Eu4Si10RuPt5
_symmetry_space_group_name_H-M   'P 1'
_cell_length_a   8.36243341
_cell_length_b   8.36243310
_cell_length_c   8.36243337
_cell_angle_alpha   138.15966770
_cell_angle_beta   104.95821674
_cell_angle_gamma   89.82116647
_symmetry_Int_Tables_number   1
_chemical_formula_structural   Eu4Si10RuPt5
_chemical_formula_sum   'Eu4 Si10 Ru1 Pt5'
_cell_volume   360.26542164
_cell_formula_units_Z   1
loop_
 _symmetry_equiv_pos_site_id
 _symmetry_equiv_pos_as_xyz
  1  'x, y, z'
loop_
 _atom_site_type_symbol
 _atom_site_label
 _atom_site_symmetry_multiplicity
 _atom_site_fract_x
 _atom_site_fract_y
 _atom_site_fract_z
 _atom_site_occupancy
  Eu  Eu0  1  0.104026  0.870242  0.232801  1
  Eu  Eu1  1  0.895974  0.128775  0.766216  1
  Eu  Eu2  1  0.637441  0.371225  0.267199  1
  Eu  Eu3  1  0.362559  0.629758  0.733784  1
  Si  Si4  1  0.000000  0.750000  0.750000  1
  Si  Si5  1  0.000000  0.250000  0.250000  1
  Si  Si6  1  0.269963  0.019963  0.750000  1
  Si  Si7  1  0.730037  0.480037  0.750000  1
  Si  Si8  1  0.726096  0.976096  0.250000  1
  Si  Si9  1  0.273904  0.523904  0.250000  1
  Si  Si10  1  0.757277  0.614900  0.154240  1
  Si  Si11  1  0.242723  0.396964  0.857623  1
  Si  Si12  1  0.460660  0.103036  0.345760  1
  Si  Si13  1  0.539340  0.885100  0.642377  1
  Ru  Ru14  1  0.500000  0.750000  0.250000  1
  Pt  Pt15  1  0.500000  0.250000  0.750000  1
  Pt  Pt16  1  0.023371  0.634735  0.384825  1
  Pt  Pt17  1  0.976629  0.361454  0.611363  1
  Pt  Pt18  1  0.249909  0.138546  0.115175  1
  Pt  Pt19  1  0.750091  0.865265  0.888637  1
