# generated using pymatgen
data_Yb12CeDy3(Bi3Sb)3
_symmetry_space_group_name_H-M   'P 1'
_cell_length_a   9.57893439
_cell_length_b   9.57131862
_cell_length_c   9.58833422
_cell_angle_alpha   90.14604000
_cell_angle_beta   90.14928630
_cell_angle_gamma   89.70396805
_symmetry_Int_Tables_number   1
_chemical_formula_structural   Yb12CeDy3(Bi3Sb)3
_chemical_formula_sum   'Yb12 Ce1 Dy3 Bi9 Sb3'
_cell_volume   879.07002104
_cell_formula_units_Z   1
loop_
 _symmetry_equiv_pos_site_id
 _symmetry_equiv_pos_as_xyz
  1  'x, y, z'
loop_
 _atom_site_type_symbol
 _atom_site_label
 _atom_site_symmetry_multiplicity
 _atom_site_fract_x
 _atom_site_fract_y
 _atom_site_fract_z
 _atom_site_occupancy
  Yb  Yb0  1  0.821370  0.323645  0.177053  1
  Yb  Yb1  1  0.926955  0.929181  0.930529  1
  Yb  Yb2  1  0.821539  0.675382  0.323422  1
  Yb  Yb3  1  0.180115  0.822306  0.323328  1
  Yb  Yb4  1  0.174600  0.173922  0.174428  1
  Yb  Yb5  1  0.329286  0.827050  0.672142  1
  Yb  Yb6  1  0.068898  0.429586  0.569193  1
  Yb  Yb7  1  0.325062  0.176066  0.822445  1
  Yb  Yb8  1  0.674051  0.324354  0.825475  1
  Yb  Yb9  1  0.676775  0.680153  0.679080  1
  Yb  Yb10  1  0.568291  0.065263  0.433339  1
  Yb  Yb11  1  0.434044  0.570199  0.070983  1
  Ce  Ce12  1  0.069265  0.573159  0.928606  1
  Dy  Dy13  1  0.927173  0.070330  0.571296  1
  Dy  Dy14  1  0.431123  0.433236  0.428946  1
  Dy  Dy15  1  0.571936  0.927644  0.068400  1
  Bi  Bi16  1  0.746365  0.369771  0.500702  1
  Bi  Bi17  1  0.869659  0.999516  0.253421  1
  Bi  Bi18  1  0.999942  0.755327  0.627251  1
  Bi  Bi19  1  0.245689  0.129477  0.499491  1
  Bi  Bi20  1  0.131422  0.499111  0.250831  1
  Bi  Bi21  1  0.999081  0.248744  0.868689  1
  Bi  Bi22  1  0.255388  0.872610  0.999771  1
  Bi  Bi23  1  0.372746  0.499970  0.745028  1
  Bi  Bi24  1  0.499535  0.245951  0.130325  1
  Sb  Sb25  1  0.749235  0.632114  0.000758  1
  Sb  Sb26  1  0.629902  0.000594  0.755131  1
  Sb  Sb27  1  0.500555  0.745342  0.369935  1
