# generated using pymatgen
data_La15Yb3(TmSn8)2
_symmetry_space_group_name_H-M   'P 1'
_cell_length_a   8.27768528
_cell_length_b   8.55945696
_cell_length_c   16.32948902
_cell_angle_alpha   90.26318022
_cell_angle_beta   89.68229940
_cell_angle_gamma   89.94140413
_symmetry_Int_Tables_number   1
_chemical_formula_structural   La15Yb3(TmSn8)2
_chemical_formula_sum   'La15 Yb3 Tm2 Sn16'
_cell_volume   1156.95434493
_cell_formula_units_Z   1
loop_
 _symmetry_equiv_pos_site_id
 _symmetry_equiv_pos_as_xyz
  1  'x, y, z'
loop_
 _atom_site_type_symbol
 _atom_site_label
 _atom_site_symmetry_multiplicity
 _atom_site_fract_x
 _atom_site_fract_y
 _atom_site_fract_z
 _atom_site_occupancy
  La  La0  1  0.150210  0.333507  0.875895  1
  La  La1  1  0.352231  0.831916  0.124078  1
  La  La2  1  0.848046  0.664764  0.383045  1
  La  La3  1  0.347052  0.831496  0.376427  1
  La  La4  1  0.852421  0.664097  0.119677  1
  La  La5  1  0.649303  0.164339  0.874970  1
  La  La6  1  0.153311  0.332093  0.620214  1
  La  La7  1  0.493081  0.678542  0.599069  1
  La  La8  1  0.997031  0.818518  0.901603  1
  La  La9  1  0.503790  0.317631  0.096144  1
  La  La10  1  0.998490  0.188793  0.405496  1
  La  La11  1  0.505816  0.318431  0.405590  1
  La  La12  1  0.001423  0.185358  0.095020  1
  La  La13  1  0.492252  0.681470  0.899581  1
  La  La14  1  0.999432  0.816075  0.596319  1
  Yb  Yb15  1  0.320945  0.998972  0.749418  1
  Yb  Yb16  1  0.180829  0.499455  0.250250  1
  Yb  Yb17  1  0.677456  0.001964  0.250848  1
  Tm  Tm18  1  0.654967  0.168966  0.628347  1
  Tm  Tm19  1  0.816870  0.501542  0.748881  1
  Sn  Sn20  1  0.680805  0.966666  0.467913  1
  Sn  Sn21  1  0.196727  0.536474  0.039224  1
  Sn  Sn22  1  0.308701  0.038527  0.961411  1
  Sn  Sn23  1  0.800679  0.457479  0.547443  1
  Sn  Sn24  1  0.337043  0.039213  0.541407  1
  Sn  Sn25  1  0.804746  0.466565  0.953247  1
  Sn  Sn26  1  0.687872  0.961613  0.039309  1
  Sn  Sn27  1  0.194930  0.537128  0.459012  1
  Sn  Sn28  1  0.458404  0.387720  0.748121  1
  Sn  Sn29  1  0.950908  0.112638  0.744835  1
  Sn  Sn30  1  0.551130  0.605503  0.250317  1
  Sn  Sn31  1  0.043766  0.896632  0.250610  1
  Sn  Sn32  1  0.698299  0.852998  0.746893  1
  Sn  Sn33  1  0.184585  0.641033  0.747885  1
  Sn  Sn34  1  0.300416  0.142658  0.250875  1
  Sn  Sn35  1  0.806035  0.359219  0.250625  1
