# generated using pymatgen
data_Li4Pr2SmSn4
_symmetry_space_group_name_H-M   'P 1'
_cell_length_a   8.84903097
_cell_length_b   8.84903078
_cell_length_c   8.84903088
_cell_angle_alpha   148.93313480
_cell_angle_beta   132.51288217
_cell_angle_gamma   57.83755277
_symmetry_Int_Tables_number   1
_chemical_formula_structural   Li4Pr2SmSn4
_chemical_formula_sum   'Li4 Pr2 Sm1 Sn4'
_cell_volume   261.60115598
_cell_formula_units_Z   1
loop_
 _symmetry_equiv_pos_site_id
 _symmetry_equiv_pos_as_xyz
  1  'x, y, z'
loop_
 _atom_site_type_symbol
 _atom_site_label
 _atom_site_symmetry_multiplicity
 _atom_site_fract_x
 _atom_site_fract_y
 _atom_site_fract_z
 _atom_site_occupancy
  Li  Li0  1  0.481670  0.672182  0.809489  1
  Li  Li1  1  0.862693  0.672182  0.190511  1
  Li  Li2  1  0.137307  0.327818  0.809489  1
  Li  Li3  1  0.518330  0.327818  0.190511  1
  Pr  Pr4  1  0.869893  0.869893  0.000000  1
  Pr  Pr5  1  0.130107  0.130107  0.000000  1
  Sm  Sm6  1  0.500000  0.000000  0.500000  1
  Sn  Sn7  1  0.288092  0.788092  0.500000  1
  Sn  Sn8  1  0.711908  0.211908  0.500000  1
  Sn  Sn9  1  0.798686  0.500000  0.298686  1
  Sn  Sn10  1  0.201314  0.500000  0.701314  1
