# generated using pymatgen
data_PrTmMnIr3
_symmetry_space_group_name_H-M   'P 1'
_cell_length_a   5.23255381
_cell_length_b   5.23255340
_cell_length_c   5.23255337
_cell_angle_alpha   63.72353595
_cell_angle_beta   63.72353856
_cell_angle_gamma   63.72355121
_symmetry_Int_Tables_number   1
_chemical_formula_structural   PrTmMnIr3
_chemical_formula_sum   'Pr1 Tm1 Mn1 Ir3'
_cell_volume   109.63022245
_cell_formula_units_Z   1
loop_
 _symmetry_equiv_pos_site_id
 _symmetry_equiv_pos_as_xyz
  1  'x, y, z'
loop_
 _atom_site_type_symbol
 _atom_site_label
 _atom_site_symmetry_multiplicity
 _atom_site_fract_x
 _atom_site_fract_y
 _atom_site_fract_z
 _atom_site_occupancy
  Pr  Pr0  1  0.250051  0.250051  0.250051  1
  Tm  Tm1  1  0.997733  0.997733  0.997733  1
  Mn  Mn2  1  0.625383  0.625383  0.625383  1
  Ir  Ir3  1  0.626403  0.626403  0.124029  1
  Ir  Ir4  1  0.626403  0.124029  0.626403  1
  Ir  Ir5  1  0.124029  0.626403  0.626403  1
