# generated using pymatgen
data_SrY6RuI12
_symmetry_space_group_name_H-M   'P 1'
_cell_length_a   9.85311588
_cell_length_b   9.85311502
_cell_length_c   9.85311577
_cell_angle_alpha   106.37857896
_cell_angle_beta   106.37857604
_cell_angle_gamma   106.37856810
_symmetry_Int_Tables_number   1
_chemical_formula_structural   SrY6RuI12
_chemical_formula_sum   'Sr1 Y6 Ru1 I12'
_cell_volume   809.77313982
_cell_formula_units_Z   1
loop_
 _symmetry_equiv_pos_site_id
 _symmetry_equiv_pos_as_xyz
  1  'x, y, z'
loop_
 _atom_site_type_symbol
 _atom_site_label
 _atom_site_symmetry_multiplicity
 _atom_site_fract_x
 _atom_site_fract_y
 _atom_site_fract_z
 _atom_site_occupancy
  Sr  Sr0  1  0.500000  0.500000  0.500000  1
  Y  Y1  1  0.705699  0.980201  0.907714  1
  Y  Y2  1  0.980201  0.907714  0.705699  1
  Y  Y3  1  0.092286  0.294301  0.019799  1
  Y  Y4  1  0.294301  0.019799  0.092286  1
  Y  Y5  1  0.907714  0.705699  0.980201  1
  Y  Y6  1  0.019799  0.092286  0.294301  1
  Ru  Ru7  1  0.000000  0.000000  0.000000  1
  I  I8  1  0.073589  0.223064  0.678616  1
  I  I9  1  0.366823  0.135032  0.446391  1
  I  I10  1  0.633177  0.864968  0.553609  1
  I  I11  1  0.223064  0.678616  0.073589  1
  I  I12  1  0.776936  0.321384  0.926411  1
  I  I13  1  0.678616  0.073589  0.223064  1
  I  I14  1  0.553609  0.633177  0.864968  1
  I  I15  1  0.864968  0.553609  0.633177  1
  I  I16  1  0.926411  0.776936  0.321384  1
  I  I17  1  0.321384  0.926411  0.776936  1
  I  I18  1  0.446391  0.366823  0.135032  1
  I  I19  1  0.135032  0.446391  0.366823  1
