# generated using pymatgen
data_Tm3Lu(As4O9)2
_symmetry_space_group_name_H-M   'P 1'
_cell_length_a   6.67759795
_cell_length_b   7.48503210
_cell_length_c   9.78970800
_cell_angle_alpha   94.60104807
_cell_angle_beta   104.13947708
_cell_angle_gamma   104.82229576
_symmetry_Int_Tables_number   1
_chemical_formula_structural   Tm3Lu(As4O9)2
_chemical_formula_sum   'Tm3 Lu1 As8 O18'
_cell_volume   453.34997173
_cell_formula_units_Z   1
loop_
 _symmetry_equiv_pos_site_id
 _symmetry_equiv_pos_as_xyz
  1  'x, y, z'
loop_
 _atom_site_type_symbol
 _atom_site_label
 _atom_site_symmetry_multiplicity
 _atom_site_fract_x
 _atom_site_fract_y
 _atom_site_fract_z
 _atom_site_occupancy
  Tm  Tm0  1  0.241800  0.939110  0.613941  1
  Tm  Tm1  1  0.759196  0.061757  0.385509  1
  Tm  Tm2  1  0.721109  0.528708  0.410883  1
  Lu  Lu3  1  0.279210  0.472791  0.590584  1
  As  As4  1  0.684264  0.774258  0.081398  1
  As  As5  1  0.315831  0.226885  0.917639  1
  As  As6  1  0.169228  0.751382  0.911460  1
  As  As7  1  0.830940  0.249052  0.087866  1
  As  As8  1  0.740748  0.913541  0.709236  1
  As  As9  1  0.259119  0.085285  0.290756  1
  As  As10  1  0.809436  0.351047  0.701005  1
  As  As11  1  0.190105  0.647940  0.299778  1
  O  O12  1  0.721370  0.747997  0.262259  1
  O  O13  1  0.279414  0.254145  0.736978  1
  O  O14  1  0.314114  0.978205  0.864922  1
  O  O15  1  0.685057  0.022547  0.133670  1
  O  O16  1  0.608239  0.327078  0.985439  1
  O  O17  1  0.391785  0.673723  0.014274  1
  O  O18  1  0.124934  0.641403  0.737222  1
  O  O19  1  0.875764  0.357683  0.262624  1
  O  O20  1  0.848441  0.878025  0.559473  1
  O  O21  1  0.151301  0.121246  0.440429  1
  O  O22  1  0.476727  0.765467  0.664626  1
  O  O23  1  0.522963  0.233334  0.334971  1
  O  O24  1  0.371833  0.530103  0.383254  1
  O  O25  1  0.625590  0.467701  0.618484  1
  O  O26  1  0.088746  0.670631  0.455798  1
  O  O27  1  0.912403  0.329803  0.545214  1
  O  O28  1  0.382533  0.899553  0.358902  1
  O  O29  1  0.617800  0.099599  0.641406  1
