# generated using pymatgen
data_ZrSc2NbOs4
_symmetry_space_group_name_H-M   'P 1'
_cell_length_a   6.43490300
_cell_length_b   4.56814500
_cell_length_c   9.14080800
_cell_angle_alpha   90.00000000
_cell_angle_beta   90.00025365
_cell_angle_gamma   90.00000000
_symmetry_Int_Tables_number   1
_chemical_formula_structural   ZrSc2NbOs4
_chemical_formula_sum   'Zr2 Sc4 Nb2 Os8'
_cell_volume   268.69926110
_cell_formula_units_Z   2
loop_
 _symmetry_equiv_pos_site_id
 _symmetry_equiv_pos_as_xyz
  1  'x, y, z'
loop_
 _atom_site_type_symbol
 _atom_site_label
 _atom_site_symmetry_multiplicity
 _atom_site_fract_x
 _atom_site_fract_y
 _atom_site_fract_z
 _atom_site_occupancy
  Zr  Zr0  1  0.250001  0.250001  0.124389  1
  Zr  Zr1  1  0.749999  0.749999  0.375611  1
  Sc  Sc2  1  0.750006  0.250001  0.124217  1
  Sc  Sc3  1  0.250000  0.749999  0.375782  1
  Sc  Sc4  1  0.749992  0.250001  0.625281  1
  Sc  Sc5  1  0.249999  0.749999  0.874725  1
  Nb  Nb6  1  0.249994  0.250001  0.625545  1
  Nb  Nb7  1  0.750003  0.749999  0.874455  1
  Os  Os8  1  0.503578  0.749999  0.120082  1
  Os  Os9  1  0.996430  0.749999  0.120081  1
  Os  Os10  1  0.496427  0.250001  0.379917  1
  Os  Os11  1  0.003572  0.250001  0.379919  1
  Os  Os12  1  0.003355  0.749999  0.629694  1
  Os  Os13  1  0.496646  0.749999  0.629691  1
  Os  Os14  1  0.996644  0.250001  0.870307  1
  Os  Os15  1  0.503353  0.250001  0.870308  1
