# generated using pymatgen
data_Ir2PdSe8
_symmetry_space_group_name_H-M   'P 1'
_cell_length_a   6.06718236
_cell_length_b   6.24742814
_cell_length_c   6.06617731
_cell_angle_alpha   92.45292890
_cell_angle_beta   90.49725877
_cell_angle_gamma   93.66238468
_symmetry_Int_Tables_number   1
_chemical_formula_structural   Ir2PdSe8
_chemical_formula_sum   'Ir2 Pd1 Se8'
_cell_volume   229.23926742
_cell_formula_units_Z   1
loop_
 _symmetry_equiv_pos_site_id
 _symmetry_equiv_pos_as_xyz
  1  'x, y, z'
loop_
 _atom_site_type_symbol
 _atom_site_label
 _atom_site_symmetry_multiplicity
 _atom_site_fract_x
 _atom_site_fract_y
 _atom_site_fract_z
 _atom_site_occupancy
  Ir  Ir0  1  0.000000  0.500000  0.500000  1
  Ir  Ir1  1  0.500000  0.500000  0.000000  1
  Pd  Pd2  1  0.500000  0.000000  0.500000  1
  Se  Se3  1  0.616725  0.888088  0.112245  1
  Se  Se4  1  0.896379  0.123987  0.616354  1
  Se  Se5  1  0.126982  0.612151  0.886396  1
  Se  Se6  1  0.630144  0.606590  0.626705  1
  Se  Se7  1  0.369856  0.393410  0.373295  1
  Se  Se8  1  0.873018  0.387849  0.113604  1
  Se  Se9  1  0.103621  0.876013  0.383646  1
  Se  Se10  1  0.383275  0.111912  0.887755  1
