# generated using pymatgen
data_Th4Si4Os
_symmetry_space_group_name_H-M   'P 1'
_cell_length_a   5.83202481
_cell_length_b   5.83202495
_cell_length_c   9.43342500
_cell_angle_alpha   73.18301150
_cell_angle_beta   73.18301107
_cell_angle_gamma   41.65276921
_symmetry_Int_Tables_number   1
_chemical_formula_structural   Th4Si4Os
_chemical_formula_sum   'Th4 Si4 Os1'
_cell_volume   202.77137148
_cell_formula_units_Z   1
loop_
 _symmetry_equiv_pos_site_id
 _symmetry_equiv_pos_as_xyz
  1  'x, y, z'
loop_
 _atom_site_type_symbol
 _atom_site_label
 _atom_site_symmetry_multiplicity
 _atom_site_fract_x
 _atom_site_fract_y
 _atom_site_fract_z
 _atom_site_occupancy
  Th  Th0  1  0.109695  0.109695  0.620715  1
  Th  Th1  1  0.890305  0.890305  0.379285  1
  Th  Th2  1  0.753870  0.753870  0.849330  1
  Th  Th3  1  0.246130  0.246130  0.150670  1
  Si  Si4  1  0.396379  0.396379  0.617525  1
  Si  Si5  1  0.603621  0.603621  0.382475  1
  Si  Si6  1  0.469371  0.469371  0.862061  1
  Si  Si7  1  0.530629  0.530629  0.137939  1
  Os  Os8  1  0.000000  0.000000  0.000000  1
