# generated using pymatgen
data_La14IrRh4Au
_symmetry_space_group_name_H-M   'P 1'
_cell_length_a   6.58625177
_cell_length_b   10.29885118
_cell_length_c   10.30565541
_cell_angle_alpha   120.18351512
_cell_angle_beta   89.81359932
_cell_angle_gamma   90.12804629
_symmetry_Int_Tables_number   1
_chemical_formula_structural   La14IrRh4Au
_chemical_formula_sum   'La14 Ir1 Rh4 Au1'
_cell_volume   604.26143383
_cell_formula_units_Z   1
loop_
 _symmetry_equiv_pos_site_id
 _symmetry_equiv_pos_as_xyz
  1  'x, y, z'
loop_
 _atom_site_type_symbol
 _atom_site_label
 _atom_site_symmetry_multiplicity
 _atom_site_fract_x
 _atom_site_fract_y
 _atom_site_fract_z
 _atom_site_occupancy
  La  La0  1  0.472780  0.333503  0.664802  1
  La  La1  1  0.963198  0.662018  0.337860  1
  La  La2  1  0.248188  0.124032  0.875987  1
  La  La3  1  0.246864  0.744153  0.860529  1
  La  La4  1  0.248480  0.139972  0.257769  1
  La  La5  1  0.730548  0.878312  0.126193  1
  La  La6  1  0.746408  0.247706  0.126596  1
  La  La7  1  0.746320  0.874413  0.751524  1
  La  La8  1  0.439872  0.541455  0.457476  1
  La  La9  1  0.443456  0.930334  0.475075  1
  La  La10  1  0.443036  0.523966  0.069620  1
  La  La11  1  0.929197  0.459679  0.538995  1
  La  La12  1  0.938216  0.078366  0.540410  1
  La  La13  1  0.939391  0.458853  0.922197  1
  Ir  Ir14  1  0.693195  0.185978  0.374933  1
  Rh  Rh15  1  0.196767  0.378383  0.186349  1
  Rh  Rh16  1  0.196148  0.813517  0.622844  1
  Rh  Rh17  1  0.692278  0.188925  0.811162  1
  Rh  Rh18  1  0.695069  0.624569  0.812739  1
  Au  Au19  1  0.192592  0.811867  0.186940  1
