# generated using pymatgen
data_K2Rb2Zr6FeI18
_symmetry_space_group_name_H-M   'P 1'
_cell_length_a   11.35861343
_cell_length_b   11.51882766
_cell_length_c   11.64764748
_cell_angle_alpha   118.53676856
_cell_angle_beta   100.34425336
_cell_angle_gamma   103.54083967
_symmetry_Int_Tables_number   1
_chemical_formula_structural   K2Rb2Zr6FeI18
_chemical_formula_sum   'K2 Rb2 Zr6 Fe1 I18'
_cell_volume   1223.48779867
_cell_formula_units_Z   1
loop_
 _symmetry_equiv_pos_site_id
 _symmetry_equiv_pos_as_xyz
  1  'x, y, z'
loop_
 _atom_site_type_symbol
 _atom_site_label
 _atom_site_symmetry_multiplicity
 _atom_site_fract_x
 _atom_site_fract_y
 _atom_site_fract_z
 _atom_site_occupancy
  K  K0  1  0.642852  0.534467  0.221807  1
  K  K1  1  0.357148  0.465533  0.778193  1
  Rb  Rb2  1  0.685538  0.226788  0.563550  1
  Rb  Rb3  1  0.314462  0.773212  0.436450  1
  Zr  Zr4  1  0.145786  0.055324  0.224029  1
  Zr  Zr5  1  0.854214  0.944676  0.775971  1
  Zr  Zr6  1  0.866219  0.124760  0.128048  1
  Zr  Zr7  1  0.133781  0.875240  0.871952  1
  Zr  Zr8  1  0.141363  0.229761  0.041878  1
  Zr  Zr9  1  0.858637  0.770239  0.958122  1
  Fe  Fe10  1  0.000000  0.000000  0.000000  1
  I  I11  1  0.009399  0.409814  0.194714  1
  I  I12  1  0.990601  0.590186  0.805286  1
  I  I13  1  0.329213  0.332219  0.309445  1
  I  I14  1  0.670787  0.667781  0.690555  1
  I  I15  1  0.323280  0.515460  0.093204  1
  I  I16  1  0.676720  0.484540  0.906796  1
  I  I17  1  0.005330  0.797223  0.210398  1
  I  I18  1  0.994670  0.202777  0.789602  1
  I  I19  1  0.704027  0.280507  0.283037  1
  I  I20  1  0.295973  0.719493  0.716963  1
  I  I21  1  0.315832  0.122181  0.900903  1
  I  I22  1  0.684168  0.877819  0.099097  1
  I  I23  1  0.014068  0.205879  0.406795  1
  I  I24  1  0.985932  0.794121  0.593205  1
  I  I25  1  0.321206  0.922659  0.112207  1
  I  I26  1  0.678794  0.077341  0.887793  1
  I  I27  1  0.331077  0.127451  0.504616  1
  I  I28  1  0.668923  0.872549  0.495384  1
