# generated using pymatgen
data_LuTh13Fe6
_symmetry_space_group_name_H-M   'P 1'
_cell_length_a   9.69755500
_cell_length_b   9.69755526
_cell_length_c   6.16976100
_cell_angle_alpha   90.00000000
_cell_angle_beta   90.00000000
_cell_angle_gamma   120.00000251
_symmetry_Int_Tables_number   1
_chemical_formula_structural   LuTh13Fe6
_chemical_formula_sum   'Lu1 Th13 Fe6'
_cell_volume   502.48543313
_cell_formula_units_Z   1
loop_
 _symmetry_equiv_pos_site_id
 _symmetry_equiv_pos_as_xyz
  1  'x, y, z'
loop_
 _atom_site_type_symbol
 _atom_site_label
 _atom_site_symmetry_multiplicity
 _atom_site_fract_x
 _atom_site_fract_y
 _atom_site_fract_z
 _atom_site_occupancy
  Lu  Lu0  1  0.333333  0.666667  0.038488  1
  Th  Th1  1  0.666667  0.333333  0.529204  1
  Th  Th2  1  0.128362  0.871638  0.244320  1
  Th  Th3  1  0.248231  0.124116  0.747053  1
  Th  Th4  1  0.875884  0.751769  0.747053  1
  Th  Th5  1  0.128362  0.256724  0.244320  1
  Th  Th6  1  0.743276  0.871638  0.244320  1
  Th  Th7  1  0.875884  0.124116  0.747053  1
  Th  Th8  1  0.540766  0.459234  0.062280  1
  Th  Th9  1  0.082999  0.541500  0.568584  1
  Th  Th10  1  0.458500  0.917001  0.568584  1
  Th  Th11  1  0.540766  0.081533  0.062280  1
  Th  Th12  1  0.918467  0.459234  0.062280  1
  Th  Th13  1  0.458500  0.541500  0.568584  1
  Fe  Fe14  1  0.814838  0.185162  0.289861  1
  Fe  Fe15  1  0.635474  0.817737  0.785339  1
  Fe  Fe16  1  0.182263  0.364526  0.785339  1
  Fe  Fe17  1  0.814838  0.629675  0.289861  1
  Fe  Fe18  1  0.370325  0.185162  0.289861  1
  Fe  Fe19  1  0.182263  0.817737  0.785339  1
