# generated using pymatgen
data_Ho15Lu(ZnCo)4
_symmetry_space_group_name_H-M   'P 1'
_cell_length_a   9.28237894
_cell_length_b   9.28237914
_cell_length_c   9.29062400
_cell_angle_alpha   59.97061332
_cell_angle_beta   59.97061262
_cell_angle_gamma   59.97006022
_symmetry_Int_Tables_number   1
_chemical_formula_structural   Ho15Lu(ZnCo)4
_chemical_formula_sum   'Ho15 Lu1 Zn4 Co4'
_cell_volume   565.66219782
_cell_formula_units_Z   1
loop_
 _symmetry_equiv_pos_site_id
 _symmetry_equiv_pos_as_xyz
  1  'x, y, z'
loop_
 _atom_site_type_symbol
 _atom_site_label
 _atom_site_symmetry_multiplicity
 _atom_site_fract_x
 _atom_site_fract_y
 _atom_site_fract_z
 _atom_site_occupancy
  Ho  Ho0  1  0.599591  0.599591  0.601578  1
  Ho  Ho1  1  0.187999  0.812000  0.813028  1
  Ho  Ho2  1  0.059066  0.059066  0.440934  1
  Ho  Ho3  1  0.440813  0.060562  0.059368  1
  Ho  Ho4  1  0.812000  0.187999  0.813028  1
  Ho  Ho5  1  0.440813  0.060562  0.439256  1
  Ho  Ho6  1  0.599898  0.200175  0.599964  1
  Ho  Ho7  1  0.811720  0.811720  0.188280  1
  Ho  Ho8  1  0.200175  0.599898  0.599964  1
  Ho  Ho9  1  0.812000  0.187999  0.186973  1
  Ho  Ho10  1  0.060562  0.440813  0.439256  1
  Ho  Ho11  1  0.187999  0.812000  0.186973  1
  Ho  Ho12  1  0.599591  0.599591  0.199240  1
  Ho  Ho13  1  0.187523  0.187523  0.812477  1
  Ho  Ho14  1  0.060562  0.440813  0.059368  1
  Lu  Lu15  1  0.440795  0.440795  0.059205  1
  Zn  Zn16  1  0.828032  0.828032  0.515900  1
  Zn  Zn17  1  0.828032  0.828032  0.828034  1
  Zn  Zn18  1  0.515801  0.826973  0.828613  1
  Zn  Zn19  1  0.826973  0.515801  0.828613  1
  Co  Co20  1  0.391690  0.391690  0.390993  1
  Co  Co21  1  0.824829  0.391844  0.391664  1
  Co  Co22  1  0.391844  0.824829  0.391664  1
  Co  Co23  1  0.391690  0.391690  0.825628  1
