# generated using pymatgen
data_Nb6AlGa3(CuC)2
_symmetry_space_group_name_H-M   'P 1'
_cell_length_a   8.30311257
_cell_length_b   8.32286536
_cell_length_c   8.32286416
_cell_angle_alpha   60.02089684
_cell_angle_beta   60.07847493
_cell_angle_gamma   60.07847334
_symmetry_Int_Tables_number   1
_chemical_formula_structural   Nb6AlGa3(CuC)2
_chemical_formula_sum   'Nb12 Al2 Ga6 Cu4 C4'
_cell_volume   407.24374373
_cell_formula_units_Z   2
loop_
 _symmetry_equiv_pos_site_id
 _symmetry_equiv_pos_as_xyz
  1  'x, y, z'
loop_
 _atom_site_type_symbol
 _atom_site_label
 _atom_site_symmetry_multiplicity
 _atom_site_fract_x
 _atom_site_fract_y
 _atom_site_fract_z
 _atom_site_occupancy
  Nb  Nb0  1  0.566343  0.934066  0.565981  1
  Nb  Nb1  1  0.316433  0.683559  0.683559  1
  Nb  Nb2  1  0.683908  0.316035  0.316035  1
  Nb  Nb3  1  0.316390  0.684019  0.315934  1
  Nb  Nb4  1  0.683476  0.683908  0.316089  1
  Nb  Nb5  1  0.316390  0.315934  0.684019  1
  Nb  Nb6  1  0.566343  0.565981  0.934066  1
  Nb  Nb7  1  0.933550  0.566441  0.566441  1
  Nb  Nb8  1  0.565979  0.933965  0.933965  1
  Nb  Nb9  1  0.933474  0.933911  0.566092  1
  Nb  Nb10  1  0.683476  0.316089  0.683908  1
  Nb  Nb11  1  0.933474  0.566092  0.933911  1
  Al  Al12  1  0.250362  0.916477  0.916477  1
  Al  Al13  1  0.333315  0.333523  0.333523  1
  Ga  Ga14  1  0.915708  0.915298  0.915298  1
  Ga  Ga15  1  0.996303  0.334702  0.334702  1
  Ga  Ga16  1  0.334892  0.995902  0.334691  1
  Ga  Ga17  1  0.334892  0.334691  0.995902  1
  Ga  Ga18  1  0.915486  0.254098  0.915309  1
  Ga  Ga19  1  0.915486  0.915309  0.254098  1
  Cu  Cu20  1  0.126570  0.123292  0.123292  1
  Cu  Cu21  1  0.623155  0.126708  0.126708  1
  Cu  Cu22  1  0.127049  0.625000  0.125000  1
  Cu  Cu23  1  0.127049  0.125000  0.625000  1
  C  C24  1  0.625073  0.624751  0.624751  1
  C  C25  1  0.124575  0.625249  0.625249  1
  C  C26  1  0.625424  0.125000  0.625000  1
  C  C27  1  0.625424  0.625000  0.125000  1
