# generated using pymatgen
data_ThCo4P3Ru
_symmetry_space_group_name_H-M   'P 1'
_cell_length_a   3.77256700
_cell_length_b   10.57897700
_cell_length_c   11.89242200
_cell_angle_alpha   90.00000000
_cell_angle_beta   90.00000000
_cell_angle_gamma   90.00000000
_symmetry_Int_Tables_number   1
_chemical_formula_structural   ThCo4P3Ru
_chemical_formula_sum   'Th4 Co16 P12 Ru4'
_cell_volume   474.62536712
_cell_formula_units_Z   4
loop_
 _symmetry_equiv_pos_site_id
 _symmetry_equiv_pos_as_xyz
  1  'x, y, z'
loop_
 _atom_site_type_symbol
 _atom_site_label
 _atom_site_symmetry_multiplicity
 _atom_site_fract_x
 _atom_site_fract_y
 _atom_site_fract_z
 _atom_site_occupancy
  Th  Th0  1  0.250000  0.586065  0.702926  1
  Th  Th1  1  0.250000  0.913935  0.202926  1
  Th  Th2  1  0.750000  0.413935  0.297074  1
  Th  Th3  1  0.750000  0.086065  0.797074  1
  Co  Co4  1  0.250000  0.407819  0.489786  1
  Co  Co5  1  0.250000  0.092181  0.989786  1
  Co  Co6  1  0.750000  0.592181  0.510214  1
  Co  Co7  1  0.750000  0.907819  0.010214  1
  Co  Co8  1  0.250000  0.222746  0.175492  1
  Co  Co9  1  0.250000  0.277254  0.675492  1
  Co  Co10  1  0.750000  0.777254  0.824508  1
  Co  Co11  1  0.750000  0.722746  0.324508  1
  Co  Co12  1  0.250000  0.888049  0.702514  1
  Co  Co13  1  0.250000  0.611951  0.202514  1
  Co  Co14  1  0.750000  0.111951  0.297486  1
  Co  Co15  1  0.750000  0.388049  0.797486  1
  Co  Co16  1  0.250000  0.467129  0.931115  1
  Co  Co17  1  0.250000  0.032871  0.431115  1
  Co  Co18  1  0.750000  0.532871  0.068885  1
  Co  Co19  1  0.750000  0.967129  0.568885  1
  P  P20  1  0.250000  0.419470  0.108850  1
  P  P21  1  0.250000  0.080530  0.608850  1
  P  P22  1  0.750000  0.580530  0.891150  1
  P  P23  1  0.750000  0.919470  0.391150  1
  P  P24  1  0.250000  0.278574  0.867086  1
  P  P25  1  0.250000  0.221426  0.367086  1
  P  P26  1  0.750000  0.721426  0.132914  1
  P  P27  1  0.750000  0.778574  0.632914  1
  P  P28  1  0.250000  0.601071  0.392440  1
  P  P29  1  0.250000  0.898929  0.892440  1
  P  P30  1  0.750000  0.398929  0.607560  1
  P  P31  1  0.750000  0.101071  0.107560  1
  Ru  Ru32  1  0.250000  0.713766  0.991554  1
  Ru  Ru33  1  0.250000  0.786234  0.491554  1
  Ru  Ru34  1  0.750000  0.286234  0.008446  1
  Ru  Ru35  1  0.750000  0.213766  0.508446  1
