# generated using pymatgen
data_Ho3Tm5B24(MoRh)2
_symmetry_space_group_name_H-M   'P 1'
_cell_length_a   3.64049300
_cell_length_b   9.14697222
_cell_length_c   11.55378700
_cell_angle_alpha   90.40510692
_cell_angle_beta   90.00000000
_cell_angle_gamma   90.00000000
_symmetry_Int_Tables_number   1
_chemical_formula_structural   Ho3Tm5B24(MoRh)2
_chemical_formula_sum   'Ho3 Tm5 B24 Mo2 Rh2'
_cell_volume   384.72557865
_cell_formula_units_Z   1
loop_
 _symmetry_equiv_pos_site_id
 _symmetry_equiv_pos_as_xyz
  1  'x, y, z'
loop_
 _atom_site_type_symbol
 _atom_site_label
 _atom_site_symmetry_multiplicity
 _atom_site_fract_x
 _atom_site_fract_y
 _atom_site_fract_z
 _atom_site_occupancy
  Ho  Ho0  1  0.500000  0.319093  0.411845  1
  Ho  Ho1  1  0.500000  0.680943  0.588172  1
  Ho  Ho2  1  0.500000  0.175061  0.916674  1
  Tm  Tm3  1  0.500000  0.825060  0.083049  1
  Tm  Tm4  1  0.500000  0.443710  0.126804  1
  Tm  Tm5  1  0.500000  0.556570  0.873347  1
  Tm  Tm6  1  0.500000  0.054759  0.627996  1
  Tm  Tm7  1  0.500000  0.945074  0.371978  1
  B  B8  1  0.000000  0.106087  0.472029  1
  B  B9  1  0.000000  0.893877  0.527924  1
  B  B10  1  0.000000  0.395587  0.970436  1
  B  B11  1  0.000000  0.604981  0.029761  1
  B  B12  1  0.000000  0.132236  0.317581  1
  B  B13  1  0.000000  0.867663  0.682425  1
  B  B14  1  0.000000  0.368678  0.815797  1
  B  B15  1  0.000000  0.631759  0.183964  1
  B  B16  1  0.000000  0.051552  0.066130  1
  B  B17  1  0.000000  0.947797  0.934170  1
  B  B18  1  0.000000  0.445898  0.565699  1
  B  B19  1  0.000000  0.554135  0.434270  1
  B  B20  1  0.000000  0.483551  0.288012  1
  B  B21  1  0.000000  0.516557  0.711986  1
  B  B22  1  0.000000  0.020284  0.786029  1
  B  B23  1  0.000000  0.979144  0.213760  1
  B  B24  1  0.000000  0.250756  0.079555  1
  B  B25  1  0.000000  0.749319  0.920964  1
  B  B26  1  0.000000  0.250067  0.579340  1
  B  B27  1  0.000000  0.749911  0.420603  1
  B  B28  1  0.000000  0.296065  0.236380  1
  B  B29  1  0.000000  0.703933  0.763670  1
  B  B30  1  0.000000  0.208646  0.733987  1
  B  B31  1  0.000000  0.791463  0.265683  1
  Mo  Mo32  1  0.500000  0.139315  0.181341  1
  Mo  Mo33  1  0.500000  0.860345  0.818765  1
  Rh  Rh34  1  0.500000  0.361519  0.678432  1
  Rh  Rh35  1  0.500000  0.638606  0.321445  1
