# generated using pymatgen
data_SmMgP7Ru12
_symmetry_space_group_name_H-M   'P 1'
_cell_length_a   9.42408200
_cell_length_b   9.42408114
_cell_length_c   3.93405900
_cell_angle_alpha   90.00000000
_cell_angle_beta   90.00000000
_cell_angle_gamma   120.00000209
_symmetry_Int_Tables_number   1
_chemical_formula_structural   SmMgP7Ru12
_chemical_formula_sum   'Sm1 Mg1 P7 Ru12'
_cell_volume   302.58651136
_cell_formula_units_Z   1
loop_
 _symmetry_equiv_pos_site_id
 _symmetry_equiv_pos_as_xyz
  1  'x, y, z'
loop_
 _atom_site_type_symbol
 _atom_site_label
 _atom_site_symmetry_multiplicity
 _atom_site_fract_x
 _atom_site_fract_y
 _atom_site_fract_z
 _atom_site_occupancy
  Sm  Sm0  1  0.333333  0.666667  0.000000  1
  Mg  Mg1  1  0.666667  0.333333  0.500000  1
  P  P2  1  0.603086  0.716945  0.500000  1
  P  P3  1  0.000000  0.000000  0.000000  1
  P  P4  1  0.283055  0.886141  0.500000  1
  P  P5  1  0.113859  0.396914  0.500000  1
  P  P6  1  0.890089  0.579854  0.000000  1
  P  P7  1  0.420146  0.310237  0.000000  1
  P  P8  1  0.689763  0.109911  0.000000  1
  Ru  Ru9  1  0.557776  0.953246  0.500000  1
  Ru  Ru10  1  0.395471  0.442224  0.500000  1
  Ru  Ru11  1  0.913010  0.119162  0.500000  1
  Ru  Ru12  1  0.206152  0.086990  0.500000  1
  Ru  Ru13  1  0.880838  0.793848  0.500000  1
  Ru  Ru14  1  0.726032  0.885782  0.000000  1
  Ru  Ru15  1  0.114218  0.840249  0.000000  1
  Ru  Ru16  1  0.159751  0.273968  0.000000  1
  Ru  Ru17  1  0.430779  0.075536  0.000000  1
  Ru  Ru18  1  0.924464  0.355245  0.000000  1
  Ru  Ru19  1  0.644755  0.569221  0.000000  1
  Ru  Ru20  1  0.046754  0.604529  0.500000  1
