# generated using pymatgen
data_LuTh7(AlRu)8
_symmetry_space_group_name_H-M   'P 1'
_cell_length_a   4.15039400
_cell_length_b   7.24380884
_cell_length_c   16.10186298
_cell_angle_alpha   89.76431512
_cell_angle_beta   90.00000000
_cell_angle_gamma   90.00000000
_symmetry_Int_Tables_number   1
_chemical_formula_structural   LuTh7(AlRu)8
_chemical_formula_sum   'Lu1 Th7 Al8 Ru8'
_cell_volume   484.09295248
_cell_formula_units_Z   1
loop_
 _symmetry_equiv_pos_site_id
 _symmetry_equiv_pos_as_xyz
  1  'x, y, z'
loop_
 _atom_site_type_symbol
 _atom_site_label
 _atom_site_symmetry_multiplicity
 _atom_site_fract_x
 _atom_site_fract_y
 _atom_site_fract_z
 _atom_site_occupancy
  Lu  Lu0  1  0.250000  0.542321  0.716089  1
  Th  Th1  1  0.750000  0.958894  0.217892  1
  Th  Th2  1  0.250000  0.167462  0.563318  1
  Th  Th3  1  0.750000  0.832994  0.439732  1
  Th  Th4  1  0.750000  0.458823  0.282517  1
  Th  Th5  1  0.750000  0.334086  0.060516  1
  Th  Th6  1  0.250000  0.665225  0.935697  1
  Th  Th7  1  0.250000  0.040076  0.780046  1
  Al  Al8  1  0.750000  0.504449  0.566855  1
  Al  Al9  1  0.750000  0.369596  0.845287  1
  Al  Al10  1  0.750000  0.004092  0.936825  1
  Al  Al11  1  0.750000  0.856826  0.651068  1
  Al  Al12  1  0.250000  0.497011  0.439589  1
  Al  Al13  1  0.250000  0.995600  0.061050  1
  Al  Al14  1  0.250000  0.635292  0.148820  1
  Al  Al15  1  0.250000  0.136018  0.351878  1
  Ru  Ru16  1  0.750000  0.746311  0.817147  1
  Ru  Ru17  1  0.250000  0.239766  0.934466  1
  Ru  Ru18  1  0.750000  0.261736  0.436540  1
  Ru  Ru19  1  0.250000  0.755623  0.315938  1
  Ru  Ru20  1  0.750000  0.760665  0.063952  1
  Ru  Ru21  1  0.750000  0.243560  0.686229  1
  Ru  Ru22  1  0.250000  0.253357  0.183319  1
  Ru  Ru23  1  0.250000  0.740218  0.565226  1
