# generated using pymatgen
data_La2Yb2HoRu2
_symmetry_space_group_name_H-M   'P 1'
_cell_length_a   6.54407800
_cell_length_b   7.34344079
_cell_length_c   8.85622931
_cell_angle_alpha   96.31871425
_cell_angle_beta   111.68243309
_cell_angle_gamma   89.99999456
_symmetry_Int_Tables_number   1
_chemical_formula_structural   La2Yb2HoRu2
_chemical_formula_sum   'La4 Yb4 Ho2 Ru4'
_cell_volume   392.69909909
_cell_formula_units_Z   2
loop_
 _symmetry_equiv_pos_site_id
 _symmetry_equiv_pos_as_xyz
  1  'x, y, z'
loop_
 _atom_site_type_symbol
 _atom_site_label
 _atom_site_symmetry_multiplicity
 _atom_site_fract_x
 _atom_site_fract_y
 _atom_site_fract_z
 _atom_site_occupancy
  La  La0  1  0.980986  0.908182  0.187009  1
  La  La1  1  0.793975  0.591818  0.812991  1
  La  La2  1  0.019014  0.091818  0.812991  1
  La  La3  1  0.206025  0.408182  0.187009  1
  Yb  Yb4  1  0.626333  0.815717  0.423894  1
  Yb  Yb5  1  0.202438  0.684283  0.576106  1
  Yb  Yb6  1  0.373667  0.184283  0.576106  1
  Yb  Yb7  1  0.797562  0.315717  0.423894  1
  Ho  Ho8  1  0.429742  0.750000  0.000000  1
  Ho  Ho9  1  0.570258  0.250000  0.000000  1
  Ru  Ru10  1  0.829769  0.588762  0.207630  1
  Ru  Ru11  1  0.622139  0.911238  0.792370  1
  Ru  Ru12  1  0.170231  0.411238  0.792370  1
  Ru  Ru13  1  0.377861  0.088762  0.207630  1
