# generated using pymatgen
data_Gd2B8MoW
_symmetry_space_group_name_H-M   'P 1'
_cell_length_a   6.05567801
_cell_length_b   11.71136802
_cell_length_c   3.64480300
_cell_angle_alpha   90.00000000
_cell_angle_beta   90.00000000
_cell_angle_gamma   89.99368888
_symmetry_Int_Tables_number   1
_chemical_formula_structural   Gd2B8MoW
_chemical_formula_sum   'Gd4 B16 Mo2 W2'
_cell_volume   258.49042500
_cell_formula_units_Z   2
loop_
 _symmetry_equiv_pos_site_id
 _symmetry_equiv_pos_as_xyz
  1  'x, y, z'
loop_
 _atom_site_type_symbol
 _atom_site_label
 _atom_site_symmetry_multiplicity
 _atom_site_fract_x
 _atom_site_fract_y
 _atom_site_fract_z
 _atom_site_occupancy
  Gd  Gd0  1  0.626408  0.350098  0.000000  1
  Gd  Gd1  1  0.373592  0.649902  0.000000  1
  Gd  Gd2  1  0.126367  0.150160  0.000000  1
  Gd  Gd3  1  0.873633  0.849840  0.000000  1
  B  B4  1  0.785941  0.186273  0.500000  1
  B  B5  1  0.214059  0.813727  0.500000  1
  B  B6  1  0.285258  0.314139  0.500000  1
  B  B7  1  0.714742  0.685861  0.500000  1
  B  B8  1  0.865692  0.032179  0.500000  1
  B  B9  1  0.134308  0.967821  0.500000  1
  B  B10  1  0.365879  0.467816  0.500000  1
  B  B11  1  0.634121  0.532184  0.500000  1
  B  B12  1  0.886243  0.452873  0.500000  1
  B  B13  1  0.113757  0.547127  0.500000  1
  B  B14  1  0.386254  0.047091  0.500000  1
  B  B15  1  0.613746  0.952909  0.500000  1
  B  B16  1  0.975907  0.307247  0.500000  1
  B  B17  1  0.024093  0.692753  0.500000  1
  B  B18  1  0.475553  0.192817  0.500000  1
  B  B19  1  0.524447  0.807183  0.500000  1
  Mo  Mo20  1  0.129183  0.416526  0.000000  1
  Mo  Mo21  1  0.870817  0.583474  0.000000  1
  W  W22  1  0.630285  0.084445  0.000000  1
  W  W23  1  0.369715  0.915555  0.000000  1
