# generated using pymatgen
data_Eu4Nb2CrMoO14
_symmetry_space_group_name_H-M   'P 1'
_cell_length_a   7.54756399
_cell_length_b   7.56280725
_cell_length_c   7.43888178
_cell_angle_alpha   59.44738415
_cell_angle_beta   59.23639589
_cell_angle_gamma   59.93316558
_symmetry_Int_Tables_number   1
_chemical_formula_structural   Eu4Nb2CrMoO14
_chemical_formula_sum   'Eu4 Nb2 Cr1 Mo1 O14'
_cell_volume   297.07883535
_cell_formula_units_Z   1
loop_
 _symmetry_equiv_pos_site_id
 _symmetry_equiv_pos_as_xyz
  1  'x, y, z'
loop_
 _atom_site_type_symbol
 _atom_site_label
 _atom_site_symmetry_multiplicity
 _atom_site_fract_x
 _atom_site_fract_y
 _atom_site_fract_z
 _atom_site_occupancy
  Eu  Eu0  1  0.625000  0.125000  0.125000  1
  Eu  Eu1  1  0.125000  0.625000  0.125000  1
  Eu  Eu2  1  0.125000  0.125000  0.625000  1
  Eu  Eu3  1  0.125000  0.125000  0.125000  1
  Nb  Nb4  1  0.625000  0.125000  0.625000  1
  Nb  Nb5  1  0.625000  0.625000  0.625000  1
  Cr  Cr6  1  0.625000  0.625000  0.125000  1
  Mo  Mo7  1  0.125000  0.625000  0.625000  1
  O  O8  1  0.249829  0.251782  0.246608  1
  O  O9  1  0.000171  0.998218  0.003392  1
  O  O10  1  0.699110  0.694409  0.303772  1
  O  O11  1  0.302238  0.300611  0.698064  1
  O  O12  1  0.695070  0.302886  0.699159  1
  O  O13  1  0.299834  0.692511  0.315146  1
  O  O14  1  0.302238  0.699088  0.698064  1
  O  O15  1  0.699110  0.302710  0.303772  1
  O  O16  1  0.550890  0.555591  0.946228  1
  O  O17  1  0.947762  0.949389  0.551936  1
  O  O18  1  0.554930  0.947114  0.550841  1
  O  O19  1  0.950166  0.557489  0.934854  1
  O  O20  1  0.947762  0.550912  0.551936  1
  O  O21  1  0.550890  0.947290  0.946228  1
