# generated using pymatgen
data_Tb3Nd5Au4
_symmetry_space_group_name_H-M   'P 1'
_cell_length_a   5.06132500
_cell_length_b   7.31240944
_cell_length_c   9.18316338
_cell_angle_alpha   89.93264606
_cell_angle_beta   90.00000000
_cell_angle_gamma   90.00000000
_symmetry_Int_Tables_number   1
_chemical_formula_structural   Tb3Nd5Au4
_chemical_formula_sum   'Tb3 Nd5 Au4'
_cell_volume   339.87305623
_cell_formula_units_Z   1
loop_
 _symmetry_equiv_pos_site_id
 _symmetry_equiv_pos_as_xyz
  1  'x, y, z'
loop_
 _atom_site_type_symbol
 _atom_site_label
 _atom_site_symmetry_multiplicity
 _atom_site_fract_x
 _atom_site_fract_y
 _atom_site_fract_z
 _atom_site_occupancy
  Tb  Tb0  1  0.250000  0.849618  0.918611  1
  Tb  Tb1  1  0.250000  0.348599  0.584790  1
  Tb  Tb2  1  0.750000  0.151952  0.081756  1
  Nd  Nd3  1  0.750000  0.652301  0.413927  1
  Nd  Nd4  1  0.250000  0.491071  0.176988  1
  Nd  Nd5  1  0.250000  0.994045  0.323543  1
  Nd  Nd6  1  0.750000  0.507993  0.822959  1
  Nd  Nd7  1  0.750000  0.009583  0.678617  1
  Au  Au8  1  0.250000  0.247442  0.902676  1
  Au  Au9  1  0.250000  0.749254  0.603586  1
  Au  Au10  1  0.750000  0.753527  0.089999  1
  Au  Au11  1  0.750000  0.244616  0.402549  1
