# generated using pymatgen
data_Nd6Co13Bi
_symmetry_space_group_name_H-M   'P 1'
_cell_length_a   7.93580048
_cell_length_b   7.93580090
_cell_length_c   12.90301100
_cell_angle_alpha   107.90968208
_cell_angle_beta   107.90968306
_cell_angle_gamma   89.99999838
_symmetry_Int_Tables_number   1
_chemical_formula_structural   Nd6Co13Bi
_chemical_formula_sum   'Nd12 Co26 Bi2'
_cell_volume   731.72372230
_cell_formula_units_Z   2
loop_
 _symmetry_equiv_pos_site_id
 _symmetry_equiv_pos_as_xyz
  1  'x, y, z'
loop_
 _atom_site_type_symbol
 _atom_site_label
 _atom_site_symmetry_multiplicity
 _atom_site_fract_x
 _atom_site_fract_y
 _atom_site_fract_z
 _atom_site_occupancy
  Nd  Nd0  1  0.598819  0.598819  0.197639  1
  Nd  Nd1  1  0.098819  0.098819  0.197639  1
  Nd  Nd2  1  0.401181  0.401181  0.802361  1
  Nd  Nd3  1  0.901181  0.901181  0.802361  1
  Nd  Nd4  1  0.977524  0.477524  0.639370  1
  Nd  Nd5  1  0.661845  0.161845  0.639370  1
  Nd  Nd6  1  0.161845  0.977524  0.639370  1
  Nd  Nd7  1  0.477524  0.661845  0.639370  1
  Nd  Nd8  1  0.022476  0.522476  0.360630  1
  Nd  Nd9  1  0.338155  0.838155  0.360630  1
  Nd  Nd10  1  0.838155  0.022476  0.360630  1
  Nd  Nd11  1  0.522476  0.338155  0.360630  1
  Co  Co12  1  0.000000  0.500000  0.000000  1
  Co  Co13  1  0.500000  0.000000  0.000000  1
  Co  Co14  1  0.712515  0.564130  0.000000  1
  Co  Co15  1  0.287485  0.435870  0.000000  1
  Co  Co16  1  0.787485  0.064130  0.000000  1
  Co  Co17  1  0.212515  0.935870  0.000000  1
  Co  Co18  1  0.564130  0.287485  0.000000  1
  Co  Co19  1  0.435870  0.712515  0.000000  1
  Co  Co20  1  0.064130  0.212515  0.000000  1
  Co  Co21  1  0.935870  0.787485  0.000000  1
  Co  Co22  1  0.120392  0.620392  0.887003  1
  Co  Co23  1  0.766610  0.266610  0.887003  1
  Co  Co24  1  0.266610  0.120392  0.887003  1
  Co  Co25  1  0.620392  0.766610  0.887003  1
  Co  Co26  1  0.879608  0.379608  0.112997  1
  Co  Co27  1  0.233390  0.733390  0.112997  1
  Co  Co28  1  0.733390  0.879608  0.112997  1
  Co  Co29  1  0.379608  0.233390  0.112997  1
  Co  Co30  1  0.295462  0.795462  0.822122  1
  Co  Co31  1  0.526661  0.026661  0.822122  1
  Co  Co32  1  0.026661  0.295462  0.822122  1
  Co  Co33  1  0.795462  0.526661  0.822122  1
  Co  Co34  1  0.704538  0.204538  0.177878  1
  Co  Co35  1  0.473339  0.973339  0.177878  1
  Co  Co36  1  0.973339  0.704538  0.177878  1
  Co  Co37  1  0.204538  0.473339  0.177878  1
  Bi  Bi38  1  0.250000  0.250000  0.500000  1
  Bi  Bi39  1  0.750000  0.750000  0.500000  1
