# generated using pymatgen
data_Sr6Ho3Sc(GeO4)6
_symmetry_space_group_name_H-M   'P 1'
_cell_length_a   11.40697899
_cell_length_b   11.38447177
_cell_length_c   11.39187604
_cell_angle_alpha   109.40057335
_cell_angle_beta   109.48623842
_cell_angle_gamma   109.45996067
_symmetry_Int_Tables_number   1
_chemical_formula_structural   Sr6Ho3Sc(GeO4)6
_chemical_formula_sum   'Sr12 Ho6 Sc2 Ge12 O48'
_cell_volume   1139.76335651
_cell_formula_units_Z   2
loop_
 _symmetry_equiv_pos_site_id
 _symmetry_equiv_pos_as_xyz
  1  'x, y, z'
loop_
 _atom_site_type_symbol
 _atom_site_label
 _atom_site_symmetry_multiplicity
 _atom_site_fract_x
 _atom_site_fract_y
 _atom_site_fract_z
 _atom_site_occupancy
  Sr  Sr0  1  0.243547  0.371773  0.121773  1
  Sr  Sr1  1  0.756453  0.628227  0.878227  1
  Sr  Sr2  1  0.749010  0.124505  0.374505  1
  Sr  Sr3  1  0.123398  0.246638  0.371483  1
  Sr  Sr4  1  0.371007  0.747154  0.124358  1
  Sr  Sr5  1  0.250990  0.875495  0.625495  1
  Sr  Sr6  1  0.876602  0.753362  0.628517  1
  Sr  Sr7  1  0.628993  0.252846  0.875642  1
  Sr  Sr8  1  0.371007  0.123853  0.246649  1
  Sr  Sr9  1  0.628993  0.876147  0.753351  1
  Sr  Sr10  1  0.123398  0.376760  0.751914  1
  Sr  Sr11  1  0.876602  0.623240  0.248086  1
  Ho  Ho12  1  0.500000  0.000000  0.500000  1
  Ho  Ho13  1  0.000000  0.500000  0.500000  1
  Ho  Ho14  1  0.500000  0.000000  0.000000  1
  Ho  Ho15  1  0.500000  0.500000  0.000000  1
  Ho  Ho16  1  0.500000  0.500000  0.500000  1
  Ho  Ho17  1  0.000000  0.000000  0.500000  1
  Sc  Sc18  1  0.000000  0.000000  0.000000  1
  Sc  Sc19  1  0.000000  0.500000  0.000000  1
  Ge  Ge20  1  0.245976  0.623515  0.370372  1
  Ge  Ge21  1  0.754024  0.376485  0.629628  1
  Ge  Ge22  1  0.754024  0.877538  0.124396  1
  Ge  Ge23  1  0.374809  0.249926  0.625135  1
  Ge  Ge24  1  0.625191  0.750074  0.374865  1
  Ge  Ge25  1  0.245976  0.122462  0.875604  1
  Ge  Ge26  1  0.122129  0.751081  0.878965  1
  Ge  Ge27  1  0.877871  0.248919  0.121035  1
  Ge  Ge28  1  0.625191  0.375117  0.250326  1
  Ge  Ge29  1  0.374809  0.624883  0.749674  1
  Ge  Ge30  1  0.877871  0.128952  0.756836  1
  Ge  Ge31  1  0.122129  0.871048  0.243164  1
  O  O32  1  0.486704  0.380266  0.289648  1
  O  O33  1  0.513296  0.619734  0.710352  1
  O  O34  1  0.589739  0.196334  0.210280  1
  O  O35  1  0.912422  0.119871  0.612355  1
  O  O36  1  0.289231  0.487238  0.377727  1
  O  O37  1  0.302716  0.911121  0.289836  1
  O  O38  1  0.410261  0.803666  0.789720  1
  O  O39  1  0.087578  0.880129  0.387645  1
  O  O40  1  0.710769  0.512762  0.622273  1
  O  O41  1  0.697284  0.088879  0.710164  1
  O  O42  1  0.011198  0.311335  0.897520  1
  O  O43  1  0.199576  0.585622  0.189095  1
  O  O44  1  0.112225  0.006130  0.197322  1
  O  O45  1  0.988802  0.688665  0.102480  1
  O  O46  1  0.800424  0.414378  0.810905  1
  O  O47  1  0.887775  0.993870  0.802678  1
  O  O48  1  0.609284  0.910246  0.117380  1
  O  O49  1  0.196831  0.487223  0.606433  1
  O  O50  1  0.390716  0.089754  0.882620  1
  O  O51  1  0.803169  0.512777  0.393567  1
  O  O52  1  0.894544  0.014697  0.304132  1
  O  O53  1  0.379034  0.590023  0.893328  1
  O  O54  1  0.105456  0.985303  0.695868  1
  O  O55  1  0.620966  0.409977  0.106672  1
  O  O56  1  0.379034  0.289012  0.485706  1
  O  O57  1  0.589739  0.893405  0.379458  1
  O  O58  1  0.620966  0.710988  0.514294  1
  O  O59  1  0.410261  0.106595  0.620542  1
  O  O60  1  0.112225  0.606096  0.914902  1
  O  O61  1  0.011198  0.199863  0.113678  1
  O  O62  1  0.887775  0.393904  0.085098  1
  O  O63  1  0.988802  0.800137  0.886322  1
  O  O64  1  0.302716  0.891596  0.012881  1
  O  O65  1  0.912422  0.292552  0.300067  1
  O  O66  1  0.697284  0.108404  0.987119  1
  O  O67  1  0.087578  0.707448  0.699933  1
  O  O68  1  0.196831  0.209606  0.590398  1
  O  O69  1  0.486704  0.606439  0.197058  1
  O  O70  1  0.803169  0.790394  0.409602  1
  O  O71  1  0.513296  0.393561  0.802942  1
  O  O72  1  0.289231  0.301992  0.911503  1
  O  O73  1  0.710769  0.698008  0.088497  1
  O  O74  1  0.199576  0.113955  0.010482  1
  O  O75  1  0.800424  0.886045  0.989518  1
  O  O76  1  0.894544  0.379846  0.590411  1
  O  O77  1  0.105456  0.620154  0.409589  1
  O  O78  1  0.609284  0.199038  0.491905  1
  O  O79  1  0.390716  0.800962  0.508095  1
