# generated using pymatgen
data_Ti6BeAsSe
_symmetry_space_group_name_H-M   'P 1'
_cell_length_a   6.78945400
_cell_length_b   6.78945431
_cell_length_c   3.48696200
_cell_angle_alpha   90.00000000
_cell_angle_beta   90.00000000
_cell_angle_gamma   119.99999849
_symmetry_Int_Tables_number   1
_chemical_formula_structural   Ti6BeAsSe
_chemical_formula_sum   'Ti6 Be1 As1 Se1'
_cell_volume   139.20267249
_cell_formula_units_Z   1
loop_
 _symmetry_equiv_pos_site_id
 _symmetry_equiv_pos_as_xyz
  1  'x, y, z'
loop_
 _atom_site_type_symbol
 _atom_site_label
 _atom_site_symmetry_multiplicity
 _atom_site_fract_x
 _atom_site_fract_y
 _atom_site_fract_z
 _atom_site_occupancy
  Ti  Ti0  1  0.403275  0.997468  0.000000  1
  Ti  Ti1  1  0.002532  0.405806  0.000000  1
  Ti  Ti2  1  0.594193  0.596726  0.000000  1
  Ti  Ti3  1  0.759270  0.998298  0.499999  1
  Ti  Ti4  1  0.239027  0.240729  0.499999  1
  Ti  Ti5  1  0.001702  0.760973  0.499999  1
  Be  Be6  1  0.000000  0.000000  0.000000  1
  As  As7  1  0.333334  0.666667  0.499999  1
  Se  Se8  1  0.666667  0.333333  0.499999  1
