# generated using pymatgen
data_Gd4Dy5Er(SiB4)4
_symmetry_space_group_name_H-M   'P 1'
_cell_length_a   7.24422600
_cell_length_b   7.24521504
_cell_length_c   8.13351604
_cell_angle_alpha   90.01133380
_cell_angle_beta   90.00169864
_cell_angle_gamma   90.00022136
_symmetry_Int_Tables_number   1
_chemical_formula_structural   Gd4Dy5Er(SiB4)4
_chemical_formula_sum   'Gd4 Dy5 Er1 Si4 B16'
_cell_volume   426.89551218
_cell_formula_units_Z   1
loop_
 _symmetry_equiv_pos_site_id
 _symmetry_equiv_pos_as_xyz
  1  'x, y, z'
loop_
 _atom_site_type_symbol
 _atom_site_label
 _atom_site_symmetry_multiplicity
 _atom_site_fract_x
 _atom_site_fract_y
 _atom_site_fract_z
 _atom_site_occupancy
  Gd  Gd0  1  0.680614  0.180453  0.226002  1
  Gd  Gd1  1  0.319288  0.819597  0.773698  1
  Gd  Gd2  1  0.319359  0.819721  0.225990  1
  Gd  Gd3  1  0.819698  0.680456  0.225219  1
  Dy  Dy4  1  0.819777  0.680343  0.776698  1
  Dy  Dy5  1  0.680578  0.180355  0.776255  1
  Dy  Dy6  1  0.180149  0.319529  0.776681  1
  Dy  Dy7  1  0.180106  0.319606  0.222993  1
  Dy  Dy8  1  0.499905  0.499691  0.500303  1
  Er  Er9  1  0.000097  0.000406  0.500325  1
  Si  Si10  1  0.113953  0.614936  0.501032  1
  Si  Si11  1  0.886208  0.383391  0.501119  1
  Si  Si12  1  0.383876  0.114921  0.500948  1
  Si  Si13  1  0.616163  0.886623  0.501076  1
  B  B14  1  0.172501  0.039792  0.999465  1
  B  B15  1  0.827524  0.960981  0.999567  1
  B  B16  1  0.960943  0.172766  0.999475  1
  B  B17  1  0.327495  0.538717  0.999470  1
  B  B18  1  0.039024  0.827768  0.999520  1
  B  B19  1  0.672467  0.460481  0.999520  1
  B  B20  1  0.539367  0.672212  0.999511  1
  B  B21  1  0.460486  0.327272  0.999510  1
  B  B22  1  0.089996  0.589618  0.999470  1
  B  B23  1  0.910261  0.409967  0.999479  1
  B  B24  1  0.410002  0.090285  0.999480  1
  B  B25  1  0.590131  0.910055  0.999489  1
  B  B26  1  0.000329  0.000538  0.160665  1
  B  B27  1  0.999723  0.000311  0.838207  1
  B  B28  1  0.500348  0.499490  0.838478  1
  B  B29  1  0.499633  0.499718  0.160356  1
