# generated using pymatgen
data_Zr10ZnSnBiPb5
_symmetry_space_group_name_H-M   'P 1'
_cell_length_a   8.91328020
_cell_length_b   8.90629135
_cell_length_c   6.01157813
_cell_angle_alpha   89.98793764
_cell_angle_beta   90.02410580
_cell_angle_gamma   120.02596136
_symmetry_Int_Tables_number   1
_chemical_formula_structural   Zr10ZnSnBiPb5
_chemical_formula_sum   'Zr10 Zn1 Sn1 Bi1 Pb5'
_cell_volume   413.18055427
_cell_formula_units_Z   1
loop_
 _symmetry_equiv_pos_site_id
 _symmetry_equiv_pos_as_xyz
  1  'x, y, z'
loop_
 _atom_site_type_symbol
 _atom_site_label
 _atom_site_symmetry_multiplicity
 _atom_site_fract_x
 _atom_site_fract_y
 _atom_site_fract_z
 _atom_site_occupancy
  Zr  Zr0  1  0.332978  0.666440  0.999460  1
  Zr  Zr1  1  0.666685  0.333561  0.500579  1
  Zr  Zr2  1  0.666539  0.333560  0.999460  1
  Zr  Zr3  1  0.333123  0.666439  0.500579  1
  Zr  Zr4  1  0.271647  0.000000  0.262115  1
  Zr  Zr5  1  0.271870  0.271725  0.737958  1
  Zr  Zr6  1  0.000146  0.728275  0.737958  1
  Zr  Zr7  1  0.000812  0.272045  0.262034  1
  Zr  Zr8  1  0.728767  0.727955  0.262034  1
  Zr  Zr9  1  0.728312  0.000000  0.737694  1
  Zn  Zn10  1  0.000365  0.000000  0.500385  1
  Sn  Sn11  1  0.000451  0.000000  0.999663  1
  Bi  Bi12  1  0.613470  0.000000  0.248125  1
  Pb  Pb13  1  0.614322  0.614188  0.752089  1
  Pb  Pb14  1  0.000135  0.385812  0.752089  1
  Pb  Pb15  1  0.000004  0.614543  0.247745  1
  Pb  Pb16  1  0.385461  0.385457  0.247745  1
  Pb  Pb17  1  0.384913  0.000000  0.752285  1
