# generated using pymatgen
data_TcAgOsF12
_symmetry_space_group_name_H-M   'P 1'
_cell_length_a   5.37289805
_cell_length_b   5.86621158
_cell_length_c   9.25537945
_cell_angle_alpha   104.88116838
_cell_angle_beta   90.54771690
_cell_angle_gamma   117.66677173
_symmetry_Int_Tables_number   1
_chemical_formula_structural   TcAgOsF12
_chemical_formula_sum   'Tc1 Ag1 Os1 F12'
_cell_volume   246.85359031
_cell_formula_units_Z   1
loop_
 _symmetry_equiv_pos_site_id
 _symmetry_equiv_pos_as_xyz
  1  'x, y, z'
loop_
 _atom_site_type_symbol
 _atom_site_label
 _atom_site_symmetry_multiplicity
 _atom_site_fract_x
 _atom_site_fract_y
 _atom_site_fract_z
 _atom_site_occupancy
  Tc  Tc0  1  0.765163  0.506424  0.260852  1
  Ag  Ag1  1  0.999104  0.001014  0.002765  1
  Os  Os2  1  0.236467  0.493872  0.739956  1
  F  F3  1  0.841040  0.273962  0.710339  1
  F  F4  1  0.157482  0.724384  0.290307  1
  F  F5  1  0.214119  0.720981  0.926345  1
  F  F6  1  0.729535  0.727441  0.433020  1
  F  F7  1  0.271647  0.273917  0.564143  1
  F  F8  1  0.793498  0.283446  0.363243  1
  F  F9  1  0.202205  0.713199  0.634072  1
  F  F10  1  0.360874  0.281591  0.221432  1
  F  F11  1  0.641716  0.721072  0.779146  1
  F  F12  1  0.718590  0.714609  0.143214  1
  F  F13  1  0.280784  0.281834  0.856175  1
  F  F14  1  0.787776  0.282253  0.074991  1
