# generated using pymatgen
data_La2Y18Si15Ag
_symmetry_space_group_name_H-M   'P 1'
_cell_length_a   7.47253903
_cell_length_b   7.77795056
_cell_length_c   14.77240100
_cell_angle_alpha   89.62381548
_cell_angle_beta   89.99484743
_cell_angle_gamma   89.84105720
_symmetry_Int_Tables_number   1
_chemical_formula_structural   La2Y18Si15Ag
_chemical_formula_sum   'La2 Y18 Si15 Ag1'
_cell_volume   858.56548504
_cell_formula_units_Z   1
loop_
 _symmetry_equiv_pos_site_id
 _symmetry_equiv_pos_as_xyz
  1  'x, y, z'
loop_
 _atom_site_type_symbol
 _atom_site_label
 _atom_site_symmetry_multiplicity
 _atom_site_fract_x
 _atom_site_fract_y
 _atom_site_fract_z
 _atom_site_occupancy
  La  La0  1  0.523500  0.570724  0.342355  1
  La  La1  1  0.024378  0.429181  0.656333  1
  Y  Y2  1  0.817177  0.573907  0.871928  1
  Y  Y3  1  0.309759  0.420104  0.128402  1
  Y  Y4  1  0.182431  0.928388  0.373205  1
  Y  Y5  1  0.682532  0.070002  0.627080  1
  Y  Y6  1  0.183274  0.927793  0.628320  1
  Y  Y7  1  0.683199  0.071220  0.371197  1
  Y  Y8  1  0.821461  0.569047  0.129217  1
  Y  Y9  1  0.313889  0.424487  0.870518  1
  Y  Y10  1  0.644148  0.231844  0.999505  1
  Y  Y11  1  0.148040  0.759278  0.000814  1
  Y  Y12  1  0.351417  0.263409  0.499905  1
  Y  Y13  1  0.850898  0.736334  0.499927  1
  Y  Y14  1  0.471612  0.938224  0.844612  1
  Y  Y15  1  0.971820  0.066776  0.152377  1
  Y  Y16  1  0.469720  0.938568  0.154248  1
  Y  Y17  1  0.970529  0.067293  0.848903  1
  Y  Y18  1  0.528982  0.566505  0.651826  1
  Y  Y19  1  0.028876  0.434067  0.348569  1
  Si  Si20  1  0.019312  0.352399  0.999911  1
  Si  Si21  1  0.477819  0.858881  0.501154  1
  Si  Si22  1  0.977152  0.140804  0.499066  1
  Si  Si23  1  0.648812  0.278035  0.790802  1
  Si  Si24  1  0.152045  0.722858  0.208946  1
  Si  Si25  1  0.352024  0.216468  0.289289  1
  Si  Si26  1  0.853257  0.783950  0.712085  1
  Si  Si27  1  0.361927  0.220384  0.709122  1
  Si  Si28  1  0.861861  0.780602  0.289486  1
  Si  Si29  1  0.644282  0.270647  0.205913  1
  Si  Si30  1  0.147856  0.729449  0.793947  1
  Si  Si31  1  0.775259  0.881422  0.000707  1
  Si  Si32  1  0.260141  0.123870  0.999345  1
  Si  Si33  1  0.235038  0.627428  0.501775  1
  Si  Si34  1  0.734241  0.373551  0.498321  1
  Ag  Ag35  1  0.521330  0.652100  0.000887  1
