# generated using pymatgen
data_Cs2AsS5
_symmetry_space_group_name_H-M   'P 1'
_cell_length_a   7.42931200
_cell_length_b   7.56751799
_cell_length_c   10.08981538
_cell_angle_alpha   87.62036574
_cell_angle_beta   86.94383501
_cell_angle_gamma   84.94362536
_symmetry_Int_Tables_number   1
_chemical_formula_structural   Cs2AsS5
_chemical_formula_sum   'Cs4 As2 S10'
_cell_volume   563.86615217
_cell_formula_units_Z   2
loop_
 _symmetry_equiv_pos_site_id
 _symmetry_equiv_pos_as_xyz
  1  'x, y, z'
loop_
 _atom_site_type_symbol
 _atom_site_label
 _atom_site_symmetry_multiplicity
 _atom_site_fract_x
 _atom_site_fract_y
 _atom_site_fract_z
 _atom_site_occupancy
  Cs  Cs0  1  0.796742  0.138816  0.633290  1
  Cs  Cs1  1  0.203258  0.861184  0.366710  1
  Cs  Cs2  1  0.233029  0.280165  0.974605  1
  Cs  Cs3  1  0.766971  0.719835  0.025395  1
  As  As4  1  0.242972  0.793590  0.780098  1
  As  As5  1  0.757028  0.206410  0.219902  1
  S  S6  1  0.988038  0.315697  0.292116  1
  S  S7  1  0.500851  0.585829  0.738542  1
  S  S8  1  0.299441  0.040259  0.680053  1
  S  S9  1  0.011962  0.684303  0.707884  1
  S  S10  1  0.580083  0.595039  0.544774  1
  S  S11  1  0.419917  0.404961  0.455226  1
  S  S12  1  0.262491  0.777347  0.993724  1
  S  S13  1  0.700559  0.959741  0.319947  1
  S  S14  1  0.737509  0.222653  0.006276  1
  S  S15  1  0.499149  0.414171  0.261458  1
