# generated using pymatgen
data_Nd4Ga15(SiIr2)3
_symmetry_space_group_name_H-M   'P 1'
_cell_length_a   7.62937288
_cell_length_b   7.57819572
_cell_length_c   9.58731514
_cell_angle_alpha   89.96220772
_cell_angle_beta   89.94380425
_cell_angle_gamma   119.86133674
_symmetry_Int_Tables_number   1
_chemical_formula_structural   Nd4Ga15(SiIr2)3
_chemical_formula_sum   'Nd4 Ga15 Si3 Ir6'
_cell_volume   480.71406945
_cell_formula_units_Z   1
loop_
 _symmetry_equiv_pos_site_id
 _symmetry_equiv_pos_as_xyz
  1  'x, y, z'
loop_
 _atom_site_type_symbol
 _atom_site_label
 _atom_site_symmetry_multiplicity
 _atom_site_fract_x
 _atom_site_fract_y
 _atom_site_fract_z
 _atom_site_occupancy
  Nd  Nd0  1  0.995970  0.666418  0.248682  1
  Nd  Nd1  1  0.003880  0.337403  0.750402  1
  Nd  Nd2  1  0.673382  0.001284  0.248240  1
  Nd  Nd3  1  0.322805  0.994302  0.750378  1
  Ga  Ga4  1  0.132281  0.130308  0.250665  1
  Ga  Ga5  1  0.866763  0.866786  0.750530  1
  Ga  Ga6  1  0.340607  0.005599  0.421018  1
  Ga  Ga7  1  0.002187  0.328954  0.424252  1
  Ga  Ga8  1  0.665841  0.001092  0.577150  1
  Ga  Ga9  1  0.661248  0.996213  0.920729  1
  Ga  Ga10  1  0.339312  0.004175  0.079851  1
  Ga  Ga11  1  0.333676  0.331718  0.562568  1
  Ga  Ga12  1  0.660839  0.667196  0.437354  1
  Ga  Ga13  1  0.661171  0.666953  0.064891  1
  Ga  Ga14  1  0.338334  0.332845  0.937025  1
  Ga  Ga15  1  0.338280  0.545746  0.250912  1
  Ga  Ga16  1  0.660367  0.455557  0.751150  1
  Ga  Ga17  1  0.548603  0.342941  0.250332  1
  Ga  Ga18  1  0.453173  0.658781  0.750547  1
  Si  Si19  1  0.001808  0.329742  0.070179  1
  Si  Si20  1  0.997612  0.670317  0.933268  1
  Si  Si21  1  0.999058  0.665770  0.563808  1
  Ir  Ir22  1  0.694262  0.341919  0.000678  1
  Ir  Ir23  1  0.305412  0.657307  0.999423  1
  Ir  Ir24  1  0.317498  0.669914  0.502651  1
  Ir  Ir25  1  0.684048  0.342239  0.501956  1
  Ir  Ir26  1  0.000842  0.000990  0.999811  1
  Ir  Ir27  1  0.000738  0.987534  0.501547  1
