# generated using pymatgen
data_Ho2Ni16PH3
_symmetry_space_group_name_H-M   'P 1'
_cell_length_a   6.23857473
_cell_length_b   6.23857629
_cell_length_c   6.25222562
_cell_angle_alpha   83.91020036
_cell_angle_beta   83.91019720
_cell_angle_gamma   82.91322592
_symmetry_Int_Tables_number   1
_chemical_formula_structural   Ho2Ni16PH3
_chemical_formula_sum   'Ho2 Ni16 P1 H3'
_cell_volume   239.04508180
_cell_formula_units_Z   1
loop_
 _symmetry_equiv_pos_site_id
 _symmetry_equiv_pos_as_xyz
  1  'x, y, z'
loop_
 _atom_site_type_symbol
 _atom_site_label
 _atom_site_symmetry_multiplicity
 _atom_site_fract_x
 _atom_site_fract_y
 _atom_site_fract_z
 _atom_site_occupancy
  Ho  Ho0  1  0.655018  0.655018  0.662121  1
  Ho  Ho1  1  0.344982  0.344982  0.337879  1
  Ni  Ni2  1  0.000000  0.500000  0.000000  1
  Ni  Ni3  1  0.500000  0.000000  0.000000  1
  Ni  Ni4  1  0.289376  0.710624  0.000000  1
  Ni  Ni5  1  0.713110  0.001324  0.293743  1
  Ni  Ni6  1  0.998676  0.286890  0.706257  1
  Ni  Ni7  1  0.286890  0.998676  0.706257  1
  Ni  Ni8  1  0.001324  0.713110  0.293743  1
  Ni  Ni9  1  0.710624  0.289376  0.000000  1
  Ni  Ni10  1  0.346779  0.346779  0.846776  1
  Ni  Ni11  1  0.343823  0.857689  0.345969  1
  Ni  Ni12  1  0.857689  0.343823  0.345969  1
  Ni  Ni13  1  0.653221  0.653221  0.153224  1
  Ni  Ni14  1  0.656177  0.142311  0.654031  1
  Ni  Ni15  1  0.142311  0.656177  0.654031  1
  Ni  Ni16  1  0.898721  0.898721  0.900530  1
  Ni  Ni17  1  0.101279  0.101279  0.099470  1
  P  P18  1  0.000000  0.000000  0.500000  1
  H  H19  1  0.500000  0.500000  0.000000  1
  H  H20  1  0.500000  0.000000  0.500000  1
  H  H21  1  0.000000  0.500000  0.500000  1
