# generated using pymatgen
data_Ta8Re3Mo4Ir
_symmetry_space_group_name_H-M   'P 1'
_cell_length_a   6.46435400
_cell_length_b   4.54072600
_cell_length_c   9.08300000
_cell_angle_alpha   90.00000000
_cell_angle_beta   90.00000886
_cell_angle_gamma   90.00000000
_symmetry_Int_Tables_number   1
_chemical_formula_structural   Ta8Re3Mo4Ir
_chemical_formula_sum   'Ta8 Re3 Mo4 Ir1'
_cell_volume   266.61202993
_cell_formula_units_Z   1
loop_
 _symmetry_equiv_pos_site_id
 _symmetry_equiv_pos_as_xyz
  1  'x, y, z'
loop_
 _atom_site_type_symbol
 _atom_site_label
 _atom_site_symmetry_multiplicity
 _atom_site_fract_x
 _atom_site_fract_y
 _atom_site_fract_z
 _atom_site_occupancy
  Ta  Ta0  1  0.003366  0.750000  0.125002  1
  Ta  Ta1  1  0.496666  0.750000  0.125005  1
  Ta  Ta2  1  0.001326  0.250000  0.376767  1
  Ta  Ta3  1  0.498712  0.250000  0.376766  1
  Ta  Ta4  1  0.500790  0.750000  0.625004  1
  Ta  Ta5  1  0.999172  0.750000  0.625004  1
  Ta  Ta6  1  0.498671  0.250000  0.873227  1
  Ta  Ta7  1  0.001302  0.250000  0.873233  1
  Re  Re8  1  0.250022  0.750000  0.373751  1
  Re  Re9  1  0.749974  0.250000  0.625001  1
  Re  Re10  1  0.249979  0.750000  0.876248  1
  Mo  Mo11  1  0.250021  0.250000  0.125005  1
  Mo  Mo12  1  0.750018  0.750000  0.373123  1
  Mo  Mo13  1  0.249980  0.250000  0.625000  1
  Mo  Mo14  1  0.749979  0.750000  0.876863  1
  Ir  Ir15  1  0.750023  0.250000  0.124998  1
