# generated using pymatgen
data_PrHo2(SiRh2)3
_symmetry_space_group_name_H-M   'P 1'
_cell_length_a   5.61499000
_cell_length_b   5.61510765
_cell_length_c   14.96026300
_cell_angle_alpha   90.00000000
_cell_angle_beta   90.00000000
_cell_angle_gamma   120.00094639
_symmetry_Int_Tables_number   1
_chemical_formula_structural   PrHo2(SiRh2)3
_chemical_formula_sum   'Pr2 Ho4 Si6 Rh12'
_cell_volume   408.48187663
_cell_formula_units_Z   2
loop_
 _symmetry_equiv_pos_site_id
 _symmetry_equiv_pos_as_xyz
  1  'x, y, z'
loop_
 _atom_site_type_symbol
 _atom_site_label
 _atom_site_symmetry_multiplicity
 _atom_site_fract_x
 _atom_site_fract_y
 _atom_site_fract_z
 _atom_site_occupancy
  Pr  Pr0  1  0.333331  0.666667  0.750000  1
  Pr  Pr1  1  0.666669  0.333333  0.250000  1
  Ho  Ho2  1  0.333367  0.666687  0.536408  1
  Ho  Ho3  1  0.666633  0.333313  0.463592  1
  Ho  Ho4  1  0.666633  0.333313  0.036408  1
  Ho  Ho5  1  0.333367  0.666687  0.963592  1
  Si  Si6  1  0.999991  0.999994  0.250000  1
  Si  Si7  1  0.000009  0.000006  0.750000  1
  Si  Si8  1  0.333343  0.666672  0.250000  1
  Si  Si9  1  0.666657  0.333328  0.750000  1
  Si  Si10  1  0.000000  0.000000  0.000000  1
  Si  Si11  1  0.000000  0.000000  0.500000  1
  Rh  Rh12  1  0.166777  0.333550  0.129301  1
  Rh  Rh13  1  0.833223  0.666450  0.870699  1
  Rh  Rh14  1  0.666448  0.833224  0.129307  1
  Rh  Rh15  1  0.833223  0.666450  0.629301  1
  Rh  Rh16  1  0.333552  0.166776  0.870693  1
  Rh  Rh17  1  0.166777  0.333550  0.370699  1
  Rh  Rh18  1  0.166777  0.833227  0.129303  1
  Rh  Rh19  1  0.333552  0.166776  0.629307  1
  Rh  Rh20  1  0.833223  0.166773  0.870697  1
  Rh  Rh21  1  0.666448  0.833224  0.370693  1
  Rh  Rh22  1  0.833223  0.166773  0.629303  1
  Rh  Rh23  1  0.166777  0.833227  0.370697  1
