# generated using pymatgen
data_Ac6P17Pd6
_symmetry_space_group_name_H-M   'P 1'
_cell_length_a   9.24332675
_cell_length_b   9.24332655
_cell_length_c   9.24332600
_cell_angle_alpha   109.47122161
_cell_angle_beta   109.47122119
_cell_angle_gamma   109.47121430
_symmetry_Int_Tables_number   1
_chemical_formula_structural   Ac6P17Pd6
_chemical_formula_sum   'Ac6 P17 Pd6'
_cell_volume   607.94320248
_cell_formula_units_Z   1
loop_
 _symmetry_equiv_pos_site_id
 _symmetry_equiv_pos_as_xyz
  1  'x, y, z'
loop_
 _atom_site_type_symbol
 _atom_site_label
 _atom_site_symmetry_multiplicity
 _atom_site_fract_x
 _atom_site_fract_y
 _atom_site_fract_z
 _atom_site_occupancy
  Ac  Ac0  1  0.289283  0.289283  0.000000  1
  Ac  Ac1  1  0.710717  0.710717  0.000000  1
  Ac  Ac2  1  0.289283  0.000000  0.289283  1
  Ac  Ac3  1  0.000000  0.289283  0.289283  1
  Ac  Ac4  1  0.710717  0.000000  0.710717  1
  Ac  Ac5  1  0.000000  0.710717  0.710717  1
  P  P6  1  0.000000  0.000000  0.000000  1
  P  P7  1  0.561998  0.000000  0.000000  1
  P  P8  1  0.779413  0.364970  0.000000  1
  P  P9  1  0.000000  0.561998  0.000000  1
  P  P10  1  0.364970  0.779413  0.000000  1
  P  P11  1  0.585558  0.220587  0.220587  1
  P  P12  1  0.220587  0.585558  0.220587  1
  P  P13  1  0.779413  0.000000  0.364970  1
  P  P14  1  0.000000  0.779413  0.364970  1
  P  P15  1  0.635030  0.635030  0.414443  1
  P  P16  1  0.438001  0.438001  0.438001  1
  P  P17  1  0.000000  0.000000  0.561998  1
  P  P18  1  0.220587  0.220587  0.585558  1
  P  P19  1  0.635030  0.414443  0.635030  1
  P  P20  1  0.414443  0.635030  0.635030  1
  P  P21  1  0.364970  0.000000  0.779413  1
  P  P22  1  0.000000  0.364970  0.779413  1
  Pd  Pd23  1  0.749999  0.500000  0.250000  1
  Pd  Pd24  1  0.500000  0.749999  0.250000  1
  Pd  Pd25  1  0.749999  0.250000  0.500000  1
  Pd  Pd26  1  0.250000  0.749999  0.500000  1
  Pd  Pd27  1  0.500000  0.250000  0.749999  1
  Pd  Pd28  1  0.250000  0.500000  0.749999  1
