# generated using pymatgen
data_Li4La4Ir3Pd
_symmetry_space_group_name_H-M   'P 1'
_cell_length_a   7.27641348
_cell_length_b   4.06449000
_cell_length_c   8.68642637
_cell_angle_alpha   90.00000000
_cell_angle_beta   90.87683150
_cell_angle_gamma   90.00000000
_symmetry_Int_Tables_number   1
_chemical_formula_structural   Li4La4Ir3Pd
_chemical_formula_sum   'Li4 La4 Ir3 Pd1'
_cell_volume   256.87019391
_cell_formula_units_Z   1
loop_
 _symmetry_equiv_pos_site_id
 _symmetry_equiv_pos_as_xyz
  1  'x, y, z'
loop_
 _atom_site_type_symbol
 _atom_site_label
 _atom_site_symmetry_multiplicity
 _atom_site_fract_x
 _atom_site_fract_y
 _atom_site_fract_z
 _atom_site_occupancy
  Li  Li0  1  0.624272  0.250000  0.549982  1
  Li  Li1  1  0.121341  0.250000  0.944595  1
  Li  Li2  1  0.377206  0.750000  0.449942  1
  Li  Li3  1  0.872584  0.750000  0.053178  1
  La  La4  1  0.041533  0.250000  0.332318  1
  La  La5  1  0.561880  0.250000  0.180711  1
  La  La6  1  0.953149  0.750000  0.683264  1
  La  La7  1  0.459141  0.750000  0.810117  1
  Ir  Ir8  1  0.238612  0.250000  0.628323  1
  Ir  Ir9  1  0.739326  0.250000  0.874475  1
  Ir  Ir10  1  0.758010  0.750000  0.369841  1
  Pd  Pd11  1  0.252950  0.750000  0.123257  1
