# generated using pymatgen
data_Ho5Tm5In8(IrPt)2
_symmetry_space_group_name_H-M   'P 1'
_cell_length_a   3.60531200
_cell_length_b   8.09048614
_cell_length_c   18.14187646
_cell_angle_alpha   89.89958179
_cell_angle_beta   90.00000000
_cell_angle_gamma   90.00000000
_symmetry_Int_Tables_number   1
_chemical_formula_structural   Ho5Tm5In8(IrPt)2
_chemical_formula_sum   'Ho5 Tm5 In8 Ir2 Pt2'
_cell_volume   529.17462474
_cell_formula_units_Z   1
loop_
 _symmetry_equiv_pos_site_id
 _symmetry_equiv_pos_as_xyz
  1  'x, y, z'
loop_
 _atom_site_type_symbol
 _atom_site_label
 _atom_site_symmetry_multiplicity
 _atom_site_fract_x
 _atom_site_fract_y
 _atom_site_fract_z
 _atom_site_occupancy
  Ho  Ho0  1  0.000000  0.763695  0.778056  1
  Ho  Ho1  1  0.000000  0.249087  0.720133  1
  Ho  Ho2  1  0.000000  0.751010  0.279862  1
  Ho  Ho3  1  0.000000  0.999915  0.999999  1
  Ho  Ho4  1  0.000000  0.499963  0.499987  1
  Tm  Tm5  1  0.000000  0.115155  0.411697  1
  Tm  Tm6  1  0.000000  0.884982  0.588148  1
  Tm  Tm7  1  0.000000  0.383382  0.913703  1
  Tm  Tm8  1  0.000000  0.616568  0.086386  1
  Tm  Tm9  1  0.000000  0.236278  0.222134  1
  In  In10  1  0.500000  0.422887  0.350926  1
  In  In11  1  0.500000  0.576982  0.648880  1
  In  In12  1  0.500000  0.075004  0.850766  1
  In  In13  1  0.500000  0.925328  0.149335  1
  In  In14  1  0.500000  0.292957  0.066625  1
  In  In15  1  0.500000  0.706946  0.933630  1
  In  In16  1  0.500000  0.205979  0.567136  1
  In  In17  1  0.500000  0.794092  0.432824  1
  Ir  Ir18  1  0.500000  0.022913  0.303923  1
  Ir  Ir19  1  0.500000  0.977969  0.695749  1
  Pt  Pt20  1  0.500000  0.476818  0.803959  1
  Pt  Pt21  1  0.500000  0.522087  0.196141  1
