# generated using pymatgen
data_HfTaNbB2Ru5
_symmetry_space_group_name_H-M   'P 1'
_cell_length_a   9.46510662
_cell_length_b   9.46510616
_cell_length_c   3.06226800
_cell_angle_alpha   90.00000000
_cell_angle_beta   90.00000000
_cell_angle_gamma   89.94516855
_symmetry_Int_Tables_number   1
_chemical_formula_structural   HfTaNbB2Ru5
_chemical_formula_sum   'Hf2 Ta2 Nb2 B4 Ru10'
_cell_volume   274.34307168
_cell_formula_units_Z   2
loop_
 _symmetry_equiv_pos_site_id
 _symmetry_equiv_pos_as_xyz
  1  'x, y, z'
loop_
 _atom_site_type_symbol
 _atom_site_label
 _atom_site_symmetry_multiplicity
 _atom_site_fract_x
 _atom_site_fract_y
 _atom_site_fract_z
 _atom_site_occupancy
  Hf  Hf0  1  0.824103  0.675897  0.000000  1
  Hf  Hf1  1  0.175897  0.324103  0.000000  1
  Ta  Ta2  1  0.500000  0.500000  0.000000  1
  Ta  Ta3  1  0.000000  0.000000  0.000000  1
  Nb  Nb4  1  0.323937  0.823937  0.000000  1
  Nb  Nb5  1  0.676063  0.176063  0.000000  1
  B  B6  1  0.621256  0.878744  0.000000  1
  B  B7  1  0.378744  0.121256  0.000000  1
  B  B8  1  0.121316  0.621316  0.000000  1
  B  B9  1  0.878684  0.378684  0.000000  1
  Ru  Ru10  1  0.568466  0.719430  0.500000  1
  Ru  Ru11  1  0.431534  0.280570  0.500000  1
  Ru  Ru12  1  0.073580  0.782758  0.500000  1
  Ru  Ru13  1  0.926420  0.217242  0.500000  1
  Ru  Ru14  1  0.282758  0.573580  0.500000  1
  Ru  Ru15  1  0.717242  0.426420  0.500000  1
  Ru  Ru16  1  0.219430  0.068466  0.500000  1
  Ru  Ru17  1  0.780570  0.931534  0.500000  1
  Ru  Ru18  1  0.500000  0.000000  0.500000  1
  Ru  Ru19  1  0.000000  0.500000  0.500000  1
