# generated using pymatgen
data_Sc4TcMoOs6
_symmetry_space_group_name_H-M   'P 1'
_cell_length_a   5.25604885
_cell_length_b   5.19047349
_cell_length_c   8.71830800
_cell_angle_alpha   90.00000000
_cell_angle_beta   90.00000000
_cell_angle_gamma   120.95187865
_symmetry_Int_Tables_number   1
_chemical_formula_structural   Sc4TcMoOs6
_chemical_formula_sum   'Sc4 Tc1 Mo1 Os6'
_cell_volume   203.97790686
_cell_formula_units_Z   1
loop_
 _symmetry_equiv_pos_site_id
 _symmetry_equiv_pos_as_xyz
  1  'x, y, z'
loop_
 _atom_site_type_symbol
 _atom_site_label
 _atom_site_symmetry_multiplicity
 _atom_site_fract_x
 _atom_site_fract_y
 _atom_site_fract_z
 _atom_site_occupancy
  Sc  Sc0  1  0.333282  0.664836  0.433853  1
  Sc  Sc1  1  0.668712  0.338610  0.564138  1
  Sc  Sc2  1  0.668712  0.338610  0.935862  1
  Sc  Sc3  1  0.333282  0.664836  0.066147  1
  Tc  Tc4  1  0.341897  0.168376  0.250000  1
  Mo  Mo5  1  0.167709  0.336332  0.750000  1
  Os  Os6  1  0.172333  0.826958  0.750000  1
  Os  Os7  1  0.824905  0.651210  0.250000  1
  Os  Os8  1  0.652302  0.825871  0.750000  1
  Os  Os9  1  0.005953  0.007913  0.002001  1
  Os  Os10  1  0.824960  0.168538  0.250000  1
  Os  Os11  1  0.005953  0.007913  0.497999  1
