# generated using pymatgen
data_Pm2Cu3
_symmetry_space_group_name_H-M   'P 1'
_cell_length_a   4.89392779
_cell_length_b   4.50535848
_cell_length_c   5.62780300
_cell_angle_alpha   66.49726114
_cell_angle_beta   64.28812717
_cell_angle_gamma   90.00437337
_symmetry_Int_Tables_number   1
_chemical_formula_structural   Pm2Cu3
_chemical_formula_sum   'Pm2 Cu3'
_cell_volume   100.25078934
_cell_formula_units_Z   1
loop_
 _symmetry_equiv_pos_site_id
 _symmetry_equiv_pos_as_xyz
  1  'x, y, z'
loop_
 _atom_site_type_symbol
 _atom_site_label
 _atom_site_symmetry_multiplicity
 _atom_site_fract_x
 _atom_site_fract_y
 _atom_site_fract_z
 _atom_site_occupancy
  Pm  Pm0  1  0.668846  0.498396  0.813378  1
  Pm  Pm1  1  0.288097  0.116914  0.574873  1
  Cu  Cu2  1  0.726211  0.808285  0.193840  1
  Cu  Cu3  1  0.228888  0.808387  0.193477  1
  Cu  Cu4  1  0.977715  0.307803  0.194956  1
