# generated using pymatgen
data_Yb2CeRu2
_symmetry_space_group_name_H-M   'P 1'
_cell_length_a   5.86183682
_cell_length_b   5.86183735
_cell_length_c   5.86183752
_cell_angle_alpha   138.03752122
_cell_angle_beta   120.32486273
_cell_angle_gamma   75.61211414
_symmetry_Int_Tables_number   1
_chemical_formula_structural   Yb2CeRu2
_chemical_formula_sum   'Yb2 Ce1 Ru2'
_cell_volume   113.40362902
_cell_formula_units_Z   1
loop_
 _symmetry_equiv_pos_site_id
 _symmetry_equiv_pos_as_xyz
  1  'x, y, z'
loop_
 _atom_site_type_symbol
 _atom_site_label
 _atom_site_symmetry_multiplicity
 _atom_site_fract_x
 _atom_site_fract_y
 _atom_site_fract_z
 _atom_site_occupancy
  Yb  Yb0  1  0.693298  0.193298  0.500000  1
  Yb  Yb1  1  0.306702  0.806701  0.500000  1
  Ce  Ce2  1  0.000000  0.000000  0.000000  1
  Ru  Ru3  1  0.742875  0.500000  0.242875  1
  Ru  Ru4  1  0.257125  0.500000  0.757124  1
