# generated using pymatgen
data_Nd20Ru5Rh7
_symmetry_space_group_name_H-M   'P 1'
_cell_length_a   11.24004836
_cell_length_b   11.24004836
_cell_length_c   6.60108978
_cell_angle_alpha   90.07434962
_cell_angle_beta   90.07434962
_cell_angle_gamma   90.00180082
_symmetry_Int_Tables_number   1
_chemical_formula_structural   Nd20Ru5Rh7
_chemical_formula_sum   'Nd20 Ru5 Rh7'
_cell_volume   833.97161265
_cell_formula_units_Z   1
loop_
 _symmetry_equiv_pos_site_id
 _symmetry_equiv_pos_as_xyz
  1  'x, y, z'
loop_
 _atom_site_type_symbol
 _atom_site_label
 _atom_site_symmetry_multiplicity
 _atom_site_fract_x
 _atom_site_fract_y
 _atom_site_fract_z
 _atom_site_occupancy
  Nd  Nd0  1  0.088513  0.294666  0.117298  1
  Nd  Nd1  1  0.794303  0.411878  0.116573  1
  Nd  Nd2  1  0.205883  0.590400  0.116680  1
  Nd  Nd3  1  0.913550  0.706402  0.117413  1
  Nd  Nd4  1  0.409600  0.794117  0.383320  1
  Nd  Nd5  1  0.588122  0.205697  0.383427  1
  Nd  Nd6  1  0.293598  0.086450  0.382587  1
  Nd  Nd7  1  0.705334  0.911487  0.382702  1
  Nd  Nd8  1  0.411786  0.205455  0.883094  1
  Nd  Nd9  1  0.706382  0.088401  0.883328  1
  Nd  Nd10  1  0.292504  0.910589  0.885393  1
  Nd  Nd11  1  0.587946  0.794691  0.883110  1
  Nd  Nd12  1  0.089411  0.707496  0.614607  1
  Nd  Nd13  1  0.911599  0.293618  0.616672  1
  Nd  Nd14  1  0.205309  0.412054  0.616890  1
  Nd  Nd15  1  0.794545  0.588214  0.616906  1
  Nd  Nd16  1  0.001209  0.999164  0.000014  1
  Nd  Nd17  1  0.500082  0.500233  0.000336  1
  Nd  Nd18  1  0.499767  0.499918  0.499664  1
  Nd  Nd19  1  0.000836  0.998791  0.499986  1
  Ru  Ru20  1  0.151064  0.848936  0.250000  1
  Ru  Ru21  1  0.999667  0.499482  0.377493  1
  Ru  Ru22  1  0.500518  0.000333  0.122507  1
  Ru  Ru23  1  0.500735  0.000160  0.623040  1
  Ru  Ru24  1  0.999840  0.499265  0.876960  1
  Rh  Rh25  1  0.347341  0.347306  0.249857  1
  Rh  Rh26  1  0.652694  0.652659  0.250143  1
  Rh  Rh27  1  0.847542  0.152458  0.250000  1
  Rh  Rh28  1  0.348563  0.651437  0.750000  1
  Rh  Rh29  1  0.153353  0.153916  0.749930  1
  Rh  Rh30  1  0.846084  0.846647  0.750070  1
  Rh  Rh31  1  0.652322  0.347678  0.750000  1
