# generated using pymatgen
data_DyTm3(Si5Pt3)2
_symmetry_space_group_name_H-M   'P 1'
_cell_length_a   8.12172687
_cell_length_b   8.12540500
_cell_length_c   8.12540493
_cell_angle_alpha   136.30348104
_cell_angle_beta   104.33776843
_cell_angle_gamma   91.68924551
_symmetry_Int_Tables_number   1
_chemical_formula_structural   DyTm3(Si5Pt3)2
_chemical_formula_sum   'Dy1 Tm3 Si10 Pt6'
_cell_volume   341.03754648
_cell_formula_units_Z   1
loop_
 _symmetry_equiv_pos_site_id
 _symmetry_equiv_pos_as_xyz
  1  'x, y, z'
loop_
 _atom_site_type_symbol
 _atom_site_label
 _atom_site_symmetry_multiplicity
 _atom_site_fract_x
 _atom_site_fract_y
 _atom_site_fract_z
 _atom_site_occupancy
  Dy  Dy0  1  0.899860  0.129434  0.770425  1
  Tm  Tm1  1  0.642268  0.370171  0.272098  1
  Tm  Tm2  1  0.358200  0.629978  0.728221  1
  Tm  Tm3  1  0.098495  0.870009  0.228486  1
  Si  Si4  1  0.272328  0.521642  0.249962  1
  Si  Si5  1  0.728409  0.477789  0.749666  1
  Si  Si6  1  0.728409  0.978744  0.250620  1
  Si  Si7  1  0.272328  0.022366  0.750686  1
  Si  Si8  1  0.460472  0.111688  0.348783  1
  Si  Si9  1  0.537963  0.886773  0.651190  1
  Si  Si10  1  0.763852  0.611878  0.151974  1
  Si  Si11  1  0.236890  0.388948  0.847943  1
  Si  Si12  1  0.000005  0.248926  0.248874  1
  Si  Si13  1  0.000005  0.751130  0.751080  1
  Pt  Pt14  1  0.252144  0.137950  0.114193  1
  Pt  Pt15  1  0.747483  0.861284  0.886199  1
  Pt  Pt16  1  0.024780  0.637737  0.387043  1
  Pt  Pt17  1  0.976833  0.363704  0.613130  1
  Pt  Pt18  1  0.499636  0.250383  0.750173  1
  Pt  Pt19  1  0.499636  0.749464  0.249254  1
