# generated using pymatgen
data_TbY11ZnGaCo4
_symmetry_space_group_name_H-M   'P 1'
_cell_length_a   8.29876567
_cell_length_b   8.29878297
_cell_length_c   8.28426750
_cell_angle_alpha   111.90588343
_cell_angle_beta   109.45556075
_cell_angle_gamma   107.16135945
_symmetry_Int_Tables_number   1
_chemical_formula_structural   TbY11ZnGaCo4
_chemical_formula_sum   'Tb1 Y11 Zn1 Ga1 Co4'
_cell_volume   438.04092860
_cell_formula_units_Z   1
loop_
 _symmetry_equiv_pos_site_id
 _symmetry_equiv_pos_as_xyz
  1  'x, y, z'
loop_
 _atom_site_type_symbol
 _atom_site_label
 _atom_site_symmetry_multiplicity
 _atom_site_fract_x
 _atom_site_fract_y
 _atom_site_fract_z
 _atom_site_occupancy
  Tb  Tb0  1  0.820407  0.781236  0.601615  1
  Y  Y1  1  0.040794  0.736468  0.304431  1
  Y  Y2  1  0.959327  0.263636  0.695684  1
  Y  Y3  1  0.567937  0.263634  0.304408  1
  Y  Y4  1  0.432023  0.736353  0.695662  1
  Y  Y5  1  0.673238  0.862454  0.188998  1
  Y  Y6  1  0.326483  0.515634  0.188933  1
  Y  Y7  1  0.326675  0.137610  0.810982  1
  Y  Y8  1  0.673311  0.484181  0.810917  1
  Y  Y9  1  0.179935  0.218963  0.398874  1
  Y  Y10  1  0.820040  0.219121  0.039136  1
  Y  Y11  1  0.180039  0.780877  0.960889  1
  Zn  Zn12  1  0.000071  0.499943  0.500006  1
  Ga  Ga13  1  0.499958  0.000009  0.499973  1
  Co  Co14  1  0.661836  0.500100  0.161945  1
  Co  Co15  1  0.338306  0.499956  0.838274  1
  Co  Co16  1  0.886052  0.886157  0.999635  1
  Co  Co17  1  0.113567  0.113668  0.999638  1
