# generated using pymatgen
data_PrHo3Sc2(AlPt2)2
_symmetry_space_group_name_H-M   'P 1'
_cell_length_a   4.44774800
_cell_length_b   7.23697612
_cell_length_c   8.02753071
_cell_angle_alpha   90.41242091
_cell_angle_beta   90.00000000
_cell_angle_gamma   90.00000000
_symmetry_Int_Tables_number   1
_chemical_formula_structural   PrHo3Sc2(AlPt2)2
_chemical_formula_sum   'Pr1 Ho3 Sc2 Al2 Pt4'
_cell_volume   258.38543998
_cell_formula_units_Z   1
loop_
 _symmetry_equiv_pos_site_id
 _symmetry_equiv_pos_as_xyz
  1  'x, y, z'
loop_
 _atom_site_type_symbol
 _atom_site_label
 _atom_site_symmetry_multiplicity
 _atom_site_fract_x
 _atom_site_fract_y
 _atom_site_fract_z
 _atom_site_occupancy
  Pr  Pr0  1  0.750000  0.478061  0.170909  1
  Ho  Ho1  1  0.250000  0.557297  0.819624  1
  Ho  Ho2  1  0.250000  0.021692  0.671533  1
  Ho  Ho3  1  0.750000  0.947873  0.325031  1
  Sc  Sc4  1  0.250000  0.125480  0.063822  1
  Sc  Sc5  1  0.750000  0.372145  0.567300  1
  Al  Al6  1  0.250000  0.644293  0.438500  1
  Al  Al7  1  0.750000  0.859151  0.934294  1
  Pt  Pt8  1  0.250000  0.767559  0.120803  1
  Pt  Pt9  1  0.250000  0.270177  0.388533  1
  Pt  Pt10  1  0.750000  0.738797  0.622304  1
  Pt  Pt11  1  0.750000  0.217476  0.877349  1
