# generated using pymatgen
data_Lu4Si6Ir5Rh2
_symmetry_space_group_name_H-M   'P 1'
_cell_length_a   7.09187366
_cell_length_b   7.09127698
_cell_length_c   7.09140333
_cell_angle_alpha   109.59073077
_cell_angle_beta   109.40980829
_cell_angle_gamma   109.41072341
_symmetry_Int_Tables_number   1
_chemical_formula_structural   Lu4Si6Ir5Rh2
_chemical_formula_sum   'Lu4 Si6 Ir5 Rh2'
_cell_volume   274.54119381
_cell_formula_units_Z   1
loop_
 _symmetry_equiv_pos_site_id
 _symmetry_equiv_pos_as_xyz
  1  'x, y, z'
loop_
 _atom_site_type_symbol
 _atom_site_label
 _atom_site_symmetry_multiplicity
 _atom_site_fract_x
 _atom_site_fract_y
 _atom_site_fract_z
 _atom_site_occupancy
  Lu  Lu0  1  0.999502  0.999742  0.499752  1
  Lu  Lu1  1  0.999513  0.499757  0.999767  1
  Lu  Lu2  1  0.500395  0.000579  0.000583  1
  Lu  Lu3  1  0.500397  0.499818  0.499804  1
  Si  Si4  1  0.678202  0.678702  0.999503  1
  Si  Si5  1  0.320995  0.999643  0.321356  1
  Si  Si6  1  0.000873  0.322029  0.322035  1
  Si  Si7  1  0.320995  0.321350  0.999639  1
  Si  Si8  1  0.678204  0.999503  0.678696  1
  Si  Si9  1  0.000874  0.678843  0.678846  1
  Ir  Ir10  1  0.500429  0.250227  0.750232  1
  Ir  Ir11  1  0.249222  0.499773  0.749446  1
  Ir  Ir12  1  0.249222  0.749451  0.499769  1
  Ir  Ir13  1  0.500429  0.750213  0.250208  1
  Ir  Ir14  1  0.999954  0.999970  0.999966  1
  Rh  Rh15  1  0.750393  0.250529  0.499871  1
  Rh  Rh16  1  0.750403  0.499873  0.250526  1
