# generated using pymatgen
data_CeScAl4FeNi
_symmetry_space_group_name_H-M   'P 1'
_cell_length_a   5.06676872
_cell_length_b   5.06676782
_cell_length_c   7.04675800
_cell_angle_alpha   90.00000000
_cell_angle_beta   90.00000000
_cell_angle_gamma   131.65419500
_symmetry_Int_Tables_number   1
_chemical_formula_structural   CeScAl4FeNi
_chemical_formula_sum   'Ce1 Sc1 Al4 Fe1 Ni1'
_cell_volume   135.16701670
_cell_formula_units_Z   1
loop_
 _symmetry_equiv_pos_site_id
 _symmetry_equiv_pos_as_xyz
  1  'x, y, z'
loop_
 _atom_site_type_symbol
 _atom_site_label
 _atom_site_symmetry_multiplicity
 _atom_site_fract_x
 _atom_site_fract_y
 _atom_site_fract_z
 _atom_site_occupancy
  Ce  Ce0  1  0.549460  0.450540  0.250000  1
  Sc  Sc1  1  0.431020  0.568980  0.750000  1
  Al  Al2  1  0.847510  0.152490  0.041170  1
  Al  Al3  1  0.149303  0.850697  0.941259  1
  Al  Al4  1  0.149303  0.850697  0.558741  1
  Al  Al5  1  0.847510  0.152490  0.458830  1
  Fe  Fe6  1  0.315411  0.684589  0.250000  1
  Ni  Ni7  1  0.710484  0.289516  0.750000  1
