# generated using pymatgen
data_Nd2DyY5(CdNi)2
_symmetry_space_group_name_H-M   'P 1'
_cell_length_a   9.67396796
_cell_length_b   9.66724994
_cell_length_c   9.66724934
_cell_angle_alpha   60.04599028
_cell_angle_beta   59.97700925
_cell_angle_gamma   59.97701149
_symmetry_Int_Tables_number   1
_chemical_formula_structural   Nd2DyY5(CdNi)2
_chemical_formula_sum   'Nd4 Dy2 Y10 Cd4 Ni4'
_cell_volume   639.28590683
_cell_formula_units_Z   2
loop_
 _symmetry_equiv_pos_site_id
 _symmetry_equiv_pos_as_xyz
  1  'x, y, z'
loop_
 _atom_site_type_symbol
 _atom_site_label
 _atom_site_symmetry_multiplicity
 _atom_site_fract_x
 _atom_site_fract_y
 _atom_site_fract_z
 _atom_site_occupancy
  Nd  Nd0  1  0.600575  0.600404  0.600404  1
  Nd  Nd1  1  0.600404  0.600575  0.198616  1
  Nd  Nd2  1  0.600404  0.198616  0.600575  1
  Nd  Nd3  1  0.198616  0.600404  0.600404  1
  Dy  Dy4  1  0.063590  0.436410  0.436410  1
  Dy  Dy5  1  0.436410  0.063590  0.063590  1
  Y  Y6  1  0.436972  0.063028  0.436972  1
  Y  Y7  1  0.063028  0.436972  0.063028  1
  Y  Y8  1  0.436972  0.436972  0.063028  1
  Y  Y9  1  0.063028  0.063028  0.436972  1
  Y  Y10  1  0.184917  0.815083  0.815083  1
  Y  Y11  1  0.815083  0.184917  0.184917  1
  Y  Y12  1  0.814890  0.185110  0.814890  1
  Y  Y13  1  0.185110  0.814890  0.185110  1
  Y  Y14  1  0.814890  0.814890  0.185110  1
  Y  Y15  1  0.185110  0.185110  0.814890  1
  Cd  Cd16  1  0.832276  0.831931  0.831931  1
  Cd  Cd17  1  0.831931  0.832276  0.503861  1
  Cd  Cd18  1  0.831931  0.503861  0.832276  1
  Cd  Cd19  1  0.503861  0.831931  0.831931  1
  Ni  Ni20  1  0.390842  0.391908  0.391908  1
  Ni  Ni21  1  0.391908  0.390842  0.825345  1
  Ni  Ni22  1  0.391908  0.825345  0.390842  1
  Ni  Ni23  1  0.825345  0.391908  0.391908  1
