# generated using pymatgen
data_DyTa5MnB4Ru9
_symmetry_space_group_name_H-M   'P 1'
_cell_length_a   9.42961405
_cell_length_b   9.42961365
_cell_length_c   3.06193800
_cell_angle_alpha   90.00000000
_cell_angle_beta   90.00000000
_cell_angle_gamma   90.45684474
_symmetry_Int_Tables_number   1
_chemical_formula_structural   DyTa5MnB4Ru9
_chemical_formula_sum   'Dy1 Ta5 Mn1 B4 Ru9'
_cell_volume   272.25157671
_cell_formula_units_Z   1
loop_
 _symmetry_equiv_pos_site_id
 _symmetry_equiv_pos_as_xyz
  1  'x, y, z'
loop_
 _atom_site_type_symbol
 _atom_site_label
 _atom_site_symmetry_multiplicity
 _atom_site_fract_x
 _atom_site_fract_y
 _atom_site_fract_z
 _atom_site_occupancy
  Dy  Dy0  1  0.822930  0.677070  0.000000  1
  Ta  Ta1  1  0.179627  0.320373  0.000000  1
  Ta  Ta2  1  0.330913  0.832100  0.000000  1
  Ta  Ta3  1  0.667900  0.169087  0.000000  1
  Ta  Ta4  1  0.500880  0.500439  0.000000  1
  Ta  Ta5  1  0.999561  0.999120  0.000000  1
  Mn  Mn6  1  0.496322  0.003678  0.500000  1
  B  B7  1  0.609905  0.890095  0.000000  1
  B  B8  1  0.386336  0.113664  0.000000  1
  B  B9  1  0.124670  0.620814  0.000000  1
  B  B10  1  0.879186  0.375330  0.000000  1
  Ru  Ru11  1  0.555998  0.727950  0.500000  1
  Ru  Ru12  1  0.428841  0.279617  0.500000  1
  Ru  Ru13  1  0.083691  0.784074  0.500000  1
  Ru  Ru14  1  0.930571  0.214905  0.500000  1
  Ru  Ru15  1  0.285095  0.569429  0.500000  1
  Ru  Ru16  1  0.715926  0.416309  0.500000  1
  Ru  Ru17  1  0.220383  0.071159  0.500000  1
  Ru  Ru18  1  0.772050  0.944002  0.500000  1
  Ru  Ru19  1  0.009214  0.490786  0.500000  1
