# generated using pymatgen
data_LuP2Rh3
_symmetry_space_group_name_H-M   'P 1'
_cell_length_a   3.89691900
_cell_length_b   11.19300000
_cell_length_c   12.66684100
_cell_angle_alpha   90.00000000
_cell_angle_beta   90.00000000
_cell_angle_gamma   90.00000000
_symmetry_Int_Tables_number   1
_chemical_formula_structural   LuP2Rh3
_chemical_formula_sum   'Lu6 P12 Rh18'
_cell_volume   552.50498609
_cell_formula_units_Z   6
loop_
 _symmetry_equiv_pos_site_id
 _symmetry_equiv_pos_as_xyz
  1  'x, y, z'
loop_
 _atom_site_type_symbol
 _atom_site_label
 _atom_site_symmetry_multiplicity
 _atom_site_fract_x
 _atom_site_fract_y
 _atom_site_fract_z
 _atom_site_occupancy
  Lu  Lu0  1  0.000000  0.500000  0.521354  1
  Lu  Lu1  1  0.500000  0.000000  0.478646  1
  Lu  Lu2  1  0.500000  0.816735  0.205955  1
  Lu  Lu3  1  0.500000  0.183265  0.205955  1
  Lu  Lu4  1  0.000000  0.683265  0.794045  1
  Lu  Lu5  1  0.000000  0.316735  0.794045  1
  P  P6  1  0.500000  0.500000  0.878116  1
  P  P7  1  0.000000  0.000000  0.121884  1
  P  P8  1  0.500000  0.500000  0.352953  1
  P  P9  1  0.000000  0.000000  0.647047  1
  P  P10  1  0.500000  0.316654  0.619663  1
  P  P11  1  0.500000  0.683346  0.619663  1
  P  P12  1  0.000000  0.183346  0.380337  1
  P  P13  1  0.000000  0.816654  0.380337  1
  P  P14  1  0.500000  0.844524  0.891194  1
  P  P15  1  0.500000  0.155476  0.891194  1
  P  P16  1  0.000000  0.655476  0.108806  1
  P  P17  1  0.000000  0.344524  0.108806  1
  Rh  Rh18  1  0.500000  0.500000  0.168551  1
  Rh  Rh19  1  0.000000  0.000000  0.831449  1
  Rh  Rh20  1  0.500000  0.500000  0.700833  1
  Rh  Rh21  1  0.000000  0.000000  0.299167  1
  Rh  Rh22  1  0.000000  0.500000  0.981258  1
  Rh  Rh23  1  0.500000  0.000000  0.018742  1
  Rh  Rh24  1  0.500000  0.333619  0.992245  1
  Rh  Rh25  1  0.500000  0.666381  0.992245  1
  Rh  Rh26  1  0.000000  0.166381  0.007755  1
  Rh  Rh27  1  0.000000  0.833619  0.007755  1
  Rh  Rh28  1  0.500000  0.297515  0.432313  1
  Rh  Rh29  1  0.500000  0.702485  0.432313  1
  Rh  Rh30  1  0.000000  0.202485  0.567687  1
  Rh  Rh31  1  0.000000  0.797515  0.567687  1
  Rh  Rh32  1  0.500000  0.871427  0.710625  1
  Rh  Rh33  1  0.500000  0.128573  0.710625  1
  Rh  Rh34  1  0.000000  0.628573  0.289375  1
  Rh  Rh35  1  0.000000  0.371427  0.289375  1
