# generated using pymatgen
data_Ho4Ta2(IrOs)3
_symmetry_space_group_name_H-M   'P 1'
_cell_length_a   5.61180300
_cell_length_b   5.61180205
_cell_length_c   8.32004000
_cell_angle_alpha   90.00000000
_cell_angle_beta   90.00000000
_cell_angle_gamma   120.00002326
_symmetry_Int_Tables_number   1
_chemical_formula_structural   Ho4Ta2(IrOs)3
_chemical_formula_sum   'Ho4 Ta2 Ir3 Os3'
_cell_volume   226.91369336
_cell_formula_units_Z   1
loop_
 _symmetry_equiv_pos_site_id
 _symmetry_equiv_pos_as_xyz
  1  'x, y, z'
loop_
 _atom_site_type_symbol
 _atom_site_label
 _atom_site_symmetry_multiplicity
 _atom_site_fract_x
 _atom_site_fract_y
 _atom_site_fract_z
 _atom_site_occupancy
  Ho  Ho0  1  0.333333  0.666667  0.434969  1
  Ho  Ho1  1  0.666667  0.333333  0.558909  1
  Ho  Ho2  1  0.666667  0.333333  0.941091  1
  Ho  Ho3  1  0.333333  0.666667  0.065031  1
  Ta  Ta4  1  0.000000  0.000000  0.504200  1
  Ta  Ta5  1  0.000000  0.000000  0.995800  1
  Ir  Ir6  1  0.828889  0.171111  0.250000  1
  Ir  Ir7  1  0.828889  0.657779  0.250000  1
  Ir  Ir8  1  0.342221  0.171111  0.250000  1
  Os  Os9  1  0.174271  0.825729  0.750000  1
  Os  Os10  1  0.174271  0.348542  0.750000  1
  Os  Os11  1  0.651458  0.825729  0.750000  1
