# generated using pymatgen
data_Dy3Y17Si15Pt
_symmetry_space_group_name_H-M   'P 1'
_cell_length_a   7.40939709
_cell_length_b   7.73696093
_cell_length_c   14.66831018
_cell_angle_alpha   90.00256162
_cell_angle_beta   89.98226363
_cell_angle_gamma   90.09448301
_symmetry_Int_Tables_number   1
_chemical_formula_structural   Dy3Y17Si15Pt
_chemical_formula_sum   'Dy3 Y17 Si15 Pt1'
_cell_volume   840.87753102
_cell_formula_units_Z   1
loop_
 _symmetry_equiv_pos_site_id
 _symmetry_equiv_pos_as_xyz
  1  'x, y, z'
loop_
 _atom_site_type_symbol
 _atom_site_label
 _atom_site_symmetry_multiplicity
 _atom_site_fract_x
 _atom_site_fract_y
 _atom_site_fract_z
 _atom_site_occupancy
  Dy  Dy0  1  0.679785  0.179122  0.622837  1
  Dy  Dy1  1  0.187036  0.323493  0.876733  1
  Dy  Dy2  1  0.843681  0.508733  0.750013  1
  Y  Y3  1  0.317743  0.820203  0.123222  1
  Y  Y4  1  0.817476  0.678010  0.376531  1
  Y  Y5  1  0.317760  0.820220  0.376751  1
  Y  Y6  1  0.817509  0.677977  0.123472  1
  Y  Y7  1  0.680026  0.178808  0.877417  1
  Y  Y8  1  0.186714  0.323440  0.623048  1
  Y  Y9  1  0.525393  0.681959  0.594180  1
  Y  Y10  1  0.027057  0.817601  0.904201  1
  Y  Y11  1  0.473155  0.316018  0.097584  1
  Y  Y12  1  0.973057  0.183032  0.402398  1
  Y  Y13  1  0.473187  0.316009  0.402407  1
  Y  Y14  1  0.973079  0.183011  0.097589  1
  Y  Y15  1  0.525439  0.681899  0.905834  1
  Y  Y16  1  0.027034  0.817646  0.595781  1
  Y  Y17  1  0.355991  0.984639  0.749994  1
  Y  Y18  1  0.148546  0.485946  0.250004  1
  Y  Y19  1  0.648843  0.012931  0.249998  1
  Si  Si20  1  0.646339  0.971976  0.458982  1
  Si  Si21  1  0.146020  0.527698  0.040244  1
  Si  Si22  1  0.351805  0.026088  0.960383  1
  Si  Si23  1  0.852276  0.472488  0.539765  1
  Si  Si24  1  0.351955  0.025953  0.539606  1
  Si  Si25  1  0.852364  0.472704  0.960265  1
  Si  Si26  1  0.646344  0.971899  0.041068  1
  Si  Si27  1  0.146030  0.527763  0.459678  1
  Si  Si28  1  0.979696  0.101878  0.750059  1
  Si  Si29  1  0.521824  0.603255  0.249991  1
  Si  Si30  1  0.021845  0.895483  0.249999  1
  Si  Si31  1  0.741683  0.875801  0.749957  1
  Si  Si32  1  0.229321  0.631132  0.750019  1
  Si  Si33  1  0.266757  0.126952  0.250008  1
  Si  Si34  1  0.766111  0.373127  0.249987  1
  Pt  Pt35  1  0.481116  0.405104  0.749994  1
