# generated using pymatgen
data_Sr6ErB6MoO18
_symmetry_space_group_name_H-M   'P 1'
_cell_length_a   7.80746167
_cell_length_b   7.80746035
_cell_length_c   7.80746265
_cell_angle_alpha   105.25916999
_cell_angle_beta   105.25917851
_cell_angle_gamma   105.25916805
_symmetry_Int_Tables_number   1
_chemical_formula_structural   Sr6ErB6MoO18
_chemical_formula_sum   'Sr6 Er1 B6 Mo1 O18'
_cell_volume   413.72879368
_cell_formula_units_Z   1
loop_
 _symmetry_equiv_pos_site_id
 _symmetry_equiv_pos_as_xyz
  1  'x, y, z'
loop_
 _atom_site_type_symbol
 _atom_site_label
 _atom_site_symmetry_multiplicity
 _atom_site_fract_x
 _atom_site_fract_y
 _atom_site_fract_z
 _atom_site_occupancy
  Sr  Sr0  1  0.160380  0.266170  0.650698  1
  Sr  Sr1  1  0.650698  0.160380  0.266170  1
  Sr  Sr2  1  0.266170  0.650698  0.160380  1
  Sr  Sr3  1  0.839620  0.733830  0.349302  1
  Sr  Sr4  1  0.349302  0.839620  0.733830  1
  Sr  Sr5  1  0.733830  0.349302  0.839620  1
  Er  Er6  1  0.000000  0.000000  0.000000  1
  B  B7  1  0.292952  0.041898  0.378577  1
  B  B8  1  0.378577  0.292952  0.041898  1
  B  B9  1  0.041898  0.378577  0.292952  1
  B  B10  1  0.621423  0.707048  0.958102  1
  B  B11  1  0.958102  0.621423  0.707048  1
  B  B12  1  0.707048  0.958102  0.621423  1
  Mo  Mo13  1  0.500000  0.500000  0.500000  1
  O  O14  1  0.186140  0.269055  0.984955  1
  O  O15  1  0.984955  0.186140  0.269055  1
  O  O16  1  0.449393  0.188711  0.927281  1
  O  O17  1  0.188711  0.927281  0.449393  1
  O  O18  1  0.927281  0.449393  0.188711  1
  O  O19  1  0.072719  0.550607  0.811289  1
  O  O20  1  0.550607  0.811290  0.072719  1
  O  O21  1  0.811290  0.072719  0.550607  1
  O  O22  1  0.503623  0.433982  0.216044  1
  O  O23  1  0.433982  0.216044  0.503623  1
  O  O24  1  0.216044  0.503623  0.433982  1
  O  O25  1  0.496377  0.566018  0.783956  1
  O  O26  1  0.566018  0.783956  0.496377  1
  O  O27  1  0.783956  0.496377  0.566018  1
  O  O28  1  0.730945  0.015045  0.813860  1
  O  O29  1  0.015045  0.813860  0.730945  1
  O  O30  1  0.813860  0.730945  0.015045  1
  O  O31  1  0.269055  0.984955  0.186140  1
