# generated using pymatgen
data_Th8Si12Ni3Pd
_symmetry_space_group_name_H-M   'P 1'
_cell_length_a   8.07669300
_cell_length_b   8.07669211
_cell_length_c   8.52243400
_cell_angle_alpha   90.00000000
_cell_angle_beta   90.00000000
_cell_angle_gamma   120.00000774
_symmetry_Int_Tables_number   1
_chemical_formula_structural   Th8Si12Ni3Pd
_chemical_formula_sum   'Th8 Si12 Ni3 Pd1'
_cell_volume   481.46125923
_cell_formula_units_Z   1
loop_
 _symmetry_equiv_pos_site_id
 _symmetry_equiv_pos_as_xyz
  1  'x, y, z'
loop_
 _atom_site_type_symbol
 _atom_site_label
 _atom_site_symmetry_multiplicity
 _atom_site_fract_x
 _atom_site_fract_y
 _atom_site_fract_z
 _atom_site_occupancy
  Th  Th0  1  0.501782  0.003565  0.247825  1
  Th  Th1  1  0.501505  0.003010  0.752175  1
  Th  Th2  1  0.996435  0.498218  0.247825  1
  Th  Th3  1  0.996990  0.498495  0.752175  1
  Th  Th4  1  0.501782  0.498218  0.247825  1
  Th  Th5  1  0.501505  0.498495  0.752175  1
  Th  Th6  1  0.000000  0.000000  0.248956  1
  Th  Th7  1  0.000000  0.000000  0.751032  1
  Si  Si8  1  0.171080  0.342161  0.000265  1
  Si  Si9  1  0.829255  0.658508  0.999807  1
  Si  Si10  1  0.657839  0.828920  0.000265  1
  Si  Si11  1  0.828115  0.656230  0.500166  1
  Si  Si12  1  0.341492  0.170745  0.999807  1
  Si  Si13  1  0.164155  0.328310  0.499833  1
  Si  Si14  1  0.171080  0.828920  0.000265  1
  Si  Si15  1  0.343770  0.171885  0.500166  1
  Si  Si16  1  0.829255  0.170745  0.999807  1
  Si  Si17  1  0.671690  0.835845  0.499833  1
  Si  Si18  1  0.828115  0.171885  0.500166  1
  Si  Si19  1  0.164155  0.835845  0.499833  1
  Ni  Ni20  1  0.333333  0.666667  0.000334  1
  Ni  Ni21  1  0.666667  0.333333  0.999067  1
  Ni  Ni22  1  0.666667  0.333333  0.500907  1
  Pd  Pd23  1  0.333333  0.666667  0.499488  1
