# generated using pymatgen
data_Tb2DyZr(Al3Ir)6
_symmetry_space_group_name_H-M   'P 1'
_cell_length_a   7.55034011
_cell_length_b   7.54032550
_cell_length_c   9.43226400
_cell_angle_alpha   90.00000000
_cell_angle_beta   90.00000000
_cell_angle_gamma   119.58428379
_symmetry_Int_Tables_number   1
_chemical_formula_structural   Tb2DyZr(Al3Ir)6
_chemical_formula_sum   'Tb2 Dy1 Zr1 Al18 Ir6'
_cell_volume   466.98965768
_cell_formula_units_Z   1
loop_
 _symmetry_equiv_pos_site_id
 _symmetry_equiv_pos_as_xyz
  1  'x, y, z'
loop_
 _atom_site_type_symbol
 _atom_site_label
 _atom_site_symmetry_multiplicity
 _atom_site_fract_x
 _atom_site_fract_y
 _atom_site_fract_z
 _atom_site_occupancy
  Tb  Tb0  1  0.005475  0.327432  0.250000  1
  Tb  Tb1  1  0.329223  0.006393  0.250000  1
  Dy  Dy2  1  0.670735  0.995583  0.750000  1
  Zr  Zr3  1  0.997022  0.672410  0.750000  1
  Al  Al4  1  0.125636  0.123187  0.750000  1
  Al  Al5  1  0.870377  0.868884  0.250000  1
  Al  Al6  1  0.000210  0.337861  0.578777  1
  Al  Al7  1  0.999104  0.664983  0.430202  1
  Al  Al8  1  0.999104  0.664983  0.069798  1
  Al  Al9  1  0.332466  0.998334  0.921022  1
  Al  Al10  1  0.000210  0.337861  0.921223  1
  Al  Al11  1  0.664529  0.997872  0.074043  1
  Al  Al12  1  0.664529  0.997872  0.425957  1
  Al  Al13  1  0.332466  0.998334  0.578978  1
  Al  Al14  1  0.334054  0.334197  0.049299  1
  Al  Al15  1  0.669107  0.667113  0.943780  1
  Al  Al16  1  0.669107  0.667113  0.556220  1
  Al  Al17  1  0.334054  0.334197  0.450701  1
  Al  Al18  1  0.336100  0.549549  0.750000  1
  Al  Al19  1  0.660718  0.452453  0.250000  1
  Al  Al20  1  0.555148  0.344337  0.750000  1
  Al  Al21  1  0.451074  0.659280  0.250000  1
  Ir  Ir22  1  0.672345  0.328242  0.500941  1
  Ir  Ir23  1  0.328021  0.672265  0.501699  1
  Ir  Ir24  1  0.328021  0.672265  0.998301  1
  Ir  Ir25  1  0.672345  0.328242  0.999059  1
  Ir  Ir26  1  0.999411  0.999377  0.500940  1
  Ir  Ir27  1  0.999411  0.999377  0.999060  1
