# generated using pymatgen
data_Ac9Tb11Si15Sn
_symmetry_space_group_name_H-M   'P 1'
_cell_length_a   7.97914479
_cell_length_b   7.95315681
_cell_length_c   15.23358900
_cell_angle_alpha   90.04889461
_cell_angle_beta   89.75359380
_cell_angle_gamma   89.97270506
_symmetry_Int_Tables_number   1
_chemical_formula_structural   Ac9Tb11Si15Sn
_chemical_formula_sum   'Ac9 Tb11 Si15 Sn1'
_cell_volume   966.70485811
_cell_formula_units_Z   1
loop_
 _symmetry_equiv_pos_site_id
 _symmetry_equiv_pos_as_xyz
  1  'x, y, z'
loop_
 _atom_site_type_symbol
 _atom_site_label
 _atom_site_symmetry_multiplicity
 _atom_site_fract_x
 _atom_site_fract_y
 _atom_site_fract_z
 _atom_site_occupancy
  Ac  Ac0  1  0.313566  0.311721  0.000357  1
  Ac  Ac1  1  0.359350  0.015273  0.455807  1
  Ac  Ac2  1  0.492746  0.852484  0.706713  1
  Ac  Ac3  1  0.512399  0.137139  0.207264  1
  Ac  Ac4  1  0.857943  0.485777  0.293048  1
  Ac  Ac5  1  0.136585  0.517016  0.796136  1
  Ac  Ac6  1  0.642052  0.987430  0.956893  1
  Ac  Ac7  1  0.006344  0.367941  0.538935  1
  Ac  Ac8  1  0.989524  0.639329  0.046463  1
  Tb  Tb9  1  0.182493  0.816248  0.251016  1
  Tb  Tb10  1  0.809280  0.181723  0.750700  1
  Tb  Tb11  1  0.676856  0.682389  0.497481  1
  Tb  Tb12  1  0.132849  0.987381  0.879254  1
  Tb  Tb13  1  0.510695  0.638035  0.129088  1
  Tb  Tb14  1  0.500554  0.370572  0.625336  1
  Tb  Tb15  1  0.641001  0.513108  0.874546  1
  Tb  Tb16  1  0.362813  0.493445  0.372732  1
  Tb  Tb17  1  0.862413  0.010007  0.376947  1
  Tb  Tb18  1  0.989500  0.133003  0.126089  1
  Tb  Tb19  1  0.998992  0.851323  0.618095  1
  Si  Si20  1  0.348115  0.708053  0.946736  1
  Si  Si21  1  0.652750  0.299828  0.446859  1
  Si  Si22  1  0.709730  0.346877  0.056508  1
  Si  Si23  1  0.300989  0.657140  0.550158  1
  Si  Si24  1  0.801120  0.843706  0.200034  1
  Si  Si25  1  0.153830  0.202104  0.304381  1
  Si  Si26  1  0.845976  0.802274  0.800696  1
  Si  Si27  1  0.285418  0.921142  0.066181  1
  Si  Si28  1  0.569747  0.786557  0.313678  1
  Si  Si29  1  0.447060  0.216523  0.809038  1
  Si  Si30  1  0.789147  0.568071  0.686321  1
  Si  Si31  1  0.213591  0.434668  0.194566  1
  Si  Si32  1  0.713266  0.070189  0.562261  1
  Si  Si33  1  0.923353  0.285160  0.936177  1
  Si  Si34  1  0.069199  0.717303  0.434982  1
  Sn  Sn35  1  0.198754  0.149066  0.688523  1
