# generated using pymatgen
data_Y6Ti2Co16(SiP3)3
_symmetry_space_group_name_H-M   'P 1'
_cell_length_a   3.73138400
_cell_length_b   10.66783800
_cell_length_c   12.36644300
_cell_angle_alpha   90.00000000
_cell_angle_beta   90.00000000
_cell_angle_gamma   90.00000000
_symmetry_Int_Tables_number   1
_chemical_formula_structural   Y6Ti2Co16(SiP3)3
_chemical_formula_sum   'Y6 Ti2 Co16 Si3 P9'
_cell_volume   492.25615711
_cell_formula_units_Z   1
loop_
 _symmetry_equiv_pos_site_id
 _symmetry_equiv_pos_as_xyz
  1  'x, y, z'
loop_
 _atom_site_type_symbol
 _atom_site_label
 _atom_site_symmetry_multiplicity
 _atom_site_fract_x
 _atom_site_fract_y
 _atom_site_fract_z
 _atom_site_occupancy
  Y  Y0  1  0.000000  0.500000  0.527048  1
  Y  Y1  1  0.500000  0.000000  0.476277  1
  Y  Y2  1  0.500000  0.819894  0.206788  1
  Y  Y3  1  0.500000  0.180106  0.206788  1
  Y  Y4  1  0.000000  0.680341  0.793793  1
  Y  Y5  1  0.000000  0.319659  0.793793  1
  Ti  Ti6  1  0.500000  0.500000  0.149051  1
  Ti  Ti7  1  0.000000  0.000000  0.846587  1
  Co  Co8  1  0.500000  0.500000  0.698667  1
  Co  Co9  1  0.000000  0.000000  0.301984  1
  Co  Co10  1  0.000000  0.500000  0.991657  1
  Co  Co11  1  0.500000  0.000000  0.007534  1
  Co  Co12  1  0.500000  0.329451  0.996583  1
  Co  Co13  1  0.500000  0.670549  0.996583  1
  Co  Co14  1  0.000000  0.169983  0.002322  1
  Co  Co15  1  0.000000  0.830017  0.002322  1
  Co  Co16  1  0.500000  0.292681  0.434193  1
  Co  Co17  1  0.500000  0.707319  0.434193  1
  Co  Co18  1  0.000000  0.203346  0.568947  1
  Co  Co19  1  0.000000  0.796654  0.568947  1
  Co  Co20  1  0.500000  0.879529  0.705179  1
  Co  Co21  1  0.500000  0.120471  0.705179  1
  Co  Co22  1  0.000000  0.622324  0.293459  1
  Co  Co23  1  0.000000  0.377676  0.293459  1
  Si  Si24  1  0.500000  0.500000  0.885331  1
  Si  Si25  1  0.000000  0.000000  0.114653  1
  Si  Si26  1  0.500000  0.500000  0.351407  1
  P  P27  1  0.000000  0.000000  0.648262  1
  P  P28  1  0.500000  0.307943  0.615606  1
  P  P29  1  0.500000  0.692057  0.615606  1
  P  P30  1  0.000000  0.192170  0.384584  1
  P  P31  1  0.000000  0.807830  0.384584  1
  P  P32  1  0.500000  0.842704  0.892471  1
  P  P33  1  0.500000  0.157296  0.892471  1
  P  P34  1  0.000000  0.658214  0.106846  1
  P  P35  1  0.000000  0.341786  0.106846  1
