# generated using pymatgen
data_Nd8CdHgIrPt
_symmetry_space_group_name_H-M   'P 1'
_cell_length_a   9.98653062
_cell_length_b   9.98653128
_cell_length_c   9.98011900
_cell_angle_alpha   60.02124129
_cell_angle_beta   60.02123913
_cell_angle_gamma   60.12441238
_symmetry_Int_Tables_number   1
_chemical_formula_structural   Nd8CdHgIrPt
_chemical_formula_sum   'Nd16 Cd2 Hg2 Ir2 Pt2'
_cell_volume   704.68710370
_cell_formula_units_Z   2
loop_
 _symmetry_equiv_pos_site_id
 _symmetry_equiv_pos_as_xyz
  1  'x, y, z'
loop_
 _atom_site_type_symbol
 _atom_site_label
 _atom_site_symmetry_multiplicity
 _atom_site_fract_x
 _atom_site_fract_y
 _atom_site_fract_z
 _atom_site_occupancy
  Nd  Nd0  1  0.350679  0.350679  0.345885  1
  Nd  Nd1  1  0.350679  0.350679  0.952756  1
  Nd  Nd2  1  0.355487  0.945028  0.349743  1
  Nd  Nd3  1  0.945028  0.355487  0.349743  1
  Nd  Nd4  1  0.806049  0.189177  0.191679  1
  Nd  Nd5  1  0.189177  0.806049  0.813095  1
  Nd  Nd6  1  0.189177  0.806049  0.191679  1
  Nd  Nd7  1  0.806049  0.189177  0.813095  1
  Nd  Nd8  1  0.190228  0.190228  0.809772  1
  Nd  Nd9  1  0.809373  0.809373  0.190627  1
  Nd  Nd10  1  0.938725  0.562788  0.561600  1
  Nd  Nd11  1  0.562788  0.938725  0.936887  1
  Nd  Nd12  1  0.562788  0.938725  0.561600  1
  Nd  Nd13  1  0.938725  0.562788  0.936887  1
  Nd  Nd14  1  0.562318  0.562318  0.937682  1
  Nd  Nd15  1  0.937772  0.937772  0.562228  1
  Cd  Cd16  1  0.579010  0.260279  0.580355  1
  Cd  Cd17  1  0.260279  0.579010  0.580355  1
  Hg  Hg18  1  0.583701  0.583701  0.585725  1
  Hg  Hg19  1  0.583701  0.583701  0.246872  1
  Ir  Ir20  1  0.141396  0.572366  0.143119  1
  Ir  Ir21  1  0.572366  0.141396  0.143119  1
  Pt  Pt22  1  0.142252  0.142252  0.144652  1
  Pt  Pt23  1  0.142252  0.142252  0.570843  1
