# generated using pymatgen
data_U(Sb3Ru)4
_symmetry_space_group_name_H-M   'P 1'
_cell_length_a   8.10721033
_cell_length_b   8.10720981
_cell_length_c   8.10721000
_cell_angle_alpha   109.47122610
_cell_angle_beta   109.47122482
_cell_angle_gamma   109.47121420
_symmetry_Int_Tables_number   1
_chemical_formula_structural   U(Sb3Ru)4
_chemical_formula_sum   'U1 Sb12 Ru4'
_cell_volume   410.19689371
_cell_formula_units_Z   1
loop_
 _symmetry_equiv_pos_site_id
 _symmetry_equiv_pos_as_xyz
  1  'x, y, z'
loop_
 _atom_site_type_symbol
 _atom_site_label
 _atom_site_symmetry_multiplicity
 _atom_site_fract_x
 _atom_site_fract_y
 _atom_site_fract_z
 _atom_site_occupancy
  U  U0  1  0.000000  0.000000  0.000000  1
  Sb  Sb1  1  0.157604  0.820860  0.663256  1
  Sb  Sb2  1  0.842396  0.179140  0.336744  1
  Sb  Sb3  1  0.842396  0.505652  0.663256  1
  Sb  Sb4  1  0.157604  0.494348  0.336744  1
  Sb  Sb5  1  0.820860  0.663256  0.157604  1
  Sb  Sb6  1  0.179140  0.336744  0.842396  1
  Sb  Sb7  1  0.505652  0.663256  0.842396  1
  Sb  Sb8  1  0.494348  0.336744  0.157604  1
  Sb  Sb9  1  0.663256  0.157604  0.820860  1
  Sb  Sb10  1  0.336744  0.842396  0.179140  1
  Sb  Sb11  1  0.663256  0.842396  0.505652  1
  Sb  Sb12  1  0.336744  0.157604  0.494348  1
  Ru  Ru13  1  0.000000  0.000000  0.500000  1
  Ru  Ru14  1  0.500000  0.000000  0.000000  1
  Ru  Ru15  1  0.000000  0.500000  0.000000  1
  Ru  Ru16  1  0.500000  0.500000  0.500000  1
