# generated using pymatgen
data_PrTh(Be11Cu2)2
_symmetry_space_group_name_H-M   'P 1'
_cell_length_a   7.44478850
_cell_length_b   7.42821757
_cell_length_c   7.38977400
_cell_angle_alpha   60.31905233
_cell_angle_beta   60.09623393
_cell_angle_gamma   59.58506981
_symmetry_Int_Tables_number   1
_chemical_formula_structural   PrTh(Be11Cu2)2
_chemical_formula_sum   'Pr1 Th1 Be22 Cu4'
_cell_volume   288.94616750
_cell_formula_units_Z   1
loop_
 _symmetry_equiv_pos_site_id
 _symmetry_equiv_pos_as_xyz
  1  'x, y, z'
loop_
 _atom_site_type_symbol
 _atom_site_label
 _atom_site_symmetry_multiplicity
 _atom_site_fract_x
 _atom_site_fract_y
 _atom_site_fract_z
 _atom_site_occupancy
  Pr  Pr0  1  0.250000  0.249999  0.249997  1
  Th  Th1  1  0.749994  0.749998  0.750003  1
  Be  Be2  1  0.432681  0.791904  0.568166  1
  Be  Be3  1  0.559917  0.440058  0.797189  1
  Be  Be4  1  0.791910  0.432679  0.207243  1
  Be  Be5  1  0.797190  0.202835  0.559918  1
  Be  Be6  1  0.207237  0.568164  0.791907  1
  Be  Be7  1  0.440056  0.559920  0.202832  1
  Be  Be8  1  0.568165  0.207238  0.432689  1
  Be  Be9  1  0.202820  0.797184  0.440066  1
  Be  Be10  1  0.939276  0.715131  0.059722  1
  Be  Be11  1  0.715134  0.939268  0.285875  1
  Be  Be12  1  0.059718  0.285869  0.939268  1
  Be  Be13  1  0.285879  0.059711  0.715139  1
  Be  Be14  1  0.721449  0.067379  0.931542  1
  Be  Be15  1  0.064527  0.933687  0.716562  1
  Be  Be16  1  0.067372  0.721453  0.279634  1
  Be  Be17  1  0.285223  0.716563  0.933687  1
  Be  Be18  1  0.931546  0.279622  0.721447  1
  Be  Be19  1  0.933686  0.064529  0.285222  1
  Be  Be20  1  0.279628  0.931538  0.067378  1
  Be  Be21  1  0.716558  0.285219  0.064530  1
  Be  Be22  1  0.499998  0.499996  0.500001  1
  Be  Be23  1  0.999999  0.999998  0.000000  1
  Cu  Cu24  1  0.801767  0.558124  0.442779  1
  Cu  Cu25  1  0.558073  0.801729  0.197395  1
  Cu  Cu26  1  0.197398  0.442802  0.558079  1
  Cu  Cu27  1  0.442800  0.197402  0.801729  1
