# generated using pymatgen
data_La6GdDySb20
_symmetry_space_group_name_H-M   'P 1'
_cell_length_a   4.32489700
_cell_length_b   13.65822829
_cell_length_c   15.27315900
_cell_angle_alpha   78.10197137
_cell_angle_beta   90.00000000
_cell_angle_gamma   90.00000000
_symmetry_Int_Tables_number   1
_chemical_formula_structural   La6GdDySb20
_chemical_formula_sum   'La6 Gd1 Dy1 Sb20'
_cell_volume   882.80945526
_cell_formula_units_Z   1
loop_
 _symmetry_equiv_pos_site_id
 _symmetry_equiv_pos_as_xyz
  1  'x, y, z'
loop_
 _atom_site_type_symbol
 _atom_site_label
 _atom_site_symmetry_multiplicity
 _atom_site_fract_x
 _atom_site_fract_y
 _atom_site_fract_z
 _atom_site_occupancy
  La  La0  1  0.750000  0.333630  0.142231  1
  La  La1  1  0.250000  0.947496  0.364707  1
  La  La2  1  0.250000  0.666097  0.857129  1
  La  La3  1  0.250000  0.666909  0.578002  1
  La  La4  1  0.750000  0.052699  0.635448  1
  La  La5  1  0.750000  0.332846  0.422694  1
  Gd  Gd6  1  0.750000  0.603139  0.227809  1
  Dy  Dy7  1  0.250000  0.397201  0.772161  1
  Sb  Sb8  1  0.750000  0.855880  0.817251  1
  Sb  Sb9  1  0.250000  0.863116  0.675673  1
  Sb  Sb10  1  0.250000  0.145077  0.475196  1
  Sb  Sb11  1  0.750000  0.287730  0.932773  1
  Sb  Sb12  1  0.250000  0.148948  0.781294  1
  Sb  Sb13  1  0.750000  0.576125  0.440402  1
  Sb  Sb14  1  0.750000  0.137005  0.324269  1
  Sb  Sb15  1  0.250000  0.703690  0.352696  1
  Sb  Sb16  1  0.750000  0.296658  0.648471  1
  Sb  Sb17  1  0.750000  0.851986  0.218688  1
  Sb  Sb18  1  0.250000  0.419844  0.971003  1
  Sb  Sb19  1  0.250000  0.424120  0.560635  1
  Sb  Sb20  1  0.750000  0.569845  0.738124  1
  Sb  Sb21  1  0.250000  0.427590  0.262415  1
  Sb  Sb22  1  0.750000  0.854937  0.524836  1
  Sb  Sb23  1  0.750000  0.035796  0.886931  1
  Sb  Sb24  1  0.250000  0.712506  0.065603  1
  Sb  Sb25  1  0.250000  0.964496  0.113254  1
  Sb  Sb26  1  0.250000  0.144379  0.182730  1
  Sb  Sb27  1  0.750000  0.580257  0.027580  1
