# generated using pymatgen
data_TbSm(ZnPb)2
_symmetry_space_group_name_H-M   'P 1'
_cell_length_a   4.64464300
_cell_length_b   4.64464340
_cell_length_c   16.07351200
_cell_angle_alpha   90.00000000
_cell_angle_beta   90.00000000
_cell_angle_gamma   120.00000429
_symmetry_Int_Tables_number   1
_chemical_formula_structural   TbSm(ZnPb)2
_chemical_formula_sum   'Tb2 Sm2 Zn4 Pb4'
_cell_volume   300.29362045
_cell_formula_units_Z   2
loop_
 _symmetry_equiv_pos_site_id
 _symmetry_equiv_pos_as_xyz
  1  'x, y, z'
loop_
 _atom_site_type_symbol
 _atom_site_label
 _atom_site_symmetry_multiplicity
 _atom_site_fract_x
 _atom_site_fract_y
 _atom_site_fract_z
 _atom_site_occupancy
  Tb  Tb0  1  0.000000  0.000000  0.250000  1
  Tb  Tb1  1  0.000000  0.000000  0.750000  1
  Sm  Sm2  1  0.000000  0.000000  0.000000  1
  Sm  Sm3  1  0.000000  0.000000  0.500000  1
  Zn  Zn4  1  0.666667  0.333334  0.164834  1
  Zn  Zn5  1  0.666667  0.333334  0.335166  1
  Zn  Zn6  1  0.333333  0.666666  0.664834  1
  Zn  Zn7  1  0.333333  0.666666  0.835166  1
  Pb  Pb8  1  0.333333  0.666666  0.111530  1
  Pb  Pb9  1  0.333333  0.666666  0.388470  1
  Pb  Pb10  1  0.666667  0.333334  0.611530  1
  Pb  Pb11  1  0.666667  0.333334  0.888470  1
