# generated using pymatgen
data_NdTh(SnSe)2
_symmetry_space_group_name_H-M   'P 1'
_cell_length_a   4.19023200
_cell_length_b   4.19023200
_cell_length_c   9.20585900
_cell_angle_alpha   90.00000000
_cell_angle_beta   90.00000000
_cell_angle_gamma   90.00000000
_symmetry_Int_Tables_number   1
_chemical_formula_structural   NdTh(SnSe)2
_chemical_formula_sum   'Nd1 Th1 Sn2 Se2'
_cell_volume   161.63687935
_cell_formula_units_Z   1
loop_
 _symmetry_equiv_pos_site_id
 _symmetry_equiv_pos_as_xyz
  1  'x, y, z'
loop_
 _atom_site_type_symbol
 _atom_site_label
 _atom_site_symmetry_multiplicity
 _atom_site_fract_x
 _atom_site_fract_y
 _atom_site_fract_z
 _atom_site_occupancy
  Nd  Nd0  1  0.000000  0.500000  0.708766  1
  Th  Th1  1  0.500000  0.000000  0.293918  1
  Sn  Sn2  1  0.000000  0.000000  0.003039  1
  Sn  Sn3  1  0.500000  0.500000  0.003039  1
  Se  Se4  1  0.000000  0.500000  0.367878  1
  Se  Se5  1  0.500000  0.000000  0.623358  1
