# generated using pymatgen
data_Eu10Zn3Hg2Ru
_symmetry_space_group_name_H-M   'P 1'
_cell_length_a   9.40371196
_cell_length_b   9.40371313
_cell_length_c   9.31521200
_cell_angle_alpha   128.57371017
_cell_angle_beta   128.57371583
_cell_angle_gamma   76.39034262
_symmetry_Int_Tables_number   1
_chemical_formula_structural   Eu10Zn3Hg2Ru
_chemical_formula_sum   'Eu10 Zn3 Hg2 Ru1'
_cell_volume   487.35907238
_cell_formula_units_Z   1
loop_
 _symmetry_equiv_pos_site_id
 _symmetry_equiv_pos_as_xyz
  1  'x, y, z'
loop_
 _atom_site_type_symbol
 _atom_site_label
 _atom_site_symmetry_multiplicity
 _atom_site_fract_x
 _atom_site_fract_y
 _atom_site_fract_z
 _atom_site_occupancy
  Eu  Eu0  1  0.491458  0.502905  0.994364  1
  Eu  Eu1  1  0.002905  0.991458  0.994364  1
  Eu  Eu2  1  0.524639  0.024639  0.836243  1
  Eu  Eu3  1  0.180343  0.680343  0.138057  1
  Eu  Eu4  1  0.027189  0.204186  0.514682  1
  Eu  Eu5  1  0.704186  0.527189  0.514682  1
  Eu  Eu6  1  0.457711  0.957711  0.138057  1
  Eu  Eu7  1  0.811605  0.311605  0.836243  1
  Eu  Eu8  1  0.987493  0.810495  0.514682  1
  Eu  Eu9  1  0.310495  0.487493  0.514682  1
  Zn  Zn10  1  0.883780  0.383780  0.267562  1
  Zn  Zn11  1  0.618343  0.878775  0.497119  1
  Zn  Zn12  1  0.378775  0.118343  0.497119  1
  Hg  Hg13  1  0.253782  0.253782  0.007566  1
  Hg  Hg14  1  0.753782  0.753782  0.007566  1
  Ru  Ru15  1  0.113509  0.613509  0.727018  1
