# generated using pymatgen
data_Dy5Hf2P12Ir11Rh6
_symmetry_space_group_name_H-M   'P 1'
_cell_length_a   12.68151887
_cell_length_b   12.88479331
_cell_length_c   3.95831200
_cell_angle_alpha   90.00000000
_cell_angle_beta   90.00000000
_cell_angle_gamma   119.52205887
_symmetry_Int_Tables_number   1
_chemical_formula_structural   Dy5Hf2P12Ir11Rh6
_chemical_formula_sum   'Dy5 Hf2 P12 Ir11 Rh6'
_cell_volume   562.80880839
_cell_formula_units_Z   1
loop_
 _symmetry_equiv_pos_site_id
 _symmetry_equiv_pos_as_xyz
  1  'x, y, z'
loop_
 _atom_site_type_symbol
 _atom_site_label
 _atom_site_symmetry_multiplicity
 _atom_site_fract_x
 _atom_site_fract_y
 _atom_site_fract_z
 _atom_site_occupancy
  Dy  Dy0  1  0.329747  0.661891  0.500000  1
  Dy  Dy1  1  0.667693  0.337647  0.500000  1
  Dy  Dy2  1  0.000672  0.814417  0.000000  1
  Dy  Dy3  1  0.185741  0.185653  0.000000  1
  Dy  Dy4  1  0.811039  0.000758  0.000000  1
  Hf  Hf5  1  0.998109  0.446135  0.500000  1
  Hf  Hf6  1  0.551220  0.554244  0.500000  1
  P  P7  1  0.005437  0.650152  0.500000  1
  P  P8  1  0.354785  0.349825  0.500000  1
  P  P9  1  0.640119  0.999338  0.500000  1
  P  P10  1  0.515533  0.686367  0.000000  1
  P  P11  1  0.312395  0.827776  0.000000  1
  P  P12  1  0.165015  0.482185  0.000000  1
  P  P13  1  0.484261  0.171888  0.000000  1
  P  P14  1  0.683650  0.518599  0.000000  1
  P  P15  1  0.828956  0.313377  0.000000  1
  P  P16  1  0.998688  0.173919  0.500000  1
  P  P17  1  0.825884  0.825875  0.500000  1
  P  P18  1  0.182647  0.998899  0.500000  1
  Ir  Ir19  1  0.125644  0.644227  0.000000  1
  Ir  Ir20  1  0.355860  0.493563  0.000000  1
  Ir  Ir21  1  0.483012  0.356503  0.000000  1
  Ir  Ir22  1  0.860546  0.503916  0.000000  1
  Ir  Ir23  1  0.642588  0.135823  0.000000  1
  Ir  Ir24  1  0.997614  0.278360  0.000000  1
  Ir  Ir25  1  0.719324  0.721686  0.000000  1
  Ir  Ir26  1  0.287911  0.000099  0.000000  1
  Ir  Ir27  1  0.809999  0.631790  0.500000  1
  Ir  Ir28  1  0.817413  0.192210  0.500000  1
  Ir  Ir29  1  0.004983  0.000725  0.500000  1
  Rh  Rh30  1  0.506345  0.863447  0.000000  1
  Rh  Rh31  1  0.461337  0.002796  0.500000  1
  Rh  Rh32  1  0.625665  0.807660  0.500000  1
  Rh  Rh33  1  0.203557  0.824582  0.500000  1
  Rh  Rh34  1  0.177520  0.368356  0.500000  1
  Rh  Rh35  1  0.379095  0.175311  0.500000  1
