# generated using pymatgen
data_LaPrZnSiI2
_symmetry_space_group_name_H-M   'P 1'
_cell_length_a   4.26196700
_cell_length_b   4.26196752
_cell_length_c   12.37971600
_cell_angle_alpha   90.00000000
_cell_angle_beta   90.00000000
_cell_angle_gamma   120.00000375
_symmetry_Int_Tables_number   1
_chemical_formula_structural   LaPrZnSiI2
_chemical_formula_sum   'La1 Pr1 Zn1 Si1 I2'
_cell_volume   194.74284712
_cell_formula_units_Z   1
loop_
 _symmetry_equiv_pos_site_id
 _symmetry_equiv_pos_as_xyz
  1  'x, y, z'
loop_
 _atom_site_type_symbol
 _atom_site_label
 _atom_site_symmetry_multiplicity
 _atom_site_fract_x
 _atom_site_fract_y
 _atom_site_fract_z
 _atom_site_occupancy
  La  La0  1  0.000000  0.000000  0.828101  1
  Pr  Pr1  1  0.000000  0.000000  0.169736  1
  Zn  Zn2  1  0.333333  0.666667  0.021499  1
  Si  Si3  1  0.666667  0.333333  0.983981  1
  I  I4  1  0.333333  0.666667  0.655002  1
  I  I5  1  0.666667  0.333333  0.341682  1
