# generated using pymatgen
data_Pr4P7Ir5Rh3
_symmetry_space_group_name_H-M   'P 1'
_cell_length_a   3.99688300
_cell_length_b   12.89244018
_cell_length_c   13.28272229
_cell_angle_alpha   80.72418294
_cell_angle_beta   90.00000000
_cell_angle_gamma   90.00000000
_symmetry_Int_Tables_number   1
_chemical_formula_structural   Pr4P7Ir5Rh3
_chemical_formula_sum   'Pr8 P14 Ir10 Rh6'
_cell_volume   675.50301464
_cell_formula_units_Z   2
loop_
 _symmetry_equiv_pos_site_id
 _symmetry_equiv_pos_as_xyz
  1  'x, y, z'
loop_
 _atom_site_type_symbol
 _atom_site_label
 _atom_site_symmetry_multiplicity
 _atom_site_fract_x
 _atom_site_fract_y
 _atom_site_fract_z
 _atom_site_occupancy
  Pr  Pr0  1  0.750000  0.791003  0.561514  1
  Pr  Pr1  1  0.250000  0.208997  0.438486  1
  Pr  Pr2  1  0.750000  0.482292  0.707216  1
  Pr  Pr3  1  0.250000  0.517708  0.292784  1
  Pr  Pr4  1  0.750000  0.720455  0.897377  1
  Pr  Pr5  1  0.250000  0.104707  0.789242  1
  Pr  Pr6  1  0.750000  0.895293  0.210758  1
  Pr  Pr7  1  0.250000  0.279545  0.102623  1
  P  P8  1  0.250000  0.909462  0.408386  1
  P  P9  1  0.750000  0.473805  0.127362  1
  P  P10  1  0.250000  0.526195  0.872638  1
  P  P11  1  0.750000  0.090538  0.591614  1
  P  P12  1  0.250000  0.742234  0.080997  1
  P  P13  1  0.750000  0.257766  0.919003  1
  P  P14  1  0.750000  0.155637  0.280117  1
  P  P15  1  0.250000  0.844363  0.719883  1
  P  P16  1  0.250000  0.052539  0.098407  1
  P  P17  1  0.750000  0.947461  0.901593  1
  P  P18  1  0.250000  0.314316  0.689403  1
  P  P19  1  0.750000  0.685684  0.310597  1
  P  P20  1  0.250000  0.607514  0.561511  1
  P  P21  1  0.750000  0.392486  0.438489  1
  Ir  Ir22  1  0.250000  0.060839  0.272575  1
  Ir  Ir23  1  0.750000  0.939161  0.727425  1
  Ir  Ir24  1  0.250000  0.423157  0.527769  1
  Ir  Ir25  1  0.750000  0.576843  0.472231  1
  Ir  Ir26  1  0.250000  0.915946  0.998090  1
  Ir  Ir27  1  0.750000  0.084054  0.001910  1
  Ir  Ir28  1  0.250000  0.729258  0.393143  1
  Ir  Ir29  1  0.750000  0.270742  0.606857  1
  Ir  Ir30  1  0.250000  0.342542  0.859812  1
  Ir  Ir31  1  0.750000  0.657458  0.140188  1
  Rh  Rh32  1  0.250000  0.987725  0.576018  1
  Rh  Rh33  1  0.750000  0.012275  0.423982  1
  Rh  Rh34  1  0.250000  0.662918  0.729682  1
  Rh  Rh35  1  0.750000  0.337082  0.270318  1
  Rh  Rh36  1  0.250000  0.551187  0.046596  1
  Rh  Rh37  1  0.750000  0.448813  0.953404  1
