# generated using pymatgen
data_Pr5Nd5Bi2(Pb2Br)2
_symmetry_space_group_name_H-M   'P 1'
_cell_length_a   9.69196500
_cell_length_b   9.66016020
_cell_length_c   6.84159300
_cell_angle_alpha   90.00000000
_cell_angle_beta   90.00000000
_cell_angle_gamma   120.10896711
_symmetry_Int_Tables_number   1
_chemical_formula_structural   Pr5Nd5Bi2(Pb2Br)2
_chemical_formula_sum   'Pr5 Nd5 Bi2 Pb4 Br2'
_cell_volume   554.12292525
_cell_formula_units_Z   1
loop_
 _symmetry_equiv_pos_site_id
 _symmetry_equiv_pos_as_xyz
  1  'x, y, z'
loop_
 _atom_site_type_symbol
 _atom_site_label
 _atom_site_symmetry_multiplicity
 _atom_site_fract_x
 _atom_site_fract_y
 _atom_site_fract_z
 _atom_site_occupancy
  Pr  Pr0  1  0.732279  0.000000  0.250000  1
  Pr  Pr1  1  0.999860  0.267733  0.750000  1
  Pr  Pr2  1  0.003196  0.736080  0.250000  1
  Pr  Pr3  1  0.732127  0.732267  0.750000  1
  Pr  Pr4  1  0.267117  0.263920  0.250000  1
  Nd  Nd5  1  0.267814  0.000000  0.750000  1
  Nd  Nd6  1  0.333323  0.667667  0.500358  1
  Nd  Nd7  1  0.665657  0.332333  0.500358  1
  Nd  Nd8  1  0.665657  0.332333  0.999642  1
  Nd  Nd9  1  0.333323  0.667667  0.999642  1
  Bi  Bi10  1  0.000284  0.386812  0.250000  1
  Bi  Bi11  1  0.613473  0.613188  0.250000  1
  Pb  Pb12  1  0.612870  0.000000  0.750000  1
  Pb  Pb13  1  0.387903  0.000000  0.250000  1
  Pb  Pb14  1  0.000580  0.615348  0.750000  1
  Pb  Pb15  1  0.385232  0.384652  0.750000  1
  Br  Br16  1  0.999652  0.000000  0.500099  1
  Br  Br17  1  0.999652  0.000000  0.999901  1
