# generated using pymatgen
data_Tb6Ge11PRh18
_symmetry_space_group_name_H-M   'P 1'
_cell_length_a   4.03669200
_cell_length_b   11.60381555
_cell_length_c   13.13595932
_cell_angle_alpha   89.82492554
_cell_angle_beta   90.00000000
_cell_angle_gamma   90.00000000
_symmetry_Int_Tables_number   1
_chemical_formula_structural   Tb6Ge11PRh18
_chemical_formula_sum   'Tb6 Ge11 P1 Rh18'
_cell_volume   615.29898436
_cell_formula_units_Z   1
loop_
 _symmetry_equiv_pos_site_id
 _symmetry_equiv_pos_as_xyz
  1  'x, y, z'
loop_
 _atom_site_type_symbol
 _atom_site_label
 _atom_site_symmetry_multiplicity
 _atom_site_fract_x
 _atom_site_fract_y
 _atom_site_fract_z
 _atom_site_occupancy
  Tb  Tb0  1  0.000000  0.499488  0.524164  1
  Tb  Tb1  1  0.500000  0.001469  0.474952  1
  Tb  Tb2  1  0.500000  0.813629  0.204978  1
  Tb  Tb3  1  0.500000  0.188594  0.201774  1
  Tb  Tb4  1  0.000000  0.685648  0.797549  1
  Tb  Tb5  1  0.000000  0.314753  0.793879  1
  Ge  Ge6  1  0.500000  0.497353  0.878146  1
  Ge  Ge7  1  0.000000  0.999463  0.126121  1
  Ge  Ge8  1  0.500000  0.499671  0.343283  1
  Ge  Ge9  1  0.000000  0.001033  0.656278  1
  Ge  Ge10  1  0.500000  0.308227  0.614771  1
  Ge  Ge11  1  0.500000  0.692548  0.618728  1
  Ge  Ge12  1  0.000000  0.194629  0.379180  1
  Ge  Ge13  1  0.000000  0.805761  0.383488  1
  Ge  Ge14  1  0.500000  0.852573  0.894495  1
  Ge  Ge15  1  0.500000  0.150521  0.894529  1
  Ge  Ge16  1  0.000000  0.649005  0.106612  1
  P  P17  1  0.000000  0.344933  0.100908  1
  Rh  Rh18  1  0.500000  0.503409  0.155173  1
  Rh  Rh19  1  0.000000  0.002004  0.845334  1
  Rh  Rh20  1  0.500000  0.499196  0.693405  1
  Rh  Rh21  1  0.000000  0.999108  0.310247  1
  Rh  Rh22  1  0.000000  0.493761  0.984436  1
  Rh  Rh23  1  0.500000  0.001349  0.023469  1
  Rh  Rh24  1  0.500000  0.331409  0.999944  1
  Rh  Rh25  1  0.500000  0.667108  0.988198  1
  Rh  Rh26  1  0.000000  0.170650  0.013455  1
  Rh  Rh27  1  0.000000  0.831676  0.011371  1
  Rh  Rh28  1  0.500000  0.303525  0.425919  1
  Rh  Rh29  1  0.500000  0.696972  0.431247  1
  Rh  Rh30  1  0.000000  0.199207  0.567176  1
  Rh  Rh31  1  0.000000  0.802266  0.570660  1
  Rh  Rh32  1  0.500000  0.879368  0.710658  1
  Rh  Rh33  1  0.500000  0.123314  0.710011  1
  Rh  Rh34  1  0.000000  0.620388  0.290235  1
  Rh  Rh35  1  0.000000  0.375997  0.275230  1
