# generated using pymatgen
data_La2GaGe3Pt2
_symmetry_space_group_name_H-M   'P 1'
_cell_length_a   9.10561228
_cell_length_b   9.10561248
_cell_length_c   4.38702100
_cell_angle_alpha   90.00000000
_cell_angle_beta   90.00000000
_cell_angle_gamma   28.25948100
_symmetry_Int_Tables_number   1
_chemical_formula_structural   La2GaGe3Pt2
_chemical_formula_sum   'La2 Ga1 Ge3 Pt2'
_cell_volume   172.21711195
_cell_formula_units_Z   1
loop_
 _symmetry_equiv_pos_site_id
 _symmetry_equiv_pos_as_xyz
  1  'x, y, z'
loop_
 _atom_site_type_symbol
 _atom_site_label
 _atom_site_symmetry_multiplicity
 _atom_site_fract_x
 _atom_site_fract_y
 _atom_site_fract_z
 _atom_site_occupancy
  La  La0  1  0.109047  0.109047  0.250000  1
  La  La1  1  0.891015  0.891015  0.750000  1
  Ga  Ga2  1  0.751650  0.751650  0.250000  1
  Ge  Ge3  1  0.249205  0.249205  0.750000  1
  Ge  Ge4  1  0.462117  0.462117  0.250000  1
  Ge  Ge5  1  0.537249  0.537249  0.750000  1
  Pt  Pt6  1  0.322313  0.322313  0.250000  1
  Pt  Pt7  1  0.677406  0.677406  0.750000  1
