# generated using pymatgen
data_UTeH
_symmetry_space_group_name_H-M   'P 1'
_cell_length_a   3.93842552
_cell_length_b   3.94076449
_cell_length_c   4.40266329
_cell_angle_alpha   90.00306187
_cell_angle_beta   90.00160494
_cell_angle_gamma   59.95866132
_symmetry_Int_Tables_number   1
_chemical_formula_structural   UTeH
_chemical_formula_sum   'U1 Te1 H1'
_cell_volume   59.15182704
_cell_formula_units_Z   1
loop_
 _symmetry_equiv_pos_site_id
 _symmetry_equiv_pos_as_xyz
  1  'x, y, z'
loop_
 _atom_site_type_symbol
 _atom_site_label
 _atom_site_symmetry_multiplicity
 _atom_site_fract_x
 _atom_site_fract_y
 _atom_site_fract_z
 _atom_site_occupancy
  U  U0  1  0.999946  0.000017  0.833615  1
  Te  Te1  1  0.332680  0.333497  0.333523  1
  H  H2  1  0.667375  0.666485  0.832860  1
