# generated using pymatgen
data_Sc8Tc2B24RuRh
_symmetry_space_group_name_H-M   'P 1'
_cell_length_a   3.50028600
_cell_length_b   8.88212455
_cell_length_c   11.19651769
_cell_angle_alpha   90.04021393
_cell_angle_beta   90.00000000
_cell_angle_gamma   90.00000000
_symmetry_Int_Tables_number   1
_chemical_formula_structural   Sc8Tc2B24RuRh
_chemical_formula_sum   'Sc8 Tc2 B24 Ru1 Rh1'
_cell_volume   348.09938277
_cell_formula_units_Z   1
loop_
 _symmetry_equiv_pos_site_id
 _symmetry_equiv_pos_as_xyz
  1  'x, y, z'
loop_
 _atom_site_type_symbol
 _atom_site_label
 _atom_site_symmetry_multiplicity
 _atom_site_fract_x
 _atom_site_fract_y
 _atom_site_fract_z
 _atom_site_occupancy
  Sc  Sc0  1  0.000000  0.945860  0.372352  1
  Sc  Sc1  1  0.000000  0.055908  0.627928  1
  Sc  Sc2  1  0.000000  0.555678  0.872005  1
  Sc  Sc3  1  0.000000  0.183586  0.913104  1
  Sc  Sc4  1  0.000000  0.824134  0.083115  1
  Sc  Sc5  1  0.000000  0.678991  0.589524  1
  Sc  Sc6  1  0.000000  0.313473  0.414601  1
  Sc  Sc7  1  0.000000  0.442248  0.126703  1
  Tc  Tc8  1  0.000000  0.139039  0.180174  1
  Tc  Tc9  1  0.000000  0.360950  0.679451  1
  B  B10  1  0.500000  0.370359  0.817544  1
  B  B11  1  0.500000  0.979022  0.212454  1
  B  B12  1  0.500000  0.554023  0.435454  1
  B  B13  1  0.500000  0.295124  0.236833  1
  B  B14  1  0.500000  0.205326  0.736414  1
  B  B15  1  0.500000  0.099446  0.472687  1
  B  B16  1  0.500000  0.794343  0.263842  1
  B  B17  1  0.500000  0.446670  0.564287  1
  B  B18  1  0.500000  0.247226  0.578811  1
  B  B19  1  0.500000  0.480190  0.286976  1
  B  B20  1  0.500000  0.705609  0.764415  1
  B  B21  1  0.500000  0.752164  0.422515  1
  B  B22  1  0.500000  0.521023  0.712405  1
  B  B23  1  0.500000  0.897552  0.527760  1
  B  B24  1  0.500000  0.053058  0.064567  1
  B  B25  1  0.500000  0.602253  0.027897  1
  B  B26  1  0.500000  0.748206  0.921240  1
  B  B27  1  0.500000  0.019807  0.787227  1
  B  B28  1  0.500000  0.400392  0.972639  1
  B  B29  1  0.500000  0.946284  0.934461  1
  B  B30  1  0.500000  0.630773  0.181154  1
  B  B31  1  0.500000  0.252356  0.078718  1
  B  B32  1  0.500000  0.869266  0.682595  1
  B  B33  1  0.500000  0.129841  0.317983  1
  Ru  Ru34  1  0.000000  0.860384  0.820048  1
  Rh  Rh35  1  0.000000  0.639436  0.320120  1
