# generated using pymatgen
data_Tb3HoCo4(P3Rh4)4
_symmetry_space_group_name_H-M   'P 1'
_cell_length_a   3.85733000
_cell_length_b   10.76334226
_cell_length_c   12.41862930
_cell_angle_alpha   89.97494718
_cell_angle_beta   90.00000000
_cell_angle_gamma   90.00000000
_symmetry_Int_Tables_number   1
_chemical_formula_structural   Tb3HoCo4(P3Rh4)4
_chemical_formula_sum   'Tb3 Ho1 Co4 P12 Rh16'
_cell_volume   515.59365851
_cell_formula_units_Z   1
loop_
 _symmetry_equiv_pos_site_id
 _symmetry_equiv_pos_as_xyz
  1  'x, y, z'
loop_
 _atom_site_type_symbol
 _atom_site_label
 _atom_site_symmetry_multiplicity
 _atom_site_fract_x
 _atom_site_fract_y
 _atom_site_fract_z
 _atom_site_occupancy
  Tb  Tb0  1  0.250000  0.585144  0.707412  1
  Tb  Tb1  1  0.250000  0.914994  0.207788  1
  Tb  Tb2  1  0.750000  0.414906  0.292521  1
  Ho  Ho3  1  0.750000  0.085059  0.792185  1
  Co  Co4  1  0.250000  0.463926  0.933835  1
  Co  Co5  1  0.250000  0.035709  0.434241  1
  Co  Co6  1  0.750000  0.535806  0.066088  1
  Co  Co7  1  0.750000  0.964432  0.566311  1
  P  P8  1  0.250000  0.424090  0.105996  1
  P  P9  1  0.250000  0.075917  0.606080  1
  P  P10  1  0.750000  0.575929  0.894074  1
  P  P11  1  0.750000  0.924053  0.394443  1
  P  P12  1  0.250000  0.271805  0.872235  1
  P  P13  1  0.250000  0.227284  0.372725  1
  P  P14  1  0.750000  0.727538  0.127353  1
  P  P15  1  0.750000  0.772688  0.627321  1
  P  P16  1  0.250000  0.599664  0.388231  1
  P  P17  1  0.250000  0.900819  0.887895  1
  P  P18  1  0.750000  0.400349  0.611791  1
  P  P19  1  0.750000  0.099640  0.111936  1
  Rh  Rh20  1  0.250000  0.716563  0.987580  1
  Rh  Rh21  1  0.250000  0.783929  0.487610  1
  Rh  Rh22  1  0.750000  0.283668  0.012273  1
  Rh  Rh23  1  0.750000  0.216203  0.512441  1
  Rh  Rh24  1  0.250000  0.408129  0.480525  1
  Rh  Rh25  1  0.250000  0.091855  0.979467  1
  Rh  Rh26  1  0.750000  0.591863  0.519581  1
  Rh  Rh27  1  0.750000  0.908279  0.019526  1
  Rh  Rh28  1  0.250000  0.226884  0.177949  1
  Rh  Rh29  1  0.250000  0.272169  0.678469  1
  Rh  Rh30  1  0.750000  0.772938  0.821830  1
  Rh  Rh31  1  0.750000  0.727198  0.321925  1
  Rh  Rh32  1  0.250000  0.887320  0.698908  1
  Rh  Rh33  1  0.250000  0.613608  0.198637  1
  Rh  Rh34  1  0.750000  0.113445  0.301530  1
  Rh  Rh35  1  0.750000  0.386199  0.801288  1
