# generated using pymatgen
data_Ho12Co4RhPb
_symmetry_space_group_name_H-M   'P 1'
_cell_length_a   8.27080907
_cell_length_b   8.27055288
_cell_length_c   8.27080933
_cell_angle_alpha   110.92239388
_cell_angle_beta   110.66435727
_cell_angle_gamma   106.85939285
_symmetry_Int_Tables_number   1
_chemical_formula_structural   Ho12Co4RhPb
_chemical_formula_sum   'Ho12 Co4 Rh1 Pb1'
_cell_volume   434.83665099
_cell_formula_units_Z   1
loop_
 _symmetry_equiv_pos_site_id
 _symmetry_equiv_pos_as_xyz
  1  'x, y, z'
loop_
 _atom_site_type_symbol
 _atom_site_label
 _atom_site_symmetry_multiplicity
 _atom_site_fract_x
 _atom_site_fract_y
 _atom_site_fract_z
 _atom_site_occupancy
  Ho  Ho0  1  0.312830  0.619456  0.306625  1
  Ho  Ho1  1  0.687170  0.380544  0.693375  1
  Ho  Ho2  1  0.312820  0.006221  0.693402  1
  Ho  Ho3  1  0.687180  0.993779  0.306598  1
  Ho  Ho4  1  0.185148  0.289960  0.475107  1
  Ho  Ho5  1  0.814852  0.710040  0.524893  1
  Ho  Ho6  1  0.185148  0.710040  0.895189  1
  Ho  Ho7  1  0.814852  0.289960  0.104811  1
  Ho  Ho8  1  0.408071  0.211742  0.196311  1
  Ho  Ho9  1  0.591929  0.788258  0.803689  1
  Ho  Ho10  1  0.015432  0.211742  0.803672  1
  Ho  Ho11  1  0.984568  0.788258  0.196328  1
  Co  Co12  1  0.111749  0.611753  0.500003  1
  Co  Co13  1  0.888251  0.388247  0.499997  1
  Co  Co14  1  0.378675  0.000000  0.378675  1
  Co  Co15  1  0.621325  0.000000  0.621325  1
  Rh  Rh16  1  0.000000  0.000000  0.000000  1
  Pb  Pb17  1  0.500000  0.500000  0.000000  1
