# generated using pymatgen
data_CaMg3ScNi9As7
_symmetry_space_group_name_H-M   'P 1'
_cell_length_a   3.85458700
_cell_length_b   9.64636636
_cell_length_c   9.64636500
_cell_angle_alpha   119.99999786
_cell_angle_beta   90.00000000
_cell_angle_gamma   90.00000000
_symmetry_Int_Tables_number   1
_chemical_formula_structural   CaMg3ScNi9As7
_chemical_formula_sum   'Ca1 Mg3 Sc1 Ni9 As7'
_cell_volume   310.62466384
_cell_formula_units_Z   1
loop_
 _symmetry_equiv_pos_site_id
 _symmetry_equiv_pos_as_xyz
  1  'x, y, z'
loop_
 _atom_site_type_symbol
 _atom_site_label
 _atom_site_symmetry_multiplicity
 _atom_site_fract_x
 _atom_site_fract_y
 _atom_site_fract_z
 _atom_site_occupancy
  Ca  Ca0  1  0.500000  0.333333  0.666667  1
  Mg  Mg1  1  0.500000  0.773342  0.891195  1
  Mg  Mg2  1  0.500000  0.117853  0.226658  1
  Mg  Mg3  1  0.500000  0.108805  0.882147  1
  Sc  Sc4  1  0.000000  0.666667  0.333333  1
  Ni  Ni5  1  0.000000  0.577851  0.941668  1
  Ni  Ni6  1  0.000000  0.363816  0.422149  1
  Ni  Ni7  1  0.000000  0.058332  0.636184  1
  Ni  Ni8  1  0.000000  0.871021  0.161982  1
  Ni  Ni9  1  0.000000  0.290962  0.128979  1
  Ni  Ni10  1  0.000000  0.838018  0.709038  1
  Ni  Ni11  1  0.500000  0.946741  0.386994  1
  Ni  Ni12  1  0.500000  0.440253  0.053259  1
  Ni  Ni13  1  0.500000  0.613006  0.559747  1
  As  As14  1  0.500000  0.708725  0.133002  1
  As  As15  1  0.500000  0.424279  0.291275  1
  As  As16  1  0.500000  0.866998  0.575721  1
  As  As17  1  0.000000  0.000000  0.000000  1
  As  As18  1  0.000000  0.578558  0.687217  1
  As  As19  1  0.000000  0.108658  0.421442  1
  As  As20  1  0.000000  0.312783  0.891342  1
