# generated using pymatgen
data_YPa3(SnPd2)2
_symmetry_space_group_name_H-M   'P 1'
_cell_length_a   7.74399882
_cell_length_b   7.74399923
_cell_length_c   3.72451400
_cell_angle_alpha   90.00000000
_cell_angle_beta   90.00000000
_cell_angle_gamma   89.48931682
_symmetry_Int_Tables_number   1
_chemical_formula_structural   YPa3(SnPd2)2
_chemical_formula_sum   'Y1 Pa3 Sn2 Pd4'
_cell_volume   223.34844804
_cell_formula_units_Z   1
loop_
 _symmetry_equiv_pos_site_id
 _symmetry_equiv_pos_as_xyz
  1  'x, y, z'
loop_
 _atom_site_type_symbol
 _atom_site_label
 _atom_site_symmetry_multiplicity
 _atom_site_fract_x
 _atom_site_fract_y
 _atom_site_fract_z
 _atom_site_occupancy
  Y  Y0  1  0.323939  0.823939  0.500000  1
  Pa  Pa1  1  0.673758  0.173758  0.500000  1
  Pa  Pa2  1  0.175866  0.324630  0.500000  1
  Pa  Pa3  1  0.824630  0.675866  0.500000  1
  Sn  Sn4  1  0.006512  0.996094  0.000000  1
  Sn  Sn5  1  0.496094  0.506512  0.000000  1
  Pd  Pd6  1  0.867103  0.367103  0.000000  1
  Pd  Pd7  1  0.377339  0.136744  0.000000  1
  Pd  Pd8  1  0.636744  0.877339  0.000000  1
  Pd  Pd9  1  0.118015  0.618015  0.000000  1
