# generated using pymatgen
data_Zr6InSiTe
_symmetry_space_group_name_H-M   'P 1'
_cell_length_a   7.71483500
_cell_length_b   7.71483417
_cell_length_c   3.85221100
_cell_angle_alpha   90.00000000
_cell_angle_beta   90.00000000
_cell_angle_gamma   119.99999071
_symmetry_Int_Tables_number   1
_chemical_formula_structural   Zr6InSiTe
_chemical_formula_sum   'Zr6 In1 Si1 Te1'
_cell_volume   198.56101156
_cell_formula_units_Z   1
loop_
 _symmetry_equiv_pos_site_id
 _symmetry_equiv_pos_as_xyz
  1  'x, y, z'
loop_
 _atom_site_type_symbol
 _atom_site_label
 _atom_site_symmetry_multiplicity
 _atom_site_fract_x
 _atom_site_fract_y
 _atom_site_fract_z
 _atom_site_occupancy
  Zr  Zr0  1  0.241091  0.994213  0.500000  1
  Zr  Zr1  1  0.005787  0.246878  0.500000  1
  Zr  Zr2  1  0.753122  0.758909  0.500000  1
  Zr  Zr3  1  0.614720  0.005925  0.000000  1
  Zr  Zr4  1  0.994075  0.608795  0.000000  1
  Zr  Zr5  1  0.391205  0.385280  0.000000  1
  In  In6  1  0.333333  0.666667  0.500000  1
  Si  Si7  1  0.000000  0.000000  0.000000  1
  Te  Te8  1  0.666667  0.333333  0.500000  1
