# generated using pymatgen
data_La3(NdOs)2
_symmetry_space_group_name_H-M   'P 1'
_cell_length_a   9.01055825
_cell_length_b   9.01055809
_cell_length_c   7.40839411
_cell_angle_alpha   84.39297018
_cell_angle_beta   84.39297181
_cell_angle_gamma   43.89174538
_symmetry_Int_Tables_number   1
_chemical_formula_structural   La3(NdOs)2
_chemical_formula_sum   'La6 Nd4 Os4'
_cell_volume   414.69086080
_cell_formula_units_Z   2
loop_
 _symmetry_equiv_pos_site_id
 _symmetry_equiv_pos_as_xyz
  1  'x, y, z'
loop_
 _atom_site_type_symbol
 _atom_site_label
 _atom_site_symmetry_multiplicity
 _atom_site_fract_x
 _atom_site_fract_y
 _atom_site_fract_z
 _atom_site_occupancy
  La  La0  1  0.017852  0.798754  0.910436  1
  La  La1  1  0.201246  0.982148  0.589564  1
  La  La2  1  0.982916  0.201870  0.091979  1
  La  La3  1  0.798130  0.017084  0.408021  1
  La  La4  1  0.361481  0.210338  0.817895  1
  La  La5  1  0.789662  0.638519  0.682105  1
  Nd  Nd6  1  0.638731  0.791602  0.184183  1
  Nd  Nd7  1  0.208398  0.361269  0.315817  1
  Nd  Nd8  1  0.568834  0.431166  0.750000  1
  Nd  Nd9  1  0.429162  0.570838  0.250000  1
  Os  Os10  1  0.172780  0.605574  0.579679  1
  Os  Os11  1  0.394426  0.827220  0.920321  1
  Os  Os12  1  0.829593  0.393209  0.423326  1
  Os  Os13  1  0.606791  0.170407  0.076674  1
