# generated using pymatgen
data_Yb3Al12(CoOs)2
_symmetry_space_group_name_H-M   'P 1'
_cell_length_a   8.78099466
_cell_length_b   8.78099558
_cell_length_c   9.45005786
_cell_angle_alpha   90.45526668
_cell_angle_beta   89.54473451
_cell_angle_gamma   120.16872714
_symmetry_Int_Tables_number   1
_chemical_formula_structural   Yb3Al12(CoOs)2
_chemical_formula_sum   'Yb6 Al24 Co4 Os4'
_cell_volume   629.93163272
_cell_formula_units_Z   2
loop_
 _symmetry_equiv_pos_site_id
 _symmetry_equiv_pos_as_xyz
  1  'x, y, z'
loop_
 _atom_site_type_symbol
 _atom_site_label
 _atom_site_symmetry_multiplicity
 _atom_site_fract_x
 _atom_site_fract_y
 _atom_site_fract_z
 _atom_site_occupancy
  Yb  Yb0  1  0.198531  0.390748  0.251014  1
  Yb  Yb1  1  0.801469  0.609252  0.748986  1
  Yb  Yb2  1  0.609252  0.801469  0.251014  1
  Yb  Yb3  1  0.390748  0.198531  0.748986  1
  Yb  Yb4  1  0.194818  0.805182  0.253126  1
  Yb  Yb5  1  0.805182  0.194818  0.746874  1
  Al  Al6  1  0.330252  0.669748  0.997059  1
  Al  Al7  1  0.669748  0.330252  0.002941  1
  Al  Al8  1  0.666909  0.333091  0.495676  1
  Al  Al9  1  0.333091  0.666909  0.504324  1
  Al  Al10  1  0.157200  0.316349  0.575898  1
  Al  Al11  1  0.842800  0.683651  0.424102  1
  Al  Al12  1  0.683651  0.842800  0.575898  1
  Al  Al13  1  0.842780  0.682781  0.075285  1
  Al  Al14  1  0.316349  0.157200  0.424102  1
  Al  Al15  1  0.157220  0.317219  0.924715  1
  Al  Al16  1  0.157976  0.842024  0.577964  1
  Al  Al17  1  0.317219  0.157220  0.075285  1
  Al  Al18  1  0.842024  0.157976  0.422036  1
  Al  Al19  1  0.682781  0.842780  0.924715  1
  Al  Al20  1  0.842158  0.157842  0.075780  1
  Al  Al21  1  0.157842  0.842158  0.924220  1
  Al  Al22  1  0.560189  0.117376  0.244091  1
  Al  Al23  1  0.439811  0.882624  0.755909  1
  Al  Al24  1  0.882624  0.439811  0.244091  1
  Al  Al25  1  0.117376  0.560189  0.755909  1
  Al  Al26  1  0.562700  0.437300  0.248514  1
  Al  Al27  1  0.437300  0.562700  0.751486  1
  Al  Al28  1  0.000427  0.999573  0.250032  1
  Al  Al29  1  0.999573  0.000427  0.749968  1
  Co  Co30  1  0.500000  0.000000  0.000000  1
  Co  Co31  1  0.000000  0.500000  0.000000  1
  Co  Co32  1  0.000000  0.000000  0.000000  1
  Co  Co33  1  0.000000  0.000000  0.500000  1
  Os  Os34  1  0.500000  0.000000  0.500000  1
  Os  Os35  1  0.500000  0.500000  0.000000  1
  Os  Os36  1  0.000000  0.500000  0.500000  1
  Os  Os37  1  0.500000  0.500000  0.500000  1
