# generated using pymatgen
data_Hf18Ta6ReNi2W
_symmetry_space_group_name_H-M   'P 1'
_cell_length_a   8.80177100
_cell_length_b   8.80177364
_cell_length_c   8.50710900
_cell_angle_alpha   90.00006845
_cell_angle_beta   89.99997351
_cell_angle_gamma   120.00010505
_symmetry_Int_Tables_number   1
_chemical_formula_structural   Hf18Ta6ReNi2W
_chemical_formula_sum   'Hf18 Ta6 Re1 Ni2 W1'
_cell_volume   570.75855497
_cell_formula_units_Z   1
loop_
 _symmetry_equiv_pos_site_id
 _symmetry_equiv_pos_as_xyz
  1  'x, y, z'
loop_
 _atom_site_type_symbol
 _atom_site_label
 _atom_site_symmetry_multiplicity
 _atom_site_fract_x
 _atom_site_fract_y
 _atom_site_fract_z
 _atom_site_occupancy
  Hf  Hf0  1  0.200828  0.799170  0.441453  1
  Hf  Hf1  1  0.200829  0.401658  0.441452  1
  Hf  Hf2  1  0.598342  0.799170  0.441452  1
  Hf  Hf3  1  0.799172  0.200830  0.558547  1
  Hf  Hf4  1  0.799171  0.598342  0.558548  1
  Hf  Hf5  1  0.401658  0.200830  0.558548  1
  Hf  Hf6  1  0.799134  0.200865  0.940722  1
  Hf  Hf7  1  0.799134  0.598270  0.940722  1
  Hf  Hf8  1  0.401730  0.200864  0.940721  1
  Hf  Hf9  1  0.200866  0.799135  0.059278  1
  Hf  Hf10  1  0.200866  0.401730  0.059278  1
  Hf  Hf11  1  0.598270  0.799136  0.059279  1
  Hf  Hf12  1  0.542087  0.457913  0.248637  1
  Hf  Hf13  1  0.542087  0.084174  0.248637  1
  Hf  Hf14  1  0.915827  0.457913  0.248637  1
  Hf  Hf15  1  0.457913  0.542087  0.751363  1
  Hf  Hf16  1  0.457913  0.915826  0.751363  1
  Hf  Hf17  1  0.084173  0.542087  0.751363  1
  Ta  Ta18  1  0.887326  0.112674  0.248725  1
  Ta  Ta19  1  0.887326  0.774651  0.248725  1
  Ta  Ta20  1  0.225350  0.112674  0.248724  1
  Ta  Ta21  1  0.112674  0.887326  0.751275  1
  Ta  Ta22  1  0.112674  0.225349  0.751275  1
  Ta  Ta23  1  0.774650  0.887326  0.751276  1
  Re  Re24  1  0.000000  0.000000  0.000000  1
  Ni  Ni25  1  0.333333  0.666665  0.250238  1
  Ni  Ni26  1  0.666667  0.333335  0.749762  1
  W  W27  1  0.000000  0.000000  0.500000  1
