# generated using pymatgen
data_SnPF7
_symmetry_space_group_name_H-M   'P 1'
_cell_length_a   7.69149166
_cell_length_b   7.69149175
_cell_length_c   7.69149254
_cell_angle_alpha   72.44103438
_cell_angle_beta   72.44103494
_cell_angle_gamma   72.44103302
_symmetry_Int_Tables_number   1
_chemical_formula_structural   SnPF7
_chemical_formula_sum   'Sn3 P3 F21'
_cell_volume   402.34560876
_cell_formula_units_Z   3
loop_
 _symmetry_equiv_pos_site_id
 _symmetry_equiv_pos_as_xyz
  1  'x, y, z'
loop_
 _atom_site_type_symbol
 _atom_site_label
 _atom_site_symmetry_multiplicity
 _atom_site_fract_x
 _atom_site_fract_y
 _atom_site_fract_z
 _atom_site_occupancy
  Sn  Sn0  1  0.500000  0.234024  0.765976  1
  Sn  Sn1  1  0.765976  0.500000  0.234024  1
  Sn  Sn2  1  0.234024  0.765976  0.500000  1
  P  P3  1  0.701351  0.701351  0.701351  1
  P  P4  1  0.298649  0.298649  0.298649  1
  P  P5  1  0.000000  0.000000  0.000000  1
  F  F6  1  0.314938  0.500000  0.685062  1
  F  F7  1  0.685062  0.314938  0.500000  1
  F  F8  1  0.500000  0.685062  0.314938  1
  F  F9  1  0.794638  0.641195  0.498336  1
  F  F10  1  0.498336  0.794638  0.641195  1
  F  F11  1  0.641195  0.498336  0.794638  1
  F  F12  1  0.140832  0.141819  0.886162  1
  F  F13  1  0.141819  0.886162  0.140832  1
  F  F14  1  0.886162  0.140832  0.141819  1
  F  F15  1  0.858181  0.859168  0.113838  1
  F  F16  1  0.859168  0.113838  0.858181  1
  F  F17  1  0.113838  0.858181  0.859168  1
  F  F18  1  0.240893  0.392068  0.097542  1
  F  F19  1  0.392068  0.097542  0.240893  1
  F  F20  1  0.097542  0.240893  0.392068  1
  F  F21  1  0.607932  0.759107  0.902458  1
  F  F22  1  0.759107  0.902458  0.607932  1
  F  F23  1  0.902458  0.607932  0.759107  1
  F  F24  1  0.501664  0.358805  0.205362  1
  F  F25  1  0.358805  0.205362  0.501664  1
  F  F26  1  0.205362  0.501664  0.358805  1
