# generated using pymatgen
data_Tm3Zr2Sn3
_symmetry_space_group_name_H-M   'P 1'
_cell_length_a   6.07620100
_cell_length_b   8.77934861
_cell_length_c   8.77934902
_cell_angle_alpha   59.97799164
_cell_angle_beta   90.00000000
_cell_angle_gamma   90.00000000
_symmetry_Int_Tables_number   1
_chemical_formula_structural   Tm3Zr2Sn3
_chemical_formula_sum   'Tm6 Zr4 Sn6'
_cell_volume   405.50014661
_cell_formula_units_Z   2
loop_
 _symmetry_equiv_pos_site_id
 _symmetry_equiv_pos_as_xyz
  1  'x, y, z'
loop_
 _atom_site_type_symbol
 _atom_site_label
 _atom_site_symmetry_multiplicity
 _atom_site_fract_x
 _atom_site_fract_y
 _atom_site_fract_z
 _atom_site_occupancy
  Tm  Tm0  1  0.749995  0.239819  0.760181  1
  Tm  Tm1  1  0.750007  0.760247  0.000008  1
  Tm  Tm2  1  0.750007  0.999992  0.239753  1
  Tm  Tm3  1  0.249995  0.760181  0.239819  1
  Tm  Tm4  1  0.250007  0.239753  0.999992  1
  Tm  Tm5  1  0.250007  0.000008  0.760247  1
  Zr  Zr6  1  0.500003  0.333338  0.333333  1
  Zr  Zr7  1  0.500003  0.666667  0.666662  1
  Zr  Zr8  1  0.000003  0.666662  0.666667  1
  Zr  Zr9  1  0.000003  0.333333  0.333338  1
  Sn  Sn10  1  0.750000  0.600119  0.399881  1
  Sn  Sn11  1  0.749993  0.399798  0.000037  1
  Sn  Sn12  1  0.749993  0.999963  0.600202  1
  Sn  Sn13  1  0.250000  0.399881  0.600119  1
  Sn  Sn14  1  0.249993  0.600202  0.999963  1
  Sn  Sn15  1  0.249993  0.000037  0.399798  1
