# generated using pymatgen
data_Tb3HoCd2Cu3Pd
_symmetry_space_group_name_H-M   'P 1'
_cell_length_a   3.73277400
_cell_length_b   7.61990017
_cell_length_c   7.61990048
_cell_angle_alpha   89.54843054
_cell_angle_beta   90.00000000
_cell_angle_gamma   90.00000000
_symmetry_Int_Tables_number   1
_chemical_formula_structural   Tb3HoCd2Cu3Pd
_chemical_formula_sum   'Tb3 Ho1 Cd2 Cu3 Pd1'
_cell_volume   216.72888111
_cell_formula_units_Z   1
loop_
 _symmetry_equiv_pos_site_id
 _symmetry_equiv_pos_as_xyz
  1  'x, y, z'
loop_
 _atom_site_type_symbol
 _atom_site_label
 _atom_site_symmetry_multiplicity
 _atom_site_fract_x
 _atom_site_fract_y
 _atom_site_fract_z
 _atom_site_occupancy
  Tb  Tb0  1  0.500000  0.175982  0.670689  1
  Tb  Tb1  1  0.500000  0.829311  0.324018  1
  Tb  Tb2  1  0.500000  0.671060  0.828940  1
  Ho  Ho3  1  0.500000  0.326106  0.173894  1
  Cd  Cd4  1  0.000000  0.998748  0.995655  1
  Cd  Cd5  1  0.000000  0.504345  0.501252  1
  Cu  Cu6  1  0.000000  0.616669  0.119926  1
  Cu  Cu7  1  0.000000  0.380074  0.883331  1
  Cu  Cu8  1  0.000000  0.875393  0.624607  1
  Pd  Pd9  1  0.000000  0.122313  0.377687  1
