# generated using pymatgen
data_Pr3Cd3SiGeAu
_symmetry_space_group_name_H-M   'P 1'
_cell_length_a   7.47988400
_cell_length_b   7.47988438
_cell_length_c   4.49392900
_cell_angle_alpha   90.00000000
_cell_angle_beta   90.00000000
_cell_angle_gamma   119.99999832
_symmetry_Int_Tables_number   1
_chemical_formula_structural   Pr3Cd3SiGeAu
_chemical_formula_sum   'Pr3 Cd3 Si1 Ge1 Au1'
_cell_volume   217.74419883
_cell_formula_units_Z   1
loop_
 _symmetry_equiv_pos_site_id
 _symmetry_equiv_pos_as_xyz
  1  'x, y, z'
loop_
 _atom_site_type_symbol
 _atom_site_label
 _atom_site_symmetry_multiplicity
 _atom_site_fract_x
 _atom_site_fract_y
 _atom_site_fract_z
 _atom_site_occupancy
  Pr  Pr0  1  0.587237  0.001989  0.000000  1
  Pr  Pr1  1  0.998011  0.585247  0.000000  1
  Pr  Pr2  1  0.414753  0.412763  0.000000  1
  Cd  Cd3  1  0.250467  0.003439  0.500000  1
  Cd  Cd4  1  0.996561  0.247028  0.500000  1
  Cd  Cd5  1  0.752972  0.749533  0.500000  1
  Si  Si6  1  0.666667  0.333333  0.500000  1
  Ge  Ge7  1  0.333333  0.666667  0.500000  1
  Au  Au8  1  0.000000  0.000000  0.000000  1
