# generated using pymatgen
data_La16YbHg3Ir4
_symmetry_space_group_name_H-M   'P 1'
_cell_length_a   10.19009427
_cell_length_b   10.19004964
_cell_length_c   10.19006909
_cell_angle_alpha   60.08420689
_cell_angle_beta   60.08350539
_cell_angle_gamma   60.08378624
_symmetry_Int_Tables_number   1
_chemical_formula_structural   La16YbHg3Ir4
_chemical_formula_sum   'La16 Yb1 Hg3 Ir4'
_cell_volume   749.61950069
_cell_formula_units_Z   1
loop_
 _symmetry_equiv_pos_site_id
 _symmetry_equiv_pos_as_xyz
  1  'x, y, z'
loop_
 _atom_site_type_symbol
 _atom_site_label
 _atom_site_symmetry_multiplicity
 _atom_site_fract_x
 _atom_site_fract_y
 _atom_site_fract_z
 _atom_site_occupancy
  La  La0  1  0.349418  0.349411  0.349412  1
  La  La1  1  0.344962  0.344964  0.967598  1
  La  La2  1  0.344958  0.967602  0.344972  1
  La  La3  1  0.967613  0.344977  0.344958  1
  La  La4  1  0.808264  0.193781  0.193795  1
  La  La5  1  0.184315  0.816036  0.816027  1
  La  La6  1  0.193792  0.808262  0.193790  1
  La  La7  1  0.816050  0.184283  0.816041  1
  La  La8  1  0.193803  0.193779  0.808261  1
  La  La9  1  0.816041  0.816040  0.184300  1
  La  La10  1  0.937452  0.562409  0.562423  1
  La  La11  1  0.560414  0.941430  0.941417  1
  La  La12  1  0.562409  0.937449  0.562426  1
  La  La13  1  0.941428  0.560421  0.941425  1
  La  La14  1  0.562396  0.562426  0.937445  1
  La  La15  1  0.941412  0.941430  0.560431  1
  Yb  Yb16  1  0.559303  0.559298  0.559300  1
  Hg  Hg17  1  0.589610  0.589621  0.230922  1
  Hg  Hg18  1  0.589607  0.230924  0.589613  1
  Hg  Hg19  1  0.230922  0.589623  0.589612  1
  Ir  Ir20  1  0.142161  0.142159  0.142159  1
  Ir  Ir21  1  0.142565  0.142558  0.578550  1
  Ir  Ir22  1  0.142559  0.578555  0.142555  1
  Ir  Ir23  1  0.578546  0.142561  0.142564  1
