# generated using pymatgen
data_Hf3Si4MoRh4
_symmetry_space_group_name_H-M   'P 1'
_cell_length_a   3.88268200
_cell_length_b   6.45650026
_cell_length_c   7.41678242
_cell_angle_alpha   90.53766302
_cell_angle_beta   90.00000000
_cell_angle_gamma   90.00000000
_symmetry_Int_Tables_number   1
_chemical_formula_structural   Hf3Si4MoRh4
_chemical_formula_sum   'Hf3 Si4 Mo1 Rh4'
_cell_volume   185.91970079
_cell_formula_units_Z   1
loop_
 _symmetry_equiv_pos_site_id
 _symmetry_equiv_pos_as_xyz
  1  'x, y, z'
loop_
 _atom_site_type_symbol
 _atom_site_label
 _atom_site_symmetry_multiplicity
 _atom_site_fract_x
 _atom_site_fract_y
 _atom_site_fract_z
 _atom_site_occupancy
  Hf  Hf0  1  0.750000  0.478011  0.822895  1
  Hf  Hf1  1  0.250000  0.021121  0.310641  1
  Hf  Hf2  1  0.750000  0.971217  0.683506  1
  Si  Si3  1  0.250000  0.767291  0.893498  1
  Si  Si4  1  0.750000  0.245159  0.124145  1
  Si  Si5  1  0.250000  0.270914  0.618252  1
  Si  Si6  1  0.750000  0.710163  0.365987  1
  Mo  Mo7  1  0.250000  0.525349  0.177444  1
  Rh  Rh8  1  0.750000  0.861443  0.066975  1
  Rh  Rh9  1  0.250000  0.151074  0.933279  1
  Rh  Rh10  1  0.750000  0.345832  0.440871  1
  Rh  Rh11  1  0.250000  0.652427  0.562507  1
