# generated using pymatgen
data_Tb2Co9Mo3As7
_symmetry_space_group_name_H-M   'P 1'
_cell_length_a   3.86523200
_cell_length_b   9.42821141
_cell_length_c   9.42821200
_cell_angle_alpha   119.99999505
_cell_angle_beta   90.00000000
_cell_angle_gamma   90.00000000
_symmetry_Int_Tables_number   1
_chemical_formula_structural   Tb2Co9Mo3As7
_chemical_formula_sum   'Tb2 Co9 Mo3 As7'
_cell_volume   297.55336861
_cell_formula_units_Z   1
loop_
 _symmetry_equiv_pos_site_id
 _symmetry_equiv_pos_as_xyz
  1  'x, y, z'
loop_
 _atom_site_type_symbol
 _atom_site_label
 _atom_site_symmetry_multiplicity
 _atom_site_fract_x
 _atom_site_fract_y
 _atom_site_fract_z
 _atom_site_occupancy
  Tb  Tb0  1  0.000000  0.666667  0.333333  1
  Tb  Tb1  1  0.500000  0.333333  0.666667  1
  Co  Co2  1  0.000000  0.570329  0.940119  1
  Co  Co3  1  0.000000  0.369791  0.429671  1
  Co  Co4  1  0.000000  0.059881  0.630209  1
  Co  Co5  1  0.000000  0.876679  0.157903  1
  Co  Co6  1  0.000000  0.281224  0.123321  1
  Co  Co7  1  0.000000  0.842097  0.718776  1
  Co  Co8  1  0.500000  0.949573  0.382701  1
  Co  Co9  1  0.500000  0.433127  0.050427  1
  Co  Co10  1  0.500000  0.617299  0.566873  1
  Mo  Mo11  1  0.500000  0.781565  0.902308  1
  Mo  Mo12  1  0.500000  0.120743  0.218435  1
  Mo  Mo13  1  0.500000  0.097692  0.879257  1
  As  As14  1  0.000000  0.000000  0.000000  1
  As  As15  1  0.500000  0.707711  0.119241  1
  As  As16  1  0.500000  0.411532  0.292289  1
  As  As17  1  0.500000  0.880759  0.588468  1
  As  As18  1  0.000000  0.586274  0.698925  1
  As  As19  1  0.000000  0.112653  0.413726  1
  As  As20  1  0.000000  0.301075  0.887347  1
