# generated using pymatgen
data_Ta4Fe3CoP4
_symmetry_space_group_name_H-M   'P 1'
_cell_length_a   3.58394800
_cell_length_b   6.11573155
_cell_length_c   6.96198119
_cell_angle_alpha   90.23175519
_cell_angle_beta   90.00000000
_cell_angle_gamma   90.00000000
_symmetry_Int_Tables_number   1
_chemical_formula_structural   Ta4Fe3CoP4
_chemical_formula_sum   'Ta4 Fe3 Co1 P4'
_cell_volume   152.59468477
_cell_formula_units_Z   1
loop_
 _symmetry_equiv_pos_site_id
 _symmetry_equiv_pos_as_xyz
  1  'x, y, z'
loop_
 _atom_site_type_symbol
 _atom_site_label
 _atom_site_symmetry_multiplicity
 _atom_site_fract_x
 _atom_site_fract_y
 _atom_site_fract_z
 _atom_site_occupancy
  Ta  Ta0  1  0.250000  0.524417  0.674501  1
  Ta  Ta1  1  0.250000  0.023252  0.823461  1
  Ta  Ta2  1  0.750000  0.976958  0.176286  1
  Ta  Ta3  1  0.750000  0.477801  0.326859  1
  Fe  Fe4  1  0.250000  0.140411  0.436956  1
  Fe  Fe5  1  0.750000  0.858066  0.563849  1
  Fe  Fe6  1  0.250000  0.640125  0.061793  1
  Co  Co7  1  0.750000  0.357142  0.936172  1
  P  P8  1  0.250000  0.776980  0.379877  1
  P  P9  1  0.250000  0.276291  0.122697  1
  P  P10  1  0.750000  0.222782  0.617693  1
  P  P11  1  0.750000  0.725776  0.879857  1
