# generated using pymatgen
data_Ca2Pd2Au5
_symmetry_space_group_name_H-M   'P 1'
_cell_length_a   5.44225319
_cell_length_b   5.44696336
_cell_length_c   13.95812100
_cell_angle_alpha   90.00000000
_cell_angle_beta   90.00000000
_cell_angle_gamma   119.62124193
_symmetry_Int_Tables_number   1
_chemical_formula_structural   Ca2Pd2Au5
_chemical_formula_sum   'Ca4 Pd4 Au10'
_cell_volume   359.69607800
_cell_formula_units_Z   2
loop_
 _symmetry_equiv_pos_site_id
 _symmetry_equiv_pos_as_xyz
  1  'x, y, z'
loop_
 _atom_site_type_symbol
 _atom_site_label
 _atom_site_symmetry_multiplicity
 _atom_site_fract_x
 _atom_site_fract_y
 _atom_site_fract_z
 _atom_site_occupancy
  Ca  Ca0  1  0.320879  0.320149  0.118439  1
  Ca  Ca1  1  0.679121  0.679851  0.618439  1
  Ca  Ca2  1  0.320879  0.320149  0.381561  1
  Ca  Ca3  1  0.679121  0.679851  0.881561  1
  Pd  Pd4  1  0.829987  0.830060  0.250000  1
  Pd  Pd5  1  0.170013  0.169940  0.750000  1
  Pd  Pd6  1  0.823070  0.327927  0.250000  1
  Pd  Pd7  1  0.176930  0.672073  0.750000  1
  Au  Au8  1  0.328341  0.823461  0.250000  1
  Au  Au9  1  0.671659  0.176539  0.750000  1
  Au  Au10  1  0.978739  0.657365  0.077534  1
  Au  Au11  1  0.021261  0.342635  0.577534  1
  Au  Au12  1  0.670670  0.993365  0.423146  1
  Au  Au13  1  0.329330  0.006635  0.923146  1
  Au  Au14  1  0.021261  0.342635  0.922466  1
  Au  Au15  1  0.978739  0.657365  0.422466  1
  Au  Au16  1  0.329330  0.006635  0.576854  1
  Au  Au17  1  0.670670  0.993365  0.076854  1
