# generated using pymatgen
data_Zr2VSn(SeO3)8
_symmetry_space_group_name_H-M   'P 1'
_cell_length_a   8.46919308
_cell_length_b   8.58051077
_cell_length_c   8.41558382
_cell_angle_alpha   89.60591741
_cell_angle_beta   89.99352823
_cell_angle_gamma   90.11313694
_symmetry_Int_Tables_number   1
_chemical_formula_structural   Zr2VSn(SeO3)8
_chemical_formula_sum   'Zr2 V1 Sn1 Se8 O24'
_cell_volume   611.54483425
_cell_formula_units_Z   1
loop_
 _symmetry_equiv_pos_site_id
 _symmetry_equiv_pos_as_xyz
  1  'x, y, z'
loop_
 _atom_site_type_symbol
 _atom_site_label
 _atom_site_symmetry_multiplicity
 _atom_site_fract_x
 _atom_site_fract_y
 _atom_site_fract_z
 _atom_site_occupancy
  Zr  Zr0  1  0.000000  0.000000  0.500000  1
  Zr  Zr1  1  0.500000  0.000000  0.000000  1
  V  V2  1  0.500000  0.500000  0.500000  1
  Sn  Sn3  1  0.000000  0.500000  0.000000  1
  Se  Se4  1  0.314425  0.662849  0.200034  1
  Se  Se5  1  0.805223  0.337454  0.309682  1
  Se  Se6  1  0.674299  0.796217  0.670936  1
  Se  Se7  1  0.173348  0.194606  0.832302  1
  Se  Se8  1  0.685575  0.337151  0.799966  1
  Se  Se9  1  0.194777  0.662546  0.690318  1
  Se  Se10  1  0.325701  0.203783  0.329064  1
  Se  Se11  1  0.826652  0.805394  0.167698  1
  O  O12  1  0.238014  0.544473  0.052025  1
  O  O13  1  0.724808  0.450933  0.458080  1
  O  O14  1  0.765704  0.940675  0.561562  1
  O  O15  1  0.264531  0.048132  0.938895  1
  O  O16  1  0.535061  0.902713  0.770710  1
  O  O17  1  0.454783  0.531541  0.272862  1
  O  O18  1  0.945193  0.472105  0.240307  1
  O  O19  1  0.034638  0.089250  0.730018  1
  O  O20  1  0.926073  0.221613  0.423597  1
  O  O21  1  0.556778  0.717794  0.519427  1
  O  O22  1  0.435964  0.778834  0.086062  1
  O  O23  1  0.052800  0.264858  0.984134  1
  O  O24  1  0.761986  0.455527  0.947975  1
  O  O25  1  0.275192  0.549067  0.541920  1
  O  O26  1  0.234296  0.059325  0.438438  1
  O  O27  1  0.735469  0.951868  0.061105  1
  O  O28  1  0.464939  0.097287  0.229290  1
  O  O29  1  0.545217  0.468459  0.727138  1
  O  O30  1  0.054807  0.527895  0.759693  1
  O  O31  1  0.965362  0.910750  0.269982  1
  O  O32  1  0.073927  0.778387  0.576403  1
  O  O33  1  0.443222  0.282206  0.480573  1
  O  O34  1  0.564036  0.221166  0.913938  1
  O  O35  1  0.947200  0.735142  0.015866  1
