# generated using pymatgen
data_Mn4Ga4Co5Ni3
_symmetry_space_group_name_H-M   'P 1'
_cell_length_a   5.72900900
_cell_length_b   5.82046700
_cell_length_c   5.74623500
_cell_angle_alpha   90.00000000
_cell_angle_beta   90.00000000
_cell_angle_gamma   90.00000000
_symmetry_Int_Tables_number   1
_chemical_formula_structural   Mn4Ga4Co5Ni3
_chemical_formula_sum   'Mn4 Ga4 Co5 Ni3'
_cell_volume   191.61112417
_cell_formula_units_Z   1
loop_
 _symmetry_equiv_pos_site_id
 _symmetry_equiv_pos_as_xyz
  1  'x, y, z'
loop_
 _atom_site_type_symbol
 _atom_site_label
 _atom_site_symmetry_multiplicity
 _atom_site_fract_x
 _atom_site_fract_y
 _atom_site_fract_z
 _atom_site_occupancy
  Mn  Mn0  1  0.001333  0.997387  0.501273  1
  Mn  Mn1  1  0.498666  0.502612  0.501273  1
  Mn  Mn2  1  0.498666  0.997387  0.998727  1
  Mn  Mn3  1  0.001333  0.502612  0.998727  1
  Ga  Ga4  1  0.499657  0.500959  0.999611  1
  Ga  Ga5  1  0.499657  0.999040  0.500389  1
  Ga  Ga6  1  0.000342  0.500959  0.500389  1
  Ga  Ga7  1  0.000342  0.999040  0.999611  1
  Co  Co8  1  0.750000  0.750000  0.750001  1
  Co  Co9  1  0.250000  0.750000  0.750001  1
  Co  Co10  1  0.750000  0.250000  0.750001  1
  Co  Co11  1  0.250000  0.250000  0.249999  1
  Co  Co12  1  0.250000  0.750000  0.249999  1
  Ni  Ni13  1  0.750000  0.250000  0.249999  1
  Ni  Ni14  1  0.750000  0.750000  0.249999  1
  Ni  Ni15  1  0.250000  0.250000  0.750001  1
