# generated using pymatgen
data_Tm2HfZrAl15(GaIr2)3
_symmetry_space_group_name_H-M   'P 1'
_cell_length_a   7.50718500
_cell_length_b   7.49544832
_cell_length_c   9.32516300
_cell_angle_alpha   90.00000000
_cell_angle_beta   90.00000000
_cell_angle_gamma   119.73889669
_symmetry_Int_Tables_number   1
_chemical_formula_structural   Tm2HfZrAl15(GaIr2)3
_chemical_formula_sum   'Tm2 Hf1 Zr1 Al15 Ga3 Ir6'
_cell_volume   455.61545195
_cell_formula_units_Z   1
loop_
 _symmetry_equiv_pos_site_id
 _symmetry_equiv_pos_as_xyz
  1  'x, y, z'
loop_
 _atom_site_type_symbol
 _atom_site_label
 _atom_site_symmetry_multiplicity
 _atom_site_fract_x
 _atom_site_fract_y
 _atom_site_fract_z
 _atom_site_occupancy
  Tm  Tm0  1  0.670490  0.990945  0.250000  1
  Tm  Tm1  1  0.325549  0.005030  0.750000  1
  Hf  Hf2  1  0.005722  0.324867  0.750000  1
  Zr  Zr3  1  0.995966  0.673117  0.250000  1
  Al  Al4  1  0.999724  0.337208  0.074814  1
  Al  Al5  1  0.000378  0.662775  0.924234  1
  Al  Al6  1  0.000378  0.662775  0.575766  1
  Al  Al7  1  0.333218  0.999878  0.422187  1
  Al  Al8  1  0.999724  0.337208  0.425186  1
  Al  Al9  1  0.666771  0.001994  0.578608  1
  Al  Al10  1  0.666771  0.001994  0.921392  1
  Al  Al11  1  0.333218  0.999878  0.077813  1
  Al  Al12  1  0.332040  0.334306  0.561990  1
  Al  Al13  1  0.668691  0.666411  0.442603  1
  Al  Al14  1  0.668691  0.666411  0.057397  1
  Al  Al15  1  0.332040  0.334306  0.938010  1
  Al  Al16  1  0.666772  0.450076  0.750000  1
  Al  Al17  1  0.556693  0.343117  0.250000  1
  Al  Al18  1  0.444767  0.658440  0.750000  1
  Ga  Ga19  1  0.129280  0.129380  0.250000  1
  Ga  Ga20  1  0.866407  0.866629  0.750000  1
  Ga  Ga21  1  0.336539  0.546890  0.250000  1
  Ir  Ir22  1  0.671520  0.328047  0.999264  1
  Ir  Ir23  1  0.327917  0.673220  0.998379  1
  Ir  Ir24  1  0.327917  0.673220  0.501621  1
  Ir  Ir25  1  0.671520  0.328047  0.500736  1
  Ir  Ir26  1  0.000649  0.001912  0.999149  1
  Ir  Ir27  1  0.000649  0.001912  0.500851  1
