# generated using pymatgen
data_YbErVIr3
_symmetry_space_group_name_H-M   'P 1'
_cell_length_a   5.55567502
_cell_length_b   5.09959132
_cell_length_c   5.55567600
_cell_angle_alpha   56.99463441
_cell_angle_beta   60.00000609
_cell_angle_gamma   56.99462439
_symmetry_Int_Tables_number   1
_chemical_formula_structural   YbErVIr3
_chemical_formula_sum   'Yb1 Er1 V1 Ir3'
_cell_volume   105.97262717
_cell_formula_units_Z   1
loop_
 _symmetry_equiv_pos_site_id
 _symmetry_equiv_pos_as_xyz
  1  'x, y, z'
loop_
 _atom_site_type_symbol
 _atom_site_label
 _atom_site_symmetry_multiplicity
 _atom_site_fract_x
 _atom_site_fract_y
 _atom_site_fract_z
 _atom_site_occupancy
  Yb  Yb0  1  0.750654  0.748038  0.750654  1
  Er  Er1  1  0.499338  0.501984  0.499338  1
  V  V2  1  0.125608  0.623176  0.125608  1
  Ir  Ir3  1  0.625906  0.125601  0.124246  1
  Ir  Ir4  1  0.124246  0.125601  0.124246  1
  Ir  Ir5  1  0.124246  0.125601  0.625906  1
