# generated using pymatgen
data_Yb2Zn2Ni5
_symmetry_space_group_name_H-M   'P 1'
_cell_length_a   5.05927281
_cell_length_b   5.05927258
_cell_length_c   12.16620251
_cell_angle_alpha   77.99932212
_cell_angle_beta   77.99932363
_cell_angle_gamma   59.99999188
_symmetry_Int_Tables_number   1
_chemical_formula_structural   Yb2Zn2Ni5
_chemical_formula_sum   'Yb4 Zn4 Ni10'
_cell_volume   261.79997390
_cell_formula_units_Z   2
loop_
 _symmetry_equiv_pos_site_id
 _symmetry_equiv_pos_as_xyz
  1  'x, y, z'
loop_
 _atom_site_type_symbol
 _atom_site_label
 _atom_site_symmetry_multiplicity
 _atom_site_fract_x
 _atom_site_fract_y
 _atom_site_fract_z
 _atom_site_occupancy
  Yb  Yb0  1  0.950155  0.950155  0.149535  1
  Yb  Yb1  1  0.049845  0.049845  0.850465  1
  Yb  Yb2  1  0.852416  0.852416  0.442750  1
  Yb  Yb3  1  0.147584  0.147584  0.557250  1
  Zn  Zn4  1  0.722815  0.722815  0.831554  1
  Zn  Zn5  1  0.277185  0.277185  0.168446  1
  Zn  Zn6  1  0.610272  0.610272  0.169183  1
  Zn  Zn7  1  0.389728  0.389728  0.830817  1
  Ni  Ni8  1  0.500000  0.500000  0.500000  1
  Ni  Ni9  1  0.000000  0.500000  0.000000  1
  Ni  Ni10  1  0.500000  0.000000  0.000000  1
  Ni  Ni11  1  0.500000  0.500000  0.000000  1
  Ni  Ni12  1  0.386716  0.386716  0.335942  1
  Ni  Ni13  1  0.890627  0.386716  0.335942  1
  Ni  Ni14  1  0.386716  0.890627  0.335942  1
  Ni  Ni15  1  0.613284  0.613284  0.664058  1
  Ni  Ni16  1  0.109373  0.613284  0.664058  1
  Ni  Ni17  1  0.613284  0.109373  0.664058  1
