# generated using pymatgen
data_Na4AlMo3H20
_symmetry_space_group_name_H-M   'P 1'
_cell_length_a   4.69409348
_cell_length_b   5.15349552
_cell_length_c   11.72630030
_cell_angle_alpha   90.02111819
_cell_angle_beta   89.79876147
_cell_angle_gamma   91.47729902
_symmetry_Int_Tables_number   1
_chemical_formula_structural   Na4AlMo3H20
_chemical_formula_sum   'Na4 Al1 Mo3 H20'
_cell_volume   283.57476289
_cell_formula_units_Z   1
loop_
 _symmetry_equiv_pos_site_id
 _symmetry_equiv_pos_as_xyz
  1  'x, y, z'
loop_
 _atom_site_type_symbol
 _atom_site_label
 _atom_site_symmetry_multiplicity
 _atom_site_fract_x
 _atom_site_fract_y
 _atom_site_fract_z
 _atom_site_occupancy
  Na  Na0  1  0.751147  0.751687  0.844848  1
  Na  Na1  1  0.297404  0.748090  0.165417  1
  Na  Na2  1  0.798319  0.255948  0.339251  1
  Na  Na3  1  0.282612  0.246279  0.659655  1
  Al  Al4  1  0.779283  0.750970  0.578206  1
  Mo  Mo5  1  0.262546  0.246805  0.954042  1
  Mo  Mo6  1  0.783828  0.250739  0.048458  1
  Mo  Mo7  1  0.271718  0.750717  0.447737  1
  H  H8  1  0.517472  0.999754  0.002628  1
  H  H9  1  0.031391  0.523221  0.999558  1
  H  H10  1  0.012776  0.979975  0.488003  1
  H  H11  1  0.523917  0.525288  0.495602  1
  H  H12  1  0.290996  0.036123  0.837168  1
  H  H13  1  0.754113  0.461885  0.164509  1
  H  H14  1  0.332063  0.995133  0.346060  1
  H  H15  1  0.764074  0.513899  0.673873  1
  H  H16  1  0.740866  0.048225  0.167350  1
  H  H17  1  0.888846  0.245069  0.891206  1
  H  H18  1  0.780425  0.989831  0.673200  1
  H  H19  1  0.325320  0.508066  0.345971  1
  H  H20  1  0.303103  0.450188  0.834938  1
  H  H21  1  0.157170  0.252299  0.111848  1
  H  H22  1  0.011997  0.749283  0.342779  1
  H  H23  1  0.257769  0.750441  0.597649  1
  H  H24  1  0.015974  0.974038  0.003581  1
  H  H25  1  0.528644  0.497531  0.000481  1
  H  H26  1  0.532018  0.979046  0.496110  1
  H  H27  1  0.004207  0.519470  0.489872  1
