# generated using pymatgen
data_Pr2Nd3P12Ru9Rh10
_symmetry_space_group_name_H-M   'P 1'
_cell_length_a   12.71838900
_cell_length_b   12.71722362
_cell_length_c   3.98795200
_cell_angle_alpha   90.00000000
_cell_angle_beta   90.00000000
_cell_angle_gamma   120.00303399
_symmetry_Int_Tables_number   1
_chemical_formula_structural   Pr2Nd3P12Ru9Rh10
_chemical_formula_sum   'Pr2 Nd3 P12 Ru9 Rh10'
_cell_volume   558.58811104
_cell_formula_units_Z   1
loop_
 _symmetry_equiv_pos_site_id
 _symmetry_equiv_pos_as_xyz
  1  'x, y, z'
loop_
 _atom_site_type_symbol
 _atom_site_label
 _atom_site_symmetry_multiplicity
 _atom_site_fract_x
 _atom_site_fract_y
 _atom_site_fract_z
 _atom_site_occupancy
  Pr  Pr0  1  0.000027  0.186093  0.500000  1
  Pr  Pr1  1  0.813934  0.813907  0.500000  1
  Nd  Nd2  1  0.186202  0.000000  0.500000  1
  Nd  Nd3  1  0.666659  0.333329  0.000000  1
  Nd  Nd4  1  0.333329  0.666671  0.000000  1
  P  P5  1  0.000324  0.815250  0.000000  1
  P  P6  1  0.185074  0.184750  0.000000  1
  P  P7  1  0.814919  0.000000  0.000000  1
  P  P8  1  0.690250  0.171486  0.500000  1
  P  P9  1  0.828530  0.518822  0.500000  1
  P  P10  1  0.481217  0.309729  0.500000  1
  P  P11  1  0.171488  0.690271  0.500000  1
  P  P12  1  0.518764  0.828514  0.500000  1
  P  P13  1  0.309708  0.481178  0.500000  1
  P  P14  1  0.000000  0.372685  0.000000  1
  P  P15  1  0.627315  0.627315  0.000000  1
  P  P16  1  0.372377  0.000000  0.000000  1
  Ru  Ru17  1  0.000200  0.712970  0.500000  1
  Ru  Ru18  1  0.287229  0.287030  0.500000  1
  Ru  Ru19  1  0.712687  0.000000  0.500000  1
  Ru  Ru20  1  0.874786  0.362913  0.500000  1
  Ru  Ru21  1  0.637105  0.511896  0.500000  1
  Ru  Ru22  1  0.487973  0.125177  0.500000  1
  Ru  Ru23  1  0.362796  0.874823  0.500000  1
  Ru  Ru24  1  0.511873  0.637087  0.500000  1
  Ru  Ru25  1  0.125209  0.488104  0.500000  1
  Rh  Rh26  1  0.999996  0.551284  0.000000  1
  Rh  Rh27  1  0.448711  0.448716  0.000000  1
  Rh  Rh28  1  0.551265  0.000000  0.000000  1
  Rh  Rh29  1  0.805183  0.182294  0.000000  1
  Rh  Rh30  1  0.817715  0.622894  0.000000  1
  Rh  Rh31  1  0.376739  0.194419  0.000000  1
  Rh  Rh32  1  0.182321  0.805581  0.000000  1
  Rh  Rh33  1  0.622890  0.817706  0.000000  1
  Rh  Rh34  1  0.194822  0.377106  0.000000  1
  Rh  Rh35  1  0.000383  0.000000  0.000000  1
