# generated using pymatgen
data_TbYEr4(AlC3)2
_symmetry_space_group_name_H-M   'P 1'
_cell_length_a   3.54780000
_cell_length_b   7.00760863
_cell_length_c   9.95040609
_cell_angle_alpha   90.05036846
_cell_angle_beta   90.00000000
_cell_angle_gamma   90.00000000
_symmetry_Int_Tables_number   1
_chemical_formula_structural   TbYEr4(AlC3)2
_chemical_formula_sum   'Tb1 Y1 Er4 Al2 C6'
_cell_volume   247.38285969
_cell_formula_units_Z   1
loop_
 _symmetry_equiv_pos_site_id
 _symmetry_equiv_pos_as_xyz
  1  'x, y, z'
loop_
 _atom_site_type_symbol
 _atom_site_label
 _atom_site_symmetry_multiplicity
 _atom_site_fract_x
 _atom_site_fract_y
 _atom_site_fract_z
 _atom_site_occupancy
  Tb  Tb0  1  0.000000  0.750190  0.460825  1
  Y  Y1  1  0.500000  0.008842  0.800244  1
  Er  Er2  1  0.500000  0.511047  0.201109  1
  Er  Er3  1  0.500000  0.488408  0.799015  1
  Er  Er4  1  0.500000  0.987541  0.199470  1
  Er  Er5  1  0.000000  0.250496  0.543810  1
  Al  Al6  1  0.000000  0.746175  0.004922  1
  Al  Al7  1  0.000000  0.253102  0.995094  1
  C  C8  1  0.500000  0.504702  0.566159  1
  C  C9  1  0.500000  0.486512  0.433357  1
  C  C10  1  0.500000  0.996091  0.564411  1
  C  C11  1  0.500000  0.014291  0.431718  1
  C  C12  1  0.000000  0.749499  0.208299  1
  C  C13  1  0.000000  0.253103  0.791567  1
