# generated using pymatgen
data_Pr5Sn15Rh8
_symmetry_space_group_name_H-M   'P 1'
_cell_length_a   4.54819900
_cell_length_b   7.31696771
_cell_length_c   18.80237803
_cell_angle_alpha   89.89884950
_cell_angle_beta   90.00000000
_cell_angle_gamma   90.00000000
_symmetry_Int_Tables_number   1
_chemical_formula_structural   Pr5Sn15Rh8
_chemical_formula_sum   'Pr5 Sn15 Rh8'
_cell_volume   625.72383722
_cell_formula_units_Z   1
loop_
 _symmetry_equiv_pos_site_id
 _symmetry_equiv_pos_as_xyz
  1  'x, y, z'
loop_
 _atom_site_type_symbol
 _atom_site_label
 _atom_site_symmetry_multiplicity
 _atom_site_fract_x
 _atom_site_fract_y
 _atom_site_fract_z
 _atom_site_occupancy
  Pr  Pr0  1  0.500000  0.002133  0.855874  1
  Pr  Pr1  1  0.500000  0.500359  0.357353  1
  Pr  Pr2  1  0.000000  0.000964  0.143608  1
  Pr  Pr3  1  0.000000  0.500191  0.641707  1
  Pr  Pr4  1  0.500000  0.495894  0.930528  1
  Sn  Sn5  1  0.000000  0.718014  0.806704  1
  Sn  Sn6  1  0.000000  0.779314  0.305069  1
  Sn  Sn7  1  0.500000  0.277804  0.194161  1
  Sn  Sn8  1  0.500000  0.218410  0.693989  1
  Sn  Sn9  1  0.000000  0.854364  0.969504  1
  Sn  Sn10  1  0.000000  0.632638  0.468507  1
  Sn  Sn11  1  0.500000  0.133857  0.032025  1
  Sn  Sn12  1  0.500000  0.366316  0.530411  1
  Sn  Sn13  1  0.000000  0.304199  0.819438  1
  Sn  Sn14  1  0.000000  0.198347  0.317592  1
  Sn  Sn15  1  0.500000  0.696592  0.184746  1
  Sn  Sn16  1  0.500000  0.806849  0.679332  1
  Sn  Sn17  1  0.500000  0.018437  0.432785  1
  Sn  Sn18  1  0.000000  0.511386  0.067592  1
  Sn  Sn19  1  0.000000  0.982165  0.568411  1
  Rh  Rh20  1  0.000000  0.229967  0.965945  1
  Rh  Rh21  1  0.000000  0.247316  0.464382  1
  Rh  Rh22  1  0.500000  0.765042  0.044405  1
  Rh  Rh23  1  0.500000  0.751294  0.533509  1
  Rh  Rh24  1  0.000000  0.018465  0.715926  1
  Rh  Rh25  1  0.000000  0.482453  0.213177  1
  Rh  Rh26  1  0.500000  0.985711  0.288751  1
  Rh  Rh27  1  0.500000  0.521516  0.774571  1
