# generated using pymatgen
data_Ho2Mn5Fe2(CoP2)3
_symmetry_space_group_name_H-M   'P 1'
_cell_length_a   3.62050800
_cell_length_b   10.37302600
_cell_length_c   12.06870400
_cell_angle_alpha   90.00000000
_cell_angle_beta   90.00000000
_cell_angle_gamma   90.00000000
_symmetry_Int_Tables_number   1
_chemical_formula_structural   Ho2Mn5Fe2(CoP2)3
_chemical_formula_sum   'Ho4 Mn10 Fe4 Co6 P12'
_cell_volume   453.24770497
_cell_formula_units_Z   2
loop_
 _symmetry_equiv_pos_site_id
 _symmetry_equiv_pos_as_xyz
  1  'x, y, z'
loop_
 _atom_site_type_symbol
 _atom_site_label
 _atom_site_symmetry_multiplicity
 _atom_site_fract_x
 _atom_site_fract_y
 _atom_site_fract_z
 _atom_site_occupancy
  Ho  Ho0  1  0.250000  0.584581  0.710309  1
  Ho  Ho1  1  0.250000  0.915419  0.210309  1
  Ho  Ho2  1  0.750000  0.421979  0.290854  1
  Ho  Ho3  1  0.750000  0.078021  0.790854  1
  Mn  Mn4  1  0.250000  0.710009  0.992033  1
  Mn  Mn5  1  0.250000  0.789991  0.492033  1
  Mn  Mn6  1  0.750000  0.288840  0.012145  1
  Mn  Mn7  1  0.750000  0.211160  0.512145  1
  Mn  Mn8  1  0.250000  0.410133  0.492267  1
  Mn  Mn9  1  0.250000  0.089867  0.992267  1
  Mn  Mn10  1  0.750000  0.595614  0.508831  1
  Mn  Mn11  1  0.750000  0.904386  0.008831  1
  Mn  Mn12  1  0.250000  0.218654  0.172577  1
  Mn  Mn13  1  0.250000  0.281346  0.672577  1
  Fe  Fe14  1  0.750000  0.124285  0.301849  1
  Fe  Fe15  1  0.750000  0.375715  0.801849  1
  Fe  Fe16  1  0.750000  0.536573  0.065197  1
  Fe  Fe17  1  0.750000  0.963427  0.565197  1
  Co  Co18  1  0.750000  0.774388  0.824679  1
  Co  Co19  1  0.750000  0.725612  0.324679  1
  Co  Co20  1  0.250000  0.878226  0.697672  1
  Co  Co21  1  0.250000  0.621774  0.197672  1
  Co  Co22  1  0.250000  0.463078  0.932515  1
  Co  Co23  1  0.250000  0.036922  0.432515  1
  P  P24  1  0.250000  0.424824  0.111356  1
  P  P25  1  0.250000  0.075176  0.611356  1
  P  P26  1  0.750000  0.574527  0.887656  1
  P  P27  1  0.750000  0.925473  0.387656  1
  P  P28  1  0.250000  0.266445  0.866990  1
  P  P29  1  0.250000  0.233555  0.366990  1
  P  P30  1  0.750000  0.730531  0.133713  1
  P  P31  1  0.750000  0.769469  0.633713  1
  P  P32  1  0.250000  0.602915  0.383968  1
  P  P33  1  0.250000  0.897085  0.883968  1
  P  P34  1  0.750000  0.407107  0.615390  1
  P  P35  1  0.750000  0.092893  0.115390  1
