# generated using pymatgen
data_HfSc3N4
_symmetry_space_group_name_H-M   'P 1'
_cell_length_a   5.52900097
_cell_length_b   5.52900125
_cell_length_c   5.52900184
_cell_angle_alpha   131.83111443
_cell_angle_beta   131.83111671
_cell_angle_gamma   70.49589744
_symmetry_Int_Tables_number   1
_chemical_formula_structural   HfSc3N4
_chemical_formula_sum   'Hf1 Sc3 N4'
_cell_volume   91.94723083
_cell_formula_units_Z   1
loop_
 _symmetry_equiv_pos_site_id
 _symmetry_equiv_pos_as_xyz
  1  'x, y, z'
loop_
 _atom_site_type_symbol
 _atom_site_label
 _atom_site_symmetry_multiplicity
 _atom_site_fract_x
 _atom_site_fract_y
 _atom_site_fract_z
 _atom_site_occupancy
  Hf  Hf0  1  0.000000  0.000000  0.000000  1
  Sc  Sc1  1  0.250000  0.750000  0.500000  1
  Sc  Sc2  1  0.500000  0.500000  0.000000  1
  Sc  Sc3  1  0.750000  0.250000  0.500000  1
  N  N4  1  0.000000  0.500000  0.500000  1
  N  N5  1  0.246349  0.246349  0.000000  1
  N  N6  1  0.500000  0.000000  0.500000  1
  N  N7  1  0.753651  0.753651  0.000000  1
