# generated using pymatgen
data_Ca2Mg2ScSi7Pt9
_symmetry_space_group_name_H-M   'P 1'
_cell_length_a   10.05378060
_cell_length_b   10.04557916
_cell_length_c   3.97827800
_cell_angle_alpha   90.00000000
_cell_angle_beta   90.00000000
_cell_angle_gamma   119.78569665
_symmetry_Int_Tables_number   1
_chemical_formula_structural   Ca2Mg2ScSi7Pt9
_chemical_formula_sum   'Ca2 Mg2 Sc1 Si7 Pt9'
_cell_volume   348.70963041
_cell_formula_units_Z   1
loop_
 _symmetry_equiv_pos_site_id
 _symmetry_equiv_pos_as_xyz
  1  'x, y, z'
loop_
 _atom_site_type_symbol
 _atom_site_label
 _atom_site_symmetry_multiplicity
 _atom_site_fract_x
 _atom_site_fract_y
 _atom_site_fract_z
 _atom_site_occupancy
  Ca  Ca0  1  0.997986  0.996763  0.000000  1
  Ca  Ca1  1  0.333868  0.667302  0.500000  1
  Mg  Mg2  1  0.894055  0.452868  0.500000  1
  Mg  Mg3  1  0.557923  0.105543  0.500000  1
  Sc  Sc4  1  0.547212  0.437171  0.500000  1
  Si  Si5  1  0.250174  0.204208  0.500000  1
  Si  Si6  1  0.793967  0.048314  0.500000  1
  Si  Si7  1  0.954869  0.745059  0.500000  1
  Si  Si8  1  0.556043  0.647829  0.000000  1
  Si  Si9  1  0.352805  0.908380  0.000000  1
  Si  Si10  1  0.090924  0.447024  0.000000  1
  Si  Si11  1  0.668180  0.331534  0.000000  1
  Pt  Pt12  1  0.221121  0.943326  0.500000  1
  Pt  Pt13  1  0.060017  0.281596  0.500000  1
  Pt  Pt14  1  0.722264  0.780697  0.500000  1
  Pt  Pt15  1  0.310895  0.408292  0.000000  1
  Pt  Pt16  1  0.590894  0.904807  0.000000  1
  Pt  Pt17  1  0.096414  0.689746  0.000000  1
  Pt  Pt18  1  0.388770  0.173767  0.000000  1
  Pt  Pt19  1  0.828910  0.216389  0.000000  1
  Pt  Pt20  1  0.782705  0.609387  0.000000  1
