# generated using pymatgen
data_Pr3Ho2Sn3
_symmetry_space_group_name_H-M   'P 1'
_cell_length_a   9.21323700
_cell_length_b   9.21323700
_cell_length_c   6.72386100
_cell_angle_alpha   90.00000000
_cell_angle_beta   90.00000000
_cell_angle_gamma   120.00000360
_symmetry_Int_Tables_number   1
_chemical_formula_structural   Pr3Ho2Sn3
_chemical_formula_sum   'Pr6 Ho4 Sn6'
_cell_volume   494.28089986
_cell_formula_units_Z   2
loop_
 _symmetry_equiv_pos_site_id
 _symmetry_equiv_pos_as_xyz
  1  'x, y, z'
loop_
 _atom_site_type_symbol
 _atom_site_label
 _atom_site_symmetry_multiplicity
 _atom_site_fract_x
 _atom_site_fract_y
 _atom_site_fract_z
 _atom_site_occupancy
  Pr  Pr0  1  0.000000  0.759005  0.750000  1
  Pr  Pr1  1  0.000000  0.240995  0.250000  1
  Pr  Pr2  1  0.759005  0.759005  0.250000  1
  Pr  Pr3  1  0.759005  0.000000  0.750000  1
  Pr  Pr4  1  0.240995  0.240995  0.750000  1
  Pr  Pr5  1  0.240995  0.000000  0.250000  1
  Ho  Ho6  1  0.333333  0.666667  0.500000  1
  Ho  Ho7  1  0.666667  0.333333  0.000000  1
  Ho  Ho8  1  0.666667  0.333333  0.500000  1
  Ho  Ho9  1  0.333333  0.666667  0.000000  1
  Sn  Sn10  1  0.399596  0.000000  0.750000  1
  Sn  Sn11  1  0.399596  0.399596  0.250000  1
  Sn  Sn12  1  0.000000  0.600404  0.250000  1
  Sn  Sn13  1  0.000000  0.399596  0.750000  1
  Sn  Sn14  1  0.600404  0.600404  0.750000  1
  Sn  Sn15  1  0.600404  0.000000  0.250000  1
