# generated using pymatgen
data_Ba2VWO6
_symmetry_space_group_name_H-M   'P 1'
_cell_length_a   5.84754766
_cell_length_b   5.84848795
_cell_length_c   10.12714346
_cell_angle_alpha   73.24535893
_cell_angle_beta   89.99135328
_cell_angle_gamma   120.03964830
_symmetry_Int_Tables_number   1
_chemical_formula_structural   Ba2VWO6
_chemical_formula_sum   'Ba4 V2 W2 O12'
_cell_volume   282.69921570
_cell_formula_units_Z   2
loop_
 _symmetry_equiv_pos_site_id
 _symmetry_equiv_pos_as_xyz
  1  'x, y, z'
loop_
 _atom_site_type_symbol
 _atom_site_label
 _atom_site_symmetry_multiplicity
 _atom_site_fract_x
 _atom_site_fract_y
 _atom_site_fract_z
 _atom_site_occupancy
  Ba  Ba0  1  0.624556  0.249408  0.125199  1
  Ba  Ba1  1  0.125037  0.250237  0.624801  1
  Ba  Ba2  1  0.874277  0.750623  0.374786  1
  Ba  Ba3  1  0.376195  0.750725  0.874917  1
  V  V4  1  0.750174  0.500045  0.750035  1
  V  V5  1  0.249831  0.500031  0.249946  1
  W  W6  1  0.000171  0.999708  0.999938  1
  W  W7  1  0.499828  0.000260  0.500072  1
  O  O8  1  0.118883  0.237525  0.119020  1
  O  O9  1  0.618580  0.238332  0.618951  1
  O  O10  1  0.381343  0.238174  0.380897  1
  O  O11  1  0.880948  0.237078  0.880927  1
  O  O12  1  0.642796  0.761379  0.118736  1
  O  O13  1  0.142680  0.762140  0.618767  1
  O  O14  1  0.381369  0.762551  0.380920  1
  O  O15  1  0.881467  0.761682  0.881041  1
  O  O16  1  0.118837  0.762014  0.119118  1
  O  O17  1  0.618393  0.762285  0.619268  1
  O  O18  1  0.857313  0.238116  0.381503  1
  O  O19  1  0.357320  0.237684  0.881159  1
