# generated using pymatgen
data_Ho2Zn11Co6
_symmetry_space_group_name_H-M   'P 1'
_cell_length_a   6.57520755
_cell_length_b   6.57520731
_cell_length_c   6.57520604
_cell_angle_alpha   82.76343768
_cell_angle_beta   82.76343553
_cell_angle_gamma   82.76346102
_symmetry_Int_Tables_number   1
_chemical_formula_structural   Ho2Zn11Co6
_chemical_formula_sum   'Ho2 Zn11 Co6'
_cell_volume   278.00137999
_cell_formula_units_Z   1
loop_
 _symmetry_equiv_pos_site_id
 _symmetry_equiv_pos_as_xyz
  1  'x, y, z'
loop_
 _atom_site_type_symbol
 _atom_site_label
 _atom_site_symmetry_multiplicity
 _atom_site_fract_x
 _atom_site_fract_y
 _atom_site_fract_z
 _atom_site_occupancy
  Ho  Ho0  1  0.635043  0.635043  0.635043  1
  Ho  Ho1  1  0.333844  0.333844  0.333844  1
  Zn  Zn2  1  0.164368  0.654894  0.654895  1
  Zn  Zn3  1  0.654896  0.654896  0.164368  1
  Zn  Zn4  1  0.654894  0.164368  0.654895  1
  Zn  Zn5  1  0.878204  0.878204  0.878204  1
  Zn  Zn6  1  0.101753  0.101753  0.101753  1
  Zn  Zn7  1  0.699416  0.004964  0.306260  1
  Zn  Zn8  1  0.004964  0.306259  0.699416  1
  Zn  Zn9  1  0.306260  0.699417  0.004965  1
  Zn  Zn10  1  0.306259  0.004964  0.699416  1
  Zn  Zn11  1  0.004964  0.699416  0.306260  1
  Zn  Zn12  1  0.699417  0.306260  0.004965  1
  Co  Co13  1  0.011202  0.489818  0.011202  1
  Co  Co14  1  0.489818  0.011202  0.011202  1
  Co  Co15  1  0.011201  0.011201  0.489819  1
  Co  Co16  1  0.340933  0.861630  0.340932  1
  Co  Co17  1  0.340932  0.340932  0.861631  1
  Co  Co18  1  0.861630  0.340933  0.340932  1
