# generated using pymatgen
data_Ti2V2GaN3
_symmetry_space_group_name_H-M   'P 1'
_cell_length_a   2.96413900
_cell_length_b   2.96413767
_cell_length_c   22.69606900
_cell_angle_alpha   90.00000000
_cell_angle_beta   90.00000000
_cell_angle_gamma   119.99998141
_symmetry_Int_Tables_number   1
_chemical_formula_structural   Ti2V2GaN3
_chemical_formula_sum   'Ti4 V4 Ga2 N6'
_cell_volume   172.69441470
_cell_formula_units_Z   2
loop_
 _symmetry_equiv_pos_site_id
 _symmetry_equiv_pos_as_xyz
  1  'x, y, z'
loop_
 _atom_site_type_symbol
 _atom_site_label
 _atom_site_symmetry_multiplicity
 _atom_site_fract_x
 _atom_site_fract_y
 _atom_site_fract_z
 _atom_site_occupancy
  Ti  Ti0  1  0.333333  0.666667  0.443426  1
  Ti  Ti1  1  0.666667  0.333333  0.556574  1
  Ti  Ti2  1  0.666667  0.333333  0.943426  1
  Ti  Ti3  1  0.333333  0.666667  0.056574  1
  V  V4  1  0.000000  0.000000  0.344352  1
  V  V5  1  0.000000  0.000000  0.655648  1
  V  V6  1  0.000000  0.000000  0.844352  1
  V  V7  1  0.000000  0.000000  0.155648  1
  Ga  Ga8  1  0.333333  0.666667  0.250000  1
  Ga  Ga9  1  0.666667  0.333333  0.750000  1
  N  N10  1  0.000000  0.000000  0.500000  1
  N  N11  1  0.000000  0.000000  0.000000  1
  N  N12  1  0.666667  0.333333  0.389971  1
  N  N13  1  0.333333  0.666667  0.610029  1
  N  N14  1  0.333333  0.666667  0.889971  1
  N  N15  1  0.666667  0.333333  0.110029  1
