# generated using pymatgen
data_Tb2Mn3Fe3Ni6P7
_symmetry_space_group_name_H-M   'P 1'
_cell_length_a   9.11523200
_cell_length_b   9.11523246
_cell_length_c   3.66073400
_cell_angle_alpha   90.00000000
_cell_angle_beta   90.00000000
_cell_angle_gamma   119.99999834
_symmetry_Int_Tables_number   1
_chemical_formula_structural   Tb2Mn3Fe3Ni6P7
_chemical_formula_sum   'Tb2 Mn3 Fe3 Ni6 P7'
_cell_volume   263.41123047
_cell_formula_units_Z   1
loop_
 _symmetry_equiv_pos_site_id
 _symmetry_equiv_pos_as_xyz
  1  'x, y, z'
loop_
 _atom_site_type_symbol
 _atom_site_label
 _atom_site_symmetry_multiplicity
 _atom_site_fract_x
 _atom_site_fract_y
 _atom_site_fract_z
 _atom_site_occupancy
  Tb  Tb0  1  0.666667  0.333333  0.000000  1
  Tb  Tb1  1  0.333333  0.666667  0.500000  1
  Mn  Mn2  1  0.097035  0.881879  0.500000  1
  Mn  Mn3  1  0.784844  0.902965  0.500000  1
  Mn  Mn4  1  0.118121  0.215156  0.500000  1
  Fe  Fe5  1  0.276181  0.119480  0.000000  1
  Fe  Fe6  1  0.843298  0.723819  0.000000  1
  Fe  Fe7  1  0.880520  0.156702  0.000000  1
  Ni  Ni8  1  0.062472  0.627827  0.000000  1
  Ni  Ni9  1  0.565355  0.937528  0.000000  1
  Ni  Ni10  1  0.372173  0.434645  0.000000  1
  Ni  Ni11  1  0.438413  0.050692  0.500000  1
  Ni  Ni12  1  0.612279  0.561587  0.500000  1
  Ni  Ni13  1  0.949308  0.387721  0.500000  1
  P  P14  1  0.295133  0.889618  0.000000  1
  P  P15  1  0.594486  0.704867  0.000000  1
  P  P16  1  0.110382  0.405514  0.000000  1
  P  P17  1  0.398386  0.282900  0.500000  1
  P  P18  1  0.884514  0.601614  0.500000  1
  P  P19  1  0.717100  0.115486  0.500000  1
  P  P20  1  0.000000  0.000000  0.000000  1
