# generated using pymatgen
data_ErPa3(Co2Ge)2
_symmetry_space_group_name_H-M   'P 1'
_cell_length_a   7.08541510
_cell_length_b   7.08541546
_cell_length_c   3.53286400
_cell_angle_alpha   90.00000000
_cell_angle_beta   90.00000000
_cell_angle_gamma   92.54500901
_symmetry_Int_Tables_number   1
_chemical_formula_structural   ErPa3(Co2Ge)2
_chemical_formula_sum   'Er1 Pa3 Co4 Ge2'
_cell_volume   177.18581881
_cell_formula_units_Z   1
loop_
 _symmetry_equiv_pos_site_id
 _symmetry_equiv_pos_as_xyz
  1  'x, y, z'
loop_
 _atom_site_type_symbol
 _atom_site_label
 _atom_site_symmetry_multiplicity
 _atom_site_fract_x
 _atom_site_fract_y
 _atom_site_fract_z
 _atom_site_occupancy
  Er  Er0  1  0.820887  0.679113  0.500000  1
  Pa  Pa1  1  0.682425  0.177030  0.500000  1
  Pa  Pa2  1  0.322970  0.817575  0.500000  1
  Pa  Pa3  1  0.177876  0.322124  0.500000  1
  Co  Co4  1  0.881540  0.347724  0.000000  1
  Co  Co5  1  0.152276  0.618460  0.000000  1
  Co  Co6  1  0.355196  0.144804  0.000000  1
  Co  Co7  1  0.604523  0.895477  0.000000  1
  Ge  Ge8  1  0.505791  0.503484  0.000000  1
  Ge  Ge9  1  0.996516  0.994209  0.000000  1
