# generated using pymatgen
data_TbYInIr2
_symmetry_space_group_name_H-M   'P 1'
_cell_length_a   5.58231739
_cell_length_b   5.58231741
_cell_length_c   5.58231668
_cell_angle_alpha   133.23339929
_cell_angle_beta   115.81687168
_cell_angle_gamma   83.08088134
_symmetry_Int_Tables_number   1
_chemical_formula_structural   TbYInIr2
_chemical_formula_sum   'Tb1 Y1 In1 Ir2'
_cell_volume   109.81618042
_cell_formula_units_Z   1
loop_
 _symmetry_equiv_pos_site_id
 _symmetry_equiv_pos_as_xyz
  1  'x, y, z'
loop_
 _atom_site_type_symbol
 _atom_site_label
 _atom_site_symmetry_multiplicity
 _atom_site_fract_x
 _atom_site_fract_y
 _atom_site_fract_z
 _atom_site_occupancy
  Tb  Tb0  1  0.705131  0.205132  0.500000  1
  Y  Y1  1  0.294831  0.794831  0.500000  1
  In  In2  1  0.000016  0.000016  0.000000  1
  Ir  Ir3  1  0.718368  0.500011  0.218358  1
  Ir  Ir4  1  0.281653  0.500011  0.781642  1
