# generated using pymatgen
data_Tb16Er4Ir7Au5
_symmetry_space_group_name_H-M   'P 1'
_cell_length_a   11.21627568
_cell_length_b   11.21627522
_cell_length_c   6.33298697
_cell_angle_alpha   89.97746387
_cell_angle_beta   89.97746914
_cell_angle_gamma   89.67306703
_symmetry_Int_Tables_number   1
_chemical_formula_structural   Tb16Er4Ir7Au5
_chemical_formula_sum   'Tb16 Er4 Ir7 Au5'
_cell_volume   796.70728804
_cell_formula_units_Z   1
loop_
 _symmetry_equiv_pos_site_id
 _symmetry_equiv_pos_as_xyz
  1  'x, y, z'
loop_
 _atom_site_type_symbol
 _atom_site_label
 _atom_site_symmetry_multiplicity
 _atom_site_fract_x
 _atom_site_fract_y
 _atom_site_fract_z
 _atom_site_occupancy
  Tb  Tb0  1  0.298927  0.090907  0.364676  1
  Tb  Tb1  1  0.300802  0.907504  0.863238  1
  Tb  Tb2  1  0.698761  0.080718  0.860042  1
  Tb  Tb3  1  0.699008  0.905956  0.361717  1
  Tb  Tb4  1  0.581411  0.783938  0.876568  1
  Tb  Tb5  1  0.576338  0.207503  0.363845  1
  Tb  Tb6  1  0.417534  0.787921  0.376536  1
  Tb  Tb7  1  0.410894  0.208975  0.878008  1
  Tb  Tb8  1  0.216062  0.418589  0.623432  1
  Tb  Tb9  1  0.212079  0.582466  0.123464  1
  Tb  Tb10  1  0.792497  0.423662  0.136155  1
  Tb  Tb11  1  0.791025  0.589106  0.621992  1
  Tb  Tb12  1  0.909093  0.701073  0.135324  1
  Tb  Tb13  1  0.919282  0.301239  0.639958  1
  Tb  Tb14  1  0.092496  0.699198  0.636762  1
  Tb  Tb15  1  0.094044  0.300992  0.138283  1
  Er  Er16  1  0.998691  0.000428  0.499458  1
  Er  Er17  1  0.999572  0.001309  0.000542  1
  Er  Er18  1  0.495733  0.502257  0.001220  1
  Er  Er19  1  0.497743  0.504267  0.498780  1
  Ir  Ir20  1  0.652050  0.650276  0.250494  1
  Ir  Ir21  1  0.349724  0.347950  0.249506  1
  Ir  Ir22  1  0.346539  0.653461  0.750000  1
  Ir  Ir23  1  0.499484  0.999291  0.112179  1
  Ir  Ir24  1  0.499258  0.000552  0.612994  1
  Ir  Ir25  1  0.999448  0.500742  0.887006  1
  Ir  Ir26  1  0.000709  0.500516  0.387821  1
  Au  Au27  1  0.843165  0.156835  0.250000  1
  Au  Au28  1  0.845169  0.846869  0.750613  1
  Au  Au29  1  0.153131  0.154831  0.749387  1
  Au  Au30  1  0.154597  0.845403  0.250000  1
  Au  Au31  1  0.654733  0.345267  0.750000  1
