# generated using pymatgen
data_NdGa4Cu9
_symmetry_space_group_name_H-M   'P 1'
_cell_length_a   8.33171720
_cell_length_b   8.33171672
_cell_length_c   8.33171685
_cell_angle_alpha   120.48687814
_cell_angle_beta   120.48687525
_cell_angle_gamma   89.15875526
_symmetry_Int_Tables_number   1
_chemical_formula_structural   NdGa4Cu9
_chemical_formula_sum   'Nd2 Ga8 Cu18'
_cell_volume   405.91014780
_cell_formula_units_Z   2
loop_
 _symmetry_equiv_pos_site_id
 _symmetry_equiv_pos_as_xyz
  1  'x, y, z'
loop_
 _atom_site_type_symbol
 _atom_site_label
 _atom_site_symmetry_multiplicity
 _atom_site_fract_x
 _atom_site_fract_y
 _atom_site_fract_z
 _atom_site_occupancy
  Nd  Nd0  1  0.750000  0.750000  0.000000  1
  Nd  Nd1  1  0.250000  0.250000  0.000000  1
  Ga  Ga2  1  0.804717  0.304716  0.862071  1
  Ga  Ga3  1  0.442645  0.942646  0.137930  1
  Ga  Ga4  1  0.695285  0.557355  0.500000  1
  Ga  Ga5  1  0.057354  0.195284  0.500000  1
  Ga  Ga6  1  0.195285  0.695285  0.137930  1
  Ga  Ga7  1  0.557354  0.057354  0.862071  1
  Ga  Ga8  1  0.942646  0.804716  0.500000  1
  Ga  Ga9  1  0.304716  0.442646  0.500000  1
  Cu  Cu10  1  0.202387  0.061437  0.263823  1
  Cu  Cu11  1  0.797611  0.938564  0.736178  1
  Cu  Cu12  1  0.297612  0.561436  0.859048  1
  Cu  Cu13  1  0.702386  0.438563  0.140951  1
  Cu  Cu14  1  0.438565  0.297612  0.736178  1
  Cu  Cu15  1  0.561436  0.702386  0.263823  1
  Cu  Cu16  1  0.938564  0.202387  0.140953  1
  Cu  Cu17  1  0.061437  0.797612  0.859049  1
  Cu  Cu18  1  0.499999  0.000000  0.499999  1
  Cu  Cu19  1  0.000000  0.499999  0.499999  1
  Cu  Cu20  1  0.294158  0.794157  0.732365  1
  Cu  Cu21  1  0.061792  0.561793  0.267636  1
  Cu  Cu22  1  0.205843  0.938208  0.499999  1
  Cu  Cu23  1  0.438209  0.705844  0.500002  1
  Cu  Cu24  1  0.705844  0.205843  0.267636  1
  Cu  Cu25  1  0.938208  0.438209  0.732365  1
  Cu  Cu26  1  0.561793  0.294158  0.500002  1
  Cu  Cu27  1  0.794157  0.061792  0.499999  1
