# generated using pymatgen
data_Dy4TmLu3(WO6)4
_symmetry_space_group_name_H-M   'P 1'
_cell_length_a   5.37019109
_cell_length_b   7.65804430
_cell_length_c   11.34969452
_cell_angle_alpha   75.54586585
_cell_angle_beta   90.00629547
_cell_angle_gamma   90.02123023
_symmetry_Int_Tables_number   1
_chemical_formula_structural   Dy4TmLu3(WO6)4
_chemical_formula_sum   'Dy4 Tm1 Lu3 W4 O24'
_cell_volume   451.98405023
_cell_formula_units_Z   1
loop_
 _symmetry_equiv_pos_site_id
 _symmetry_equiv_pos_as_xyz
  1  'x, y, z'
loop_
 _atom_site_type_symbol
 _atom_site_label
 _atom_site_symmetry_multiplicity
 _atom_site_fract_x
 _atom_site_fract_y
 _atom_site_fract_z
 _atom_site_occupancy
  Dy  Dy0  1  0.257025  0.000220  0.749648  1
  Dy  Dy1  1  0.743082  0.000258  0.250458  1
  Dy  Dy2  1  0.315792  0.499876  0.749911  1
  Dy  Dy3  1  0.684362  0.499677  0.250342  1
  Tm  Tm4  1  0.182319  0.793608  0.078900  1
  Lu  Lu5  1  0.182476  0.206915  0.420629  1
  Lu  Lu6  1  0.817304  0.207232  0.920533  1
  Lu  Lu7  1  0.817477  0.793089  0.579282  1
  W  W8  1  0.743559  0.723809  0.885662  1
  W  W9  1  0.256774  0.723898  0.386360  1
  W  W10  1  0.743473  0.275976  0.613931  1
  W  W11  1  0.256560  0.275964  0.113920  1
  O  O12  1  0.540599  0.157464  0.066860  1
  O  O13  1  0.047167  0.059449  0.102549  1
  O  O14  1  0.019209  0.712831  0.770151  1
  O  O15  1  0.458836  0.157999  0.566815  1
  O  O16  1  0.357101  0.487852  0.386378  1
  O  O17  1  0.951093  0.057972  0.602437  1
  O  O18  1  0.544914  0.791990  0.724931  1
  O  O19  1  0.456530  0.791894  0.226151  1
  O  O20  1  0.146079  0.635198  0.550067  1
  O  O21  1  0.049105  0.942089  0.397563  1
  O  O22  1  0.460462  0.842963  0.932031  1
  O  O23  1  0.455055  0.207493  0.274880  1
  O  O24  1  0.853963  0.364621  0.450135  1
  O  O25  1  0.642437  0.487719  0.886022  1
  O  O26  1  0.358538  0.511286  0.113732  1
  O  O27  1  0.951007  0.942194  0.897204  1
  O  O28  1  0.541074  0.842234  0.433594  1
  O  O29  1  0.981401  0.287534  0.230040  1
  O  O30  1  0.544800  0.207774  0.774726  1
  O  O31  1  0.851765  0.634352  0.049738  1
  O  O32  1  0.018869  0.287152  0.729805  1
  O  O33  1  0.146208  0.364868  0.950042  1
  O  O34  1  0.980758  0.712606  0.270924  1
  O  O35  1  0.642827  0.511946  0.613651  1
