# generated using pymatgen
data_HfZr3Pa4(NbGe4)2
_symmetry_space_group_name_H-M   'P 1'
_cell_length_a   7.18059703
_cell_length_b   7.29992503
_cell_length_c   13.97669411
_cell_angle_alpha   90.01087496
_cell_angle_beta   89.99025057
_cell_angle_gamma   89.99891631
_symmetry_Int_Tables_number   1
_chemical_formula_structural   HfZr3Pa4(NbGe4)2
_chemical_formula_sum   'Hf2 Zr6 Pa8 Nb4 Ge16'
_cell_volume   732.62781210
_cell_formula_units_Z   2
loop_
 _symmetry_equiv_pos_site_id
 _symmetry_equiv_pos_as_xyz
  1  'x, y, z'
loop_
 _atom_site_type_symbol
 _atom_site_label
 _atom_site_symmetry_multiplicity
 _atom_site_fract_x
 _atom_site_fract_y
 _atom_site_fract_z
 _atom_site_occupancy
  Hf  Hf0  1  0.846722  0.667577  0.124793  1
  Hf  Hf1  1  0.346723  0.832416  0.375207  1
  Zr  Zr2  1  0.653566  0.167444  0.875820  1
  Zr  Zr3  1  0.153545  0.332542  0.624175  1
  Zr  Zr4  1  0.153328  0.332743  0.875575  1
  Zr  Zr5  1  0.653315  0.167268  0.624422  1
  Zr  Zr6  1  0.346590  0.832461  0.124408  1
  Zr  Zr7  1  0.846612  0.667551  0.375593  1
  Pa  Pa8  1  0.007511  0.175318  0.095849  1
  Pa  Pa9  1  0.507521  0.324674  0.404173  1
  Pa  Pa10  1  0.492329  0.675866  0.904463  1
  Pa  Pa11  1  0.992316  0.824140  0.595511  1
  Pa  Pa12  1  0.992520  0.824241  0.904555  1
  Pa  Pa13  1  0.492509  0.675766  0.595431  1
  Pa  Pa14  1  0.507508  0.324436  0.095775  1
  Pa  Pa15  1  0.007524  0.175562  0.404250  1
  Nb  Nb16  1  0.674289  0.002596  0.250109  1
  Nb  Nb17  1  0.174295  0.497403  0.249837  1
  Nb  Nb18  1  0.825589  0.503238  0.750057  1
  Nb  Nb19  1  0.325587  0.996760  0.749987  1
  Ge  Ge20  1  0.810212  0.360873  0.249682  1
  Ge  Ge21  1  0.310203  0.139120  0.250279  1
  Ge  Ge22  1  0.689930  0.860364  0.749997  1
  Ge  Ge23  1  0.189925  0.639638  0.750043  1
  Ge  Ge24  1  0.044086  0.878633  0.250009  1
  Ge  Ge25  1  0.544086  0.621371  0.249978  1
  Ge  Ge26  1  0.456183  0.379440  0.749997  1
  Ge  Ge27  1  0.956184  0.120558  0.750018  1
  Ge  Ge28  1  0.815602  0.460385  0.957905  1
  Ge  Ge29  1  0.315636  0.039631  0.542109  1
  Ge  Ge30  1  0.685325  0.958653  0.043216  1
  Ge  Ge31  1  0.185290  0.541360  0.456775  1
  Ge  Ge32  1  0.183230  0.540329  0.043136  1
  Ge  Ge33  1  0.683201  0.959653  0.456853  1
  Ge  Ge34  1  0.315486  0.040091  0.957146  1
  Ge  Ge35  1  0.815523  0.459898  0.542868  1
