# generated using pymatgen
data_Tm2Sc3Pt4
_symmetry_space_group_name_H-M   'P 1'
_cell_length_a   7.28048300
_cell_length_b   7.34999200
_cell_length_c   13.81751600
_cell_angle_alpha   90.00000000
_cell_angle_beta   90.00000000
_cell_angle_gamma   90.00000000
_symmetry_Int_Tables_number   1
_chemical_formula_structural   Tm2Sc3Pt4
_chemical_formula_sum   'Tm8 Sc12 Pt16'
_cell_volume   739.39589422
_cell_formula_units_Z   4
loop_
 _symmetry_equiv_pos_site_id
 _symmetry_equiv_pos_as_xyz
  1  'x, y, z'
loop_
 _atom_site_type_symbol
 _atom_site_label
 _atom_site_symmetry_multiplicity
 _atom_site_fract_x
 _atom_site_fract_y
 _atom_site_fract_z
 _atom_site_occupancy
  Tm  Tm0  1  0.007631  0.176314  0.094848  1
  Tm  Tm1  1  0.992369  0.823686  0.905152  1
  Tm  Tm2  1  0.492369  0.676314  0.905152  1
  Tm  Tm3  1  0.992369  0.823686  0.594848  1
  Tm  Tm4  1  0.507631  0.323686  0.094848  1
  Tm  Tm5  1  0.007631  0.176314  0.405152  1
  Tm  Tm6  1  0.507631  0.323686  0.405152  1
  Tm  Tm7  1  0.492369  0.676314  0.594848  1
  Sc  Sc8  1  0.163926  0.502045  0.750000  1
  Sc  Sc9  1  0.836074  0.497955  0.250000  1
  Sc  Sc10  1  0.336074  0.002045  0.250000  1
  Sc  Sc11  1  0.663926  0.997955  0.750000  1
  Sc  Sc12  1  0.332084  0.167186  0.623478  1
  Sc  Sc13  1  0.667916  0.832814  0.376522  1
  Sc  Sc14  1  0.167916  0.667186  0.376522  1
  Sc  Sc15  1  0.667916  0.832814  0.123478  1
  Sc  Sc16  1  0.832084  0.332814  0.623478  1
  Sc  Sc17  1  0.332084  0.167186  0.876522  1
  Sc  Sc18  1  0.832084  0.332814  0.876522  1
  Sc  Sc19  1  0.167916  0.667186  0.123478  1
  Pt  Pt20  1  0.029163  0.121814  0.750000  1
  Pt  Pt21  1  0.970837  0.878186  0.250000  1
  Pt  Pt22  1  0.470837  0.621814  0.250000  1
  Pt  Pt23  1  0.529163  0.378186  0.750000  1
  Pt  Pt24  1  0.295595  0.854506  0.750000  1
  Pt  Pt25  1  0.704405  0.145494  0.250000  1
  Pt  Pt26  1  0.204405  0.354506  0.250000  1
  Pt  Pt27  1  0.795595  0.645494  0.750000  1
  Pt  Pt28  1  0.174859  0.460306  0.542830  1
  Pt  Pt29  1  0.825141  0.539694  0.457170  1
  Pt  Pt30  1  0.325141  0.960306  0.457170  1
  Pt  Pt31  1  0.825141  0.539694  0.042830  1
  Pt  Pt32  1  0.674859  0.039694  0.542830  1
  Pt  Pt33  1  0.174859  0.460306  0.957170  1
  Pt  Pt34  1  0.674859  0.039694  0.957170  1
  Pt  Pt35  1  0.325141  0.960306  0.042830  1
