# generated using pymatgen
data_Yb3Eu(GaPd)4
_symmetry_space_group_name_H-M   'P 1'
_cell_length_a   4.34106200
_cell_length_b   7.22056877
_cell_length_c   7.86052427
_cell_angle_alpha   89.66355707
_cell_angle_beta   90.00000000
_cell_angle_gamma   90.00000000
_symmetry_Int_Tables_number   1
_chemical_formula_structural   Yb3Eu(GaPd)4
_chemical_formula_sum   'Yb3 Eu1 Ga4 Pd4'
_cell_volume   246.38338773
_cell_formula_units_Z   1
loop_
 _symmetry_equiv_pos_site_id
 _symmetry_equiv_pos_as_xyz
  1  'x, y, z'
loop_
 _atom_site_type_symbol
 _atom_site_label
 _atom_site_symmetry_multiplicity
 _atom_site_fract_x
 _atom_site_fract_y
 _atom_site_fract_z
 _atom_site_occupancy
  Yb  Yb0  1  0.250000  0.479277  0.185767  1
  Yb  Yb1  1  0.750000  0.022061  0.691525  1
  Yb  Yb2  1  0.750000  0.518956  0.812206  1
  Eu  Eu3  1  0.250000  0.980392  0.314531  1
  Ga  Ga4  1  0.250000  0.343466  0.572070  1
  Ga  Ga5  1  0.250000  0.838390  0.926441  1
  Ga  Ga6  1  0.750000  0.657398  0.429795  1
  Ga  Ga7  1  0.750000  0.162697  0.068733  1
  Pd  Pd8  1  0.250000  0.213774  0.888742  1
  Pd  Pd9  1  0.250000  0.710389  0.615793  1
  Pd  Pd10  1  0.750000  0.779980  0.104582  1
  Pd  Pd11  1  0.750000  0.293219  0.389815  1
