# generated using pymatgen
data_U8NbS17
_symmetry_space_group_name_H-M   'P 1'
_cell_length_a   7.84184747
_cell_length_b   7.84184862
_cell_length_c   10.39145880
_cell_angle_alpha   80.96531324
_cell_angle_beta   80.96531115
_cell_angle_gamma   65.24236975
_symmetry_Int_Tables_number   1
_chemical_formula_structural   U8NbS17
_chemical_formula_sum   'U8 Nb1 S17'
_cell_volume   570.10970325
_cell_formula_units_Z   1
loop_
 _symmetry_equiv_pos_site_id
 _symmetry_equiv_pos_as_xyz
  1  'x, y, z'
loop_
 _atom_site_type_symbol
 _atom_site_label
 _atom_site_symmetry_multiplicity
 _atom_site_fract_x
 _atom_site_fract_y
 _atom_site_fract_z
 _atom_site_occupancy
  U  U0  1  0.817999  0.300677  0.300491  1
  U  U1  1  0.300677  0.817999  0.300491  1
  U  U2  1  0.182001  0.699323  0.699509  1
  U  U3  1  0.699323  0.182001  0.699509  1
  U  U4  1  0.794320  0.794320  0.460373  1
  U  U5  1  0.205680  0.205680  0.539627  1
  U  U6  1  0.319216  0.319216  0.015778  1
  U  U7  1  0.680784  0.680784  0.984222  1
  Nb  Nb8  1  0.000000  0.000000  0.000000  1
  S  S9  1  0.177568  0.568409  0.464553  1
  S  S10  1  0.568409  0.177568  0.464553  1
  S  S11  1  0.822432  0.431591  0.535447  1
  S  S12  1  0.431591  0.822432  0.535447  1
  S  S13  1  0.939759  0.327274  0.032052  1
  S  S14  1  0.327274  0.939759  0.032052  1
  S  S15  1  0.060241  0.672726  0.967948  1
  S  S16  1  0.672726  0.060241  0.967948  1
  S  S17  1  0.937325  0.937325  0.233735  1
  S  S18  1  0.062675  0.062675  0.766265  1
  S  S19  1  0.788992  0.788992  0.723396  1
  S  S20  1  0.211008  0.211008  0.276604  1
  S  S21  1  0.697831  0.697831  0.246258  1
  S  S22  1  0.302169  0.302169  0.753742  1
  S  S23  1  0.479270  0.479270  0.168811  1
  S  S24  1  0.520730  0.520730  0.831189  1
  S  S25  1  0.000000  0.000000  0.500000  1
