# generated using pymatgen
data_Yb2YTm(NiB4)4
_symmetry_space_group_name_H-M   'P 1'
_cell_length_a   6.81398143
_cell_length_b   6.81398141
_cell_length_c   6.81398055
_cell_angle_alpha   112.88228428
_cell_angle_beta   112.88228987
_cell_angle_gamma   102.84543308
_symmetry_Int_Tables_number   1
_chemical_formula_structural   Yb2YTm(NiB4)4
_chemical_formula_sum   'Yb2 Y1 Tm1 Ni4 B16'
_cell_volume   241.14224576
_cell_formula_units_Z   1
loop_
 _symmetry_equiv_pos_site_id
 _symmetry_equiv_pos_as_xyz
  1  'x, y, z'
loop_
 _atom_site_type_symbol
 _atom_site_label
 _atom_site_symmetry_multiplicity
 _atom_site_fract_x
 _atom_site_fract_y
 _atom_site_fract_z
 _atom_site_occupancy
  Yb  Yb0  1  0.795373  0.795373  0.000000  1
  Yb  Yb1  1  0.204627  0.204627  0.000000  1
  Y  Y2  1  0.250000  0.750000  0.500000  1
  Tm  Tm3  1  0.750000  0.250000  0.500000  1
  Ni  Ni4  1  0.271296  0.498995  0.772302  1
  Ni  Ni5  1  0.726694  0.498995  0.227698  1
  Ni  Ni6  1  0.501005  0.728704  0.227698  1
  Ni  Ni7  1  0.501005  0.273306  0.772302  1
  B  B8  1  0.275776  0.111631  0.388076  1
  B  B9  1  0.723555  0.887700  0.611924  1
  B  B10  1  0.275776  0.887700  0.164143  1
  B  B11  1  0.723555  0.111631  0.835857  1
  B  B12  1  0.112300  0.724224  0.835857  1
  B  B13  1  0.888369  0.276445  0.164143  1
  B  B14  1  0.112300  0.276445  0.388076  1
  B  B15  1  0.888369  0.724224  0.611924  1
  B  B16  1  0.112284  0.113920  0.530259  1
  B  B17  1  0.583661  0.582025  0.469741  1
  B  B18  1  0.112284  0.582025  0.998364  1
  B  B19  1  0.583661  0.113920  0.001636  1
  B  B20  1  0.886080  0.887716  0.469741  1
  B  B21  1  0.417975  0.416339  0.530259  1
  B  B22  1  0.886080  0.416339  0.998364  1
  B  B23  1  0.417975  0.887716  0.001636  1
