# generated using pymatgen
data_Dy3Y(B4Ir)4
_symmetry_space_group_name_H-M   'P 1'
_cell_length_a   5.97710500
_cell_length_b   11.59160300
_cell_length_c   3.57507800
_cell_angle_alpha   90.00000000
_cell_angle_beta   90.00000000
_cell_angle_gamma   90.00017524
_symmetry_Int_Tables_number   1
_chemical_formula_structural   Dy3Y(B4Ir)4
_chemical_formula_sum   'Dy3 Y1 B16 Ir4'
_cell_volume   247.69652016
_cell_formula_units_Z   1
loop_
 _symmetry_equiv_pos_site_id
 _symmetry_equiv_pos_as_xyz
  1  'x, y, z'
loop_
 _atom_site_type_symbol
 _atom_site_label
 _atom_site_symmetry_multiplicity
 _atom_site_fract_x
 _atom_site_fract_y
 _atom_site_fract_z
 _atom_site_occupancy
  Dy  Dy0  1  0.368668  0.148444  0.000000  1
  Dy  Dy1  1  0.868664  0.351554  0.000000  1
  Dy  Dy2  1  0.131353  0.648450  0.000000  1
  Y  Y3  1  0.631341  0.851585  0.000000  1
  B  B4  1  0.636110  0.030815  0.499999  1
  B  B5  1  0.112363  0.046273  0.499999  1
  B  B6  1  0.708437  0.187556  0.499999  1
  B  B7  1  0.024866  0.192024  0.499999  1
  B  B8  1  0.524838  0.307978  0.499999  1
  B  B9  1  0.208475  0.312438  0.499999  1
  B  B10  1  0.612353  0.453731  0.499999  1
  B  B11  1  0.136149  0.469291  0.499999  1
  B  B12  1  0.863839  0.530699  0.499999  1
  B  B13  1  0.387659  0.546261  0.499999  1
  B  B14  1  0.791613  0.687466  0.499999  1
  B  B15  1  0.475053  0.691958  0.499999  1
  B  B16  1  0.975282  0.807955  0.499999  1
  B  B17  1  0.291400  0.812415  0.499999  1
  B  B18  1  0.887775  0.953776  0.499999  1
  B  B19  1  0.363743  0.969336  0.499999  1
  Ir  Ir20  1  0.856278  0.096790  0.000000  1
  Ir  Ir21  1  0.356216  0.403264  0.000000  1
  Ir  Ir22  1  0.643815  0.596643  0.000000  1
  Ir  Ir23  1  0.143714  0.903297  0.000000  1
