# generated using pymatgen
data_Rb2Mg2(SeO3)3
_symmetry_space_group_name_H-M   'P 1'
_cell_length_a   5.60675500
_cell_length_b   5.60675416
_cell_length_c   18.55502200
_cell_angle_alpha   90.00000000
_cell_angle_beta   90.00000000
_cell_angle_gamma   120.00001088
_symmetry_Int_Tables_number   1
_chemical_formula_structural   Rb2Mg2(SeO3)3
_chemical_formula_sum   'Rb4 Mg4 Se6 O18'
_cell_volume   505.14394360
_cell_formula_units_Z   2
loop_
 _symmetry_equiv_pos_site_id
 _symmetry_equiv_pos_as_xyz
  1  'x, y, z'
loop_
 _atom_site_type_symbol
 _atom_site_label
 _atom_site_symmetry_multiplicity
 _atom_site_fract_x
 _atom_site_fract_y
 _atom_site_fract_z
 _atom_site_occupancy
  Rb  Rb0  1  0.666667  0.333333  0.532322  1
  Rb  Rb1  1  0.333333  0.666667  0.453549  1
  Rb  Rb2  1  0.333333  0.666667  0.032322  1
  Rb  Rb3  1  0.666667  0.333333  0.953549  1
  Mg  Mg4  1  0.666667  0.333333  0.169485  1
  Mg  Mg5  1  0.333333  0.666667  0.833732  1
  Mg  Mg6  1  0.333333  0.666667  0.669485  1
  Mg  Mg7  1  0.666667  0.333333  0.333732  1
  Se  Se8  1  0.000000  0.000000  0.644844  1
  Se  Se9  1  0.000000  0.000000  0.354710  1
  Se  Se10  1  0.000000  0.000000  0.144844  1
  Se  Se11  1  0.000000  0.000000  0.854710  1
  Se  Se12  1  0.666667  0.333333  0.716511  1
  Se  Se13  1  0.333333  0.666667  0.216511  1
  O  O14  1  0.839809  0.160191  0.103973  1
  O  O15  1  0.320384  0.160191  0.103973  1
  O  O16  1  0.839809  0.679616  0.103973  1
  O  O17  1  0.159160  0.840840  0.896862  1
  O  O18  1  0.681681  0.840840  0.896862  1
  O  O19  1  0.159160  0.318319  0.896862  1
  O  O20  1  0.160191  0.839809  0.603973  1
  O  O21  1  0.679616  0.839809  0.603973  1
  O  O22  1  0.160191  0.320384  0.603973  1
  O  O23  1  0.840840  0.159160  0.396862  1
  O  O24  1  0.318319  0.159160  0.396862  1
  O  O25  1  0.840840  0.681681  0.396862  1
  O  O26  1  0.501629  0.498371  0.752483  1
  O  O27  1  0.996741  0.498371  0.752483  1
  O  O28  1  0.501629  0.003259  0.752483  1
  O  O29  1  0.498371  0.501629  0.252483  1
  O  O30  1  0.003259  0.501629  0.252483  1
  O  O31  1  0.498371  0.996741  0.252483  1
