# generated using pymatgen
data_Cu2PdPtO4
_symmetry_space_group_name_H-M   'P 1'
_cell_length_a   4.27769874
_cell_length_b   4.30458682
_cell_length_c   5.28436400
_cell_angle_alpha   89.99898323
_cell_angle_beta   89.99760383
_cell_angle_gamma   89.86960564
_symmetry_Int_Tables_number   1
_chemical_formula_structural   Cu2PdPtO4
_chemical_formula_sum   'Cu2 Pd1 Pt1 O4'
_cell_volume   97.30457664
_cell_formula_units_Z   1
loop_
 _symmetry_equiv_pos_site_id
 _symmetry_equiv_pos_as_xyz
  1  'x, y, z'
loop_
 _atom_site_type_symbol
 _atom_site_label
 _atom_site_symmetry_multiplicity
 _atom_site_fract_x
 _atom_site_fract_y
 _atom_site_fract_z
 _atom_site_occupancy
  Cu  Cu0  1  0.000000  0.500000  0.000000  1
  Cu  Cu1  1  0.000000  0.000000  0.500000  1
  Pd  Pd2  1  0.500000  0.500000  0.500000  1
  Pt  Pt3  1  0.500000  0.000000  0.000000  1
  O  O4  1  0.235639  0.753175  0.248354  1
  O  O5  1  0.235651  0.753173  0.751659  1
  O  O6  1  0.764349  0.246827  0.248341  1
  O  O7  1  0.764361  0.246825  0.751646  1
