# generated using pymatgen
data_AcAl4Fe9
_symmetry_space_group_name_H-M   'P 1'
_cell_length_a   8.31071652
_cell_length_b   8.31071654
_cell_length_c   8.31071690
_cell_angle_alpha   120.31600676
_cell_angle_beta   120.31600126
_cell_angle_gamma   89.45353695
_symmetry_Int_Tables_number   1
_chemical_formula_structural   AcAl4Fe9
_chemical_formula_sum   'Ac2 Al8 Fe18'
_cell_volume   403.92400441
_cell_formula_units_Z   2
loop_
 _symmetry_equiv_pos_site_id
 _symmetry_equiv_pos_as_xyz
  1  'x, y, z'
loop_
 _atom_site_type_symbol
 _atom_site_label
 _atom_site_symmetry_multiplicity
 _atom_site_fract_x
 _atom_site_fract_y
 _atom_site_fract_z
 _atom_site_occupancy
  Ac  Ac0  1  0.250000  0.250000  0.000000  1
  Ac  Ac1  1  0.750000  0.750000  0.000000  1
  Al  Al2  1  0.438048  0.306697  0.500000  1
  Al  Al3  1  0.193303  0.061952  0.500000  1
  Al  Al4  1  0.061952  0.561952  0.868650  1
  Al  Al5  1  0.693303  0.193303  0.131350  1
  Al  Al6  1  0.806697  0.938048  0.500000  1
  Al  Al7  1  0.306697  0.806697  0.868650  1
  Al  Al8  1  0.561952  0.693303  0.500000  1
  Al  Al9  1  0.938048  0.438048  0.131350  1
  Fe  Fe10  1  0.704229  0.559496  0.263726  1
  Fe  Fe11  1  0.433262  0.933262  0.713390  1
  Fe  Fe12  1  0.500000  0.000000  0.500000  1
  Fe  Fe13  1  0.719872  0.433262  0.500000  1
  Fe  Fe14  1  0.066738  0.780128  0.500000  1
  Fe  Fe15  1  0.204229  0.940504  0.144733  1
  Fe  Fe16  1  0.566738  0.066738  0.286610  1
  Fe  Fe17  1  0.295771  0.440504  0.736274  1
  Fe  Fe18  1  0.780128  0.280128  0.713390  1
  Fe  Fe19  1  0.940504  0.795771  0.736274  1
  Fe  Fe20  1  0.933262  0.219872  0.500000  1
  Fe  Fe21  1  0.059496  0.204229  0.263726  1
  Fe  Fe22  1  0.795771  0.059496  0.855267  1
  Fe  Fe23  1  0.559496  0.295771  0.855267  1
  Fe  Fe24  1  0.000000  0.500000  0.500000  1
  Fe  Fe25  1  0.219872  0.719872  0.286610  1
  Fe  Fe26  1  0.280128  0.566738  0.500000  1
  Fe  Fe27  1  0.440504  0.704229  0.144733  1
