# generated using pymatgen
data_Y3Tm13In2(HgRh2)2
_symmetry_space_group_name_H-M   'P 1'
_cell_length_a   9.55035592
_cell_length_b   9.52906748
_cell_length_c   9.54076452
_cell_angle_alpha   59.83168304
_cell_angle_beta   59.84637652
_cell_angle_gamma   59.86018835
_symmetry_Int_Tables_number   1
_chemical_formula_structural   Y3Tm13In2(HgRh2)2
_chemical_formula_sum   'Y3 Tm13 In2 Hg2 Rh4'
_cell_volume   611.81259607
_cell_formula_units_Z   1
loop_
 _symmetry_equiv_pos_site_id
 _symmetry_equiv_pos_as_xyz
  1  'x, y, z'
loop_
 _atom_site_type_symbol
 _atom_site_label
 _atom_site_symmetry_multiplicity
 _atom_site_fract_x
 _atom_site_fract_y
 _atom_site_fract_z
 _atom_site_occupancy
  Y  Y0  1  0.058796  0.063517  0.439492  1
  Y  Y1  1  0.435027  0.066563  0.435834  1
  Y  Y2  1  0.060472  0.438990  0.064234  1
  Tm  Tm3  1  0.051284  0.648646  0.649318  1
  Tm  Tm4  1  0.436354  0.438344  0.064094  1
  Tm  Tm5  1  0.647775  0.052052  0.648545  1
  Tm  Tm6  1  0.189600  0.811674  0.189385  1
  Tm  Tm7  1  0.189250  0.189350  0.812715  1
  Tm  Tm8  1  0.809182  0.811006  0.190441  1
  Tm  Tm9  1  0.439440  0.061612  0.060611  1
  Tm  Tm10  1  0.812653  0.188548  0.188085  1
  Tm  Tm11  1  0.059876  0.439952  0.438601  1
  Tm  Tm12  1  0.808712  0.190417  0.811830  1
  Tm  Tm13  1  0.191089  0.808896  0.810303  1
  Tm  Tm14  1  0.648133  0.648021  0.052707  1
  Tm  Tm15  1  0.649736  0.651336  0.651420  1
  In  In16  1  0.421049  0.744646  0.417292  1
  In  In17  1  0.420823  0.417140  0.745930  1
  Hg  Hg18  1  0.413425  0.415974  0.413782  1
  Hg  Hg19  1  0.758464  0.414886  0.414910  1
  Rh  Rh20  1  0.858619  0.856032  0.427183  1
  Rh  Rh21  1  0.855927  0.857671  0.857627  1
  Rh  Rh22  1  0.427245  0.857069  0.858995  1
  Rh  Rh23  1  0.857070  0.427659  0.856668  1
