# generated using pymatgen
data_Ho5Lu3Mn(B8Ru)3
_symmetry_space_group_name_H-M   'P 1'
_cell_length_a   3.60266600
_cell_length_b   9.06253016
_cell_length_c   11.44516017
_cell_angle_alpha   90.00082020
_cell_angle_beta   90.00000000
_cell_angle_gamma   90.00000000
_symmetry_Int_Tables_number   1
_chemical_formula_structural   Ho5Lu3Mn(B8Ru)3
_chemical_formula_sum   'Ho5 Lu3 Mn1 B24 Ru3'
_cell_volume   373.67611652
_cell_formula_units_Z   1
loop_
 _symmetry_equiv_pos_site_id
 _symmetry_equiv_pos_as_xyz
  1  'x, y, z'
loop_
 _atom_site_type_symbol
 _atom_site_label
 _atom_site_symmetry_multiplicity
 _atom_site_fract_x
 _atom_site_fract_y
 _atom_site_fract_z
 _atom_site_occupancy
  Ho  Ho0  1  0.000000  0.325533  0.412944  1
  Ho  Ho1  1  0.000000  0.676646  0.582632  1
  Ho  Ho2  1  0.000000  0.819792  0.087897  1
  Ho  Ho3  1  0.000000  0.178219  0.914948  1
  Ho  Ho4  1  0.000000  0.940653  0.371760  1
  Lu  Lu5  1  0.000000  0.056837  0.628171  1
  Lu  Lu6  1  0.000000  0.446070  0.129938  1
  Lu  Lu7  1  0.000000  0.556631  0.871948  1
  Mn  Mn8  1  0.000000  0.637047  0.320022  1
  B  B9  1  0.500000  0.553672  0.431520  1
  B  B10  1  0.500000  0.446227  0.567019  1
  B  B11  1  0.500000  0.054454  0.066784  1
  B  B12  1  0.500000  0.945870  0.933091  1
  B  B13  1  0.500000  0.745940  0.417594  1
  B  B14  1  0.500000  0.250860  0.580708  1
  B  B15  1  0.500000  0.250628  0.080628  1
  B  B16  1  0.500000  0.750390  0.919659  1
  B  B17  1  0.500000  0.788797  0.265958  1
  B  B18  1  0.500000  0.208247  0.734570  1
  B  B19  1  0.500000  0.292967  0.233843  1
  B  B20  1  0.500000  0.708173  0.765811  1
  B  B21  1  0.500000  0.630509  0.185853  1
  B  B22  1  0.500000  0.369282  0.815806  1
  B  B23  1  0.500000  0.131939  0.314723  1
  B  B24  1  0.500000  0.868897  0.684642  1
  B  B25  1  0.500000  0.982947  0.212307  1
  B  B26  1  0.500000  0.017347  0.787176  1
  B  B27  1  0.500000  0.484644  0.287454  1
  B  B28  1  0.500000  0.517477  0.713092  1
  B  B29  1  0.500000  0.603813  0.028685  1
  B  B30  1  0.500000  0.396549  0.971579  1
  B  B31  1  0.500000  0.106136  0.471733  1
  B  B32  1  0.500000  0.894575  0.529864  1
  Ru  Ru33  1  0.000000  0.361256  0.680650  1
  Ru  Ru34  1  0.000000  0.139512  0.178589  1
  Ru  Ru35  1  0.000000  0.861463  0.820402  1
