# generated using pymatgen
data_Y9HoRu3Rh
_symmetry_space_group_name_H-M   'P 1'
_cell_length_a   6.38365761
_cell_length_b   7.32857850
_cell_length_c   8.53724813
_cell_angle_alpha   96.73016855
_cell_angle_beta   112.03010962
_cell_angle_gamma   90.07966722
_symmetry_Int_Tables_number   1
_chemical_formula_structural   Y9HoRu3Rh
_chemical_formula_sum   'Y9 Ho1 Ru3 Rh1'
_cell_volume   367.24018746
_cell_formula_units_Z   1
loop_
 _symmetry_equiv_pos_site_id
 _symmetry_equiv_pos_as_xyz
  1  'x, y, z'
loop_
 _atom_site_type_symbol
 _atom_site_label
 _atom_site_symmetry_multiplicity
 _atom_site_fract_x
 _atom_site_fract_y
 _atom_site_fract_z
 _atom_site_occupancy
  Y  Y0  1  0.979047  0.917640  0.185429  1
  Y  Y1  1  0.791679  0.584947  0.811051  1
  Y  Y2  1  0.021433  0.085380  0.813830  1
  Y  Y3  1  0.209126  0.413513  0.185392  1
  Y  Y4  1  0.640654  0.816953  0.436333  1
  Y  Y5  1  0.209691  0.685352  0.567582  1
  Y  Y6  1  0.357439  0.185229  0.565639  1
  Y  Y7  1  0.792781  0.312935  0.435663  1
  Y  Y8  1  0.419462  0.750732  0.999610  1
  Ho  Ho9  1  0.577207  0.247878  0.998287  1
  Ru  Ru10  1  0.604491  0.923955  0.780928  1
  Ru  Ru11  1  0.176860  0.424321  0.779780  1
  Ru  Ru12  1  0.398435  0.076659  0.219847  1
  Rh  Rh13  1  0.821694  0.574505  0.220629  1
