# generated using pymatgen
data_Ta11Ga8Co4ReC4
_symmetry_space_group_name_H-M   'P 1'
_cell_length_a   8.19312308
_cell_length_b   8.17891331
_cell_length_c   8.19312297
_cell_angle_alpha   60.05812389
_cell_angle_beta   59.47661342
_cell_angle_gamma   60.05811325
_symmetry_Int_Tables_number   1
_chemical_formula_structural   Ta11Ga8Co4ReC4
_chemical_formula_sum   'Ta11 Ga8 Co4 Re1 C4'
_cell_volume   386.99931038
_cell_formula_units_Z   1
loop_
 _symmetry_equiv_pos_site_id
 _symmetry_equiv_pos_as_xyz
  1  'x, y, z'
loop_
 _atom_site_type_symbol
 _atom_site_label
 _atom_site_symmetry_multiplicity
 _atom_site_fract_x
 _atom_site_fract_y
 _atom_site_fract_z
 _atom_site_occupancy
  Ta  Ta0  1  0.691035  0.308970  0.691035  1
  Ta  Ta1  1  0.941358  0.562051  0.557915  1
  Ta  Ta2  1  0.557940  0.938660  0.941344  1
  Ta  Ta3  1  0.938982  0.561029  0.938982  1
  Ta  Ta4  1  0.557915  0.562051  0.941358  1
  Ta  Ta5  1  0.941344  0.938660  0.557940  1
  Ta  Ta6  1  0.686679  0.689637  0.313644  1
  Ta  Ta7  1  0.313644  0.689637  0.686679  1
  Ta  Ta8  1  0.686650  0.310069  0.313650  1
  Ta  Ta9  1  0.313650  0.310069  0.686650  1
  Ta  Ta10  1  0.559927  0.940065  0.559927  1
  Ga  Ga11  1  0.329546  0.341660  0.329546  1
  Ga  Ga12  1  0.248803  0.915616  0.919999  1
  Ga  Ga13  1  0.914625  0.251231  0.914625  1
  Ga  Ga14  1  0.919999  0.915616  0.248803  1
  Ga  Ga15  1  0.329558  0.999191  0.329558  1
  Ga  Ga16  1  0.335180  0.332839  0.999100  1
  Ga  Ga17  1  0.999100  0.332839  0.335180  1
  Ga  Ga18  1  0.914629  0.919568  0.914629  1
  Co  Co19  1  0.119262  0.135680  0.119262  1
  Co  Co20  1  0.622965  0.123444  0.130155  1
  Co  Co21  1  0.119237  0.625800  0.119237  1
  Co  Co22  1  0.130155  0.123444  0.622965  1
  Re  Re23  1  0.321666  0.678312  0.321666  1
  C  C24  1  0.627562  0.622807  0.627562  1
  C  C25  1  0.126480  0.624488  0.624553  1
  C  C26  1  0.627557  0.122079  0.627557  1
  C  C27  1  0.624553  0.624488  0.126480  1
