# generated using pymatgen
data_TbSm9B2Br15
_symmetry_space_group_name_H-M   'P 1'
_cell_length_a   9.24236824
_cell_length_b   10.01978424
_cell_length_c   10.88441079
_cell_angle_alpha   91.19249042
_cell_angle_beta   114.53238737
_cell_angle_gamma   110.75419032
_symmetry_Int_Tables_number   1
_chemical_formula_structural   TbSm9B2Br15
_chemical_formula_sum   'Tb1 Sm9 B2 Br15'
_cell_volume   840.59595139
_cell_formula_units_Z   1
loop_
 _symmetry_equiv_pos_site_id
 _symmetry_equiv_pos_as_xyz
  1  'x, y, z'
loop_
 _atom_site_type_symbol
 _atom_site_label
 _atom_site_symmetry_multiplicity
 _atom_site_fract_x
 _atom_site_fract_y
 _atom_site_fract_z
 _atom_site_occupancy
  Tb  Tb0  1  0.280251  0.925976  0.952056  1
  Sm  Sm1  1  0.799420  0.408813  0.275769  1
  Sm  Sm2  1  0.199056  0.590392  0.723536  1
  Sm  Sm3  1  0.673254  0.745960  0.821097  1
  Sm  Sm4  1  0.325472  0.253954  0.179043  1
  Sm  Sm5  1  0.525290  0.703469  0.095954  1
  Sm  Sm6  1  0.474048  0.296236  0.903889  1
  Sm  Sm7  1  0.585568  0.038440  0.324246  1
  Sm  Sm8  1  0.413497  0.961187  0.675436  1
  Sm  Sm9  1  0.724718  0.075143  0.048655  1
  B  B10  1  0.465128  0.819373  0.876709  1
  B  B11  1  0.530601  0.178982  0.122198  1
  Br  Br12  1  0.002481  0.998764  0.999182  1
  Br  Br13  1  0.637864  0.882925  0.583902  1
  Br  Br14  1  0.361850  0.116925  0.416113  1
  Br  Br15  1  0.883523  0.298766  0.528528  1
  Br  Br16  1  0.116080  0.700950  0.471210  1
  Br  Br17  1  0.286553  0.763196  0.175815  1
  Br  Br18  1  0.711316  0.238695  0.820391  1
  Br  Br19  1  0.055797  0.343074  0.226920  1
  Br  Br20  1  0.162408  0.054839  0.705485  1
  Br  Br21  1  0.837175  0.942407  0.297674  1
  Br  Br22  1  0.228713  0.409280  0.942964  1
  Br  Br23  1  0.770835  0.590541  0.056935  1
  Br  Br24  1  0.407961  0.462252  0.658303  1
  Br  Br25  1  0.591970  0.537723  0.341704  1
  Br  Br26  1  0.949172  0.661740  0.776286  1
