# generated using pymatgen
data_Tb16Ho3CdIr12
_symmetry_space_group_name_H-M   'P 1'
_cell_length_a   10.93340500
_cell_length_b   10.93340500
_cell_length_c   6.32970100
_cell_angle_alpha   90.00000000
_cell_angle_beta   90.00000000
_cell_angle_gamma   90.00000000
_symmetry_Int_Tables_number   1
_chemical_formula_structural   Tb16Ho3CdIr12
_chemical_formula_sum   'Tb16 Ho3 Cd1 Ir12'
_cell_volume   756.64831092
_cell_formula_units_Z   1
loop_
 _symmetry_equiv_pos_site_id
 _symmetry_equiv_pos_as_xyz
  1  'x, y, z'
loop_
 _atom_site_type_symbol
 _atom_site_label
 _atom_site_symmetry_multiplicity
 _atom_site_fract_x
 _atom_site_fract_y
 _atom_site_fract_z
 _atom_site_occupancy
  Tb  Tb0  1  0.282687  0.084541  0.380025  1
  Tb  Tb1  1  0.290987  0.911538  0.879428  1
  Tb  Tb2  1  0.709013  0.088462  0.879428  1
  Tb  Tb3  1  0.717313  0.915459  0.380025  1
  Tb  Tb4  1  0.588980  0.791610  0.881621  1
  Tb  Tb5  1  0.587564  0.208193  0.378218  1
  Tb  Tb6  1  0.412436  0.791807  0.378218  1
  Tb  Tb7  1  0.411020  0.208390  0.881621  1
  Tb  Tb8  1  0.208193  0.412436  0.621782  1
  Tb  Tb9  1  0.208390  0.588980  0.118379  1
  Tb  Tb10  1  0.791610  0.411020  0.118379  1
  Tb  Tb11  1  0.791807  0.587564  0.621782  1
  Tb  Tb12  1  0.911538  0.709013  0.120572  1
  Tb  Tb13  1  0.915459  0.282687  0.619975  1
  Tb  Tb14  1  0.084541  0.717313  0.619975  1
  Tb  Tb15  1  0.088462  0.290987  0.120572  1
  Ho  Ho16  1  0.000000  0.000000  0.000000  1
  Ho  Ho17  1  0.500000  0.500000  0.000000  1
  Ho  Ho18  1  0.500000  0.500000  0.500000  1
  Cd  Cd19  1  0.000000  0.000000  0.500000  1
  Ir  Ir20  1  0.844470  0.156847  0.242241  1
  Ir  Ir21  1  0.843153  0.844470  0.757759  1
  Ir  Ir22  1  0.156847  0.155530  0.757759  1
  Ir  Ir23  1  0.155530  0.843153  0.242241  1
  Ir  Ir24  1  0.654196  0.346978  0.747042  1
  Ir  Ir25  1  0.653022  0.654196  0.252958  1
  Ir  Ir26  1  0.346978  0.345804  0.252958  1
  Ir  Ir27  1  0.345804  0.653022  0.747042  1
  Ir  Ir28  1  0.500000  0.000000  0.124472  1
  Ir  Ir29  1  0.500000  0.000000  0.619252  1
  Ir  Ir30  1  0.000000  0.500000  0.875528  1
  Ir  Ir31  1  0.000000  0.500000  0.380748  1
