# generated using pymatgen
data_TbHo7Ti11Si16Ir
_symmetry_space_group_name_H-M   'P 1'
_cell_length_a   7.02411095
_cell_length_b   7.02228066
_cell_length_c   12.85842071
_cell_angle_alpha   90.14385268
_cell_angle_beta   89.85247793
_cell_angle_gamma   89.82430533
_symmetry_Int_Tables_number   1
_chemical_formula_structural   TbHo7Ti11Si16Ir
_chemical_formula_sum   'Tb1 Ho7 Ti11 Si16 Ir1'
_cell_volume   634.23808578
_cell_formula_units_Z   1
loop_
 _symmetry_equiv_pos_site_id
 _symmetry_equiv_pos_as_xyz
  1  'x, y, z'
loop_
 _atom_site_type_symbol
 _atom_site_label
 _atom_site_symmetry_multiplicity
 _atom_site_fract_x
 _atom_site_fract_y
 _atom_site_fract_z
 _atom_site_occupancy
  Tb  Tb0  1  0.340152  0.005290  0.467499  1
  Ho  Ho1  1  0.496738  0.841718  0.718333  1
  Ho  Ho2  1  0.501096  0.158346  0.214778  1
  Ho  Ho3  1  0.841793  0.496417  0.281836  1
  Ho  Ho4  1  0.158116  0.500875  0.785136  1
  Ho  Ho5  1  0.657642  0.997981  0.968509  1
  Ho  Ho6  1  0.004046  0.340830  0.532836  1
  Ho  Ho7  1  0.997852  0.657560  0.031226  1
  Ti  Ti8  1  0.175292  0.826939  0.247916  1
  Ti  Ti9  1  0.827042  0.175528  0.752084  1
  Ti  Ti10  1  0.673923  0.673392  0.499976  1
  Ti  Ti11  1  0.149290  0.002053  0.875810  1
  Ti  Ti12  1  0.494009  0.656233  0.124558  1
  Ti  Ti13  1  0.506758  0.349701  0.628347  1
  Ti  Ti14  1  0.656385  0.493948  0.875312  1
  Ti  Ti15  1  0.349656  0.506433  0.371743  1
  Ti  Ti16  1  0.848585  0.994219  0.374779  1
  Ti  Ti17  1  0.001851  0.149499  0.124169  1
  Ti  Ti18  1  0.994127  0.848619  0.625308  1
  Si  Si19  1  0.202171  0.133263  0.685770  1
  Si  Si20  1  0.372060  0.701810  0.933261  1
  Si  Si21  1  0.632205  0.296562  0.434042  1
  Si  Si22  1  0.701904  0.372044  0.066669  1
  Si  Si23  1  0.295750  0.630401  0.566133  1
  Si  Si24  1  0.796392  0.867546  0.183599  1
  Si  Si25  1  0.132412  0.203106  0.314094  1
  Si  Si26  1  0.867544  0.796377  0.816440  1
  Si  Si27  1  0.286573  0.951973  0.063888  1
  Si  Si28  1  0.548058  0.791676  0.315245  1
  Si  Si29  1  0.449559  0.209702  0.818361  1
  Si  Si30  1  0.792258  0.547207  0.684467  1
  Si  Si31  1  0.209591  0.449483  0.181601  1
  Si  Si32  1  0.709536  0.048724  0.566020  1
  Si  Si33  1  0.951805  0.286566  0.936063  1
  Si  Si34  1  0.047736  0.707926  0.434225  1
  Ir  Ir35  1  0.330093  0.330052  0.999966  1
