# generated using pymatgen
data_Sc12In(RuBr8)2
_symmetry_space_group_name_H-M   'P 1'
_cell_length_a   9.07553968
_cell_length_b   11.19766814
_cell_length_c   11.82331158
_cell_angle_alpha   117.07807078
_cell_angle_beta   101.97978367
_cell_angle_gamma   101.34300888
_symmetry_Int_Tables_number   1
_chemical_formula_structural   Sc12In(RuBr8)2
_chemical_formula_sum   'Sc12 In1 Ru2 Br16'
_cell_volume   986.32989967
_cell_formula_units_Z   1
loop_
 _symmetry_equiv_pos_site_id
 _symmetry_equiv_pos_as_xyz
  1  'x, y, z'
loop_
 _atom_site_type_symbol
 _atom_site_label
 _atom_site_symmetry_multiplicity
 _atom_site_fract_x
 _atom_site_fract_y
 _atom_site_fract_z
 _atom_site_occupancy
  Sc  Sc0  1  0.097133  0.244722  0.343120  1
  Sc  Sc1  1  0.902947  0.755391  0.656962  1
  Sc  Sc2  1  0.756227  0.539900  0.310671  1
  Sc  Sc3  1  0.243756  0.460086  0.689235  1
  Sc  Sc4  1  0.307367  0.756605  0.657387  1
  Sc  Sc5  1  0.692620  0.243300  0.342554  1
  Sc  Sc6  1  0.160132  0.538682  0.312594  1
  Sc  Sc7  1  0.839918  0.461302  0.687524  1
  Sc  Sc8  1  0.403677  0.354737  0.268391  1
  Sc  Sc9  1  0.596199  0.645271  0.731615  1
  Sc  Sc10  1  0.456735  0.302826  0.520769  1
  Sc  Sc11  1  0.543120  0.697175  0.479224  1
  In  In12  1  0.000080  0.500029  0.500003  1
  Ru  Ru13  1  0.338368  0.499969  0.499467  1
  Ru  Ru14  1  0.661627  0.500016  0.500526  1
  Br  Br15  1  0.401330  0.744398  0.888944  1
  Br  Br16  1  0.598627  0.255576  0.111019  1
  Br  Br17  1  0.189108  0.963670  0.783028  1
  Br  Br18  1  0.810992  0.036339  0.216967  1
  Br  Br19  1  0.337618  0.088696  0.247260  1
  Br  Br20  1  0.662387  0.911311  0.752749  1
  Br  Br21  1  0.554211  0.436972  0.803114  1
  Br  Br22  1  0.445767  0.563020  0.196875  1
  Br  Br23  1  0.312482  0.830452  0.461697  1
  Br  Br24  1  0.687500  0.169528  0.538309  1
  Br  Br25  1  0.167829  0.166848  0.532555  1
  Br  Br26  1  0.832167  0.833173  0.467433  1
  Br  Br27  1  0.926588  0.574655  0.161464  1
  Br  Br28  1  0.073493  0.425329  0.838521  1
  Br  Br29  1  0.922916  0.743292  0.889547  1
  Br  Br30  1  0.077080  0.256729  0.110473  1
