# generated using pymatgen
data_Lu3Ga3Ge2Ir
_symmetry_space_group_name_H-M   'P 1'
_cell_length_a   6.92720100
_cell_length_b   6.92720121
_cell_length_c   4.13761800
_cell_angle_alpha   90.00000000
_cell_angle_beta   90.00000000
_cell_angle_gamma   120.00000376
_symmetry_Int_Tables_number   1
_chemical_formula_structural   Lu3Ga3Ge2Ir
_chemical_formula_sum   'Lu3 Ga3 Ge2 Ir1'
_cell_volume   171.94779057
_cell_formula_units_Z   1
loop_
 _symmetry_equiv_pos_site_id
 _symmetry_equiv_pos_as_xyz
  1  'x, y, z'
loop_
 _atom_site_type_symbol
 _atom_site_label
 _atom_site_symmetry_multiplicity
 _atom_site_fract_x
 _atom_site_fract_y
 _atom_site_fract_z
 _atom_site_occupancy
  Lu  Lu0  1  0.407431  0.000000  0.000000  1
  Lu  Lu1  1  0.000000  0.407430  0.000000  1
  Lu  Lu2  1  0.592570  0.592569  0.000000  1
  Ga  Ga3  1  0.765240  0.000000  0.500000  1
  Ga  Ga4  1  0.234760  0.234760  0.500000  1
  Ga  Ga5  1  0.000000  0.765239  0.500000  1
  Ge  Ge6  1  0.666666  0.333333  0.500000  1
  Ge  Ge7  1  0.333333  0.666667  0.500000  1
  Ir  Ir8  1  0.000000  0.000000  0.000000  1
