# generated using pymatgen
data_ThZr5PBr15
_symmetry_space_group_name_H-M   'P 1'
_cell_length_a   9.54959419
_cell_length_b   9.54959405
_cell_length_c   9.54959415
_cell_angle_alpha   110.55984618
_cell_angle_beta   110.55984658
_cell_angle_gamma   107.31524590
_symmetry_Int_Tables_number   1
_chemical_formula_structural   ThZr5PBr15
_chemical_formula_sum   'Th1 Zr5 P1 Br15'
_cell_volume   669.68960637
_cell_formula_units_Z   1
loop_
 _symmetry_equiv_pos_site_id
 _symmetry_equiv_pos_as_xyz
  1  'x, y, z'
loop_
 _atom_site_type_symbol
 _atom_site_label
 _atom_site_symmetry_multiplicity
 _atom_site_fract_x
 _atom_site_fract_y
 _atom_site_fract_z
 _atom_site_occupancy
  Th  Th0  1  0.742633  0.742633  0.000000  1
  Zr  Zr1  1  0.234983  0.006191  0.228792  1
  Zr  Zr2  1  0.211090  0.211090  0.000000  1
  Zr  Zr3  1  0.777399  0.006191  0.771208  1
  Zr  Zr4  1  0.006191  0.234983  0.228792  1
  Zr  Zr5  1  0.006191  0.777399  0.771208  1
  P  P6  1  0.988077  0.988077  0.000000  1
  Br  Br7  1  0.028485  0.764692  0.263792  1
  Br  Br8  1  0.250165  0.754254  0.000000  1
  Br  Br9  1  0.500900  0.764692  0.736208  1
  Br  Br10  1  0.996437  0.242010  0.754427  1
  Br  Br11  1  0.764692  0.028485  0.263792  1
  Br  Br12  1  0.242010  0.487584  0.245573  1
  Br  Br13  1  0.754254  0.250165  0.000000  1
  Br  Br14  1  0.487757  0.487757  0.000000  1
  Br  Br15  1  0.250165  0.250165  0.495911  1
  Br  Br16  1  0.764692  0.500900  0.736208  1
  Br  Br17  1  0.754254  0.754254  0.504089  1
  Br  Br18  1  0.487584  0.242010  0.245573  1
  Br  Br19  1  0.242010  0.996437  0.754427  1
  Br  Br20  1  0.005015  0.505015  0.500000  1
  Br  Br21  1  0.505015  0.005015  0.500000  1
