# generated using pymatgen
data_Tb12TcOs2Ru
_symmetry_space_group_name_H-M   'P 1'
_cell_length_a   6.33946074
_cell_length_b   7.40089842
_cell_length_c   9.21014000
_cell_angle_alpha   90.00000000
_cell_angle_beta   90.00000000
_cell_angle_gamma   90.10317552
_symmetry_Int_Tables_number   1
_chemical_formula_structural   Tb12TcOs2Ru
_chemical_formula_sum   'Tb12 Tc1 Os2 Ru1'
_cell_volume   432.11793080
_cell_formula_units_Z   1
loop_
 _symmetry_equiv_pos_site_id
 _symmetry_equiv_pos_as_xyz
  1  'x, y, z'
loop_
 _atom_site_type_symbol
 _atom_site_label
 _atom_site_symmetry_multiplicity
 _atom_site_fract_x
 _atom_site_fract_y
 _atom_site_fract_z
 _atom_site_occupancy
  Tb  Tb0  1  0.332187  0.675252  0.063217  1
  Tb  Tb1  1  0.167354  0.175981  0.435941  1
  Tb  Tb2  1  0.667528  0.324728  0.563540  1
  Tb  Tb3  1  0.831149  0.823876  0.934898  1
  Tb  Tb4  1  0.667528  0.324728  0.936460  1
  Tb  Tb5  1  0.831149  0.823876  0.565102  1
  Tb  Tb6  1  0.332187  0.675252  0.436783  1
  Tb  Tb7  1  0.167354  0.175981  0.064059  1
  Tb  Tb8  1  0.867433  0.541927  0.250000  1
  Tb  Tb9  1  0.633935  0.040212  0.250000  1
  Tb  Tb10  1  0.131536  0.460195  0.750000  1
  Tb  Tb11  1  0.369667  0.960020  0.750000  1
  Tc  Tc12  1  0.959759  0.114133  0.750000  1
  Os  Os13  1  0.459077  0.384495  0.250000  1
  Os  Os14  1  0.541369  0.615613  0.750000  1
  Ru  Ru15  1  0.040790  0.883730  0.250000  1
