# generated using pymatgen
data_Na8Sr4Mn3V8CdO32
_symmetry_space_group_name_H-M   'P 1'
_cell_length_a   5.64822100
_cell_length_b   9.79197709
_cell_length_c   14.00242400
_cell_angle_alpha   89.94156307
_cell_angle_beta   90.00000000
_cell_angle_gamma   90.00000000
_symmetry_Int_Tables_number   1
_chemical_formula_structural   Na8Sr4Mn3V8CdO32
_chemical_formula_sum   'Na8 Sr4 Mn3 V8 Cd1 O32'
_cell_volume   774.43517105
_cell_formula_units_Z   1
loop_
 _symmetry_equiv_pos_site_id
 _symmetry_equiv_pos_as_xyz
  1  'x, y, z'
loop_
 _atom_site_type_symbol
 _atom_site_label
 _atom_site_symmetry_multiplicity
 _atom_site_fract_x
 _atom_site_fract_y
 _atom_site_fract_z
 _atom_site_occupancy
  Na  Na0  1  0.471803  0.818595  0.914095  1
  Na  Na1  1  0.971724  0.687672  0.087501  1
  Na  Na2  1  0.528197  0.181405  0.085905  1
  Na  Na3  1  0.028276  0.312328  0.912499  1
  Na  Na4  1  0.519474  0.146852  0.585187  1
  Na  Na5  1  0.019231  0.350780  0.413021  1
  Na  Na6  1  0.480526  0.853148  0.414813  1
  Na  Na7  1  0.980769  0.649220  0.586979  1
  Sr  Sr8  1  0.569999  0.456447  0.747849  1
  Sr  Sr9  1  0.068337  0.039119  0.251785  1
  Sr  Sr10  1  0.430001  0.543553  0.252151  1
  Sr  Sr11  1  0.931663  0.960881  0.748215  1
  Mn  Mn12  1  0.500000  0.500000  0.500000  1
  Mn  Mn13  1  0.000000  0.000000  0.500000  1
  Mn  Mn14  1  0.000000  0.000000  0.000000  1
  V  V15  1  0.465793  0.816672  0.636114  1
  V  V16  1  0.962990  0.683659  0.365125  1
  V  V17  1  0.534207  0.183328  0.363886  1
  V  V18  1  0.037010  0.316341  0.634875  1
  V  V19  1  0.477365  0.141032  0.861791  1
  V  V20  1  0.973718  0.351309  0.138433  1
  V  V21  1  0.522635  0.858968  0.138209  1
  V  V22  1  0.026282  0.648691  0.861567  1
  Cd  Cd23  1  0.500000  0.500000  0.000000  1
  O  O24  1  0.501269  0.639394  0.619728  1
  O  O25  1  0.000167  0.860409  0.381888  1
  O  O26  1  0.498731  0.360606  0.380272  1
  O  O27  1  0.999833  0.139591  0.618112  1
  O  O28  1  0.681632  0.907701  0.571874  1
  O  O29  1  0.178172  0.591038  0.428454  1
  O  O30  1  0.318368  0.092299  0.428126  1
  O  O31  1  0.821828  0.408962  0.571546  1
  O  O32  1  0.189103  0.074270  0.873835  1
  O  O33  1  0.680979  0.412584  0.134109  1
  O  O34  1  0.810897  0.925730  0.126165  1
  O  O35  1  0.319021  0.587416  0.865891  1
  O  O36  1  0.690013  0.032208  0.912306  1
  O  O37  1  0.172447  0.471290  0.092156  1
  O  O38  1  0.309987  0.967792  0.087694  1
  O  O39  1  0.827553  0.528710  0.907844  1
  O  O40  1  0.476403  0.293467  0.925969  1
  O  O41  1  0.981509  0.202750  0.068824  1
  O  O42  1  0.523597  0.706533  0.074031  1
  O  O43  1  0.018491  0.797250  0.931176  1
  O  O44  1  0.188690  0.865191  0.591705  1
  O  O45  1  0.683798  0.635741  0.407747  1
  O  O46  1  0.811310  0.134809  0.408295  1
  O  O47  1  0.316202  0.364259  0.592253  1
  O  O48  1  0.488372  0.866557  0.752807  1
  O  O49  1  0.986826  0.637773  0.247794  1
  O  O50  1  0.511628  0.133443  0.247193  1
  O  O51  1  0.013174  0.362227  0.752206  1
  O  O52  1  0.557628  0.182093  0.747020  1
  O  O53  1  0.058285  0.307385  0.252052  1
  O  O54  1  0.442372  0.817907  0.252980  1
  O  O55  1  0.941715  0.692615  0.747948  1
