# generated using pymatgen
data_Dy6Ho9Tm(CdPt)4
_symmetry_space_group_name_H-M   'P 1'
_cell_length_a   9.64982806
_cell_length_b   9.64982780
_cell_length_c   9.64391800
_cell_angle_alpha   60.02024994
_cell_angle_beta   60.02025084
_cell_angle_gamma   60.00266494
_symmetry_Int_Tables_number   1
_chemical_formula_structural   Dy6Ho9Tm(CdPt)4
_chemical_formula_sum   'Dy6 Ho9 Tm1 Cd4 Pt4'
_cell_volume   635.21283417
_cell_formula_units_Z   1
loop_
 _symmetry_equiv_pos_site_id
 _symmetry_equiv_pos_as_xyz
  1  'x, y, z'
loop_
 _atom_site_type_symbol
 _atom_site_label
 _atom_site_symmetry_multiplicity
 _atom_site_fract_x
 _atom_site_fract_y
 _atom_site_fract_z
 _atom_site_occupancy
  Dy  Dy0  1  0.935976  0.564457  0.563907  1
  Dy  Dy1  1  0.564457  0.935976  0.935660  1
  Dy  Dy2  1  0.564457  0.935976  0.563907  1
  Dy  Dy3  1  0.935976  0.564456  0.935660  1
  Dy  Dy4  1  0.565569  0.565569  0.934431  1
  Dy  Dy5  1  0.937204  0.937204  0.562795  1
  Ho  Ho6  1  0.352110  0.352110  0.349826  1
  Ho  Ho7  1  0.352110  0.352110  0.945957  1
  Ho  Ho8  1  0.355584  0.939378  0.352520  1
  Ho  Ho9  1  0.939378  0.355584  0.352520  1
  Ho  Ho10  1  0.811233  0.188726  0.189811  1
  Ho  Ho11  1  0.188726  0.811233  0.810230  1
  Ho  Ho12  1  0.188726  0.811233  0.189811  1
  Ho  Ho13  1  0.811233  0.188726  0.810230  1
  Ho  Ho14  1  0.190348  0.190348  0.809652  1
  Tm  Tm15  1  0.811314  0.811314  0.188686  1
  Cd  Cd16  1  0.581036  0.581036  0.582433  1
  Cd  Cd17  1  0.581036  0.581036  0.255495  1
  Cd  Cd18  1  0.580659  0.254599  0.582371  1
  Cd  Cd19  1  0.254599  0.580659  0.582371  1
  Pt  Pt20  1  0.143172  0.143172  0.145537  1
  Pt  Pt21  1  0.143172  0.143172  0.568122  1
  Pt  Pt22  1  0.140250  0.571678  0.144037  1
  Pt  Pt23  1  0.571678  0.140250  0.144037  1
