# generated using pymatgen
data_Y2Er5Tm9(Ga3Co)2
_symmetry_space_group_name_H-M   'P 1'
_cell_length_a   9.91139902
_cell_length_b   9.91142793
_cell_length_c   6.87918600
_cell_angle_alpha   90.00149689
_cell_angle_beta   89.99862915
_cell_angle_gamma   119.99246600
_symmetry_Int_Tables_number   1
_chemical_formula_structural   Y2Er5Tm9(Ga3Co)2
_chemical_formula_sum   'Y2 Er5 Tm9 Ga6 Co2'
_cell_volume   585.29098844
_cell_formula_units_Z   1
loop_
 _symmetry_equiv_pos_site_id
 _symmetry_equiv_pos_as_xyz
  1  'x, y, z'
loop_
 _atom_site_type_symbol
 _atom_site_label
 _atom_site_symmetry_multiplicity
 _atom_site_fract_x
 _atom_site_fract_y
 _atom_site_fract_z
 _atom_site_occupancy
  Y  Y0  1  0.999997  0.000004  0.270142  1
  Y  Y1  1  0.000017  0.999982  0.770124  1
  Er  Er2  1  0.535913  0.464090  0.793057  1
  Er  Er3  1  0.464033  0.927991  0.292985  1
  Er  Er4  1  0.072010  0.535968  0.292985  1
  Er  Er5  1  0.928095  0.464051  0.793035  1
  Er  Er6  1  0.535950  0.071902  0.793034  1
  Tm  Tm7  1  0.173723  0.826278  0.990807  1
  Tm  Tm8  1  0.826286  0.173715  0.490801  1
  Tm  Tm9  1  0.173865  0.347565  0.990935  1
  Tm  Tm10  1  0.652435  0.826136  0.990933  1
  Tm  Tm11  1  0.347471  0.173848  0.490704  1
  Tm  Tm12  1  0.826152  0.652529  0.490703  1
  Tm  Tm13  1  0.333399  0.666600  0.672730  1
  Tm  Tm14  1  0.666610  0.333390  0.172786  1
  Tm  Tm15  1  0.463932  0.536067  0.293054  1
  Ga  Ga16  1  0.163714  0.836286  0.540359  1
  Ga  Ga17  1  0.836282  0.163719  0.040316  1
  Ga  Ga18  1  0.163787  0.327485  0.540274  1
  Ga  Ga19  1  0.672513  0.836212  0.540271  1
  Ga  Ga20  1  0.327435  0.163720  0.040400  1
  Ga  Ga21  1  0.836281  0.672565  0.040400  1
  Co  Co22  1  0.333436  0.666563  0.057699  1
  Co  Co23  1  0.666666  0.333335  0.557587  1
