# generated using pymatgen
data_Mn4Be(Cr3C)6
_symmetry_space_group_name_H-M   'P 1'
_cell_length_a   7.41647273
_cell_length_b   7.42909951
_cell_length_c   7.42909979
_cell_angle_alpha   60.09915880
_cell_angle_beta   60.05621622
_cell_angle_gamma   60.05620494
_symmetry_Int_Tables_number   1
_chemical_formula_structural   Mn4Be(Cr3C)6
_chemical_formula_sum   'Mn4 Be1 Cr18 C6'
_cell_volume   289.89998413
_cell_formula_units_Z   1
loop_
 _symmetry_equiv_pos_site_id
 _symmetry_equiv_pos_as_xyz
  1  'x, y, z'
loop_
 _atom_site_type_symbol
 _atom_site_label
 _atom_site_symmetry_multiplicity
 _atom_site_fract_x
 _atom_site_fract_y
 _atom_site_fract_z
 _atom_site_occupancy
  Mn  Mn0  1  0.751215  0.748785  0.748785  1
  Mn  Mn1  1  0.249822  0.250178  0.250178  1
  Mn  Mn2  1  0.617785  0.618021  0.146407  1
  Mn  Mn3  1  0.617785  0.146407  0.618021  1
  Be  Be4  1  0.000811  0.999189  0.999189  1
  Cr  Cr5  1  0.143331  0.618762  0.618762  1
  Cr  Cr6  1  0.619143  0.618762  0.618762  1
  Cr  Cr7  1  0.379448  0.380840  0.860265  1
  Cr  Cr8  1  0.379448  0.860265  0.380840  1
  Cr  Cr9  1  0.858993  0.380778  0.380778  1
  Cr  Cr10  1  0.379453  0.380778  0.380778  1
  Cr  Cr11  1  0.998568  0.999591  0.337299  1
  Cr  Cr12  1  0.664543  0.999591  0.337299  1
  Cr  Cr13  1  0.000305  0.663574  0.335816  1
  Cr  Cr14  1  0.664543  0.337299  0.999591  1
  Cr  Cr15  1  0.998568  0.337299  0.999591  1
  Cr  Cr16  1  0.000305  0.335816  0.663574  1
  Cr  Cr17  1  0.338536  0.662664  0.999887  1
  Cr  Cr18  1  0.338536  0.999887  0.662664  1
  Cr  Cr19  1  0.339874  0.998073  0.998073  1
  Cr  Cr20  1  0.998913  0.999887  0.662664  1
  Cr  Cr21  1  0.998913  0.662664  0.999887  1
  Cr  Cr22  1  0.663981  0.998073  0.998073  1
  C  C23  1  0.719854  0.721425  0.278670  1
  C  C24  1  0.280050  0.721425  0.278670  1
  C  C25  1  0.719326  0.280674  0.280674  1
  C  C26  1  0.280050  0.278670  0.721425  1
  C  C27  1  0.719854  0.278670  0.721425  1
  C  C28  1  0.278048  0.721952  0.721952  1
