# generated using pymatgen
data_Hf8Nb2GaSn7
_symmetry_space_group_name_H-M   'P 1'
_cell_length_a   5.81173200
_cell_length_b   8.66125251
_cell_length_c   8.66127100
_cell_angle_alpha   119.99993648
_cell_angle_beta   89.99985652
_cell_angle_gamma   90.00027867
_symmetry_Int_Tables_number   1
_chemical_formula_structural   Hf8Nb2GaSn7
_chemical_formula_sum   'Hf8 Nb2 Ga1 Sn7'
_cell_volume   377.57116177
_cell_formula_units_Z   1
loop_
 _symmetry_equiv_pos_site_id
 _symmetry_equiv_pos_as_xyz
  1  'x, y, z'
loop_
 _atom_site_type_symbol
 _atom_site_label
 _atom_site_symmetry_multiplicity
 _atom_site_fract_x
 _atom_site_fract_y
 _atom_site_fract_z
 _atom_site_occupancy
  Hf  Hf0  1  0.000000  0.666662  0.333327  1
  Hf  Hf1  1  0.000000  0.333335  0.666673  1
  Hf  Hf2  1  0.736846  0.276382  0.000000  1
  Hf  Hf3  1  0.736853  0.723631  0.723615  1
  Hf  Hf4  1  0.736853  0.000016  0.276385  1
  Hf  Hf5  1  0.263151  0.723622  0.000000  1
  Hf  Hf6  1  0.263149  0.276368  0.276383  1
  Hf  Hf7  1  0.263149  0.999985  0.723617  1
  Nb  Nb8  1  0.500000  0.333335  0.666672  1
  Nb  Nb9  1  0.500000  0.666663  0.333328  1
  Ga  Ga10  1  0.500001  0.000000  0.000000  1
  Sn  Sn11  1  0.751779  0.611917  0.000000  1
  Sn  Sn12  1  0.751782  0.388101  0.388101  1
  Sn  Sn13  1  0.751782  0.000000  0.611899  1
  Sn  Sn14  1  0.248219  0.388086  0.000000  1
  Sn  Sn15  1  0.248219  0.611897  0.611898  1
  Sn  Sn16  1  0.248219  0.999999  0.388102  1
  Sn  Sn17  1  0.999997  0.000002  0.000000  1
