# generated using pymatgen
data_GdYB6Ru
_symmetry_space_group_name_H-M   'P 1'
_cell_length_a   3.67528500
_cell_length_b   9.18414000
_cell_length_c   11.56131200
_cell_angle_alpha   90.00000000
_cell_angle_beta   90.00000000
_cell_angle_gamma   90.00000000
_symmetry_Int_Tables_number   1
_chemical_formula_structural   GdYB6Ru
_chemical_formula_sum   'Gd4 Y4 B24 Ru4'
_cell_volume   390.24436337
_cell_formula_units_Z   4
loop_
 _symmetry_equiv_pos_site_id
 _symmetry_equiv_pos_as_xyz
  1  'x, y, z'
loop_
 _atom_site_type_symbol
 _atom_site_label
 _atom_site_symmetry_multiplicity
 _atom_site_fract_x
 _atom_site_fract_y
 _atom_site_fract_z
 _atom_site_occupancy
  Gd  Gd0  1  0.000000  0.323297  0.413873  1
  Gd  Gd1  1  0.000000  0.676703  0.586127  1
  Gd  Gd2  1  0.000000  0.823297  0.086127  1
  Gd  Gd3  1  0.000000  0.176703  0.913873  1
  Y  Y4  1  0.000000  0.943793  0.372769  1
  Y  Y5  1  0.000000  0.056207  0.627231  1
  Y  Y6  1  0.000000  0.443793  0.127231  1
  Y  Y7  1  0.000000  0.556207  0.872769  1
  B  B8  1  0.500000  0.554139  0.432318  1
  B  B9  1  0.500000  0.445861  0.567682  1
  B  B10  1  0.500000  0.054139  0.067682  1
  B  B11  1  0.500000  0.945861  0.932318  1
  B  B12  1  0.500000  0.747366  0.419595  1
  B  B13  1  0.500000  0.252634  0.580405  1
  B  B14  1  0.500000  0.247366  0.080405  1
  B  B15  1  0.500000  0.752634  0.919595  1
  B  B16  1  0.500000  0.790385  0.266701  1
  B  B17  1  0.500000  0.209615  0.733299  1
  B  B18  1  0.500000  0.290385  0.233299  1
  B  B19  1  0.500000  0.709615  0.766701  1
  B  B20  1  0.500000  0.631977  0.185594  1
  B  B21  1  0.500000  0.368023  0.814406  1
  B  B22  1  0.500000  0.131977  0.314406  1
  B  B23  1  0.500000  0.868023  0.685594  1
  B  B24  1  0.500000  0.984140  0.212856  1
  B  B25  1  0.500000  0.015860  0.787144  1
  B  B26  1  0.500000  0.484140  0.287144  1
  B  B27  1  0.500000  0.515860  0.712856  1
  B  B28  1  0.500000  0.609492  0.030263  1
  B  B29  1  0.500000  0.390508  0.969737  1
  B  B30  1  0.500000  0.109492  0.469737  1
  B  B31  1  0.500000  0.890508  0.530263  1
  Ru  Ru32  1  0.000000  0.638055  0.320936  1
  Ru  Ru33  1  0.000000  0.361945  0.679064  1
  Ru  Ru34  1  0.000000  0.138055  0.179064  1
  Ru  Ru35  1  0.000000  0.861945  0.820936  1
