# generated using pymatgen
data_Pr5(TcB3)2
_symmetry_space_group_name_H-M   'P 1'
_cell_length_a   8.85955980
_cell_length_b   8.85955920
_cell_length_c   8.85955982
_cell_angle_alpha   37.15113286
_cell_angle_beta   37.15113564
_cell_angle_gamma   37.15113439
_symmetry_Int_Tables_number   1
_chemical_formula_structural   Pr5(TcB3)2
_chemical_formula_sum   'Pr5 Tc2 B6'
_cell_volume   227.31502535
_cell_formula_units_Z   1
loop_
 _symmetry_equiv_pos_site_id
 _symmetry_equiv_pos_as_xyz
  1  'x, y, z'
loop_
 _atom_site_type_symbol
 _atom_site_label
 _atom_site_symmetry_multiplicity
 _atom_site_fract_x
 _atom_site_fract_y
 _atom_site_fract_z
 _atom_site_occupancy
  Pr  Pr0  1  0.581951  0.581951  0.581951  1
  Pr  Pr1  1  0.418049  0.418049  0.418049  1
  Pr  Pr2  1  0.750470  0.750470  0.750470  1
  Pr  Pr3  1  0.249530  0.249530  0.249530  1
  Pr  Pr4  1  0.000000  0.000000  0.000000  1
  Tc  Tc5  1  0.884868  0.884868  0.884868  1
  Tc  Tc6  1  0.115132  0.115132  0.115132  1
  B  B7  1  0.500000  0.831824  0.168176  1
  B  B8  1  0.168176  0.500000  0.831824  1
  B  B9  1  0.831824  0.168176  0.500000  1
  B  B10  1  0.500000  0.168176  0.831824  1
  B  B11  1  0.831824  0.500000  0.168176  1
  B  B12  1  0.168176  0.831824  0.500000  1
