# generated using pymatgen
data_Tm8Lu4ZnCo4Pb
_symmetry_space_group_name_H-M   'P 1'
_cell_length_a   8.20042307
_cell_length_b   8.20042324
_cell_length_c   8.20042262
_cell_angle_alpha   111.35570896
_cell_angle_beta   110.18008270
_cell_angle_gamma   106.91011680
_symmetry_Int_Tables_number   1
_chemical_formula_structural   Tm8Lu4ZnCo4Pb
_chemical_formula_sum   'Tm8 Lu4 Zn1 Co4 Pb1'
_cell_volume   423.82957616
_cell_formula_units_Z   1
loop_
 _symmetry_equiv_pos_site_id
 _symmetry_equiv_pos_as_xyz
  1  'x, y, z'
loop_
 _atom_site_type_symbol
 _atom_site_label
 _atom_site_symmetry_multiplicity
 _atom_site_fract_x
 _atom_site_fract_y
 _atom_site_fract_z
 _atom_site_occupancy
  Tm  Tm0  1  0.429800  0.224419  0.205380  1
  Tm  Tm1  1  0.570200  0.775581  0.794620  1
  Tm  Tm2  1  0.019038  0.224419  0.794620  1
  Tm  Tm3  1  0.980962  0.775581  0.205380  1
  Tm  Tm4  1  0.183465  0.284205  0.467668  1
  Tm  Tm5  1  0.816535  0.715795  0.532332  1
  Tm  Tm6  1  0.183465  0.715795  0.899261  1
  Tm  Tm7  1  0.816535  0.284205  0.100739  1
  Lu  Lu8  1  0.314986  0.621906  0.306918  1
  Lu  Lu9  1  0.685014  0.378094  0.693082  1
  Lu  Lu10  1  0.314986  0.008068  0.693082  1
  Lu  Lu11  1  0.685014  0.991932  0.306918  1
  Zn  Zn12  1  0.000000  0.000000  0.000000  1
  Co  Co13  1  0.374558  0.000000  0.374558  1
  Co  Co14  1  0.625442  0.000000  0.625442  1
  Co  Co15  1  0.113961  0.613961  0.500000  1
  Co  Co16  1  0.886039  0.386039  0.500000  1
  Pb  Pb17  1  0.500000  0.500000  0.000000  1
