# generated using pymatgen
data_ErLu2Sn3HgRh2
_symmetry_space_group_name_H-M   'P 1'
_cell_length_a   7.66270403
_cell_length_b   7.67665114
_cell_length_c   3.83795300
_cell_angle_alpha   90.00000000
_cell_angle_beta   90.00000000
_cell_angle_gamma   119.80872060
_symmetry_Int_Tables_number   1
_chemical_formula_structural   ErLu2Sn3HgRh2
_chemical_formula_sum   'Er1 Lu2 Sn3 Hg1 Rh2'
_cell_volume   195.89258689
_cell_formula_units_Z   1
loop_
 _symmetry_equiv_pos_site_id
 _symmetry_equiv_pos_as_xyz
  1  'x, y, z'
loop_
 _atom_site_type_symbol
 _atom_site_label
 _atom_site_symmetry_multiplicity
 _atom_site_fract_x
 _atom_site_fract_y
 _atom_site_fract_z
 _atom_site_occupancy
  Er  Er0  1  0.588881  0.978268  0.000000  1
  Lu  Lu1  1  0.387174  0.411245  0.000000  1
  Lu  Lu2  1  0.023674  0.612255  0.000000  1
  Sn  Sn3  1  0.741071  0.747244  0.500000  1
  Sn  Sn4  1  0.007250  0.259526  0.500000  1
  Sn  Sn5  1  0.252411  0.992943  0.500000  1
  Hg  Hg6  1  0.667044  0.335337  0.500000  1
  Rh  Rh7  1  0.001426  0.999832  0.000000  1
  Rh  Rh8  1  0.331068  0.663352  0.500000  1
