# generated using pymatgen
data_Nd16Hg4IrPd3
_symmetry_space_group_name_H-M   'P 1'
_cell_length_a   9.99420940
_cell_length_b   9.98894196
_cell_length_c   9.98894100
_cell_angle_alpha   59.99999986
_cell_angle_beta   60.01743299
_cell_angle_gamma   60.01743319
_symmetry_Int_Tables_number   1
_chemical_formula_structural   Nd16Hg4IrPd3
_chemical_formula_sum   'Nd16 Hg4 Ir1 Pd3'
_cell_volume   705.32092881
_cell_formula_units_Z   1
loop_
 _symmetry_equiv_pos_site_id
 _symmetry_equiv_pos_as_xyz
  1  'x, y, z'
loop_
 _atom_site_type_symbol
 _atom_site_label
 _atom_site_symmetry_multiplicity
 _atom_site_fract_x
 _atom_site_fract_y
 _atom_site_fract_z
 _atom_site_occupancy
  Nd  Nd0  1  0.604938  0.598785  0.598785  1
  Nd  Nd1  1  0.604938  0.598785  0.197493  1
  Nd  Nd2  1  0.604938  0.197493  0.598785  1
  Nd  Nd3  1  0.184736  0.605088  0.605088  1
  Nd  Nd4  1  0.056120  0.440101  0.440101  1
  Nd  Nd5  1  0.444903  0.057072  0.057072  1
  Nd  Nd6  1  0.444903  0.057072  0.440953  1
  Nd  Nd7  1  0.056120  0.440101  0.063677  1
  Nd  Nd8  1  0.444903  0.440953  0.057072  1
  Nd  Nd9  1  0.056120  0.063677  0.440101  1
  Nd  Nd10  1  0.187261  0.814526  0.814526  1
  Nd  Nd11  1  0.817281  0.186242  0.186242  1
  Nd  Nd12  1  0.817281  0.186242  0.810234  1
  Nd  Nd13  1  0.187261  0.814526  0.183687  1
  Nd  Nd14  1  0.817281  0.810234  0.186242  1
  Nd  Nd15  1  0.187261  0.183687  0.814526  1
  Hg  Hg16  1  0.831611  0.835160  0.835160  1
  Hg  Hg17  1  0.831611  0.835160  0.498069  1
  Hg  Hg18  1  0.831611  0.498069  0.835160  1
  Hg  Hg19  1  0.499374  0.833542  0.833542  1
  Ir  Ir20  1  0.820964  0.393012  0.393012  1
  Pd  Pd21  1  0.389528  0.395406  0.395406  1
  Pd  Pd22  1  0.389528  0.395406  0.819660  1
  Pd  Pd23  1  0.389528  0.819660  0.395406  1
