# generated using pymatgen
data_DyY3AlIr
_symmetry_space_group_name_H-M   'P 1'
_cell_length_a   9.57420843
_cell_length_b   9.57385162
_cell_length_c   9.57411600
_cell_angle_alpha   59.99870792
_cell_angle_beta   59.99971010
_cell_angle_gamma   59.99878423
_symmetry_Int_Tables_number   1
_chemical_formula_structural   DyY3AlIr
_chemical_formula_sum   'Dy4 Y12 Al4 Ir4'
_cell_volume   620.53184595
_cell_formula_units_Z   4
loop_
 _symmetry_equiv_pos_site_id
 _symmetry_equiv_pos_as_xyz
  1  'x, y, z'
loop_
 _atom_site_type_symbol
 _atom_site_label
 _atom_site_symmetry_multiplicity
 _atom_site_fract_x
 _atom_site_fract_y
 _atom_site_fract_z
 _atom_site_occupancy
  Dy  Dy0  1  0.352126  0.352152  0.352118  1
  Dy  Dy1  1  0.352123  0.352149  0.943612  1
  Dy  Dy2  1  0.352139  0.943591  0.352135  1
  Dy  Dy3  1  0.943600  0.352156  0.352122  1
  Y  Y4  1  0.806721  0.193273  0.193282  1
  Y  Y5  1  0.193276  0.806714  0.806733  1
  Y  Y6  1  0.193272  0.806719  0.193282  1
  Y  Y7  1  0.806715  0.193276  0.806735  1
  Y  Y8  1  0.193272  0.193276  0.806734  1
  Y  Y9  1  0.806723  0.806721  0.193282  1
  Y  Y10  1  0.939001  0.560994  0.561004  1
  Y  Y11  1  0.561003  0.938995  0.938998  1
  Y  Y12  1  0.561001  0.938997  0.561000  1
  Y  Y13  1  0.939001  0.560998  0.938997  1
  Y  Y14  1  0.561006  0.560998  0.938997  1
  Y  Y15  1  0.939003  0.938997  0.561001  1
  Al  Al16  1  0.578526  0.578522  0.578538  1
  Al  Al17  1  0.578530  0.578526  0.264411  1
  Al  Al18  1  0.578522  0.264420  0.578533  1
  Al  Al19  1  0.264417  0.578520  0.578536  1
  Ir  Ir20  1  0.142791  0.142788  0.142779  1
  Ir  Ir21  1  0.142794  0.142796  0.571615  1
  Ir  Ir22  1  0.142792  0.571640  0.142780  1
  Ir  Ir23  1  0.571649  0.142785  0.142778  1
