# generated using pymatgen
data_CaHf4(PO4)6
_symmetry_space_group_name_H-M   'P 1'
_cell_length_a   8.85230288
_cell_length_b   8.85251220
_cell_length_c   9.14770842
_cell_angle_alpha   61.06285977
_cell_angle_beta   118.93972240
_cell_angle_gamma   120.00113777
_symmetry_Int_Tables_number   1
_chemical_formula_structural   CaHf4(PO4)6
_chemical_formula_sum   'Ca1 Hf4 P6 O24'
_cell_volume   514.87467342
_cell_formula_units_Z   1
loop_
 _symmetry_equiv_pos_site_id
 _symmetry_equiv_pos_as_xyz
  1  'x, y, z'
loop_
 _atom_site_type_symbol
 _atom_site_label
 _atom_site_symmetry_multiplicity
 _atom_site_fract_x
 _atom_site_fract_y
 _atom_site_fract_z
 _atom_site_occupancy
  Ca  Ca0  1  0.000000  0.000000  0.000000  1
  Hf  Hf1  1  0.359974  0.640011  0.079913  1
  Hf  Hf2  1  0.148132  0.851815  0.444479  1
  Hf  Hf3  1  0.851868  0.148185  0.555521  1
  Hf  Hf4  1  0.640026  0.359989  0.920087  1
  P  P5  1  0.030028  0.243658  0.242098  1
  P  P6  1  0.455710  0.969999  0.242084  1
  P  P7  1  0.756355  0.544307  0.242066  1
  P  P8  1  0.243645  0.455692  0.757934  1
  P  P9  1  0.544290  0.030001  0.757916  1
  P  P10  1  0.969972  0.756342  0.757901  1
  O  O11  1  0.484951  0.141816  0.081231  1
  O  O12  1  0.738058  0.515032  0.081191  1
  O  O13  1  0.858207  0.261955  0.081248  1
  O  O14  1  0.450961  0.802969  0.226159  1
  O  O15  1  0.578131  0.549048  0.226179  1
  O  O16  1  0.197100  0.421840  0.226198  1
  O  O17  1  0.266438  0.927734  0.252280  1
  O  O18  1  0.913592  0.733592  0.252286  1
  O  O19  1  0.072253  0.086402  0.252285  1
  O  O20  1  0.808599  0.389579  0.412857  1
  O  O21  1  0.993881  0.191426  0.412829  1
  O  O22  1  0.610369  0.006122  0.412796  1
  O  O23  1  0.389631  0.993878  0.587203  1
  O  O24  1  0.006119  0.808574  0.587170  1
  O  O25  1  0.191402  0.610421  0.587144  1
  O  O26  1  0.927747  0.913599  0.747715  1
  O  O27  1  0.086408  0.266408  0.747713  1
  O  O28  1  0.733562  0.072265  0.747720  1
  O  O29  1  0.802899  0.578160  0.773802  1
  O  O30  1  0.421869  0.450953  0.773821  1
  O  O31  1  0.549039  0.197032  0.773841  1
  O  O32  1  0.141793  0.738045  0.918752  1
  O  O33  1  0.261941  0.484968  0.918808  1
  O  O34  1  0.515049  0.858184  0.918769  1
