# generated using pymatgen
data_Er6Si4Ir3Os
_symmetry_space_group_name_H-M   'P 1'
_cell_length_a   5.51073999
_cell_length_b   5.51073905
_cell_length_c   13.15729555
_cell_angle_alpha   90.20962530
_cell_angle_beta   89.79037441
_cell_angle_gamma   136.27827133
_symmetry_Int_Tables_number   1
_chemical_formula_structural   Er6Si4Ir3Os
_chemical_formula_sum   'Er6 Si4 Ir3 Os1'
_cell_volume   276.15915337
_cell_formula_units_Z   1
loop_
 _symmetry_equiv_pos_site_id
 _symmetry_equiv_pos_as_xyz
  1  'x, y, z'
loop_
 _atom_site_type_symbol
 _atom_site_label
 _atom_site_symmetry_multiplicity
 _atom_site_fract_x
 _atom_site_fract_y
 _atom_site_fract_z
 _atom_site_occupancy
  Er  Er0  1  0.774049  0.225951  0.603442  1
  Er  Er1  1  0.516549  0.483451  0.248039  1
  Er  Er2  1  0.225951  0.774049  0.396558  1
  Er  Er3  1  0.773715  0.226285  0.897051  1
  Er  Er4  1  0.483451  0.516549  0.751961  1
  Er  Er5  1  0.226285  0.773715  0.102949  1
  Si  Si6  1  0.062648  0.937352  0.590229  1
  Si  Si7  1  0.063190  0.936810  0.910114  1
  Si  Si8  1  0.937352  0.062648  0.409771  1
  Si  Si9  1  0.936810  0.063190  0.089886  1
  Ir  Ir10  1  0.810221  0.189779  0.251249  1
  Ir  Ir11  1  0.189779  0.810221  0.748751  1
  Ir  Ir12  1  0.500000  0.500000  0.500000  1
  Os  Os13  1  0.500000  0.500000  0.000000  1
