# generated using pymatgen
data_Np(MnGe)6
_symmetry_space_group_name_H-M   'P 1'
_cell_length_a   5.18943203
_cell_length_b   5.18943268
_cell_length_c   8.15922500
_cell_angle_alpha   90.00000000
_cell_angle_beta   90.00000000
_cell_angle_gamma   120.01197948
_symmetry_Int_Tables_number   1
_chemical_formula_structural   Np(MnGe)6
_chemical_formula_sum   'Np1 Mn6 Ge6'
_cell_volume   190.26846465
_cell_formula_units_Z   1
loop_
 _symmetry_equiv_pos_site_id
 _symmetry_equiv_pos_as_xyz
  1  'x, y, z'
loop_
 _atom_site_type_symbol
 _atom_site_label
 _atom_site_symmetry_multiplicity
 _atom_site_fract_x
 _atom_site_fract_y
 _atom_site_fract_z
 _atom_site_occupancy
  Np  Np0  1  0.999879  0.999878  0.000000  1
  Mn  Mn1  1  0.500059  0.500060  0.249225  1
  Mn  Mn2  1  0.500031  0.000007  0.249327  1
  Mn  Mn3  1  0.000007  0.500029  0.249327  1
  Mn  Mn4  1  0.500031  0.000007  0.750673  1
  Mn  Mn5  1  0.000007  0.500029  0.750673  1
  Mn  Mn6  1  0.500059  0.500060  0.750775  1
  Ge  Ge7  1  0.666575  0.333204  0.000000  1
  Ge  Ge8  1  0.333202  0.666574  0.000000  1
  Ge  Ge9  1  0.000135  0.000132  0.345724  1
  Ge  Ge10  1  0.666622  0.333467  0.500001  1
  Ge  Ge11  1  0.333468  0.666622  0.500001  1
  Ge  Ge12  1  0.000135  0.000132  0.654275  1
