# generated using pymatgen
data_Nd2Sm7Th(Ga2Ru3)2
_symmetry_space_group_name_H-M   'P 1'
_cell_length_a   8.45300808
_cell_length_b   8.50732139
_cell_length_c   8.45300846
_cell_angle_alpha   109.64699012
_cell_angle_beta   108.73074319
_cell_angle_gamma   109.77458710
_symmetry_Int_Tables_number   1
_chemical_formula_structural   Nd2Sm7Th(Ga2Ru3)2
_chemical_formula_sum   'Nd2 Sm7 Th1 Ga4 Ru6'
_cell_volume   469.41209914
_cell_formula_units_Z   1
loop_
 _symmetry_equiv_pos_site_id
 _symmetry_equiv_pos_as_xyz
  1  'x, y, z'
loop_
 _atom_site_type_symbol
 _atom_site_label
 _atom_site_symmetry_multiplicity
 _atom_site_fract_x
 _atom_site_fract_y
 _atom_site_fract_z
 _atom_site_occupancy
  Nd  Nd0  1  0.249088  0.684060  0.436624  1
  Nd  Nd1  1  0.752565  0.815940  0.065028  1
  Sm  Sm2  1  0.686653  0.436722  0.251600  1
  Sm  Sm3  1  0.064871  0.750000  0.814871  1
  Sm  Sm4  1  0.814876  0.063278  0.749930  1
  Sm  Sm5  1  0.219676  0.219212  0.216571  1
  Sm  Sm6  1  0.497404  0.996581  0.280081  1
  Sm  Sm7  1  0.283501  0.503419  0.000823  1
  Sm  Sm8  1  0.997358  0.280788  0.500464  1
  Th  Th9  1  0.439615  0.250000  0.689615  1
  Ga  Ga10  1  0.591493  0.593927  0.590570  1
  Ga  Ga11  1  0.503485  0.999587  0.913048  1
  Ga  Ga12  1  0.913462  0.500413  0.003898  1
  Ga  Ga13  1  0.996643  0.906073  0.497566  1
  Ru  Ru14  1  0.258574  0.130013  0.861195  1
  Ru  Ru15  1  0.731182  0.369987  0.628561  1
  Ru  Ru16  1  0.874920  0.250000  0.124921  1
  Ru  Ru17  1  0.127793  0.877683  0.249251  1
  Ru  Ru18  1  0.625274  0.750000  0.375274  1
  Ru  Ru19  1  0.371567  0.622316  0.750109  1
