# generated using pymatgen
data_Pr6In8AsPb
_symmetry_space_group_name_H-M   'P 1'
_cell_length_a   8.62663859
_cell_length_b   8.62663752
_cell_length_c   8.62663700
_cell_angle_alpha   119.69555506
_cell_angle_beta   119.69555103
_cell_angle_gamma   90.52813102
_symmetry_Int_Tables_number   1
_chemical_formula_structural   Pr6In8AsPb
_chemical_formula_sum   'Pr6 In8 As1 Pb1'
_cell_volume   456.01971386
_cell_formula_units_Z   1
loop_
 _symmetry_equiv_pos_site_id
 _symmetry_equiv_pos_as_xyz
  1  'x, y, z'
loop_
 _atom_site_type_symbol
 _atom_site_label
 _atom_site_symmetry_multiplicity
 _atom_site_fract_x
 _atom_site_fract_y
 _atom_site_fract_z
 _atom_site_occupancy
  Pr  Pr0  1  0.737433  0.737433  0.000000  1
  Pr  Pr1  1  0.262567  0.262567  0.000000  1
  Pr  Pr2  1  0.648638  0.175262  0.823900  1
  Pr  Pr3  1  0.351362  0.824738  0.176100  1
  Pr  Pr4  1  0.175262  0.351362  0.526624  1
  Pr  Pr5  1  0.824738  0.648638  0.473376  1
  In  In6  1  0.319220  0.832257  0.787796  1
  In  In7  1  0.680780  0.167743  0.212204  1
  In  In8  1  0.044460  0.531423  0.212204  1
  In  In9  1  0.832257  0.044460  0.513036  1
  In  In10  1  0.468577  0.680780  0.513036  1
  In  In11  1  0.955540  0.468577  0.787796  1
  In  In12  1  0.167743  0.955540  0.486964  1
  In  In13  1  0.531423  0.319220  0.486964  1
  As  As14  1  0.500000  0.500000  0.000000  1
  Pb  Pb15  1  0.000000  0.000000  0.000000  1
