# generated using pymatgen
data_PrHo3(RuO4)4
_symmetry_space_group_name_H-M   'P 1'
_cell_length_a   5.35715848
_cell_length_b   7.41512277
_cell_length_c   7.62625000
_cell_angle_alpha   81.21255508
_cell_angle_beta   90.68555607
_cell_angle_gamma   90.26173705
_symmetry_Int_Tables_number   1
_chemical_formula_structural   PrHo3(RuO4)4
_chemical_formula_sum   'Pr1 Ho3 Ru4 O16'
_cell_volume   299.36647482
_cell_formula_units_Z   1
loop_
 _symmetry_equiv_pos_site_id
 _symmetry_equiv_pos_as_xyz
  1  'x, y, z'
loop_
 _atom_site_type_symbol
 _atom_site_label
 _atom_site_symmetry_multiplicity
 _atom_site_fract_x
 _atom_site_fract_y
 _atom_site_fract_z
 _atom_site_occupancy
  Pr  Pr0  1  0.728625  0.894869  0.356729  1
  Ho  Ho1  1  0.277109  0.109497  0.645074  1
  Ho  Ho2  1  0.798356  0.394390  0.342559  1
  Ho  Ho3  1  0.206331  0.604692  0.662444  1
  Ru  Ru4  1  0.766325  0.299576  0.838422  1
  Ru  Ru5  1  0.235636  0.697399  0.160272  1
  Ru  Ru6  1  0.278519  0.201563  0.158956  1
  Ru  Ru7  1  0.722999  0.801291  0.839229  1
  O  O8  1  0.911268  0.801041  0.056331  1
  O  O9  1  0.093947  0.196814  0.939454  1
  O  O10  1  0.360595  0.945211  0.168263  1
  O  O11  1  0.623738  0.055286  0.830813  1
  O  O12  1  0.132367  0.445333  0.159062  1
  O  O13  1  0.860293  0.556619  0.829396  1
  O  O14  1  0.605304  0.301676  0.065916  1
  O  O15  1  0.401064  0.695888  0.936630  1
  O  O16  1  0.970838  0.323749  0.613970  1
  O  O17  1  0.037386  0.661857  0.390799  1
  O  O18  1  0.486052  0.185019  0.391164  1
  O  O19  1  0.499073  0.824129  0.616600  1
  O  O20  1  0.519845  0.615317  0.300959  1
  O  O21  1  0.477530  0.376579  0.696531  1
  O  O22  1  0.012200  0.131984  0.323442  1
  O  O23  1  0.994602  0.880218  0.676984  1
