# generated using pymatgen
data_KPaBr4O
_symmetry_space_group_name_H-M   'P 1'
_cell_length_a   7.97605941
_cell_length_b   7.97605955
_cell_length_c   8.19750702
_cell_angle_alpha   105.90527890
_cell_angle_beta   105.90528004
_cell_angle_gamma   30.50876517
_symmetry_Int_Tables_number   1
_chemical_formula_structural   KPaBr4O
_chemical_formula_sum   'K1 Pa1 Br4 O1'
_cell_volume   253.84682215
_cell_formula_units_Z   1
loop_
 _symmetry_equiv_pos_site_id
 _symmetry_equiv_pos_as_xyz
  1  'x, y, z'
loop_
 _atom_site_type_symbol
 _atom_site_label
 _atom_site_symmetry_multiplicity
 _atom_site_fract_x
 _atom_site_fract_y
 _atom_site_fract_z
 _atom_site_occupancy
  K  K0  1  0.996262  0.003737  0.000000  1
  Pa  Pa1  1  0.503222  0.496778  0.500000  1
  Br  Br2  1  0.369201  0.370894  0.185704  1
  Br  Br3  1  0.627586  0.629890  0.322080  1
  Br  Br4  1  0.370110  0.372413  0.677920  1
  Br  Br5  1  0.629106  0.630799  0.814296  1
  O  O6  1  0.003837  0.996164  0.500000  1
