# generated using pymatgen
data_Tm12CoTc2Pt
_symmetry_space_group_name_H-M   'P 1'
_cell_length_a   6.26114091
_cell_length_b   7.17690198
_cell_length_c   9.02622800
_cell_angle_alpha   90.00000000
_cell_angle_beta   90.00000000
_cell_angle_gamma   89.79281296
_symmetry_Int_Tables_number   1
_chemical_formula_structural   Tm12CoTc2Pt
_chemical_formula_sum   'Tm12 Co1 Tc2 Pt1'
_cell_volume   405.59627031
_cell_formula_units_Z   1
loop_
 _symmetry_equiv_pos_site_id
 _symmetry_equiv_pos_as_xyz
  1  'x, y, z'
loop_
 _atom_site_type_symbol
 _atom_site_label
 _atom_site_symmetry_multiplicity
 _atom_site_fract_x
 _atom_site_fract_y
 _atom_site_fract_z
 _atom_site_occupancy
  Tm  Tm0  1  0.324320  0.680547  0.066983  1
  Tm  Tm1  1  0.166759  0.174600  0.435450  1
  Tm  Tm2  1  0.668921  0.318457  0.556275  1
  Tm  Tm3  1  0.832382  0.823711  0.938560  1
  Tm  Tm4  1  0.668921  0.318457  0.943725  1
  Tm  Tm5  1  0.832382  0.823711  0.561440  1
  Tm  Tm6  1  0.324320  0.680547  0.433017  1
  Tm  Tm7  1  0.166759  0.174600  0.064550  1
  Tm  Tm8  1  0.875073  0.546923  0.250000  1
  Tm  Tm9  1  0.635939  0.035056  0.250000  1
  Tm  Tm10  1  0.125353  0.459659  0.750000  1
  Tm  Tm11  1  0.374768  0.967933  0.750000  1
  Co  Co12  1  0.034081  0.884092  0.250000  1
  Tc  Tc13  1  0.467162  0.388776  0.250000  1
  Tc  Tc14  1  0.960173  0.111023  0.750000  1
  Pt  Pt15  1  0.542688  0.611910  0.750000  1
