# generated using pymatgen
data_Li2Y5Tm11(InRh2)2
_symmetry_space_group_name_H-M   'P 1'
_cell_length_a   9.60350606
_cell_length_b   9.56302692
_cell_length_c   9.56302600
_cell_angle_alpha   59.57916202
_cell_angle_beta   59.62554389
_cell_angle_gamma   59.62554461
_symmetry_Int_Tables_number   1
_chemical_formula_structural   Li2Y5Tm11(InRh2)2
_chemical_formula_sum   'Li2 Y5 Tm11 In2 Rh4'
_cell_volume   615.51629325
_cell_formula_units_Z   1
loop_
 _symmetry_equiv_pos_site_id
 _symmetry_equiv_pos_as_xyz
  1  'x, y, z'
loop_
 _atom_site_type_symbol
 _atom_site_label
 _atom_site_symmetry_multiplicity
 _atom_site_fract_x
 _atom_site_fract_y
 _atom_site_fract_z
 _atom_site_occupancy
  Li  Li0  1  0.428656  0.427665  0.427663  1
  Li  Li1  1  0.721256  0.427837  0.427837  1
  Y  Y2  1  0.061686  0.066007  0.436595  1
  Y  Y3  1  0.435881  0.063032  0.435744  1
  Y  Y4  1  0.061687  0.436592  0.066016  1
  Y  Y5  1  0.054660  0.649233  0.649232  1
  Y  Y6  1  0.435879  0.435744  0.063032  1
  Tm  Tm7  1  0.651599  0.040923  0.652178  1
  Tm  Tm8  1  0.188857  0.813192  0.186297  1
  Tm  Tm9  1  0.188856  0.186302  0.813191  1
  Tm  Tm10  1  0.810999  0.811792  0.188590  1
  Tm  Tm11  1  0.437269  0.061931  0.061929  1
  Tm  Tm12  1  0.819070  0.182627  0.182622  1
  Tm  Tm13  1  0.058012  0.441423  0.441422  1
  Tm  Tm14  1  0.810999  0.188592  0.811792  1
  Tm  Tm15  1  0.191672  0.809934  0.809934  1
  Tm  Tm16  1  0.651600  0.652175  0.040921  1
  Tm  Tm17  1  0.647557  0.651431  0.651435  1
  In  In18  1  0.422125  0.744543  0.414970  1
  In  In19  1  0.422124  0.414971  0.744543  1
  Rh  Rh20  1  0.857728  0.853338  0.425566  1
  Rh  Rh21  1  0.857174  0.858427  0.858431  1
  Rh  Rh22  1  0.426924  0.856722  0.856723  1
  Rh  Rh23  1  0.857730  0.425565  0.853334  1
