# generated using pymatgen
data_Tb3Yb3Mn2(VC6)2
_symmetry_space_group_name_H-M   'P 1'
_cell_length_a   8.15751167
_cell_length_b   8.15858326
_cell_length_c   5.00135300
_cell_angle_alpha   90.00000000
_cell_angle_beta   90.00000000
_cell_angle_gamma   120.06882428
_symmetry_Int_Tables_number   1
_chemical_formula_structural   Tb3Yb3Mn2(VC6)2
_chemical_formula_sum   'Tb3 Yb3 Mn2 V2 C12'
_cell_volume   288.06399817
_cell_formula_units_Z   1
loop_
 _symmetry_equiv_pos_site_id
 _symmetry_equiv_pos_as_xyz
  1  'x, y, z'
loop_
 _atom_site_type_symbol
 _atom_site_label
 _atom_site_symmetry_multiplicity
 _atom_site_fract_x
 _atom_site_fract_y
 _atom_site_fract_z
 _atom_site_occupancy
  Tb  Tb0  1  0.316424  0.934111  0.750000  1
  Tb  Tb1  1  0.065007  0.383900  0.750000  1
  Tb  Tb2  1  0.385002  0.318498  0.250000  1
  Yb  Yb3  1  0.613785  0.684054  0.750000  1
  Yb  Yb4  1  0.927541  0.612547  0.250000  1
  Yb  Yb5  1  0.681807  0.070388  0.250000  1
  Mn  Mn6  1  0.667258  0.332029  0.750000  1
  Mn  Mn7  1  0.332495  0.664632  0.250000  1
  V  V8  1  0.998454  0.998400  0.500350  1
  V  V9  1  0.998454  0.998400  0.999650  1
  C  C10  1  0.956588  0.766056  0.750000  1
  C  C11  1  0.195844  0.960587  0.250000  1
  C  C12  1  0.766886  0.812872  0.250000  1
  C  C13  1  0.233713  0.194313  0.750000  1
  C  C14  1  0.814528  0.045296  0.750000  1
  C  C15  1  0.042657  0.230823  0.250000  1
  C  C16  1  0.859847  0.573657  0.750000  1
  C  C17  1  0.283792  0.855815  0.250000  1
  C  C18  1  0.575933  0.715970  0.250000  1
  C  C19  1  0.428122  0.285581  0.750000  1
  C  C20  1  0.140300  0.423547  0.250000  1
  C  C21  1  0.715563  0.138525  0.750000  1
