# generated using pymatgen
data_Tm15Sc5CuBi11
_symmetry_space_group_name_H-M   'P 1'
_cell_length_a   7.98347101
_cell_length_b   9.24599706
_cell_length_c   11.74613897
_cell_angle_alpha   89.92352431
_cell_angle_beta   89.61702237
_cell_angle_gamma   89.98181147
_symmetry_Int_Tables_number   1
_chemical_formula_structural   Tm15Sc5CuBi11
_chemical_formula_sum   'Tm15 Sc5 Cu1 Bi11'
_cell_volume   867.02282084
_cell_formula_units_Z   1
loop_
 _symmetry_equiv_pos_site_id
 _symmetry_equiv_pos_as_xyz
  1  'x, y, z'
loop_
 _atom_site_type_symbol
 _atom_site_label
 _atom_site_symmetry_multiplicity
 _atom_site_fract_x
 _atom_site_fract_y
 _atom_site_fract_z
 _atom_site_occupancy
  Tm  Tm0  1  0.353866  0.248567  0.300361  1
  Tm  Tm1  1  0.650864  0.749774  0.715662  1
  Tm  Tm2  1  0.149565  0.748630  0.780887  1
  Tm  Tm3  1  0.850839  0.249769  0.214667  1
  Tm  Tm4  1  0.192720  0.249767  0.776079  1
  Tm  Tm5  1  0.811523  0.749499  0.217818  1
  Tm  Tm6  1  0.315677  0.750765  0.281146  1
  Tm  Tm7  1  0.663742  0.248831  0.708128  1
  Tm  Tm8  1  0.805153  0.934589  0.940953  1
  Tm  Tm9  1  0.309304  0.959910  0.558045  1
  Tm  Tm10  1  0.807087  0.566361  0.941944  1
  Tm  Tm11  1  0.685581  0.071906  0.446084  1
  Tm  Tm12  1  0.194414  0.434525  0.062209  1
  Tm  Tm13  1  0.684819  0.426722  0.446732  1
  Tm  Tm14  1  0.309433  0.539719  0.558311  1
  Sc  Sc15  1  0.036529  0.249802  0.507931  1
  Sc  Sc16  1  0.984759  0.749623  0.490097  1
  Sc  Sc17  1  0.477858  0.750347  0.012279  1
  Sc  Sc18  1  0.522858  0.248298  0.989029  1
  Sc  Sc19  1  0.195586  0.070053  0.062056  1
  Cu  Cu20  1  0.403749  0.249907  0.536649  1
  Bi  Bi21  1  0.599377  0.749431  0.457178  1
  Bi  Bi22  1  0.103717  0.757855  0.042826  1
  Bi  Bi23  1  0.906187  0.248307  0.954651  1
  Bi  Bi24  1  0.060589  0.002405  0.326288  1
  Bi  Bi25  1  0.935208  0.998426  0.670798  1
  Bi  Bi26  1  0.434066  0.995867  0.830834  1
  Bi  Bi27  1  0.934527  0.500331  0.671202  1
  Bi  Bi28  1  0.560254  0.005158  0.169972  1
  Bi  Bi29  1  0.060350  0.497647  0.327979  1
  Bi  Bi30  1  0.563401  0.494100  0.170663  1
  Bi  Bi31  1  0.436400  0.503109  0.830543  1
