# generated using pymatgen
data_Ca2Nd7Rh6
_symmetry_space_group_name_H-M   'P 1'
_cell_length_a   7.59664888
_cell_length_b   7.59664928
_cell_length_c   7.59665024
_cell_angle_alpha   71.68418846
_cell_angle_beta   71.68419317
_cell_angle_gamma   71.68418379
_symmetry_Int_Tables_number   1
_chemical_formula_structural   Ca2Nd7Rh6
_chemical_formula_sum   'Ca2 Nd7 Rh6'
_cell_volume   383.64039312
_cell_formula_units_Z   1
loop_
 _symmetry_equiv_pos_site_id
 _symmetry_equiv_pos_as_xyz
  1  'x, y, z'
loop_
 _atom_site_type_symbol
 _atom_site_label
 _atom_site_symmetry_multiplicity
 _atom_site_fract_x
 _atom_site_fract_y
 _atom_site_fract_z
 _atom_site_occupancy
  Ca  Ca0  1  0.996649  0.996649  0.996649  1
  Ca  Ca1  1  0.797513  0.797513  0.797513  1
  Nd  Nd2  1  0.198413  0.198413  0.198413  1
  Nd  Nd3  1  0.153973  0.393206  0.671622  1
  Nd  Nd4  1  0.671622  0.153973  0.393206  1
  Nd  Nd5  1  0.393206  0.671622  0.153973  1
  Nd  Nd6  1  0.845343  0.608732  0.329022  1
  Nd  Nd7  1  0.329022  0.845343  0.608732  1
  Nd  Nd8  1  0.608732  0.329022  0.845343  1
  Rh  Rh9  1  0.950831  0.180928  0.576693  1
  Rh  Rh10  1  0.576693  0.950831  0.180928  1
  Rh  Rh11  1  0.180928  0.576693  0.950831  1
  Rh  Rh12  1  0.054157  0.830573  0.412345  1
  Rh  Rh13  1  0.412345  0.054157  0.830573  1
  Rh  Rh14  1  0.830573  0.412345  0.054157  1
