# generated using pymatgen
data_Yb5Sm3(Si4W3)4
_symmetry_space_group_name_H-M   'P 1'
_cell_length_a   6.75126850
_cell_length_b   6.95514143
_cell_length_c   13.03588959
_cell_angle_alpha   90.00506105
_cell_angle_beta   89.96703782
_cell_angle_gamma   90.02718205
_symmetry_Int_Tables_number   1
_chemical_formula_structural   Yb5Sm3(Si4W3)4
_chemical_formula_sum   'Yb5 Sm3 Si16 W12'
_cell_volume   612.11341366
_cell_formula_units_Z   1
loop_
 _symmetry_equiv_pos_site_id
 _symmetry_equiv_pos_as_xyz
  1  'x, y, z'
loop_
 _atom_site_type_symbol
 _atom_site_label
 _atom_site_symmetry_multiplicity
 _atom_site_fract_x
 _atom_site_fract_y
 _atom_site_fract_z
 _atom_site_occupancy
  Yb  Yb0  1  0.498426  0.665795  0.590042  1
  Yb  Yb1  1  0.997804  0.832989  0.908001  1
  Yb  Yb2  1  0.501411  0.332268  0.091965  1
  Yb  Yb3  1  0.001695  0.168127  0.407774  1
  Yb  Yb4  1  0.501881  0.333708  0.410141  1
  Sm  Sm5  1  0.000011  0.168576  0.093432  1
  Sm  Sm6  1  0.499405  0.666727  0.907991  1
  Sm  Sm7  1  0.999686  0.832454  0.590872  1
  Si  Si8  1  0.660275  0.958497  0.453789  1
  Si  Si9  1  0.161190  0.546018  0.045652  1
  Si  Si10  1  0.338254  0.045116  0.954543  1
  Si  Si11  1  0.838393  0.453923  0.544352  1
  Si  Si12  1  0.341641  0.044079  0.544742  1
  Si  Si13  1  0.841132  0.457431  0.954429  1
  Si  Si14  1  0.659498  0.957383  0.045332  1
  Si  Si15  1  0.161405  0.540160  0.453831  1
  Si  Si16  1  0.465104  0.372050  0.748102  1
  Si  Si17  1  0.965455  0.126132  0.751024  1
  Si  Si18  1  0.533677  0.623575  0.250141  1
  Si  Si19  1  0.035202  0.874625  0.251136  1
  Si  Si20  1  0.697944  0.867763  0.749700  1
  Si  Si21  1  0.198828  0.631738  0.749136  1
  Si  Si22  1  0.304454  0.134302  0.252670  1
  Si  Si23  1  0.797348  0.368613  0.251968  1
  W  W24  1  0.667219  0.164671  0.627096  1
  W  W25  1  0.166450  0.335708  0.872615  1
  W  W26  1  0.334034  0.834880  0.127589  1
  W  W27  1  0.834414  0.666547  0.372597  1
  W  W28  1  0.334624  0.832853  0.373376  1
  W  W29  1  0.833904  0.665628  0.126748  1
  W  W30  1  0.666141  0.165289  0.873773  1
  W  W31  1  0.164952  0.334292  0.626026  1
  W  W32  1  0.838643  0.491114  0.748972  1
  W  W33  1  0.337943  0.007311  0.750579  1
  W  W34  1  0.160725  0.509438  0.249618  1
  W  W35  1  0.660832  0.990222  0.250247  1
