# generated using pymatgen
data_Si2Se3Br2
_symmetry_space_group_name_H-M   'P 1'
_cell_length_a   9.88099965
_cell_length_b   11.08670402
_cell_length_c   11.26353983
_cell_angle_alpha   94.08318505
_cell_angle_beta   116.07560414
_cell_angle_gamma   89.65061529
_symmetry_Int_Tables_number   1
_chemical_formula_structural   Si2Se3Br2
_chemical_formula_sum   'Si8 Se12 Br8'
_cell_volume   1105.05227022
_cell_formula_units_Z   4
loop_
 _symmetry_equiv_pos_site_id
 _symmetry_equiv_pos_as_xyz
  1  'x, y, z'
loop_
 _atom_site_type_symbol
 _atom_site_label
 _atom_site_symmetry_multiplicity
 _atom_site_fract_x
 _atom_site_fract_y
 _atom_site_fract_z
 _atom_site_occupancy
  Si  Si0  1  0.735020  0.815232  0.745545  1
  Si  Si1  1  0.264980  0.184768  0.254455  1
  Si  Si2  1  0.692798  0.521429  0.821075  1
  Si  Si3  1  0.307202  0.478571  0.178925  1
  Si  Si4  1  0.378378  0.699839  0.675629  1
  Si  Si5  1  0.621622  0.300161  0.324371  1
  Si  Si6  1  0.641326  0.769135  0.003538  1
  Si  Si7  1  0.358674  0.230865  0.996462  1
  Se  Se8  1  0.781349  0.902546  0.951413  1
  Se  Se9  1  0.218651  0.097454  0.048587  1
  Se  Se10  1  0.838511  0.628586  0.749978  1
  Se  Se11  1  0.161489  0.371414  0.250022  1
  Se  Se12  1  0.489690  0.825846  0.588238  1
  Se  Se13  1  0.510310  0.174154  0.411762  1
  Se  Se14  1  0.731152  0.576713  0.034145  1
  Se  Se15  1  0.268848  0.423287  0.965855  1
  Se  Se16  1  0.443586  0.501292  0.670182  1
  Se  Se17  1  0.556414  0.498708  0.329818  1
  Se  Se18  1  0.386026  0.777835  0.873121  1
  Se  Se19  1  0.613974  0.222165  0.126879  1
  Br  Br20  1  0.863044  0.932230  0.674294  1
  Br  Br21  1  0.136956  0.067770  0.325706  1
  Br  Br22  1  0.134069  0.696253  0.534342  1
  Br  Br23  1  0.865931  0.303747  0.465658  1
  Br  Br24  1  0.672585  0.840144  0.204160  1
  Br  Br25  1  0.327415  0.159856  0.795840  1
  Br  Br26  1  0.777620  0.334343  0.829352  1
  Br  Br27  1  0.222380  0.665657  0.170648  1
