# generated using pymatgen
data_Ce8Nb9Si16W3
_symmetry_space_group_name_H-M   'P 1'
_cell_length_a   7.05876019
_cell_length_b   7.05876019
_cell_length_c   13.13542045
_cell_angle_alpha   90.02115572
_cell_angle_beta   90.02115572
_cell_angle_gamma   90.01650797
_symmetry_Int_Tables_number   1
_chemical_formula_structural   Ce8Nb9Si16W3
_chemical_formula_sum   'Ce8 Nb9 Si16 W3'
_cell_volume   654.48659685
_cell_formula_units_Z   1
loop_
 _symmetry_equiv_pos_site_id
 _symmetry_equiv_pos_as_xyz
  1  'x, y, z'
loop_
 _atom_site_type_symbol
 _atom_site_label
 _atom_site_symmetry_multiplicity
 _atom_site_fract_x
 _atom_site_fract_y
 _atom_site_fract_z
 _atom_site_occupancy
  Ce  Ce0  1  0.996402  0.334340  0.217354  1
  Ce  Ce1  1  0.004430  0.666102  0.717425  1
  Ce  Ce2  1  0.166041  0.496527  0.466710  1
  Ce  Ce3  1  0.503473  0.833959  0.033290  1
  Ce  Ce4  1  0.834772  0.505093  0.968119  1
  Ce  Ce5  1  0.494907  0.165228  0.531881  1
  Ce  Ce6  1  0.333898  0.995570  0.782575  1
  Ce  Ce7  1  0.665660  0.003598  0.282646  1
  Nb  Nb8  1  0.669306  0.330694  0.750000  1
  Nb  Nb9  1  0.158743  0.996834  0.372751  1
  Nb  Nb10  1  0.841818  0.003592  0.873428  1
  Nb  Nb11  1  0.503169  0.657323  0.622577  1
  Nb  Nb12  1  0.342677  0.496831  0.877423  1
  Nb  Nb13  1  0.495993  0.341711  0.123711  1
  Nb  Nb14  1  0.658289  0.504007  0.376289  1
  Nb  Nb15  1  0.996408  0.158182  0.626572  1
  Nb  Nb16  1  0.003166  0.841257  0.127249  1
  Si  Si17  1  0.292009  0.040904  0.184355  1
  Si  Si18  1  0.707172  0.956500  0.682978  1
  Si  Si19  1  0.459220  0.792133  0.434111  1
  Si  Si20  1  0.207867  0.540780  0.065889  1
  Si  Si21  1  0.538999  0.206762  0.936210  1
  Si  Si22  1  0.793238  0.461001  0.563790  1
  Si  Si23  1  0.043500  0.292828  0.817022  1
  Si  Si24  1  0.959096  0.707991  0.315645  1
  Si  Si25  1  0.372411  0.299883  0.312339  1
  Si  Si26  1  0.628643  0.703382  0.813087  1
  Si  Si27  1  0.199449  0.871884  0.562326  1
  Si  Si28  1  0.128116  0.800551  0.937674  1
  Si  Si29  1  0.800106  0.127726  0.062737  1
  Si  Si30  1  0.872274  0.199894  0.437263  1
  Si  Si31  1  0.296618  0.371357  0.686913  1
  Si  Si32  1  0.700117  0.627589  0.187661  1
  W  W33  1  0.169098  0.168049  0.001170  1
  W  W34  1  0.831951  0.830902  0.498830  1
  W  W35  1  0.330963  0.669037  0.250000  1
