# generated using pymatgen
data_Tb3YLu2(Sb4Au3)2
_symmetry_space_group_name_H-M   'P 1'
_cell_length_a   8.59957272
_cell_length_b   8.59781838
_cell_length_c   8.59845955
_cell_angle_alpha   109.38394708
_cell_angle_beta   109.36043253
_cell_angle_gamma   109.67044883
_symmetry_Int_Tables_number   1
_chemical_formula_structural   Tb3YLu2(Sb4Au3)2
_chemical_formula_sum   'Tb3 Y1 Lu2 Sb8 Au6'
_cell_volume   489.38954939
_cell_formula_units_Z   1
loop_
 _symmetry_equiv_pos_site_id
 _symmetry_equiv_pos_as_xyz
  1  'x, y, z'
loop_
 _atom_site_type_symbol
 _atom_site_label
 _atom_site_symmetry_multiplicity
 _atom_site_fract_x
 _atom_site_fract_y
 _atom_site_fract_z
 _atom_site_occupancy
  Tb  Tb0  1  0.249786  0.125349  0.875210  1
  Tb  Tb1  1  0.375247  0.624939  0.750061  1
  Tb  Tb2  1  0.125055  0.874732  0.249928  1
  Y  Y3  1  0.874631  0.250162  0.124853  1
  Lu  Lu4  1  0.625380  0.750219  0.375541  1
  Lu  Lu5  1  0.749856  0.374604  0.624365  1
  Sb  Sb6  1  0.177659  0.498210  0.999338  1
  Sb  Sb7  1  0.321980  0.322512  0.321967  1
  Sb  Sb8  1  0.001271  0.178896  0.500011  1
  Sb  Sb9  1  0.820180  0.821532  0.820875  1
  Sb  Sb10  1  0.499897  0.000461  0.677955  1
  Sb  Sb11  1  0.001266  0.678902  0.499982  1
  Sb  Sb12  1  0.499369  0.000571  0.179117  1
  Sb  Sb13  1  0.678388  0.499006  0.000787  1
  Au  Au14  1  0.379821  0.252055  0.624324  1
  Au  Au15  1  0.869611  0.123075  0.742750  1
  Au  Au16  1  0.255355  0.627583  0.375611  1
  Au  Au17  1  0.748009  0.872402  0.127769  1
  Au  Au18  1  0.120172  0.744480  0.872242  1
  Au  Au19  1  0.627067  0.380311  0.257313  1
