# generated using pymatgen
data_Cs2GdAgCl6
_symmetry_space_group_name_H-M   'P 1'
_cell_length_a   7.71591677
_cell_length_b   7.71591666
_cell_length_c   7.71639700
_cell_angle_alpha   120.00206362
_cell_angle_beta   120.00206315
_cell_angle_gamma   60.00410844
_symmetry_Int_Tables_number   1
_chemical_formula_structural   Cs2GdAgCl6
_chemical_formula_sum   'Cs2 Gd1 Ag1 Cl6'
_cell_volume   324.84378698
_cell_formula_units_Z   1
loop_
 _symmetry_equiv_pos_site_id
 _symmetry_equiv_pos_as_xyz
  1  'x, y, z'
loop_
 _atom_site_type_symbol
 _atom_site_label
 _atom_site_symmetry_multiplicity
 _atom_site_fract_x
 _atom_site_fract_y
 _atom_site_fract_z
 _atom_site_occupancy
  Cs  Cs0  1  0.750001  0.750001  0.250002  1
  Cs  Cs1  1  0.250000  0.250000  0.750002  1
  Gd  Gd2  1  0.000000  0.000000  0.000000  1
  Ag  Ag3  1  0.500000  0.500000  0.500000  1
  Cl  Cl4  1  0.245390  0.245390  0.245390  1
  Cl  Cl5  1  0.754611  0.245389  0.245388  1
  Cl  Cl6  1  0.245389  0.754611  0.245388  1
  Cl  Cl7  1  0.754611  0.245389  0.754611  1
  Cl  Cl8  1  0.245389  0.754611  0.754611  1
  Cl  Cl9  1  0.754611  0.754611  0.754611  1
