# generated using pymatgen
data_Hf9Sc3(Si3Rh)4
_symmetry_space_group_name_H-M   'P 1'
_cell_length_a   3.93638400
_cell_length_b   10.23922271
_cell_length_c   11.66898197
_cell_angle_alpha   90.06639183
_cell_angle_beta   90.00000000
_cell_angle_gamma   90.00000000
_symmetry_Int_Tables_number   1
_chemical_formula_structural   Hf9Sc3(Si3Rh)4
_chemical_formula_sum   'Hf9 Sc3 Si12 Rh4'
_cell_volume   470.32398222
_cell_formula_units_Z   1
loop_
 _symmetry_equiv_pos_site_id
 _symmetry_equiv_pos_as_xyz
  1  'x, y, z'
loop_
 _atom_site_type_symbol
 _atom_site_label
 _atom_site_symmetry_multiplicity
 _atom_site_fract_x
 _atom_site_fract_y
 _atom_site_fract_z
 _atom_site_occupancy
  Hf  Hf0  1  0.250000  0.872943  0.022671  1
  Hf  Hf1  1  0.250000  0.626797  0.523025  1
  Hf  Hf2  1  0.750000  0.125071  0.977239  1
  Hf  Hf3  1  0.750000  0.373981  0.476996  1
  Hf  Hf4  1  0.250000  0.924446  0.595356  1
  Hf  Hf5  1  0.250000  0.576136  0.093569  1
  Hf  Hf6  1  0.750000  0.076357  0.404899  1
  Hf  Hf7  1  0.750000  0.425259  0.903574  1
  Hf  Hf8  1  0.250000  0.658255  0.801117  1
  Sc  Sc9  1  0.250000  0.842117  0.301087  1
  Sc  Sc10  1  0.750000  0.341963  0.198840  1
  Sc  Sc11  1  0.750000  0.158428  0.698867  1
  Si  Si12  1  0.250000  0.016415  0.826448  1
  Si  Si13  1  0.250000  0.483173  0.326298  1
  Si  Si14  1  0.750000  0.982661  0.173311  1
  Si  Si15  1  0.750000  0.517637  0.673499  1
  Si  Si16  1  0.250000  0.249691  0.842515  1
  Si  Si17  1  0.250000  0.249746  0.342163  1
  Si  Si18  1  0.750000  0.749229  0.158527  1
  Si  Si19  1  0.750000  0.750685  0.657565  1
  Si  Si20  1  0.250000  0.190685  0.544122  1
  Si  Si21  1  0.250000  0.308532  0.043476  1
  Si  Si22  1  0.750000  0.810056  0.455881  1
  Si  Si23  1  0.750000  0.689760  0.956740  1
  Rh  Rh24  1  0.250000  0.387423  0.680532  1
  Rh  Rh25  1  0.250000  0.114100  0.178314  1
  Rh  Rh26  1  0.750000  0.613914  0.321960  1
  Rh  Rh27  1  0.750000  0.884541  0.821408  1
