# generated using pymatgen
data_Dy4Al17GeIr6
_symmetry_space_group_name_H-M   'P 1'
_cell_length_a   7.56133495
_cell_length_b   7.56133501
_cell_length_c   9.47821700
_cell_angle_alpha   90.00000000
_cell_angle_beta   90.00000000
_cell_angle_gamma   119.57375869
_symmetry_Int_Tables_number   1
_chemical_formula_structural   Dy4Al17GeIr6
_chemical_formula_sum   'Dy4 Al17 Ge1 Ir6'
_cell_volume   471.30667624
_cell_formula_units_Z   1
loop_
 _symmetry_equiv_pos_site_id
 _symmetry_equiv_pos_as_xyz
  1  'x, y, z'
loop_
 _atom_site_type_symbol
 _atom_site_label
 _atom_site_symmetry_multiplicity
 _atom_site_fract_x
 _atom_site_fract_y
 _atom_site_fract_z
 _atom_site_occupancy
  Dy  Dy0  1  0.994995  0.674672  0.750000  1
  Dy  Dy1  1  0.004076  0.329124  0.250000  1
  Dy  Dy2  1  0.674672  0.994995  0.750000  1
  Dy  Dy3  1  0.329124  0.004076  0.250000  1
  Al  Al4  1  0.872011  0.872011  0.250000  1
  Al  Al5  1  0.000204  0.337207  0.573377  1
  Al  Al6  1  0.998339  0.664875  0.425029  1
  Al  Al7  1  0.998339  0.664875  0.074971  1
  Al  Al8  1  0.337207  0.000204  0.926623  1
  Al  Al9  1  0.000204  0.337207  0.926623  1
  Al  Al10  1  0.664875  0.998339  0.074971  1
  Al  Al11  1  0.664875  0.998339  0.425029  1
  Al  Al12  1  0.337207  0.000204  0.573377  1
  Al  Al13  1  0.333357  0.333357  0.058076  1
  Al  Al14  1  0.664529  0.664529  0.947877  1
  Al  Al15  1  0.664529  0.664529  0.552123  1
  Al  Al16  1  0.333357  0.333357  0.441924  1
  Al  Al17  1  0.336852  0.552084  0.750000  1
  Al  Al18  1  0.661218  0.451602  0.250000  1
  Al  Al19  1  0.552084  0.336852  0.750000  1
  Al  Al20  1  0.451602  0.661218  0.250000  1
  Ge  Ge21  1  0.133849  0.133849  0.750000  1
  Ir  Ir22  1  0.669768  0.326918  0.500596  1
  Ir  Ir23  1  0.326918  0.669768  0.500596  1
  Ir  Ir24  1  0.326918  0.669768  0.999404  1
  Ir  Ir25  1  0.669768  0.326918  0.999404  1
  Ir  Ir26  1  0.999562  0.999562  0.500781  1
  Ir  Ir27  1  0.999562  0.999562  0.999219  1
