# generated using pymatgen
data_La3EuTi8O20
_symmetry_space_group_name_H-M   'P 1'
_cell_length_a   5.88808500
_cell_length_b   7.91344017
_cell_length_c   8.83220904
_cell_angle_alpha   89.98285590
_cell_angle_beta   90.00000000
_cell_angle_gamma   90.00000000
_symmetry_Int_Tables_number   1
_chemical_formula_structural   La3EuTi8O20
_chemical_formula_sum   'La3 Eu1 Ti8 O20'
_cell_volume   411.53683545
_cell_formula_units_Z   1
loop_
 _symmetry_equiv_pos_site_id
 _symmetry_equiv_pos_as_xyz
  1  'x, y, z'
loop_
 _atom_site_type_symbol
 _atom_site_label
 _atom_site_symmetry_multiplicity
 _atom_site_fract_x
 _atom_site_fract_y
 _atom_site_fract_z
 _atom_site_occupancy
  La  La0  1  0.000000  0.642997  0.330436  1
  La  La1  1  0.000000  0.853640  0.827967  1
  La  La2  1  0.000000  0.146844  0.171714  1
  Eu  Eu3  1  0.000000  0.352623  0.671710  1
  Ti  Ti4  1  0.500000  0.114743  0.858279  1
  Ti  Ti5  1  0.500000  0.883482  0.141428  1
  Ti  Ti6  1  0.500000  0.616022  0.640426  1
  Ti  Ti7  1  0.500000  0.386267  0.360693  1
  Ti  Ti8  1  0.254383  0.499579  0.997463  1
  Ti  Ti9  1  0.745509  0.001686  0.500633  1
  Ti  Ti10  1  0.745617  0.499579  0.997463  1
  Ti  Ti11  1  0.254491  0.001686  0.500633  1
  O  O12  1  0.260032  0.901402  0.289888  1
  O  O13  1  0.261244  0.092716  0.710838  1
  O  O14  1  0.739847  0.402547  0.210016  1
  O  O15  1  0.738391  0.602568  0.791638  1
  O  O16  1  0.738756  0.092716  0.710838  1
  O  O17  1  0.739968  0.901402  0.289888  1
  O  O18  1  0.261609  0.602568  0.791638  1
  O  O19  1  0.260153  0.402547  0.210016  1
  O  O20  1  0.500000  0.333858  0.922512  1
  O  O21  1  0.500000  0.666407  0.076384  1
  O  O22  1  0.500000  0.831931  0.572939  1
  O  O23  1  0.500000  0.167733  0.424847  1
  O  O24  1  0.283932  0.000043  0.000917  1
  O  O25  1  0.715472  0.502121  0.498935  1
  O  O26  1  0.716068  0.000043  0.000917  1
  O  O27  1  0.284528  0.502121  0.498935  1
  O  O28  1  0.000000  0.156114  0.445285  1
  O  O29  1  0.000000  0.842848  0.551512  1
  O  O30  1  0.000000  0.657309  0.052171  1
  O  O31  1  0.000000  0.341859  0.951042  1
