# generated using pymatgen
data_Ho8Hf12Si15Sn
_symmetry_space_group_name_H-M   'P 1'
_cell_length_a   7.28951628
_cell_length_b   7.31580132
_cell_length_c   13.39394537
_cell_angle_alpha   89.75146751
_cell_angle_beta   90.02474693
_cell_angle_gamma   89.83981540
_symmetry_Int_Tables_number   1
_chemical_formula_structural   Ho8Hf12Si15Sn
_chemical_formula_sum   'Ho8 Hf12 Si15 Sn1'
_cell_volume   714.27148108
_cell_formula_units_Z   1
loop_
 _symmetry_equiv_pos_site_id
 _symmetry_equiv_pos_as_xyz
  1  'x, y, z'
loop_
 _atom_site_type_symbol
 _atom_site_label
 _atom_site_symmetry_multiplicity
 _atom_site_fract_x
 _atom_site_fract_y
 _atom_site_fract_z
 _atom_site_occupancy
  Ho  Ho0  1  0.988924  0.345292  0.212352  1
  Ho  Ho1  1  0.004193  0.655641  0.716071  1
  Ho  Ho2  1  0.148430  0.505504  0.470672  1
  Ho  Ho3  1  0.505389  0.842669  0.032869  1
  Ho  Ho4  1  0.844801  0.503740  0.964073  1
  Ho  Ho5  1  0.498414  0.153495  0.539042  1
  Ho  Ho6  1  0.344288  0.996129  0.784897  1
  Ho  Ho7  1  0.661807  0.997006  0.283487  1
  Hf  Hf8  1  0.174249  0.174835  0.999092  1
  Hf  Hf9  1  0.825755  0.826768  0.501176  1
  Hf  Hf10  1  0.326442  0.681398  0.248126  1
  Hf  Hf11  1  0.674893  0.325101  0.750275  1
  Hf  Hf12  1  0.141891  0.987762  0.373876  1
  Hf  Hf13  1  0.852090  0.003317  0.873938  1
  Hf  Hf14  1  0.503204  0.649935  0.624740  1
  Hf  Hf15  1  0.351195  0.495747  0.875734  1
  Hf  Hf16  1  0.496787  0.351787  0.118566  1
  Hf  Hf17  1  0.660174  0.514550  0.379578  1
  Hf  Hf18  1  0.994926  0.148925  0.626774  1
  Hf  Hf19  1  0.002180  0.849546  0.123904  1
  Si  Si20  1  0.637733  0.704941  0.817315  1
  Si  Si21  1  0.204756  0.863801  0.568460  1
  Si  Si22  1  0.138425  0.794749  0.931904  1
  Si  Si23  1  0.795476  0.137268  0.065798  1
  Si  Si24  1  0.861356  0.204436  0.433132  1
  Si  Si25  1  0.295371  0.362634  0.683127  1
  Si  Si26  1  0.703206  0.637232  0.182200  1
  Si  Si27  1  0.295507  0.042013  0.180713  1
  Si  Si28  1  0.704860  0.949818  0.686383  1
  Si  Si29  1  0.450399  0.797762  0.435582  1
  Si  Si30  1  0.203470  0.548880  0.064426  1
  Si  Si31  1  0.548921  0.202804  0.933676  1
  Si  Si32  1  0.794393  0.450774  0.566783  1
  Si  Si33  1  0.049043  0.295572  0.814613  1
  Si  Si34  1  0.952976  0.701819  0.313027  1
  Sn  Sn35  1  0.364070  0.296349  0.323625  1
