# generated using pymatgen
data_Dy3Pu5(Si3Rh)4
_symmetry_space_group_name_H-M   'P 1'
_cell_length_a   8.18130100
_cell_length_b   8.18130205
_cell_length_c   7.91862100
_cell_angle_alpha   90.00000000
_cell_angle_beta   90.00000000
_cell_angle_gamma   119.99999172
_symmetry_Int_Tables_number   1
_chemical_formula_structural   Dy3Pu5(Si3Rh)4
_chemical_formula_sum   'Dy3 Pu5 Si12 Rh4'
_cell_volume   459.01303968
_cell_formula_units_Z   1
loop_
 _symmetry_equiv_pos_site_id
 _symmetry_equiv_pos_as_xyz
  1  'x, y, z'
loop_
 _atom_site_type_symbol
 _atom_site_label
 _atom_site_symmetry_multiplicity
 _atom_site_fract_x
 _atom_site_fract_y
 _atom_site_fract_z
 _atom_site_occupancy
  Dy  Dy0  1  0.494942  0.505058  0.750000  1
  Dy  Dy1  1  0.494942  0.989883  0.750000  1
  Dy  Dy2  1  0.010117  0.505058  0.750000  1
  Pu  Pu3  1  0.000000  0.000000  0.250000  1
  Pu  Pu4  1  0.000000  0.000000  0.750000  1
  Pu  Pu5  1  0.503305  0.496695  0.250000  1
  Pu  Pu6  1  0.503305  0.006612  0.250000  1
  Pu  Pu7  1  0.993388  0.496695  0.250000  1
  Si  Si8  1  0.165052  0.834948  0.497729  1
  Si  Si9  1  0.165052  0.330104  0.497729  1
  Si  Si10  1  0.669896  0.834948  0.497729  1
  Si  Si11  1  0.833676  0.166324  0.499594  1
  Si  Si12  1  0.833676  0.667349  0.499594  1
  Si  Si13  1  0.332651  0.166324  0.499594  1
  Si  Si14  1  0.833676  0.166324  0.000406  1
  Si  Si15  1  0.833676  0.667349  0.000406  1
  Si  Si16  1  0.332651  0.166324  0.000406  1
  Si  Si17  1  0.165052  0.834948  0.002271  1
  Si  Si18  1  0.165052  0.330104  0.002271  1
  Si  Si19  1  0.669896  0.834948  0.002271  1
  Rh  Rh20  1  0.333333  0.666667  0.493027  1
  Rh  Rh21  1  0.666667  0.333333  0.527517  1
  Rh  Rh22  1  0.666667  0.333333  0.972483  1
  Rh  Rh23  1  0.333333  0.666667  0.006973  1
