# generated using pymatgen
data_Th10Pb7Au
_symmetry_space_group_name_H-M   'P 1'
_cell_length_a   9.74009100
_cell_length_b   9.74009104
_cell_length_c   6.70183400
_cell_angle_alpha   90.00000000
_cell_angle_beta   90.00000000
_cell_angle_gamma   120.00000326
_symmetry_Int_Tables_number   1
_chemical_formula_structural   Th10Pb7Au
_chemical_formula_sum   'Th10 Pb7 Au1'
_cell_volume   550.61788588
_cell_formula_units_Z   1
loop_
 _symmetry_equiv_pos_site_id
 _symmetry_equiv_pos_as_xyz
  1  'x, y, z'
loop_
 _atom_site_type_symbol
 _atom_site_label
 _atom_site_symmetry_multiplicity
 _atom_site_fract_x
 _atom_site_fract_y
 _atom_site_fract_z
 _atom_site_occupancy
  Th  Th0  1  0.666667  0.333333  0.500000  1
  Th  Th1  1  0.333333  0.666667  0.500000  1
  Th  Th2  1  0.333333  0.666667  0.000000  1
  Th  Th3  1  0.666667  0.333333  0.000000  1
  Th  Th4  1  0.724464  0.724464  0.252979  1
  Th  Th5  1  0.275536  0.000000  0.252979  1
  Th  Th6  1  0.000000  0.275536  0.252979  1
  Th  Th7  1  0.275536  0.275536  0.747021  1
  Th  Th8  1  0.724464  0.000000  0.747021  1
  Th  Th9  1  0.000000  0.724464  0.747021  1
  Pb  Pb10  1  0.000000  0.000000  0.000000  1
  Pb  Pb11  1  0.378151  0.378151  0.249730  1
  Pb  Pb12  1  0.621849  0.000000  0.249730  1
  Pb  Pb13  1  0.000000  0.621849  0.249730  1
  Pb  Pb14  1  0.621849  0.621849  0.750270  1
  Pb  Pb15  1  0.378151  0.000000  0.750270  1
  Pb  Pb16  1  0.000000  0.378151  0.750270  1
  Au  Au17  1  0.000000  0.000000  0.500000  1
