# generated using pymatgen
data_CsBaTaO4
_symmetry_space_group_name_H-M   'P 1'
_cell_length_a   6.48445300
_cell_length_b   8.22800600
_cell_length_c   10.98360500
_cell_angle_alpha   90.00000000
_cell_angle_beta   90.00000000
_cell_angle_gamma   90.00000000
_symmetry_Int_Tables_number   1
_chemical_formula_structural   CsBaTaO4
_chemical_formula_sum   'Cs4 Ba4 Ta4 O16'
_cell_volume   586.02055933
_cell_formula_units_Z   4
loop_
 _symmetry_equiv_pos_site_id
 _symmetry_equiv_pos_as_xyz
  1  'x, y, z'
loop_
 _atom_site_type_symbol
 _atom_site_label
 _atom_site_symmetry_multiplicity
 _atom_site_fract_x
 _atom_site_fract_y
 _atom_site_fract_z
 _atom_site_occupancy
  Cs  Cs0  1  0.250000  0.840460  0.418393  1
  Cs  Cs1  1  0.750000  0.159540  0.581607  1
  Cs  Cs2  1  0.250000  0.340460  0.081607  1
  Cs  Cs3  1  0.750000  0.659540  0.918393  1
  Ba  Ba4  1  0.250000  0.497588  0.707587  1
  Ba  Ba5  1  0.750000  0.502412  0.292413  1
  Ba  Ba6  1  0.250000  0.997588  0.792413  1
  Ba  Ba7  1  0.750000  0.002412  0.207587  1
  Ta  Ta8  1  0.250000  0.278244  0.420099  1
  Ta  Ta9  1  0.750000  0.721756  0.579901  1
  Ta  Ta10  1  0.250000  0.778244  0.079901  1
  Ta  Ta11  1  0.750000  0.221756  0.920099  1
  O  O12  1  0.509784  0.777856  0.667131  1
  O  O13  1  0.009784  0.222144  0.332869  1
  O  O14  1  0.990216  0.277856  0.832869  1
  O  O15  1  0.490216  0.722144  0.167131  1
  O  O16  1  0.490216  0.222144  0.332869  1
  O  O17  1  0.990216  0.777856  0.667131  1
  O  O18  1  0.009784  0.722144  0.167131  1
  O  O19  1  0.509784  0.277856  0.832869  1
  O  O20  1  0.250000  0.184637  0.576138  1
  O  O21  1  0.750000  0.815363  0.423862  1
  O  O22  1  0.250000  0.684637  0.923862  1
  O  O23  1  0.750000  0.315363  0.076138  1
  O  O24  1  0.750000  0.000419  0.948335  1
  O  O25  1  0.250000  0.999581  0.051665  1
  O  O26  1  0.750000  0.500419  0.551665  1
  O  O27  1  0.250000  0.499581  0.448335  1
