# generated using pymatgen
data_Th2Mn6FeCo5P7
_symmetry_space_group_name_H-M   'P 1'
_cell_length_a   9.13302551
_cell_length_b   9.11782322
_cell_length_c   3.72260600
_cell_angle_alpha   90.00000000
_cell_angle_beta   90.00000000
_cell_angle_gamma   119.91720161
_symmetry_Int_Tables_number   1
_chemical_formula_structural   Th2Mn6FeCo5P7
_chemical_formula_sum   'Th2 Mn6 Fe1 Co5 P7'
_cell_volume   268.68615252
_cell_formula_units_Z   1
loop_
 _symmetry_equiv_pos_site_id
 _symmetry_equiv_pos_as_xyz
  1  'x, y, z'
loop_
 _atom_site_type_symbol
 _atom_site_label
 _atom_site_symmetry_multiplicity
 _atom_site_fract_x
 _atom_site_fract_y
 _atom_site_fract_z
 _atom_site_occupancy
  Th  Th0  1  0.333754  0.666465  0.000000  1
  Th  Th1  1  0.000182  0.000519  0.500000  1
  Mn  Mn2  1  0.544554  0.058152  0.000000  1
  Mn  Mn3  1  0.941108  0.485488  0.000000  1
  Mn  Mn4  1  0.513885  0.455424  0.000000  1
  Mn  Mn5  1  0.779659  0.228715  0.500000  1
  Mn  Mn6  1  0.771090  0.553701  0.500000  1
  Mn  Mn7  1  0.446326  0.217437  0.500000  1
  Fe  Fe8  1  0.034233  0.272785  0.000000  1
  Co  Co9  1  0.728543  0.763458  0.000000  1
  Co  Co10  1  0.236811  0.964746  0.000000  1
  Co  Co11  1  0.614610  0.895584  0.500000  1
  Co  Co12  1  0.104325  0.717397  0.500000  1
  Co  Co13  1  0.282778  0.386077  0.500000  1
  P  P14  1  0.772304  0.034152  0.000000  1
  P  P15  1  0.968203  0.738161  0.000000  1
  P  P16  1  0.260095  0.230998  0.000000  1
  P  P17  1  0.377635  0.937483  0.500000  1
  P  P18  1  0.063628  0.437375  0.500000  1
  P  P19  1  0.560457  0.622865  0.500000  1
  P  P20  1  0.665821  0.333016  0.000000  1
