# generated using pymatgen
data_Ca13Pr(InN4)2
_symmetry_space_group_name_H-M   'P 1'
_cell_length_a   3.61187000
_cell_length_b   12.13372905
_cell_length_c   11.67269106
_cell_angle_alpha   90.04823803
_cell_angle_beta   90.00000000
_cell_angle_gamma   90.00000000
_symmetry_Int_Tables_number   1
_chemical_formula_structural   Ca13Pr(InN4)2
_chemical_formula_sum   'Ca13 Pr1 In2 N8'
_cell_volume   511.56077975
_cell_formula_units_Z   1
loop_
 _symmetry_equiv_pos_site_id
 _symmetry_equiv_pos_as_xyz
  1  'x, y, z'
loop_
 _atom_site_type_symbol
 _atom_site_label
 _atom_site_symmetry_multiplicity
 _atom_site_fract_x
 _atom_site_fract_y
 _atom_site_fract_z
 _atom_site_occupancy
  Ca  Ca0  1  0.499963  0.671687  0.240396  1
  Ca  Ca1  1  0.499963  0.328313  0.759604  1
  Ca  Ca2  1  0.500270  0.169242  0.265023  1
  Ca  Ca3  1  0.500270  0.830758  0.734977  1
  Ca  Ca4  1  0.500454  0.000000  0.500000  1
  Ca  Ca5  1  0.998905  0.929728  0.265684  1
  Ca  Ca6  1  0.998905  0.070272  0.734316  1
  Ca  Ca7  1  0.002113  0.425092  0.242869  1
  Ca  Ca8  1  0.002113  0.574908  0.757131  1
  Ca  Ca9  1  0.001826  0.766868  0.478703  1
  Ca  Ca10  1  0.001826  0.233132  0.521297  1
  Ca  Ca11  1  0.997108  0.258124  0.023153  1
  Ca  Ca12  1  0.997108  0.741876  0.976847  1
  Pr  Pr13  1  0.499403  0.500000  0.000000  1
  In  In14  1  0.542707  0.500000  0.500000  1
  In  In15  1  0.455763  0.000000  0.000000  1
  N  N16  1  0.999992  0.598675  0.124833  1
  N  N17  1  0.999992  0.401325  0.875167  1
  N  N18  1  0.000350  0.101889  0.370480  1
  N  N19  1  0.000350  0.898111  0.629520  1
  N  N20  1  0.500170  0.831998  0.356946  1
  N  N21  1  0.500170  0.168002  0.643054  1
  N  N22  1  0.500138  0.335065  0.140135  1
  N  N23  1  0.500138  0.664935  0.859865  1
