# generated using pymatgen
data_UZnPdPt5
_symmetry_space_group_name_H-M   'P 1'
_cell_length_a   4.04382700
_cell_length_b   4.04382700
_cell_length_c   8.09130800
_cell_angle_alpha   90.00000000
_cell_angle_beta   90.00000000
_cell_angle_gamma   90.00000000
_symmetry_Int_Tables_number   1
_chemical_formula_structural   UZnPdPt5
_chemical_formula_sum   'U1 Zn1 Pd1 Pt5'
_cell_volume   132.31341188
_cell_formula_units_Z   1
loop_
 _symmetry_equiv_pos_site_id
 _symmetry_equiv_pos_as_xyz
  1  'x, y, z'
loop_
 _atom_site_type_symbol
 _atom_site_label
 _atom_site_symmetry_multiplicity
 _atom_site_fract_x
 _atom_site_fract_y
 _atom_site_fract_z
 _atom_site_occupancy
  U  U0  1  0.000000  0.000000  0.500000  1
  Zn  Zn1  1  0.000000  0.000000  0.000000  1
  Pd  Pd2  1  0.500000  0.500000  0.000000  1
  Pt  Pt3  1  0.500000  0.500000  0.500000  1
  Pt  Pt4  1  0.500000  0.000000  0.247715  1
  Pt  Pt5  1  0.500000  0.000000  0.752285  1
  Pt  Pt6  1  0.000000  0.500000  0.247715  1
  Pt  Pt7  1  0.000000  0.500000  0.752285  1
