# generated using pymatgen
data_LaHo7(Si3Pt)4
_symmetry_space_group_name_H-M   'P 1'
_cell_length_a   8.15068800
_cell_length_b   8.15068862
_cell_length_c   8.21641000
_cell_angle_alpha   90.00000000
_cell_angle_beta   90.00000000
_cell_angle_gamma   120.00000562
_symmetry_Int_Tables_number   1
_chemical_formula_structural   LaHo7(Si3Pt)4
_chemical_formula_sum   'La1 Ho7 Si12 Pt4'
_cell_volume   472.71706509
_cell_formula_units_Z   1
loop_
 _symmetry_equiv_pos_site_id
 _symmetry_equiv_pos_as_xyz
  1  'x, y, z'
loop_
 _atom_site_type_symbol
 _atom_site_label
 _atom_site_symmetry_multiplicity
 _atom_site_fract_x
 _atom_site_fract_y
 _atom_site_fract_z
 _atom_site_occupancy
  La  La0  1  0.000000  0.000000  0.250000  1
  Ho  Ho1  1  0.000000  0.000000  0.750000  1
  Ho  Ho2  1  0.501606  0.498394  0.250000  1
  Ho  Ho3  1  0.501606  0.003212  0.250000  1
  Ho  Ho4  1  0.996788  0.498394  0.250000  1
  Ho  Ho5  1  0.498493  0.501507  0.750000  1
  Ho  Ho6  1  0.498493  0.996986  0.750000  1
  Ho  Ho7  1  0.003014  0.501507  0.750000  1
  Si  Si8  1  0.166170  0.833830  0.504506  1
  Si  Si9  1  0.166170  0.332337  0.504506  1
  Si  Si10  1  0.667663  0.833830  0.504506  1
  Si  Si11  1  0.833835  0.166165  0.504476  1
  Si  Si12  1  0.833835  0.667672  0.504476  1
  Si  Si13  1  0.332328  0.166165  0.504476  1
  Si  Si14  1  0.833835  0.166165  0.995524  1
  Si  Si15  1  0.833835  0.667672  0.995524  1
  Si  Si16  1  0.332328  0.166165  0.995524  1
  Si  Si17  1  0.166170  0.833830  0.995494  1
  Si  Si18  1  0.166170  0.332337  0.995494  1
  Si  Si19  1  0.667663  0.833830  0.995494  1
  Pt  Pt20  1  0.333333  0.666667  0.495126  1
  Pt  Pt21  1  0.666667  0.333333  0.505788  1
  Pt  Pt22  1  0.666667  0.333333  0.994212  1
  Pt  Pt23  1  0.333333  0.666667  0.004874  1
