# generated using pymatgen
data_Tb4SmPb4
_symmetry_space_group_name_H-M   'P 1'
_cell_length_a   8.27844400
_cell_length_b   8.37289600
_cell_length_c   15.75264700
_cell_angle_alpha   90.00000000
_cell_angle_beta   90.00000000
_cell_angle_gamma   90.00000000
_symmetry_Int_Tables_number   1
_chemical_formula_structural   Tb4SmPb4
_chemical_formula_sum   'Tb16 Sm4 Pb16'
_cell_volume   1091.88764841
_cell_formula_units_Z   4
loop_
 _symmetry_equiv_pos_site_id
 _symmetry_equiv_pos_as_xyz
  1  'x, y, z'
loop_
 _atom_site_type_symbol
 _atom_site_label
 _atom_site_symmetry_multiplicity
 _atom_site_fract_x
 _atom_site_fract_y
 _atom_site_fract_z
 _atom_site_occupancy
  Tb  Tb0  1  0.623282  0.159483  0.620341  1
  Tb  Tb1  1  0.123282  0.340517  0.879659  1
  Tb  Tb2  1  0.376718  0.840517  0.120341  1
  Tb  Tb3  1  0.876718  0.659483  0.379659  1
  Tb  Tb4  1  0.376531  0.840550  0.379773  1
  Tb  Tb5  1  0.876531  0.659450  0.120227  1
  Tb  Tb6  1  0.623469  0.159450  0.879773  1
  Tb  Tb7  1  0.123469  0.340550  0.620227  1
  Tb  Tb8  1  0.466793  0.677009  0.600927  1
  Tb  Tb9  1  0.966793  0.822991  0.899073  1
  Tb  Tb10  1  0.533207  0.322991  0.100927  1
  Tb  Tb11  1  0.033207  0.177009  0.399073  1
  Tb  Tb12  1  0.791203  0.496033  0.749926  1
  Tb  Tb13  1  0.291203  0.003967  0.750074  1
  Tb  Tb14  1  0.208797  0.503967  0.249926  1
  Tb  Tb15  1  0.708797  0.996033  0.250074  1
  Sm  Sm16  1  0.532170  0.322437  0.400155  1
  Sm  Sm17  1  0.032170  0.177563  0.099845  1
  Sm  Sm18  1  0.467830  0.677563  0.900155  1
  Sm  Sm19  1  0.967830  0.822437  0.599845  1
  Pb  Pb20  1  0.718853  0.966774  0.456513  1
  Pb  Pb21  1  0.218853  0.533226  0.043487  1
  Pb  Pb22  1  0.281147  0.033226  0.956513  1
  Pb  Pb23  1  0.781147  0.466774  0.543487  1
  Pb  Pb24  1  0.282623  0.034913  0.542400  1
  Pb  Pb25  1  0.782623  0.465087  0.957600  1
  Pb  Pb26  1  0.717377  0.965087  0.042400  1
  Pb  Pb27  1  0.217377  0.534913  0.457600  1
  Pb  Pb28  1  0.427539  0.372904  0.750014  1
  Pb  Pb29  1  0.927539  0.127096  0.749986  1
  Pb  Pb30  1  0.572461  0.627096  0.250014  1
  Pb  Pb31  1  0.072461  0.872904  0.249986  1
  Pb  Pb32  1  0.656626  0.849657  0.749465  1
  Pb  Pb33  1  0.156626  0.650343  0.750535  1
  Pb  Pb34  1  0.343374  0.150343  0.249465  1
  Pb  Pb35  1  0.843374  0.349657  0.250535  1
