# generated using pymatgen
data_CsIn2Au3
_symmetry_space_group_name_H-M   'P 1'
_cell_length_a   6.75647600
_cell_length_b   7.24533500
_cell_length_c   13.73749200
_cell_angle_alpha   90.00000000
_cell_angle_beta   90.00000000
_cell_angle_gamma   90.00000000
_symmetry_Int_Tables_number   1
_chemical_formula_structural   CsIn2Au3
_chemical_formula_sum   'Cs4 In8 Au12'
_cell_volume   672.49051227
_cell_formula_units_Z   4
loop_
 _symmetry_equiv_pos_site_id
 _symmetry_equiv_pos_as_xyz
  1  'x, y, z'
loop_
 _atom_site_type_symbol
 _atom_site_label
 _atom_site_symmetry_multiplicity
 _atom_site_fract_x
 _atom_site_fract_y
 _atom_site_fract_z
 _atom_site_occupancy
  Cs  Cs0  1  0.250000  0.103112  0.072208  1
  Cs  Cs1  1  0.250000  0.396888  0.572208  1
  Cs  Cs2  1  0.750000  0.896888  0.927792  1
  Cs  Cs3  1  0.750000  0.603112  0.427792  1
  In  In4  1  0.997862  0.896118  0.653817  1
  In  In5  1  0.502138  0.603882  0.153817  1
  In  In6  1  0.497862  0.103882  0.346183  1
  In  In7  1  0.002138  0.396118  0.846183  1
  In  In8  1  0.002138  0.103882  0.346183  1
  In  In9  1  0.497862  0.396118  0.846183  1
  In  In10  1  0.502138  0.896118  0.653817  1
  In  In11  1  0.997862  0.603882  0.153817  1
  Au  Au12  1  0.250000  0.105887  0.787919  1
  Au  Au13  1  0.250000  0.394113  0.287919  1
  Au  Au14  1  0.750000  0.894113  0.212081  1
  Au  Au15  1  0.750000  0.605887  0.712081  1
  Au  Au16  1  0.250000  0.712132  0.796353  1
  Au  Au17  1  0.250000  0.787868  0.296353  1
  Au  Au18  1  0.750000  0.287868  0.203647  1
  Au  Au19  1  0.750000  0.212132  0.703647  1
  Au  Au20  1  0.250000  0.593440  0.992249  1
  Au  Au21  1  0.250000  0.906560  0.492249  1
  Au  Au22  1  0.750000  0.406560  0.007751  1
  Au  Au23  1  0.750000  0.093440  0.507751  1
