# generated using pymatgen
data_Sr8EuAu6
_symmetry_space_group_name_H-M   'P 1'
_cell_length_a   8.32249896
_cell_length_b   8.32249957
_cell_length_c   8.32249899
_cell_angle_alpha   70.75402791
_cell_angle_beta   70.75402302
_cell_angle_gamma   70.75401720
_symmetry_Int_Tables_number   1
_chemical_formula_structural   Sr8EuAu6
_chemical_formula_sum   'Sr8 Eu1 Au6'
_cell_volume   497.77748872
_cell_formula_units_Z   1
loop_
 _symmetry_equiv_pos_site_id
 _symmetry_equiv_pos_as_xyz
  1  'x, y, z'
loop_
 _atom_site_type_symbol
 _atom_site_label
 _atom_site_symmetry_multiplicity
 _atom_site_fract_x
 _atom_site_fract_y
 _atom_site_fract_z
 _atom_site_occupancy
  Sr  Sr0  1  0.199893  0.199893  0.199893  1
  Sr  Sr1  1  0.800107  0.800107  0.800107  1
  Sr  Sr2  1  0.397762  0.665903  0.158094  1
  Sr  Sr3  1  0.665903  0.158094  0.397762  1
  Sr  Sr4  1  0.158094  0.397762  0.665903  1
  Sr  Sr5  1  0.602238  0.334097  0.841906  1
  Sr  Sr6  1  0.334097  0.841906  0.602238  1
  Sr  Sr7  1  0.841906  0.602238  0.334097  1
  Eu  Eu8  1  0.000000  0.000000  0.000000  1
  Au  Au9  1  0.043930  0.842944  0.405803  1
  Au  Au10  1  0.842944  0.405803  0.043930  1
  Au  Au11  1  0.405803  0.043930  0.842944  1
  Au  Au12  1  0.956070  0.157056  0.594197  1
  Au  Au13  1  0.157056  0.594197  0.956070  1
  Au  Au14  1  0.594197  0.956070  0.157056  1
