# generated using pymatgen
data_La2ZrSi5PPd20
_symmetry_space_group_name_H-M   'P 1'
_cell_length_a   8.74635211
_cell_length_b   8.74635859
_cell_length_c   8.74628500
_cell_angle_alpha   60.00023673
_cell_angle_beta   60.00028784
_cell_angle_gamma   59.99945491
_symmetry_Int_Tables_number   1
_chemical_formula_structural   La2ZrSi5PPd20
_chemical_formula_sum   'La2 Zr1 Si5 P1 Pd20'
_cell_volume   473.11072756
_cell_formula_units_Z   1
loop_
 _symmetry_equiv_pos_site_id
 _symmetry_equiv_pos_as_xyz
  1  'x, y, z'
loop_
 _atom_site_type_symbol
 _atom_site_label
 _atom_site_symmetry_multiplicity
 _atom_site_fract_x
 _atom_site_fract_y
 _atom_site_fract_z
 _atom_site_occupancy
  La  La0  1  0.248946  0.248946  0.251056  1
  La  La1  1  0.748941  0.748945  0.751055  1
  Zr  Zr2  1  0.001261  0.001261  0.998739  1
  Si  Si3  1  0.734154  0.264280  0.265846  1
  Si  Si4  1  0.264280  0.734153  0.735720  1
  Si  Si5  1  0.264280  0.734153  0.265847  1
  Si  Si6  1  0.734154  0.264280  0.735720  1
  Si  Si7  1  0.266005  0.266005  0.733995  1
  P  P8  1  0.736015  0.736014  0.263985  1
  Pd  Pd9  1  0.385284  0.385285  0.384927  1
  Pd  Pd10  1  0.614695  0.614693  0.612800  1
  Pd  Pd11  1  0.385285  0.385284  0.844503  1
  Pd  Pd12  1  0.387201  0.842189  0.385305  1
  Pd  Pd13  1  0.614694  0.614694  0.157812  1
  Pd  Pd14  1  0.615073  0.155496  0.614716  1
  Pd  Pd15  1  0.842190  0.387200  0.385305  1
  Pd  Pd16  1  0.155496  0.615073  0.614715  1
  Pd  Pd17  1  0.343119  0.000074  0.999925  1
  Pd  Pd18  1  0.656935  0.998130  0.001870  1
  Pd  Pd19  1  0.000075  0.343119  0.656881  1
  Pd  Pd20  1  0.998130  0.656935  0.343065  1
  Pd  Pd21  1  0.000075  0.343120  0.999925  1
  Pd  Pd22  1  0.656936  0.998130  0.343064  1
  Pd  Pd23  1  0.998130  0.656935  0.001870  1
  Pd  Pd24  1  0.343118  0.000076  0.656881  1
  Pd  Pd25  1  0.001382  0.001382  0.342389  1
  Pd  Pd26  1  0.001382  0.001382  0.654847  1
  Pd  Pd27  1  0.657610  0.345154  0.998617  1
  Pd  Pd28  1  0.345153  0.657610  0.998618  1
