# generated using pymatgen
data_Dy3HoCd2Cu3Ni
_symmetry_space_group_name_H-M   'P 1'
_cell_length_a   7.49703600
_cell_length_b   7.49704452
_cell_length_c   3.68091900
_cell_angle_alpha   90.00000000
_cell_angle_beta   90.00000000
_cell_angle_gamma   90.82827156
_symmetry_Int_Tables_number   1
_chemical_formula_structural   Dy3HoCd2Cu3Ni
_chemical_formula_sum   'Dy3 Ho1 Cd2 Cu3 Ni1'
_cell_volume   206.86669041
_cell_formula_units_Z   1
loop_
 _symmetry_equiv_pos_site_id
 _symmetry_equiv_pos_as_xyz
  1  'x, y, z'
loop_
 _atom_site_type_symbol
 _atom_site_label
 _atom_site_symmetry_multiplicity
 _atom_site_fract_x
 _atom_site_fract_y
 _atom_site_fract_z
 _atom_site_occupancy
  Dy  Dy0  1  0.670905  0.170927  0.500000  1
  Dy  Dy1  1  0.318045  0.818068  0.500000  1
  Dy  Dy2  1  0.838883  0.676482  0.500000  1
  Ho  Ho3  1  0.176492  0.338899  0.500000  1
  Cd  Cd4  1  0.000527  0.003322  0.000000  1
  Cd  Cd5  1  0.503270  0.500482  0.000000  1
  Cu  Cu6  1  0.879537  0.379470  0.000000  1
  Cu  Cu7  1  0.617023  0.877599  0.000000  1
  Cu  Cu8  1  0.377558  0.117069  0.000000  1
  Ni  Ni9  1  0.117760  0.617681  0.000000  1
