# generated using pymatgen
data_Ce2Tm2ScAl3Ir4
_symmetry_space_group_name_H-M   'P 1'
_cell_length_a   6.89694043
_cell_length_b   4.29676700
_cell_length_c   8.05972047
_cell_angle_alpha   90.00000000
_cell_angle_beta   89.96018624
_cell_angle_gamma   90.00000000
_symmetry_Int_Tables_number   1
_chemical_formula_structural   Ce2Tm2ScAl3Ir4
_chemical_formula_sum   'Ce2 Tm2 Sc1 Al3 Ir4'
_cell_volume   238.84609970
_cell_formula_units_Z   1
loop_
 _symmetry_equiv_pos_site_id
 _symmetry_equiv_pos_as_xyz
  1  'x, y, z'
loop_
 _atom_site_type_symbol
 _atom_site_label
 _atom_site_symmetry_multiplicity
 _atom_site_fract_x
 _atom_site_fract_y
 _atom_site_fract_z
 _atom_site_occupancy
  Ce  Ce0  1  0.029807  0.750000  0.827260  1
  Ce  Ce1  1  0.538113  0.750000  0.685115  1
  Tm  Tm2  1  0.957479  0.250000  0.176431  1
  Tm  Tm3  1  0.475497  0.250000  0.310861  1
  Sc  Sc4  1  0.133316  0.750000  0.432317  1
  Al  Al5  1  0.859879  0.250000  0.557115  1
  Al  Al6  1  0.364340  0.250000  0.947162  1
  Al  Al7  1  0.639180  0.750000  0.067312  1
  Ir  Ir8  1  0.737610  0.250000  0.877992  1
  Ir  Ir9  1  0.245440  0.250000  0.626551  1
  Ir  Ir10  1  0.263947  0.750000  0.110146  1
  Ir  Ir11  1  0.755394  0.750000  0.381739  1
