# generated using pymatgen
data_Ac7SmAg7Sn8Pt
_symmetry_space_group_name_H-M   'P 1'
_cell_length_a   9.73621900
_cell_length_b   9.73621962
_cell_length_c   8.26067900
_cell_angle_alpha   90.00000000
_cell_angle_beta   90.00000000
_cell_angle_gamma   119.99999448
_symmetry_Int_Tables_number   1
_chemical_formula_structural   Ac7SmAg7Sn8Pt
_chemical_formula_sum   'Ac7 Sm1 Ag7 Sn8 Pt1'
_cell_volume   678.15207998
_cell_formula_units_Z   1
loop_
 _symmetry_equiv_pos_site_id
 _symmetry_equiv_pos_as_xyz
  1  'x, y, z'
loop_
 _atom_site_type_symbol
 _atom_site_label
 _atom_site_symmetry_multiplicity
 _atom_site_fract_x
 _atom_site_fract_y
 _atom_site_fract_z
 _atom_site_occupancy
  Ac  Ac0  1  0.479934  0.520066  0.510871  1
  Ac  Ac1  1  0.479934  0.959869  0.510871  1
  Ac  Ac2  1  0.040131  0.520066  0.510871  1
  Ac  Ac3  1  0.513436  0.486564  0.001608  1
  Ac  Ac4  1  0.513436  0.026871  0.001608  1
  Ac  Ac5  1  0.973129  0.486564  0.001608  1
  Ac  Ac6  1  0.000000  0.000000  0.503792  1
  Sm  Sm7  1  0.000000  0.000000  0.003518  1
  Ag  Ag8  1  0.834505  0.165495  0.722893  1
  Ag  Ag9  1  0.834505  0.669011  0.722893  1
  Ag  Ag10  1  0.330989  0.165495  0.722893  1
  Ag  Ag11  1  0.163548  0.836452  0.198629  1
  Ag  Ag12  1  0.163548  0.327093  0.198629  1
  Ag  Ag13  1  0.672907  0.836452  0.198629  1
  Ag  Ag14  1  0.666667  0.333333  0.302358  1
  Sn  Sn15  1  0.834993  0.165007  0.282875  1
  Sn  Sn16  1  0.834993  0.669985  0.282875  1
  Sn  Sn17  1  0.330015  0.165007  0.282875  1
  Sn  Sn18  1  0.164780  0.835220  0.799216  1
  Sn  Sn19  1  0.164780  0.329563  0.799216  1
  Sn  Sn20  1  0.670437  0.835220  0.799216  1
  Sn  Sn21  1  0.666667  0.333333  0.710736  1
  Sn  Sn22  1  0.333333  0.666667  0.213200  1
  Pt  Pt23  1  0.333333  0.666667  0.776132  1
