# generated using pymatgen
data_KU2CuSe5
_symmetry_space_group_name_H-M   'P 1'
_cell_length_a   7.71054209
_cell_length_b   7.71054330
_cell_length_c   17.53680300
_cell_angle_alpha   90.00000000
_cell_angle_beta   90.00000000
_cell_angle_gamma   148.81409650
_symmetry_Int_Tables_number   1
_chemical_formula_structural   KU2CuSe5
_chemical_formula_sum   'K2 U4 Cu2 Se10'
_cell_volume   539.87875958
_cell_formula_units_Z   2
loop_
 _symmetry_equiv_pos_site_id
 _symmetry_equiv_pos_as_xyz
  1  'x, y, z'
loop_
 _atom_site_type_symbol
 _atom_site_label
 _atom_site_symmetry_multiplicity
 _atom_site_fract_x
 _atom_site_fract_y
 _atom_site_fract_z
 _atom_site_occupancy
  K  K0  1  0.042212  0.957788  0.250000  1
  K  K1  1  0.957788  0.042212  0.750000  1
  U  U2  1  0.208763  0.791237  0.901198  1
  U  U3  1  0.791237  0.208763  0.401198  1
  U  U4  1  0.208763  0.791237  0.598802  1
  U  U5  1  0.791237  0.208763  0.098802  1
  Cu  Cu6  1  0.319650  0.680350  0.250000  1
  Cu  Cu7  1  0.680350  0.319650  0.750000  1
  Se  Se8  1  0.166491  0.833509  0.441139  1
  Se  Se9  1  0.833509  0.166491  0.941139  1
  Se  Se10  1  0.277597  0.722403  0.750000  1
  Se  Se11  1  0.412894  0.587106  0.363996  1
  Se  Se12  1  0.166491  0.833509  0.058861  1
  Se  Se13  1  0.587106  0.412894  0.863996  1
  Se  Se14  1  0.587106  0.412894  0.636004  1
  Se  Se15  1  0.412894  0.587106  0.136004  1
  Se  Se16  1  0.833509  0.166491  0.558861  1
  Se  Se17  1  0.722403  0.277597  0.250000  1
