# generated using pymatgen
data_Dy6UO11F
_symmetry_space_group_name_H-M   'P 1'
_cell_length_a   6.58775649
_cell_length_b   6.57754379
_cell_length_c   6.60179784
_cell_angle_alpha   99.35501102
_cell_angle_beta   99.34045203
_cell_angle_gamma   99.19741687
_symmetry_Int_Tables_number   1
_chemical_formula_structural   Dy6UO11F
_chemical_formula_sum   'Dy6 U1 O11 F1'
_cell_volume   273.37534557
_cell_formula_units_Z   1
loop_
 _symmetry_equiv_pos_site_id
 _symmetry_equiv_pos_as_xyz
  1  'x, y, z'
loop_
 _atom_site_type_symbol
 _atom_site_label
 _atom_site_symmetry_multiplicity
 _atom_site_fract_x
 _atom_site_fract_y
 _atom_site_fract_z
 _atom_site_occupancy
  Dy  Dy0  1  0.315874  0.608576  0.147448  1
  Dy  Dy1  1  0.618534  0.137067  0.293280  1
  Dy  Dy2  1  0.391278  0.841618  0.689184  1
  Dy  Dy3  1  0.696958  0.400862  0.869936  1
  Dy  Dy4  1  0.856105  0.686715  0.393713  1
  Dy  Dy5  1  0.126239  0.317267  0.610135  1
  U  U6  1  0.003267  0.001095  0.997247  1
  O  O7  1  0.922659  0.687746  0.055674  1
  O  O8  1  0.175106  0.581543  0.431338  1
  O  O9  1  0.813574  0.408993  0.569907  1
  O  O10  1  0.570811  0.830835  0.421981  1
  O  O11  1  0.585903  0.433072  0.181293  1
  O  O12  1  0.414158  0.560131  0.818655  1
  O  O13  1  0.951789  0.079195  0.311583  1
  O  O14  1  0.062207  0.929119  0.684598  1
  O  O15  1  0.683362  0.059493  0.925996  1
  O  O16  1  0.072435  0.317143  0.947022  1
  O  O17  1  0.316412  0.942887  0.075120  1
  F  F18  1  0.423329  0.176642  0.575892  1
