# generated using pymatgen
data_Ca9Tb(Sn3H)2
_symmetry_space_group_name_H-M   'P 1'
_cell_length_a   9.42312869
_cell_length_b   9.42312885
_cell_length_c   9.43402184
_cell_angle_alpha   128.59588680
_cell_angle_beta   128.59589152
_cell_angle_gamma   75.48157704
_symmetry_Int_Tables_number   1
_chemical_formula_structural   Ca9Tb(Sn3H)2
_chemical_formula_sum   'Ca9 Tb1 Sn6 H2'
_cell_volume   498.38290722
_cell_formula_units_Z   1
loop_
 _symmetry_equiv_pos_site_id
 _symmetry_equiv_pos_as_xyz
  1  'x, y, z'
loop_
 _atom_site_type_symbol
 _atom_site_label
 _atom_site_symmetry_multiplicity
 _atom_site_fract_x
 _atom_site_fract_y
 _atom_site_fract_z
 _atom_site_occupancy
  Ca  Ca0  1  0.499390  0.502330  0.001351  1
  Ca  Ca1  1  0.002330  0.999390  0.001351  1
  Ca  Ca2  1  0.186500  0.686500  0.175959  1
  Ca  Ca3  1  0.008461  0.185081  0.498470  1
  Ca  Ca4  1  0.685081  0.508461  0.498470  1
  Ca  Ca5  1  0.490965  0.990965  0.181163  1
  Ca  Ca6  1  0.811202  0.311202  0.821191  1
  Ca  Ca7  1  0.987936  0.812596  0.498160  1
  Ca  Ca8  1  0.312596  0.487936  0.498160  1
  Tb  Tb9  1  0.513334  0.013334  0.823643  1
  Sn  Sn10  1  0.254659  0.243762  0.993750  1
  Sn  Sn11  1  0.743762  0.754659  0.993750  1
  Sn  Sn12  1  0.869082  0.369082  0.239879  1
  Sn  Sn13  1  0.125675  0.625675  0.751731  1
  Sn  Sn14  1  0.371822  0.127819  0.505321  1
  Sn  Sn15  1  0.627819  0.871822  0.505321  1
  H  H16  1  0.259268  0.759268  0.510525  1
  H  H17  1  0.750118  0.250118  0.501804  1
