# generated using pymatgen
data_SrLa3TbU3O14
_symmetry_space_group_name_H-M   'P 1'
_cell_length_a   7.84194568
_cell_length_b   7.84194587
_cell_length_c   7.84194631
_cell_angle_alpha   61.15490101
_cell_angle_beta   61.15489890
_cell_angle_gamma   61.15490742
_symmetry_Int_Tables_number   1
_chemical_formula_structural   SrLa3TbU3O14
_chemical_formula_sum   'Sr1 La3 Tb1 U3 O14'
_cell_volume   349.86317710
_cell_formula_units_Z   1
loop_
 _symmetry_equiv_pos_site_id
 _symmetry_equiv_pos_as_xyz
  1  'x, y, z'
loop_
 _atom_site_type_symbol
 _atom_site_label
 _atom_site_symmetry_multiplicity
 _atom_site_fract_x
 _atom_site_fract_y
 _atom_site_fract_z
 _atom_site_occupancy
  Sr  Sr0  1  0.125000  0.125000  0.125000  1
  La  La1  1  0.625000  0.125000  0.125000  1
  La  La2  1  0.125000  0.625000  0.125000  1
  La  La3  1  0.125000  0.125000  0.625000  1
  Tb  Tb4  1  0.625000  0.625000  0.625000  1
  U  U5  1  0.625000  0.625000  0.125000  1
  U  U6  1  0.625000  0.125000  0.625000  1
  U  U7  1  0.125000  0.625000  0.625000  1
  O  O8  1  0.707281  0.291428  0.291428  1
  O  O9  1  0.715520  0.715520  0.277358  1
  O  O10  1  0.291428  0.707281  0.291428  1
  O  O11  1  0.994053  0.994053  0.994053  1
  O  O12  1  0.715520  0.277358  0.715520  1
  O  O13  1  0.972642  0.534480  0.534480  1
  O  O14  1  0.277358  0.715520  0.715520  1
  O  O15  1  0.534480  0.972642  0.534480  1
  O  O16  1  0.255947  0.255947  0.255947  1
  O  O17  1  0.958572  0.542719  0.958572  1
  O  O18  1  0.534480  0.534480  0.972642  1
  O  O19  1  0.958572  0.958572  0.542719  1
  O  O20  1  0.542719  0.958572  0.958572  1
  O  O21  1  0.291428  0.291428  0.707281  1
