# generated using pymatgen
data_MgTi4Re13Tc11
_symmetry_space_group_name_H-M   'P 1'
_cell_length_a   8.37987902
_cell_length_b   8.38280834
_cell_length_c   8.37987800
_cell_angle_alpha   109.50217580
_cell_angle_beta   109.45533212
_cell_angle_gamma   109.50218294
_symmetry_Int_Tables_number   1
_chemical_formula_structural   MgTi4Re13Tc11
_chemical_formula_sum   'Mg1 Ti4 Re13 Tc11'
_cell_volume   452.89347936
_cell_formula_units_Z   1
loop_
 _symmetry_equiv_pos_site_id
 _symmetry_equiv_pos_as_xyz
  1  'x, y, z'
loop_
 _atom_site_type_symbol
 _atom_site_label
 _atom_site_symmetry_multiplicity
 _atom_site_fract_x
 _atom_site_fract_y
 _atom_site_fract_z
 _atom_site_occupancy
  Mg  Mg0  1  0.999712  0.999606  0.999712  1
  Ti  Ti1  1  0.632345  0.999595  0.999797  1
  Ti  Ti2  1  0.000295  0.632483  0.000295  1
  Ti  Ti3  1  0.999797  0.999595  0.632345  1
  Ti  Ti4  1  0.366820  0.368194  0.366820  1
  Re  Re5  1  0.600589  0.279798  0.600589  1
  Re  Re6  1  0.376135  0.193378  0.999793  1
  Re  Re7  1  0.182613  0.806417  0.806339  1
  Re  Re8  1  0.376397  0.000967  0.194113  1
  Re  Re9  1  0.193798  0.376159  0.000201  1
  Re  Re10  1  0.000201  0.376159  0.193798  1
  Re  Re11  1  0.806670  0.181462  0.806670  1
  Re  Re12  1  0.806339  0.806417  0.182613  1
  Re  Re13  1  0.999793  0.193378  0.376135  1
  Re  Re14  1  0.194113  0.000967  0.376397  1
  Re  Re15  1  0.623525  0.623559  0.817069  1
  Re  Re16  1  0.817069  0.623559  0.623525  1
  Re  Re17  1  0.623227  0.816240  0.623227  1
  Tc  Tc18  1  0.400071  0.680562  0.000511  1
  Tc  Tc19  1  0.720367  0.320225  0.319550  1
  Tc  Tc20  1  0.400008  0.000211  0.679897  1
  Tc  Tc21  1  0.680406  0.400044  0.000190  1
  Tc  Tc22  1  0.000190  0.400044  0.680406  1
  Tc  Tc23  1  0.319316  0.719699  0.319316  1
  Tc  Tc24  1  0.319550  0.320225  0.720367  1
  Tc  Tc25  1  0.000511  0.680562  0.400071  1
  Tc  Tc26  1  0.679897  0.000211  0.400008  1
  Tc  Tc27  1  0.600305  0.600144  0.279942  1
  Tc  Tc28  1  0.279942  0.600144  0.600305  1
