# generated using pymatgen
data_Sm8Pd21Pt3Pb
_symmetry_space_group_name_H-M   'P 1'
_cell_length_a   8.51267400
_cell_length_b   8.50430600
_cell_length_c   8.50305000
_cell_angle_alpha   90.00000000
_cell_angle_beta   90.00000000
_cell_angle_gamma   90.00000000
_symmetry_Int_Tables_number   1
_chemical_formula_structural   Sm8Pd21Pt3Pb
_chemical_formula_sum   'Sm8 Pd21 Pt3 Pb1'
_cell_volume   615.57307175
_cell_formula_units_Z   1
loop_
 _symmetry_equiv_pos_site_id
 _symmetry_equiv_pos_as_xyz
  1  'x, y, z'
loop_
 _atom_site_type_symbol
 _atom_site_label
 _atom_site_symmetry_multiplicity
 _atom_site_fract_x
 _atom_site_fract_y
 _atom_site_fract_z
 _atom_site_occupancy
  Sm  Sm0  1  0.252930  0.253050  0.253499  1
  Sm  Sm1  1  0.747566  0.746929  0.746894  1
  Sm  Sm2  1  0.747566  0.746929  0.253106  1
  Sm  Sm3  1  0.747070  0.253050  0.746501  1
  Sm  Sm4  1  0.252930  0.253050  0.746501  1
  Sm  Sm5  1  0.252434  0.746929  0.253106  1
  Sm  Sm6  1  0.252434  0.746929  0.746894  1
  Sm  Sm7  1  0.747070  0.253050  0.253499  1
  Pd  Pd8  1  0.267898  0.500126  0.000000  1
  Pd  Pd9  1  0.732102  0.500126  0.000000  1
  Pd  Pd10  1  0.000000  0.267798  0.500000  1
  Pd  Pd11  1  0.500000  0.267609  0.000000  1
  Pd  Pd12  1  0.000000  0.731822  0.500000  1
  Pd  Pd13  1  0.500000  0.732197  0.000000  1
  Pd  Pd14  1  0.500000  0.000139  0.267636  1
  Pd  Pd15  1  0.268071  0.000207  0.500000  1
  Pd  Pd16  1  0.500000  0.000139  0.732364  1
  Pd  Pd17  1  0.731929  0.000207  0.500000  1
  Pd  Pd18  1  0.000000  0.500134  0.267746  1
  Pd  Pd19  1  0.000000  0.500134  0.732254  1
  Pd  Pd20  1  0.500000  0.744448  0.500000  1
  Pd  Pd21  1  0.500000  0.500052  0.255450  1
  Pd  Pd22  1  0.500000  0.500052  0.744550  1
  Pd  Pd23  1  0.318191  0.999918  0.000000  1
  Pd  Pd24  1  0.681809  0.999918  0.000000  1
  Pd  Pd25  1  0.000000  0.318178  0.000000  1
  Pd  Pd26  1  0.000000  0.682101  0.000000  1
  Pd  Pd27  1  0.000000  0.999925  0.317888  1
  Pd  Pd28  1  0.000000  0.999925  0.682112  1
  Pt  Pt29  1  0.254882  0.499864  0.500000  1
  Pt  Pt30  1  0.745118  0.499864  0.500000  1
  Pt  Pt31  1  0.500000  0.255096  0.500000  1
  Pb  Pb32  1  0.000000  0.000105  0.000000  1
