# generated using pymatgen
data_Ce2Be2Rh5Pb
_symmetry_space_group_name_H-M   'P 1'
_cell_length_a   9.83397100
_cell_length_b   9.83397100
_cell_length_c   3.45411000
_cell_angle_alpha   90.00000000
_cell_angle_beta   90.00000000
_cell_angle_gamma   90.00000000
_symmetry_Int_Tables_number   1
_chemical_formula_structural   Ce2Be2Rh5Pb
_chemical_formula_sum   'Ce4 Be4 Rh10 Pb2'
_cell_volume   334.03656613
_cell_formula_units_Z   2
loop_
 _symmetry_equiv_pos_site_id
 _symmetry_equiv_pos_as_xyz
  1  'x, y, z'
loop_
 _atom_site_type_symbol
 _atom_site_label
 _atom_site_symmetry_multiplicity
 _atom_site_fract_x
 _atom_site_fract_y
 _atom_site_fract_z
 _atom_site_occupancy
  Ce  Ce0  1  0.824391  0.324391  0.000000  1
  Ce  Ce1  1  0.324391  0.175609  0.000000  1
  Ce  Ce2  1  0.675609  0.824391  0.000000  1
  Ce  Ce3  1  0.175609  0.675609  0.000000  1
  Be  Be4  1  0.618681  0.118681  0.000000  1
  Be  Be5  1  0.118681  0.381319  0.000000  1
  Be  Be6  1  0.881319  0.618681  0.000000  1
  Be  Be7  1  0.381319  0.881319  0.000000  1
  Rh  Rh8  1  0.073156  0.222616  0.500000  1
  Rh  Rh9  1  0.222616  0.926844  0.500000  1
  Rh  Rh10  1  0.777384  0.073156  0.500000  1
  Rh  Rh11  1  0.926844  0.777384  0.500000  1
  Rh  Rh12  1  0.426844  0.722616  0.500000  1
  Rh  Rh13  1  0.573156  0.277384  0.500000  1
  Rh  Rh14  1  0.722616  0.573156  0.500000  1
  Rh  Rh15  1  0.277384  0.426844  0.500000  1
  Rh  Rh16  1  0.500000  0.000000  0.500000  1
  Rh  Rh17  1  0.000000  0.500000  0.500000  1
  Pb  Pb18  1  0.000000  0.000000  0.000000  1
  Pb  Pb19  1  0.500000  0.500000  0.000000  1
