# generated using pymatgen
data_Gd8Si12IrPd3
_symmetry_space_group_name_H-M   'P 1'
_cell_length_a   8.21388100
_cell_length_b   8.21387986
_cell_length_c   7.95689100
_cell_angle_alpha   90.00000000
_cell_angle_beta   90.00000000
_cell_angle_gamma   120.00000863
_symmetry_Int_Tables_number   1
_chemical_formula_structural   Gd8Si12IrPd3
_chemical_formula_sum   'Gd8 Si12 Ir1 Pd3'
_cell_volume   464.91199941
_cell_formula_units_Z   1
loop_
 _symmetry_equiv_pos_site_id
 _symmetry_equiv_pos_as_xyz
  1  'x, y, z'
loop_
 _atom_site_type_symbol
 _atom_site_label
 _atom_site_symmetry_multiplicity
 _atom_site_fract_x
 _atom_site_fract_y
 _atom_site_fract_z
 _atom_site_occupancy
  Gd  Gd0  1  0.506050  0.012100  0.247908  1
  Gd  Gd1  1  0.490575  0.981152  0.751473  1
  Gd  Gd2  1  0.987900  0.493950  0.247908  1
  Gd  Gd3  1  0.018848  0.509425  0.751473  1
  Gd  Gd4  1  0.506050  0.493950  0.247908  1
  Gd  Gd5  1  0.490575  0.509425  0.751473  1
  Gd  Gd6  1  0.000000  0.000000  0.250976  1
  Gd  Gd7  1  0.000000  0.000000  0.750599  1
  Si  Si8  1  0.166428  0.332854  0.002998  1
  Si  Si9  1  0.835586  0.671171  0.997921  1
  Si  Si10  1  0.667146  0.833572  0.002998  1
  Si  Si11  1  0.835257  0.670514  0.499996  1
  Si  Si12  1  0.328829  0.164414  0.997921  1
  Si  Si13  1  0.164506  0.329011  0.501733  1
  Si  Si14  1  0.166428  0.833572  0.002998  1
  Si  Si15  1  0.329486  0.164743  0.499996  1
  Si  Si16  1  0.835586  0.164414  0.997921  1
  Si  Si17  1  0.670989  0.835494  0.501733  1
  Si  Si18  1  0.835257  0.164743  0.499996  1
  Si  Si19  1  0.164506  0.835494  0.501733  1
  Ir  Ir20  1  0.333333  0.666667  0.024262  1
  Pd  Pd21  1  0.666667  0.333333  0.976592  1
  Pd  Pd22  1  0.666667  0.333333  0.526098  1
  Pd  Pd23  1  0.333333  0.666667  0.465390  1
