# generated using pymatgen
data_Dy3(GaCo2)4
_symmetry_space_group_name_H-M   'P 1'
_cell_length_a   7.26459100
_cell_length_b   8.49812377
_cell_length_c   8.49812400
_cell_angle_alpha   120.00000091
_cell_angle_beta   90.00000000
_cell_angle_gamma   90.00000000
_symmetry_Int_Tables_number   1
_chemical_formula_structural   Dy3(GaCo2)4
_chemical_formula_sum   'Dy6 Ga8 Co16'
_cell_volume   454.34725836
_cell_formula_units_Z   2
loop_
 _symmetry_equiv_pos_site_id
 _symmetry_equiv_pos_as_xyz
  1  'x, y, z'
loop_
 _atom_site_type_symbol
 _atom_site_label
 _atom_site_symmetry_multiplicity
 _atom_site_fract_x
 _atom_site_fract_y
 _atom_site_fract_z
 _atom_site_occupancy
  Dy  Dy0  1  0.785131  0.475274  0.950549  1
  Dy  Dy1  1  0.785131  0.475274  0.524726  1
  Dy  Dy2  1  0.285131  0.524726  0.049451  1
  Dy  Dy3  1  0.785131  0.049451  0.524726  1
  Dy  Dy4  1  0.285131  0.524726  0.475274  1
  Dy  Dy5  1  0.285131  0.950549  0.475274  1
  Ga  Ga6  1  0.965427  0.666667  0.333333  1
  Ga  Ga7  1  0.465427  0.333333  0.666667  1
  Ga  Ga8  1  0.573868  0.830091  0.660184  1
  Ga  Ga9  1  0.573868  0.830091  0.169909  1
  Ga  Ga10  1  0.073868  0.169909  0.339816  1
  Ga  Ga11  1  0.573868  0.339816  0.169909  1
  Ga  Ga12  1  0.073868  0.169909  0.830091  1
  Ga  Ga13  1  0.073868  0.660184  0.830091  1
  Co  Co14  1  0.624798  0.666667  0.333333  1
  Co  Co15  1  0.124798  0.333333  0.666667  1
  Co  Co16  1  0.753929  0.101869  0.203739  1
  Co  Co17  1  0.753929  0.101869  0.898131  1
  Co  Co18  1  0.253929  0.898131  0.796261  1
  Co  Co19  1  0.753929  0.796261  0.898131  1
  Co  Co20  1  0.253929  0.898131  0.101869  1
  Co  Co21  1  0.253929  0.203739  0.101869  1
  Co  Co22  1  0.945040  0.836510  0.673020  1
  Co  Co23  1  0.945040  0.836510  0.163490  1
  Co  Co24  1  0.445040  0.163490  0.326980  1
  Co  Co25  1  0.945040  0.326980  0.163490  1
  Co  Co26  1  0.445040  0.163490  0.836510  1
  Co  Co27  1  0.445040  0.673020  0.836510  1
  Co  Co28  1  0.000968  0.000000  0.000000  1
  Co  Co29  1  0.500968  0.000000  0.000000  1
