# generated using pymatgen
data_CeThMn4(SiC)2
_symmetry_space_group_name_H-M   'P 1'
_cell_length_a   5.69011651
_cell_length_b   5.69011786
_cell_length_c   7.02818200
_cell_angle_alpha   90.00000000
_cell_angle_beta   90.00000000
_cell_angle_gamma   140.69177586
_symmetry_Int_Tables_number   1
_chemical_formula_structural   CeThMn4(SiC)2
_chemical_formula_sum   'Ce1 Th1 Mn4 Si2 C2'
_cell_volume   144.15393950
_cell_formula_units_Z   1
loop_
 _symmetry_equiv_pos_site_id
 _symmetry_equiv_pos_as_xyz
  1  'x, y, z'
loop_
 _atom_site_type_symbol
 _atom_site_label
 _atom_site_symmetry_multiplicity
 _atom_site_fract_x
 _atom_site_fract_y
 _atom_site_fract_z
 _atom_site_occupancy
  Ce  Ce0  1  0.451113  0.548887  0.750000  1
  Th  Th1  1  0.548458  0.451542  0.250000  1
  Mn  Mn2  1  0.831760  0.168240  0.060857  1
  Mn  Mn3  1  0.168342  0.831658  0.936893  1
  Mn  Mn4  1  0.168342  0.831658  0.563107  1
  Mn  Mn5  1  0.831760  0.168240  0.439143  1
  Si  Si6  1  0.268614  0.731386  0.250000  1
  Si  Si7  1  0.732099  0.267901  0.750000  1
  C  C8  1  0.999757  0.000243  0.997197  1
  C  C9  1  0.999757  0.000243  0.502803  1
