# generated using pymatgen
data_Zr6Nb5Al2Ga9Os7
_symmetry_space_group_name_H-M   'P 1'
_cell_length_a   8.91297925
_cell_length_b   8.91297915
_cell_length_c   8.88376133
_cell_angle_alpha   59.73894459
_cell_angle_beta   59.73894922
_cell_angle_gamma   59.82740888
_symmetry_Int_Tables_number   1
_chemical_formula_structural   Zr6Nb5Al2Ga9Os7
_chemical_formula_sum   'Zr6 Nb5 Al2 Ga9 Os7'
_cell_volume   496.40658118
_cell_formula_units_Z   1
loop_
 _symmetry_equiv_pos_site_id
 _symmetry_equiv_pos_as_xyz
  1  'x, y, z'
loop_
 _atom_site_type_symbol
 _atom_site_label
 _atom_site_symmetry_multiplicity
 _atom_site_fract_x
 _atom_site_fract_y
 _atom_site_fract_z
 _atom_site_occupancy
  Zr  Zr0  1  0.702738  0.702738  0.300824  1
  Zr  Zr1  1  0.293572  0.703933  0.300464  1
  Zr  Zr2  1  0.703933  0.293572  0.300464  1
  Zr  Zr3  1  0.305461  0.305461  0.704182  1
  Zr  Zr4  1  0.685712  0.306079  0.702094  1
  Zr  Zr5  1  0.306079  0.685712  0.702094  1
  Nb  Nb6  1  0.878086  0.878086  0.365535  1
  Nb  Nb7  1  0.873995  0.371068  0.880969  1
  Nb  Nb8  1  0.371068  0.873995  0.880969  1
  Nb  Nb9  1  0.873674  0.873674  0.880393  1
  Nb  Nb10  1  0.126688  0.126688  0.619541  1
  Al  Al11  1  0.121114  0.638682  0.119321  1
  Al  Al12  1  0.638682  0.121114  0.119321  1
  Ga  Ga13  1  0.118578  0.118578  0.117914  1
  Ga  Ga14  1  0.653839  0.653839  0.038731  1
  Ga  Ga15  1  0.657485  0.029321  0.655569  1
  Ga  Ga16  1  0.029321  0.657485  0.655569  1
  Ga  Ga17  1  0.657597  0.657597  0.655569  1
  Ga  Ga18  1  0.337779  0.337779  0.988612  1
  Ga  Ga19  1  0.342706  0.978917  0.337571  1
  Ga  Ga20  1  0.978917  0.342706  0.337571  1
  Ga  Ga21  1  0.342176  0.342176  0.337415  1
  Os  Os22  1  0.003078  0.003078  0.985369  1
  Os  Os23  1  0.999270  0.999270  0.504724  1
  Os  Os24  1  0.497920  0.999172  0.504484  1
  Os  Os25  1  0.999172  0.497920  0.504484  1
  Os  Os26  1  0.501466  0.501466  0.000033  1
  Os  Os27  1  0.997891  0.501998  0.000105  1
  Os  Os28  1  0.501998  0.997891  0.000105  1
