# generated using pymatgen
data_Ba6Na16Si
_symmetry_space_group_name_H-M   'P 1'
_cell_length_a   10.98122152
_cell_length_b   10.98122057
_cell_length_c   10.98122200
_cell_angle_alpha   109.47122143
_cell_angle_beta   109.47121967
_cell_angle_gamma   109.47122075
_symmetry_Int_Tables_number   1
_chemical_formula_structural   Ba6Na16Si
_chemical_formula_sum   'Ba6 Na16 Si1'
_cell_volume   1019.36577553
_cell_formula_units_Z   1
loop_
 _symmetry_equiv_pos_site_id
 _symmetry_equiv_pos_as_xyz
  1  'x, y, z'
loop_
 _atom_site_type_symbol
 _atom_site_label
 _atom_site_symmetry_multiplicity
 _atom_site_fract_x
 _atom_site_fract_y
 _atom_site_fract_z
 _atom_site_occupancy
  Ba  Ba0  1  0.254875  0.254875  0.000000  1
  Ba  Ba1  1  0.000000  0.254875  0.254875  1
  Ba  Ba2  1  0.000000  0.745125  0.745125  1
  Ba  Ba3  1  0.745125  0.000000  0.745125  1
  Ba  Ba4  1  0.254875  0.000000  0.254875  1
  Ba  Ba5  1  0.745125  0.745125  0.000000  1
  Na  Na6  1  0.500000  0.500000  0.500000  1
  Na  Na7  1  0.000000  0.000000  0.500000  1
  Na  Na8  1  0.500000  0.000000  0.000000  1
  Na  Na9  1  0.000000  0.500000  0.000000  1
  Na  Na10  1  0.345861  0.691722  0.345861  1
  Na  Na11  1  0.654139  0.000000  0.345861  1
  Na  Na12  1  0.345861  0.000000  0.654139  1
  Na  Na13  1  0.654139  0.345861  0.000000  1
  Na  Na14  1  0.345861  0.345861  0.691722  1
  Na  Na15  1  0.691722  0.345861  0.345861  1
  Na  Na16  1  0.000000  0.345861  0.654139  1
  Na  Na17  1  0.308278  0.654139  0.654139  1
  Na  Na18  1  0.345861  0.654139  0.000000  1
  Na  Na19  1  0.000000  0.654139  0.345861  1
  Na  Na20  1  0.654139  0.654139  0.308278  1
  Na  Na21  1  0.654139  0.308278  0.654139  1
  Si  Si22  1  0.000000  0.000000  0.000000  1
