# generated using pymatgen
data_Zr8Co2Rh2N
_symmetry_space_group_name_H-M   'P 1'
_cell_length_a   8.70545207
_cell_length_b   8.70545236
_cell_length_c   8.70545300
_cell_angle_alpha   120.30620379
_cell_angle_beta   119.60228416
_cell_angle_gamma   90.08034774
_symmetry_Int_Tables_number   1
_chemical_formula_structural   Zr8Co2Rh2N
_chemical_formula_sum   'Zr16 Co4 Rh4 N2'
_cell_volume   466.80811590
_cell_formula_units_Z   2
loop_
 _symmetry_equiv_pos_site_id
 _symmetry_equiv_pos_as_xyz
  1  'x, y, z'
loop_
 _atom_site_type_symbol
 _atom_site_label
 _atom_site_symmetry_multiplicity
 _atom_site_fract_x
 _atom_site_fract_y
 _atom_site_fract_z
 _atom_site_occupancy
  Zr  Zr0  1  0.940201  0.190201  0.750000  1
  Zr  Zr1  1  0.318513  0.568513  0.750000  1
  Zr  Zr2  1  0.936112  0.565987  0.757050  1
  Zr  Zr3  1  0.308937  0.179062  0.742950  1
  Zr  Zr4  1  0.936112  0.179062  0.370125  1
  Zr  Zr5  1  0.308937  0.565987  0.129875  1
  Zr  Zr6  1  0.058179  0.808179  0.250000  1
  Zr  Zr7  1  0.687051  0.437051  0.250000  1
  Zr  Zr8  1  0.060185  0.438643  0.246816  1
  Zr  Zr9  1  0.691827  0.813368  0.253184  1
  Zr  Zr10  1  0.060185  0.813368  0.621541  1
  Zr  Zr11  1  0.691827  0.438643  0.878459  1
  Zr  Zr12  1  0.481934  0.018504  0.036570  1
  Zr  Zr13  1  0.481934  0.445362  0.463430  1
  Zr  Zr14  1  0.482647  0.018727  0.463920  1
  Zr  Zr15  1  0.054807  0.018727  0.036080  1
  Co  Co16  1  0.271856  0.234606  0.462750  1
  Co  Co17  1  0.271856  0.809105  0.037250  1
  Co  Co18  1  0.275274  0.232213  0.043060  1
  Co  Co19  1  0.689152  0.232213  0.456940  1
  Rh  Rh20  1  0.707367  0.782936  0.575571  1
  Rh  Rh21  1  0.707367  0.131796  0.924429  1
  Rh  Rh22  1  0.704090  0.790621  0.913470  1
  Rh  Rh23  1  0.377152  0.790621  0.586530  1
  N  N24  1  0.998252  0.499543  0.001289  1
  N  N25  1  0.998252  0.996962  0.498711  1
