# generated using pymatgen
data_Dy9Y(Bi2Pb)2
_symmetry_space_group_name_H-M   'P 1'
_cell_length_a   9.18636900
_cell_length_b   9.16358898
_cell_length_c   6.45874400
_cell_angle_alpha   90.00000000
_cell_angle_beta   90.00000000
_cell_angle_gamma   119.91801313
_symmetry_Int_Tables_number   1
_chemical_formula_structural   Dy9Y(Bi2Pb)2
_chemical_formula_sum   'Dy9 Y1 Bi4 Pb2'
_cell_volume   471.24460601
_cell_formula_units_Z   1
loop_
 _symmetry_equiv_pos_site_id
 _symmetry_equiv_pos_as_xyz
  1  'x, y, z'
loop_
 _atom_site_type_symbol
 _atom_site_label
 _atom_site_symmetry_multiplicity
 _atom_site_fract_x
 _atom_site_fract_y
 _atom_site_fract_z
 _atom_site_occupancy
  Dy  Dy0  1  0.664592  0.331775  0.998367  1
  Dy  Dy1  1  0.335408  0.667185  0.998367  1
  Dy  Dy2  1  0.335408  0.667185  0.501633  1
  Dy  Dy3  1  0.664592  0.331775  0.501633  1
  Dy  Dy4  1  0.756174  0.759277  0.750000  1
  Dy  Dy5  1  0.243826  0.003103  0.750000  1
  Dy  Dy6  1  0.000000  0.239217  0.750000  1
  Dy  Dy7  1  0.241807  0.241306  0.250000  1
  Dy  Dy8  1  0.758193  0.999498  0.250000  1
  Y  Y9  1  0.000000  0.758351  0.250000  1
  Bi  Bi10  1  0.000000  0.610277  0.750000  1
  Bi  Bi11  1  0.609833  0.608997  0.250000  1
  Bi  Bi12  1  0.390167  0.999163  0.250000  1
  Bi  Bi13  1  0.000000  0.390144  0.250000  1
  Pb  Pb14  1  0.390521  0.391634  0.750000  1
  Pb  Pb15  1  0.609479  0.001114  0.750000  1
