# generated using pymatgen
data_U10MnAl(ReC4)4
_symmetry_space_group_name_H-M   'P 1'
_cell_length_a   11.28313400
_cell_length_b   11.28313400
_cell_length_c   3.24505400
_cell_angle_alpha   90.00000000
_cell_angle_beta   90.00000000
_cell_angle_gamma   90.00000000
_symmetry_Int_Tables_number   1
_chemical_formula_structural   U10MnAl(ReC4)4
_chemical_formula_sum   'U10 Mn1 Al1 Re4 C16'
_cell_volume   413.12494593
_cell_formula_units_Z   1
loop_
 _symmetry_equiv_pos_site_id
 _symmetry_equiv_pos_as_xyz
  1  'x, y, z'
loop_
 _atom_site_type_symbol
 _atom_site_label
 _atom_site_symmetry_multiplicity
 _atom_site_fract_x
 _atom_site_fract_y
 _atom_site_fract_z
 _atom_site_occupancy
  U  U0  1  0.000000  0.500000  0.000000  1
  U  U1  1  0.274102  0.540843  0.500000  1
  U  U2  1  0.725898  0.459157  0.500000  1
  U  U3  1  0.540843  0.725898  0.500000  1
  U  U4  1  0.775240  0.959497  0.500000  1
  U  U5  1  0.224760  0.040503  0.500000  1
  U  U6  1  0.959497  0.224760  0.500000  1
  U  U7  1  0.459157  0.274102  0.500000  1
  U  U8  1  0.500000  0.000000  0.000000  1
  U  U9  1  0.040503  0.775240  0.500000  1
  Mn  Mn10  1  0.000000  0.000000  0.000000  1
  Al  Al11  1  0.500000  0.500000  0.000000  1
  Re  Re12  1  0.204387  0.292845  0.000000  1
  Re  Re13  1  0.707155  0.204387  0.000000  1
  Re  Re14  1  0.292845  0.795613  0.000000  1
  Re  Re15  1  0.795613  0.707155  0.000000  1
  C  C16  1  0.351107  0.404047  0.000000  1
  C  C17  1  0.618998  0.117049  0.500000  1
  C  C18  1  0.905319  0.854645  0.000000  1
  C  C19  1  0.653438  0.846657  0.000000  1
  C  C20  1  0.346562  0.153343  0.000000  1
  C  C21  1  0.117049  0.381002  0.500000  1
  C  C22  1  0.145355  0.905319  0.000000  1
  C  C23  1  0.846657  0.346562  0.000000  1
  C  C24  1  0.648893  0.595953  0.000000  1
  C  C25  1  0.595953  0.351107  0.000000  1
  C  C26  1  0.882951  0.618998  0.500000  1
  C  C27  1  0.854645  0.094681  0.000000  1
  C  C28  1  0.381002  0.882951  0.500000  1
  C  C29  1  0.153343  0.653438  0.000000  1
  C  C30  1  0.094681  0.145355  0.000000  1
  C  C31  1  0.404047  0.648893  0.000000  1
