# generated using pymatgen
data_La4AlRu
_symmetry_space_group_name_H-M   'P 1'
_cell_length_a   9.96332117
_cell_length_b   9.96332162
_cell_length_c   9.96332100
_cell_angle_alpha   59.99999875
_cell_angle_beta   59.99999725
_cell_angle_gamma   59.99999967
_symmetry_Int_Tables_number   1
_chemical_formula_structural   La4AlRu
_chemical_formula_sum   'La16 Al4 Ru4'
_cell_volume   699.35452741
_cell_formula_units_Z   4
loop_
 _symmetry_equiv_pos_site_id
 _symmetry_equiv_pos_as_xyz
  1  'x, y, z'
loop_
 _atom_site_type_symbol
 _atom_site_label
 _atom_site_symmetry_multiplicity
 _atom_site_fract_x
 _atom_site_fract_y
 _atom_site_fract_z
 _atom_site_occupancy
  La  La0  1  0.901326  0.901326  0.901326  1
  La  La1  1  0.444077  0.444077  0.055923  1
  La  La2  1  0.055923  0.055923  0.444077  1
  La  La3  1  0.444077  0.055923  0.055923  1
  La  La4  1  0.310140  0.689860  0.310140  1
  La  La5  1  0.689860  0.689860  0.310140  1
  La  La6  1  0.689860  0.310140  0.310140  1
  La  La7  1  0.296022  0.901326  0.901326  1
  La  La8  1  0.901326  0.296022  0.901326  1
  La  La9  1  0.310140  0.689860  0.689860  1
  La  La10  1  0.901326  0.901326  0.296022  1
  La  La11  1  0.055923  0.444077  0.055923  1
  La  La12  1  0.310140  0.310140  0.689860  1
  La  La13  1  0.055923  0.444077  0.444077  1
  La  La14  1  0.444077  0.055923  0.444077  1
  La  La15  1  0.689860  0.310140  0.689860  1
  Al  Al16  1  0.676124  0.676124  0.971627  1
  Al  Al17  1  0.971627  0.676124  0.676124  1
  Al  Al18  1  0.676124  0.971627  0.676124  1
  Al  Al19  1  0.676124  0.676124  0.676124  1
  Ru  Ru20  1  0.112834  0.112834  0.661498  1
  Ru  Ru21  1  0.112834  0.112834  0.112834  1
  Ru  Ru22  1  0.112834  0.661498  0.112834  1
  Ru  Ru23  1  0.661498  0.112834  0.112834  1
