# generated using pymatgen
data_Y5Ti3Co16(As5P)2
_symmetry_space_group_name_H-M   'P 1'
_cell_length_a   12.48736095
_cell_length_b   12.51017991
_cell_length_c   3.78410600
_cell_angle_alpha   90.00000000
_cell_angle_beta   90.00000000
_cell_angle_gamma   120.06047019
_symmetry_Int_Tables_number   1
_chemical_formula_structural   Y5Ti3Co16(As5P)2
_chemical_formula_sum   'Y5 Ti3 Co16 As10 P2'
_cell_volume   511.63846934
_cell_formula_units_Z   1
loop_
 _symmetry_equiv_pos_site_id
 _symmetry_equiv_pos_as_xyz
  1  'x, y, z'
loop_
 _atom_site_type_symbol
 _atom_site_label
 _atom_site_symmetry_multiplicity
 _atom_site_fract_x
 _atom_site_fract_y
 _atom_site_fract_z
 _atom_site_occupancy
  Y  Y0  1  0.184595  0.180149  0.500000  1
  Y  Y1  1  0.815405  0.995554  0.500000  1
  Y  Y2  1  0.000000  0.818450  0.500000  1
  Y  Y3  1  0.334216  0.667727  0.000000  1
  Y  Y4  1  0.665784  0.333510  0.000000  1
  Ti  Ti5  1  0.563612  0.563968  0.000000  1
  Ti  Ti6  1  0.436388  0.000356  0.000000  1
  Ti  Ti7  1  0.000000  0.437408  0.000000  1
  Co  Co8  1  0.724564  0.724322  0.500000  1
  Co  Co9  1  0.275436  0.999758  0.500000  1
  Co  Co10  1  0.000000  0.282153  0.500000  1
  Co  Co11  1  0.176650  0.375240  0.000000  1
  Co  Co12  1  0.631007  0.802500  0.000000  1
  Co  Co13  1  0.198083  0.827882  0.000000  1
  Co  Co14  1  0.801917  0.629799  0.000000  1
  Co  Co15  1  0.823350  0.198589  0.000000  1
  Co  Co16  1  0.368993  0.171494  0.000000  1
  Co  Co17  1  0.356693  0.479931  0.500000  1
  Co  Co18  1  0.521101  0.876110  0.500000  1
  Co  Co19  1  0.123710  0.645186  0.500000  1
  Co  Co20  1  0.876290  0.521476  0.500000  1
  Co  Co21  1  0.643307  0.123239  0.500000  1
  Co  Co22  1  0.478899  0.355009  0.500000  1
  Co  Co23  1  0.000000  0.992109  0.000000  1
  As  As24  1  0.000000  0.174730  0.000000  1
  As  As25  1  0.168925  0.483028  0.500000  1
  As  As26  1  0.519775  0.686837  0.500000  1
  As  As27  1  0.313709  0.833058  0.500000  1
  As  As28  1  0.686291  0.519348  0.500000  1
  As  As29  1  0.831075  0.314102  0.500000  1
  As  As30  1  0.480225  0.167060  0.500000  1
  As  As31  1  0.358380  0.358343  0.000000  1
  As  As32  1  0.641620  0.999963  0.000000  1
  As  As33  1  0.000000  0.642971  0.000000  1
  P  P34  1  0.821557  0.820100  0.000000  1
  P  P35  1  0.178443  0.998543  0.000000  1
