# generated using pymatgen
data_NdY2As4Rh7
_symmetry_space_group_name_H-M   'P 1'
_cell_length_a   7.95200375
_cell_length_b   7.95200577
_cell_length_c   9.50276000
_cell_angle_alpha   56.60386657
_cell_angle_beta   56.60385699
_cell_angle_gamma   29.43701135
_symmetry_Int_Tables_number   1
_chemical_formula_structural   NdY2As4Rh7
_chemical_formula_sum   'Nd1 Y2 As4 Rh7'
_cell_volume   242.83472662
_cell_formula_units_Z   1
loop_
 _symmetry_equiv_pos_site_id
 _symmetry_equiv_pos_as_xyz
  1  'x, y, z'
loop_
 _atom_site_type_symbol
 _atom_site_label
 _atom_site_symmetry_multiplicity
 _atom_site_fract_x
 _atom_site_fract_y
 _atom_site_fract_z
 _atom_site_occupancy
  Nd  Nd0  1  0.500000  0.500000  0.500000  1
  Y  Y1  1  0.830784  0.830784  0.163677  1
  Y  Y2  1  0.169216  0.169216  0.836323  1
  As  As3  1  0.390115  0.390115  0.326903  1
  As  As4  1  0.609885  0.609885  0.673097  1
  As  As5  1  0.832821  0.832821  0.772268  1
  As  As6  1  0.167179  0.167179  0.227732  1
  Rh  Rh7  1  0.666868  0.666868  0.072056  1
  Rh  Rh8  1  0.009116  0.009116  0.216441  1
  Rh  Rh9  1  0.990884  0.990884  0.783559  1
  Rh  Rh10  1  0.500000  0.500000  0.000000  1
  Rh  Rh11  1  0.196202  0.196202  0.460281  1
  Rh  Rh12  1  0.803798  0.803798  0.539719  1
  Rh  Rh13  1  0.333132  0.333132  0.927944  1
