# generated using pymatgen
data_Yb2BC11
_symmetry_space_group_name_H-M   'P 1'
_cell_length_a   4.39493537
_cell_length_b   4.39493512
_cell_length_c   8.79181967
_cell_angle_alpha   91.14868241
_cell_angle_beta   88.85131821
_cell_angle_gamma   120.03222584
_symmetry_Int_Tables_number   1
_chemical_formula_structural   Yb2BC11
_chemical_formula_sum   'Yb2 B1 C11'
_cell_volume   146.97954405
_cell_formula_units_Z   1
loop_
 _symmetry_equiv_pos_site_id
 _symmetry_equiv_pos_as_xyz
  1  'x, y, z'
loop_
 _atom_site_type_symbol
 _atom_site_label
 _atom_site_symmetry_multiplicity
 _atom_site_fract_x
 _atom_site_fract_y
 _atom_site_fract_z
 _atom_site_occupancy
  Yb  Yb0  1  0.348169  0.703024  0.246715  1
  Yb  Yb1  1  0.703024  0.348169  0.753285  1
  B  B2  1  0.324632  0.324632  0.500000  1
  C  C3  1  0.658979  0.991798  0.501288  1
  C  C4  1  0.991798  0.658979  0.498712  1
  C  C5  1  0.670371  0.670371  0.500000  1
  C  C6  1  0.980507  0.325491  0.494398  1
  C  C7  1  0.325491  0.980507  0.505602  1
  C  C8  1  0.666354  0.666354  0.000000  1
  C  C9  1  0.333028  0.998959  0.995260  1
  C  C10  1  0.998959  0.333028  0.004740  1
  C  C11  1  0.333176  0.333176  0.000000  1
  C  C12  1  0.999293  0.666218  0.003276  1
  C  C13  1  0.666218  0.999293  0.996724  1
