# generated using pymatgen
data_Rb2Na2Zr6MnBr18
_symmetry_space_group_name_H-M   'P 1'
_cell_length_a   10.62161019
_cell_length_b   10.59624130
_cell_length_c   10.63336727
_cell_angle_alpha   119.27644562
_cell_angle_beta   102.39995586
_cell_angle_gamma   100.10613766
_symmetry_Int_Tables_number   1
_chemical_formula_structural   Rb2Na2Zr6MnBr18
_chemical_formula_sum   'Rb2 Na2 Zr6 Mn1 Br18'
_cell_volume   962.71820871
_cell_formula_units_Z   1
loop_
 _symmetry_equiv_pos_site_id
 _symmetry_equiv_pos_as_xyz
  1  'x, y, z'
loop_
 _atom_site_type_symbol
 _atom_site_label
 _atom_site_symmetry_multiplicity
 _atom_site_fract_x
 _atom_site_fract_y
 _atom_site_fract_z
 _atom_site_occupancy
  Rb  Rb0  1  0.681996  0.227457  0.546636  1
  Rb  Rb1  1  0.318004  0.772543  0.453364  1
  Na  Na2  1  0.616621  0.531228  0.202919  1
  Na  Na3  1  0.383379  0.468772  0.797081  1
  Zr  Zr4  1  0.149572  0.071148  0.246351  1
  Zr  Zr5  1  0.850428  0.928852  0.753649  1
  Zr  Zr6  1  0.858462  0.153839  0.130842  1
  Zr  Zr7  1  0.141538  0.846161  0.869158  1
  Zr  Zr8  1  0.148351  0.232001  0.028294  1
  Zr  Zr9  1  0.851649  0.767999  0.971706  1
  Mn  Mn10  1  0.000000  0.000000  0.000000  1
  Br  Br11  1  0.007920  0.418933  0.170186  1
  Br  Br12  1  0.992080  0.581067  0.829814  1
  Br  Br13  1  0.326429  0.334169  0.309677  1
  Br  Br14  1  0.673571  0.665831  0.690323  1
  Br  Br15  1  0.326638  0.498264  0.069832  1
  Br  Br16  1  0.673362  0.501736  0.930168  1
  Br  Br17  1  0.006247  0.828206  0.246159  1
  Br  Br18  1  0.993753  0.171794  0.753841  1
  Br  Br19  1  0.701952  0.324183  0.278821  1
  Br  Br20  1  0.298048  0.675817  0.721179  1
  Br  Br21  1  0.313247  0.086450  0.890515  1
  Br  Br22  1  0.686753  0.913550  0.109485  1
  Br  Br23  1  0.015282  0.244533  0.417513  1
  Br  Br24  1  0.984718  0.755467  0.582487  1
  Br  Br25  1  0.319717  0.914058  0.136254  1
  Br  Br26  1  0.680283  0.085942  0.863746  1
  Br  Br27  1  0.336133  0.154265  0.537821  1
  Br  Br28  1  0.663867  0.845735  0.462179  1
