# generated using pymatgen
data_TbEr3Al24Pt8Au
_symmetry_space_group_name_H-M   'P 1'
_cell_length_a   7.54694127
_cell_length_b   7.56556380
_cell_length_c   13.14500086
_cell_angle_alpha   84.56602530
_cell_angle_beta   79.01565008
_cell_angle_gamma   59.89131670
_symmetry_Int_Tables_number   1
_chemical_formula_structural   TbEr3Al24Pt8Au
_chemical_formula_sum   'Tb1 Er3 Al24 Pt8 Au1'
_cell_volume   637.37677484
_cell_formula_units_Z   1
loop_
 _symmetry_equiv_pos_site_id
 _symmetry_equiv_pos_as_xyz
  1  'x, y, z'
loop_
 _atom_site_type_symbol
 _atom_site_label
 _atom_site_symmetry_multiplicity
 _atom_site_fract_x
 _atom_site_fract_y
 _atom_site_fract_z
 _atom_site_occupancy
  Tb  Tb0  1  0.266867  0.501168  0.191319  1
  Er  Er1  1  0.392879  0.169243  0.808203  1
  Er  Er2  1  0.605782  0.831748  0.193054  1
  Er  Er3  1  0.734360  0.499179  0.808061  1
  Al  Al4  1  0.682876  0.834083  0.945244  1
  Al  Al5  1  0.316080  0.165437  0.055886  1
  Al  Al6  1  0.146829  0.839030  0.559927  1
  Al  Al7  1  0.854268  0.167232  0.436486  1
  Al  Al8  1  0.488298  0.159584  0.557584  1
  Al  Al9  1  0.520171  0.833505  0.439698  1
  Al  Al10  1  0.218018  0.164959  0.329096  1
  Al  Al11  1  0.777101  0.838949  0.673387  1
  Al  Al12  1  0.440765  0.506558  0.673536  1
  Al  Al13  1  0.562856  0.493890  0.328857  1
  Al  Al14  1  0.108786  0.155104  0.672255  1
  Al  Al15  1  0.889891  0.839789  0.330180  1
  Al  Al16  1  0.353853  0.498588  0.944627  1
  Al  Al17  1  0.647552  0.501029  0.055863  1
  Al  Al18  1  0.015322  0.167953  0.953662  1
  Al  Al19  1  0.983465  0.832735  0.047483  1
  Al  Al20  1  0.188025  0.499553  0.436590  1
  Al  Al21  1  0.806856  0.500053  0.557550  1
  Al  Al22  1  0.734369  0.163227  0.183610  1
  Al  Al23  1  0.267230  0.835551  0.816583  1
  Al  Al24  1  0.060458  0.633018  0.817852  1
  Al  Al25  1  0.937864  0.369245  0.184998  1
  Al  Al26  1  0.853817  0.042635  0.816092  1
  Al  Al27  1  0.144902  0.958544  0.184039  1
  Pt  Pt28  1  0.878980  0.508670  0.361441  1
  Pt  Pt29  1  0.657387  0.171332  0.999346  1
  Pt  Pt30  1  0.343041  0.828413  0.999595  1
  Pt  Pt31  1  0.537671  0.166313  0.361491  1
  Pt  Pt32  1  0.462704  0.833242  0.638286  1
  Pt  Pt33  1  0.778937  0.175345  0.636904  1
  Pt  Pt34  1  0.221303  0.824983  0.362708  1
  Pt  Pt35  1  0.999971  0.499867  0.000113  1
  Au  Au36  1  0.120469  0.490242  0.638403  1
