# generated using pymatgen
data_Sc4CrTc3Os4
_symmetry_space_group_name_H-M   'P 1'
_cell_length_a   5.28160200
_cell_length_b   5.11282044
_cell_length_c   8.62518400
_cell_angle_alpha   90.00000000
_cell_angle_beta   90.00000000
_cell_angle_gamma   121.09815260
_symmetry_Int_Tables_number   1
_chemical_formula_structural   Sc4CrTc3Os4
_chemical_formula_sum   'Sc4 Cr1 Tc3 Os4'
_cell_volume   199.44000540
_cell_formula_units_Z   1
loop_
 _symmetry_equiv_pos_site_id
 _symmetry_equiv_pos_as_xyz
  1  'x, y, z'
loop_
 _atom_site_type_symbol
 _atom_site_label
 _atom_site_symmetry_multiplicity
 _atom_site_fract_x
 _atom_site_fract_y
 _atom_site_fract_z
 _atom_site_occupancy
  Sc  Sc0  1  0.330619  0.661238  0.437324  1
  Sc  Sc1  1  0.668768  0.337536  0.568137  1
  Sc  Sc2  1  0.668768  0.337536  0.931863  1
  Sc  Sc3  1  0.330619  0.661238  0.062676  1
  Cr  Cr4  1  0.169702  0.339402  0.750000  1
  Tc  Tc5  1  0.345097  0.171904  0.250000  1
  Tc  Tc6  1  0.829198  0.658399  0.250000  1
  Tc  Tc7  1  0.826804  0.171904  0.250000  1
  Os  Os8  1  0.173032  0.820899  0.750000  1
  Os  Os9  1  0.647868  0.820899  0.750000  1
  Os  Os10  1  0.004762  0.009524  0.994158  1
  Os  Os11  1  0.004762  0.009524  0.505842  1
