# generated using pymatgen
data_CeTh2NbSb5
_symmetry_space_group_name_H-M   'P 1'
_cell_length_a   9.40705023
_cell_length_b   9.40704984
_cell_length_c   6.20761100
_cell_angle_alpha   90.00000000
_cell_angle_beta   90.00000000
_cell_angle_gamma   119.82289872
_symmetry_Int_Tables_number   1
_chemical_formula_structural   CeTh2NbSb5
_chemical_formula_sum   'Ce2 Th4 Nb2 Sb10'
_cell_volume   476.57834920
_cell_formula_units_Z   2
loop_
 _symmetry_equiv_pos_site_id
 _symmetry_equiv_pos_as_xyz
  1  'x, y, z'
loop_
 _atom_site_type_symbol
 _atom_site_label
 _atom_site_symmetry_multiplicity
 _atom_site_fract_x
 _atom_site_fract_y
 _atom_site_fract_z
 _atom_site_occupancy
  Ce  Ce0  1  0.378946  0.378946  0.250000  1
  Ce  Ce1  1  0.621054  0.621054  0.750000  1
  Th  Th2  1  0.627990  0.002134  0.250000  1
  Th  Th3  1  0.372010  0.997866  0.750000  1
  Th  Th4  1  0.002134  0.627990  0.250000  1
  Th  Th5  1  0.997866  0.372010  0.750000  1
  Nb  Nb6  1  0.000000  0.000000  0.000000  1
  Nb  Nb7  1  0.000000  0.000000  0.500000  1
  Sb  Sb8  1  0.267867  0.003920  0.250000  1
  Sb  Sb9  1  0.732133  0.996080  0.750000  1
  Sb  Sb10  1  0.003920  0.267867  0.250000  1
  Sb  Sb11  1  0.996080  0.732133  0.750000  1
  Sb  Sb12  1  0.734767  0.734767  0.250000  1
  Sb  Sb13  1  0.265233  0.265233  0.750000  1
  Sb  Sb14  1  0.333008  0.666992  0.000000  1
  Sb  Sb15  1  0.666992  0.333008  0.000000  1
  Sb  Sb16  1  0.666992  0.333008  0.500000  1
  Sb  Sb17  1  0.333008  0.666992  0.500000  1
