# generated using pymatgen
data_Y3Sc3Si2Ru
_symmetry_space_group_name_H-M   'P 1'
_cell_length_a   7.43576300
_cell_length_b   7.43576442
_cell_length_c   4.24461900
_cell_angle_alpha   90.00000000
_cell_angle_beta   90.00000000
_cell_angle_gamma   119.99999815
_symmetry_Int_Tables_number   1
_chemical_formula_structural   Y3Sc3Si2Ru
_chemical_formula_sum   'Y3 Sc3 Si2 Ru1'
_cell_volume   203.24530135
_cell_formula_units_Z   1
loop_
 _symmetry_equiv_pos_site_id
 _symmetry_equiv_pos_as_xyz
  1  'x, y, z'
loop_
 _atom_site_type_symbol
 _atom_site_label
 _atom_site_symmetry_multiplicity
 _atom_site_fract_x
 _atom_site_fract_y
 _atom_site_fract_z
 _atom_site_occupancy
  Y  Y0  1  0.418450  0.000000  0.000000  1
  Y  Y1  1  0.000000  0.418450  0.000000  1
  Y  Y2  1  0.581550  0.581550  0.000000  1
  Sc  Sc3  1  0.759961  0.000000  0.500001  1
  Sc  Sc4  1  0.240040  0.240040  0.500001  1
  Sc  Sc5  1  0.000000  0.759961  0.500001  1
  Si  Si6  1  0.666666  0.333333  0.500001  1
  Si  Si7  1  0.333333  0.666666  0.500001  1
  Ru  Ru8  1  0.000000  0.000000  0.000000  1
