# generated using pymatgen
data_PaTi7Bi9
_symmetry_space_group_name_H-M   'P 1'
_cell_length_a   10.41257000
_cell_length_b   10.41257000
_cell_length_c   7.51497600
_cell_angle_alpha   90.00000000
_cell_angle_beta   90.00000000
_cell_angle_gamma   90.00000000
_symmetry_Int_Tables_number   1
_chemical_formula_structural   PaTi7Bi9
_chemical_formula_sum   'Pa2 Ti14 Bi18'
_cell_volume   814.78582713
_cell_formula_units_Z   2
loop_
 _symmetry_equiv_pos_site_id
 _symmetry_equiv_pos_as_xyz
  1  'x, y, z'
loop_
 _atom_site_type_symbol
 _atom_site_label
 _atom_site_symmetry_multiplicity
 _atom_site_fract_x
 _atom_site_fract_y
 _atom_site_fract_z
 _atom_site_occupancy
  Pa  Pa0  1  0.750000  0.750000  0.928338  1
  Pa  Pa1  1  0.250000  0.250000  0.071662  1
  Ti  Ti2  1  0.000000  0.500000  0.000000  1
  Ti  Ti3  1  0.500000  0.000000  0.000000  1
  Ti  Ti4  1  0.500000  0.500000  0.000000  1
  Ti  Ti5  1  0.000000  0.000000  0.000000  1
  Ti  Ti6  1  0.890909  0.250000  0.148936  1
  Ti  Ti7  1  0.609091  0.250000  0.148936  1
  Ti  Ti8  1  0.109091  0.750000  0.851066  1
  Ti  Ti9  1  0.390909  0.750000  0.851066  1
  Ti  Ti10  1  0.750000  0.109091  0.851066  1
  Ti  Ti11  1  0.750000  0.390909  0.851066  1
  Ti  Ti12  1  0.250000  0.890909  0.148936  1
  Ti  Ti13  1  0.250000  0.609091  0.148936  1
  Ti  Ti14  1  0.750000  0.750000  0.429989  1
  Ti  Ti15  1  0.250000  0.250000  0.570011  1
  Bi  Bi16  1  0.419324  0.080676  0.350798  1
  Bi  Bi17  1  0.080676  0.419324  0.350798  1
  Bi  Bi18  1  0.580676  0.580676  0.649202  1
  Bi  Bi19  1  0.919324  0.919324  0.649202  1
  Bi  Bi20  1  0.919324  0.580676  0.649202  1
  Bi  Bi21  1  0.580676  0.919324  0.649202  1
  Bi  Bi22  1  0.419324  0.419324  0.350798  1
  Bi  Bi23  1  0.080676  0.080676  0.350798  1
  Bi  Bi24  1  0.250000  0.750000  0.499999  1
  Bi  Bi25  1  0.750000  0.250000  0.499999  1
  Bi  Bi26  1  0.495621  0.250000  0.802498  1
  Bi  Bi27  1  0.004378  0.250000  0.802498  1
  Bi  Bi28  1  0.504378  0.750000  0.197501  1
  Bi  Bi29  1  0.995622  0.750000  0.197501  1
  Bi  Bi30  1  0.750000  0.504378  0.197501  1
  Bi  Bi31  1  0.750000  0.995622  0.197501  1
  Bi  Bi32  1  0.250000  0.495621  0.802498  1
  Bi  Bi33  1  0.250000  0.004378  0.802498  1
