# generated using pymatgen
data_Ce3(PRh)4
_symmetry_space_group_name_H-M   'P 1'
_cell_length_a   3.95783681
_cell_length_b   4.06863419
_cell_length_c   12.46589267
_cell_angle_alpha   80.60786200
_cell_angle_beta   80.86585465
_cell_angle_gamma   90.00000787
_symmetry_Int_Tables_number   1
_chemical_formula_structural   Ce3(PRh)4
_chemical_formula_sum   'Ce3 P4 Rh4'
_cell_volume   195.46663861
_cell_formula_units_Z   1
loop_
 _symmetry_equiv_pos_site_id
 _symmetry_equiv_pos_as_xyz
  1  'x, y, z'
loop_
 _atom_site_type_symbol
 _atom_site_label
 _atom_site_symmetry_multiplicity
 _atom_site_fract_x
 _atom_site_fract_y
 _atom_site_fract_z
 _atom_site_occupancy
  Ce  Ce0  1  0.000000  0.000000  0.000000  1
  Ce  Ce1  1  0.855612  0.355612  0.288777  1
  Ce  Ce2  1  0.144388  0.644388  0.711223  1
  P  P3  1  0.693411  0.193411  0.613178  1
  P  P4  1  0.306589  0.806589  0.386822  1
  P  P5  1  0.452265  0.452265  0.095471  1
  P  P6  1  0.547735  0.547735  0.904529  1
  Rh  Rh7  1  0.596417  0.096417  0.807166  1
  Rh  Rh8  1  0.403583  0.903583  0.192834  1
  Rh  Rh9  1  0.249254  0.249254  0.501492  1
  Rh  Rh10  1  0.750746  0.750746  0.498508  1
