# generated using pymatgen
data_NpCr(PO5)2
_symmetry_space_group_name_H-M   'P 1'
_cell_length_a   5.75697426
_cell_length_b   5.21027001
_cell_length_c   7.48911200
_cell_angle_alpha   104.69499314
_cell_angle_beta   110.49754686
_cell_angle_gamma   96.70520703
_symmetry_Int_Tables_number   1
_chemical_formula_structural   NpCr(PO5)2
_chemical_formula_sum   'Np1 Cr1 P2 O10'
_cell_volume   198.22467865
_cell_formula_units_Z   1
loop_
 _symmetry_equiv_pos_site_id
 _symmetry_equiv_pos_as_xyz
  1  'x, y, z'
loop_
 _atom_site_type_symbol
 _atom_site_label
 _atom_site_symmetry_multiplicity
 _atom_site_fract_x
 _atom_site_fract_y
 _atom_site_fract_z
 _atom_site_occupancy
  Np  Np0  1  0.000000  0.500000  0.000000  1
  Cr  Cr1  1  0.000000  0.500000  0.500000  1
  P  P2  1  0.329066  0.135117  0.742727  1
  P  P3  1  0.670934  0.864883  0.257273  1
  O  O4  1  0.185184  0.196024  0.890006  1
  O  O5  1  0.279119  0.830052  0.643910  1
  O  O6  1  0.927679  0.560960  0.757044  1
  O  O7  1  0.253990  0.292104  0.593184  1
  O  O8  1  0.746010  0.707896  0.406816  1
  O  O9  1  0.621636  0.239620  0.877252  1
  O  O10  1  0.378364  0.760380  0.122748  1
  O  O11  1  0.072321  0.439040  0.242956  1
  O  O12  1  0.720881  0.169948  0.356090  1
  O  O13  1  0.814816  0.803976  0.109994  1
