# generated using pymatgen
data_La3Nd(Y3Si4)2
_symmetry_space_group_name_H-M   'P 1'
_cell_length_a   7.82173176
_cell_length_b   7.82196622
_cell_length_c   14.54863075
_cell_angle_alpha   89.97258683
_cell_angle_beta   90.07725684
_cell_angle_gamma   90.00105666
_symmetry_Int_Tables_number   1
_chemical_formula_structural   La3Nd(Y3Si4)2
_chemical_formula_sum   'La6 Nd2 Y12 Si16'
_cell_volume   890.10354654
_cell_formula_units_Z   2
loop_
 _symmetry_equiv_pos_site_id
 _symmetry_equiv_pos_as_xyz
  1  'x, y, z'
loop_
 _atom_site_type_symbol
 _atom_site_label
 _atom_site_symmetry_multiplicity
 _atom_site_fract_x
 _atom_site_fract_y
 _atom_site_fract_z
 _atom_site_occupancy
  La  La0  1  0.637794  0.990706  0.455382  1
  La  La1  1  0.361532  0.010700  0.957763  1
  La  La2  1  0.989598  0.638264  0.542932  1
  La  La3  1  0.490234  0.861411  0.206997  1
  La  La4  1  0.510527  0.137806  0.706294  1
  La  La5  1  0.862406  0.489222  0.793957  1
  Nd  Nd6  1  0.135819  0.508553  0.293737  1
  Nd  Nd7  1  0.008838  0.364805  0.044990  1
  Y  Y8  1  0.489340  0.363960  0.125346  1
  Y  Y9  1  0.989954  0.136630  0.624528  1
  Y  Y10  1  0.864255  0.009903  0.875773  1
  Y  Y11  1  0.137153  0.989634  0.374215  1
  Y  Y12  1  0.509409  0.636920  0.624585  1
  Y  Y13  1  0.362836  0.488627  0.875764  1
  Y  Y14  1  0.635837  0.509656  0.374089  1
  Y  Y15  1  0.010934  0.863652  0.125297  1
  Y  Y16  1  0.315038  0.316152  0.499721  1
  Y  Y17  1  0.184537  0.815741  0.750355  1
  Y  Y18  1  0.816768  0.185544  0.249693  1
  Y  Y19  1  0.684941  0.683833  0.000251  1
  Si  Si20  1  0.287180  0.931045  0.561155  1
  Si  Si21  1  0.713988  0.069266  0.061952  1
  Si  Si22  1  0.932795  0.288558  0.437597  1
  Si  Si23  1  0.429508  0.214255  0.311131  1
  Si  Si24  1  0.568000  0.787320  0.811884  1
  Si  Si25  1  0.212121  0.431875  0.688273  1
  Si  Si26  1  0.790024  0.566352  0.188215  1
  Si  Si27  1  0.067201  0.710574  0.938887  1
  Si  Si28  1  0.798440  0.842817  0.693750  1
  Si  Si29  1  0.199447  0.159722  0.192550  1
  Si  Si30  1  0.845442  0.796604  0.306781  1
  Si  Si31  1  0.342110  0.700324  0.441657  1
  Si  Si32  1  0.659091  0.299356  0.944543  1
  Si  Si33  1  0.701747  0.343782  0.556116  1
  Si  Si34  1  0.297640  0.655741  0.057284  1
  Si  Si35  1  0.157513  0.200690  0.806555  1
