# generated using pymatgen
data_La4Pr2Cd23As
_symmetry_space_group_name_H-M   'P 1'
_cell_length_a   10.15631133
_cell_length_b   10.16549645
_cell_length_c   10.16549702
_cell_angle_alpha   60.19025128
_cell_angle_beta   60.02988963
_cell_angle_gamma   60.02989061
_symmetry_Int_Tables_number   1
_chemical_formula_structural   La4Pr2Cd23As
_chemical_formula_sum   'La4 Pr2 Cd23 As1'
_cell_volume   743.52469131
_cell_formula_units_Z   1
loop_
 _symmetry_equiv_pos_site_id
 _symmetry_equiv_pos_as_xyz
  1  'x, y, z'
loop_
 _atom_site_type_symbol
 _atom_site_label
 _atom_site_symmetry_multiplicity
 _atom_site_fract_x
 _atom_site_fract_y
 _atom_site_fract_z
 _atom_site_occupancy
  La  La0  1  0.791263  0.208472  0.209001  1
  La  La1  1  0.208703  0.208450  0.791550  1
  La  La2  1  0.791297  0.208450  0.791550  1
  La  La3  1  0.208737  0.790999  0.791528  1
  Pr  Pr4  1  0.791740  0.791397  0.208603  1
  Pr  Pr5  1  0.208260  0.791397  0.208603  1
  Cd  Cd6  1  0.831343  0.830538  0.506778  1
  Cd  Cd7  1  0.830802  0.507819  0.830579  1
  Cd  Cd8  1  0.506939  0.830633  0.831259  1
  Cd  Cd9  1  0.831170  0.830633  0.831259  1
  Cd  Cd10  1  0.169198  0.169421  0.492181  1
  Cd  Cd11  1  0.168657  0.493222  0.169462  1
  Cd  Cd12  1  0.493061  0.168741  0.169367  1
  Cd  Cd13  1  0.168830  0.168741  0.169367  1
  Cd  Cd14  1  0.620718  0.621993  0.136571  1
  Cd  Cd15  1  0.621120  0.136441  0.621317  1
  Cd  Cd16  1  0.136398  0.621628  0.620566  1
  Cd  Cd17  1  0.621407  0.621628  0.620566  1
  Cd  Cd18  1  0.378880  0.378683  0.863559  1
  Cd  Cd19  1  0.379282  0.863429  0.378007  1
  Cd  Cd20  1  0.863602  0.379434  0.378372  1
  Cd  Cd21  1  0.378593  0.379434  0.378372  1
  Cd  Cd22  1  0.000175  0.999703  0.499986  1
  Cd  Cd23  1  0.500136  0.999703  0.499986  1
  Cd  Cd24  1  0.000000  0.500159  0.499841  1
  Cd  Cd25  1  0.499864  0.500014  0.000297  1
  Cd  Cd26  1  0.999825  0.500014  0.000297  1
  Cd  Cd27  1  0.500000  0.999559  0.000441  1
  Cd  Cd28  1  0.500000  0.500013  0.499987  1
  As  As29  1  0.000000  0.999249  0.000751  1
