# generated using pymatgen
data_Y2TmZnCd3Au2
_symmetry_space_group_name_H-M   'P 1'
_cell_length_a   3.78789600
_cell_length_b   7.89071129
_cell_length_c   7.85261188
_cell_angle_alpha   120.16062710
_cell_angle_beta   90.00000000
_cell_angle_gamma   90.00000000
_symmetry_Int_Tables_number   1
_chemical_formula_structural   Y2TmZnCd3Au2
_chemical_formula_sum   'Y2 Tm1 Zn1 Cd3 Au2'
_cell_volume   202.93349922
_cell_formula_units_Z   1
loop_
 _symmetry_equiv_pos_site_id
 _symmetry_equiv_pos_as_xyz
  1  'x, y, z'
loop_
 _atom_site_type_symbol
 _atom_site_label
 _atom_site_symmetry_multiplicity
 _atom_site_fract_x
 _atom_site_fract_y
 _atom_site_fract_z
 _atom_site_occupancy
  Y  Y0  1  0.000000  0.408991  0.408867  1
  Y  Y1  1  0.000000  0.000124  0.591133  1
  Tm  Tm2  1  0.000000  0.590475  0.000000  1
  Zn  Zn3  1  0.000000  0.999465  0.000000  1
  Cd  Cd4  1  0.500000  0.743083  0.744093  1
  Cd  Cd5  1  0.500000  0.998990  0.255907  1
  Cd  Cd6  1  0.500000  0.257181  0.000000  1
  Au  Au7  1  0.500000  0.665724  0.329756  1
  Au  Au8  1  0.500000  0.335967  0.670244  1
