# generated using pymatgen
data_Er20Cd6ReNi
_symmetry_space_group_name_H-M   'P 1'
_cell_length_a   9.49520500
_cell_length_b   9.49520584
_cell_length_c   9.80959900
_cell_angle_alpha   90.00000000
_cell_angle_beta   90.00000000
_cell_angle_gamma   119.99999360
_symmetry_Int_Tables_number   1
_chemical_formula_structural   Er20Cd6ReNi
_chemical_formula_sum   'Er20 Cd6 Re1 Ni1'
_cell_volume   765.93275698
_cell_formula_units_Z   1
loop_
 _symmetry_equiv_pos_site_id
 _symmetry_equiv_pos_as_xyz
  1  'x, y, z'
loop_
 _atom_site_type_symbol
 _atom_site_label
 _atom_site_symmetry_multiplicity
 _atom_site_fract_x
 _atom_site_fract_y
 _atom_site_fract_z
 _atom_site_occupancy
  Er  Er0  1  0.000000  0.000000  0.500630  1
  Er  Er1  1  0.000000  0.000000  0.999370  1
  Er  Er2  1  0.538420  0.461580  0.250000  1
  Er  Er3  1  0.538420  0.076840  0.250000  1
  Er  Er4  1  0.923160  0.461580  0.250000  1
  Er  Er5  1  0.457665  0.542335  0.750000  1
  Er  Er6  1  0.457665  0.915329  0.750000  1
  Er  Er7  1  0.084671  0.542335  0.750000  1
  Er  Er8  1  0.209361  0.790639  0.442700  1
  Er  Er9  1  0.209361  0.418723  0.442700  1
  Er  Er10  1  0.581277  0.790639  0.442700  1
  Er  Er11  1  0.788429  0.211571  0.561442  1
  Er  Er12  1  0.788429  0.576858  0.561442  1
  Er  Er13  1  0.423142  0.211571  0.561442  1
  Er  Er14  1  0.788429  0.211571  0.938558  1
  Er  Er15  1  0.788429  0.576858  0.938558  1
  Er  Er16  1  0.423142  0.211571  0.938558  1
  Er  Er17  1  0.209361  0.790639  0.057300  1
  Er  Er18  1  0.209361  0.418723  0.057300  1
  Er  Er19  1  0.581277  0.790639  0.057300  1
  Cd  Cd20  1  0.885626  0.114374  0.250000  1
  Cd  Cd21  1  0.885626  0.771253  0.250000  1
  Cd  Cd22  1  0.228747  0.114374  0.250000  1
  Cd  Cd23  1  0.113930  0.886070  0.750000  1
  Cd  Cd24  1  0.113930  0.227858  0.750000  1
  Cd  Cd25  1  0.772142  0.886070  0.750000  1
  Re  Re26  1  0.333333  0.666667  0.250000  1
  Ni  Ni27  1  0.666667  0.333333  0.750000  1
