# generated using pymatgen
data_Ta12Cr5Si7N4
_symmetry_space_group_name_H-M   'P 1'
_cell_length_a   8.06532518
_cell_length_b   8.06532537
_cell_length_c   8.06532559
_cell_angle_alpha   60.14890280
_cell_angle_beta   60.14890042
_cell_angle_gamma   60.14890261
_symmetry_Int_Tables_number   1
_chemical_formula_structural   Ta12Cr5Si7N4
_chemical_formula_sum   'Ta12 Cr5 Si7 N4'
_cell_volume   372.23139800
_cell_formula_units_Z   1
loop_
 _symmetry_equiv_pos_site_id
 _symmetry_equiv_pos_as_xyz
  1  'x, y, z'
loop_
 _atom_site_type_symbol
 _atom_site_label
 _atom_site_symmetry_multiplicity
 _atom_site_fract_x
 _atom_site_fract_y
 _atom_site_fract_z
 _atom_site_occupancy
  Ta  Ta0  1  0.804008  0.804008  0.193342  1
  Ta  Ta1  1  0.197133  0.197133  0.803004  1
  Ta  Ta2  1  0.804008  0.193342  0.804008  1
  Ta  Ta3  1  0.197133  0.803004  0.197133  1
  Ta  Ta4  1  0.193342  0.804008  0.804008  1
  Ta  Ta5  1  0.803004  0.197133  0.197133  1
  Ta  Ta6  1  0.448279  0.448279  0.051653  1
  Ta  Ta7  1  0.056029  0.056029  0.444811  1
  Ta  Ta8  1  0.448279  0.051653  0.448279  1
  Ta  Ta9  1  0.056029  0.444811  0.056029  1
  Ta  Ta10  1  0.051653  0.448279  0.448279  1
  Ta  Ta11  1  0.444811  0.056029  0.056029  1
  Cr  Cr12  1  0.125708  0.626330  0.626330  1
  Cr  Cr13  1  0.626330  0.125708  0.626330  1
  Cr  Cr14  1  0.626330  0.626330  0.125708  1
  Cr  Cr15  1  0.624132  0.624132  0.624132  1
  Cr  Cr16  1  0.823335  0.823335  0.823335  1
  Si  Si17  1  0.755291  0.415633  0.415633  1
  Si  Si18  1  0.415633  0.755291  0.415633  1
  Si  Si19  1  0.415633  0.415633  0.755291  1
  Si  Si20  1  0.415472  0.415472  0.415472  1
  Si  Si21  1  0.498967  0.834746  0.834746  1
  Si  Si22  1  0.834746  0.498967  0.834746  1
  Si  Si23  1  0.834746  0.834746  0.498967  1
  N  N24  1  0.625850  0.125062  0.125062  1
  N  N25  1  0.125062  0.625850  0.125062  1
  N  N26  1  0.125062  0.125062  0.625850  1
  N  N27  1  0.123991  0.123991  0.123991  1
