# generated using pymatgen
data_Dy3Y5Lu2(SiB4)4
_symmetry_space_group_name_H-M   'P 1'
_cell_length_a   7.22100702
_cell_length_b   7.22113102
_cell_length_c   8.04299500
_cell_angle_alpha   90.00206441
_cell_angle_beta   90.00012752
_cell_angle_gamma   90.00799800
_symmetry_Int_Tables_number   1
_chemical_formula_structural   Dy3Y5Lu2(SiB4)4
_chemical_formula_sum   'Dy3 Y5 Lu2 Si4 B16'
_cell_volume   419.39262210
_cell_formula_units_Z   1
loop_
 _symmetry_equiv_pos_site_id
 _symmetry_equiv_pos_as_xyz
  1  'x, y, z'
loop_
 _atom_site_type_symbol
 _atom_site_label
 _atom_site_symmetry_multiplicity
 _atom_site_fract_x
 _atom_site_fract_y
 _atom_site_fract_z
 _atom_site_occupancy
  Dy  Dy0  1  0.680295  0.180315  0.774591  1
  Dy  Dy1  1  0.180320  0.319636  0.774513  1
  Dy  Dy2  1  0.180366  0.319668  0.225490  1
  Y  Y3  1  0.680268  0.180291  0.225578  1
  Y  Y4  1  0.319754  0.819770  0.774452  1
  Y  Y5  1  0.319706  0.819735  0.225559  1
  Y  Y6  1  0.819735  0.680292  0.225614  1
  Y  Y7  1  0.819705  0.680246  0.774391  1
  Lu  Lu8  1  0.000021  0.000089  0.500011  1
  Lu  Lu9  1  0.499978  0.499920  0.500024  1
  Si  Si10  1  0.115940  0.615835  0.499995  1
  Si  Si11  1  0.884130  0.384029  0.500061  1
  Si  Si12  1  0.384030  0.116024  0.500060  1
  Si  Si13  1  0.615955  0.884095  0.500061  1
  B  B14  1  0.172409  0.039328  0.000008  1
  B  B15  1  0.827523  0.960974  0.999927  1
  B  B16  1  0.960996  0.172523  0.999950  1
  B  B17  1  0.327477  0.538908  0.000022  1
  B  B18  1  0.039147  0.827597  0.000020  1
  B  B19  1  0.672396  0.460757  0.999948  1
  B  B20  1  0.539139  0.672416  0.000009  1
  B  B21  1  0.460787  0.327532  0.999928  1
  B  B22  1  0.089694  0.589491  0.000000  1
  B  B23  1  0.910450  0.410241  0.999940  1
  B  B24  1  0.410329  0.089772  0.999925  1
  B  B25  1  0.589652  0.910452  0.999924  1
  B  B26  1  0.000057  0.000073  0.163696  1
  B  B27  1  0.999924  0.000198  0.836306  1
  B  B28  1  0.499967  0.499828  0.836305  1
  B  B29  1  0.499849  0.499965  0.163692  1
