# generated using pymatgen
data_Y4Ho16Cd6OsRu
_symmetry_space_group_name_H-M   'P 1'
_cell_length_a   9.57385601
_cell_length_b   9.57311321
_cell_length_c   9.82612000
_cell_angle_alpha   90.00000000
_cell_angle_beta   90.00000000
_cell_angle_gamma   119.99743535
_symmetry_Int_Tables_number   1
_chemical_formula_structural   Y4Ho16Cd6OsRu
_chemical_formula_sum   'Y4 Ho16 Cd6 Os1 Ru1'
_cell_volume   779.94504671
_cell_formula_units_Z   1
loop_
 _symmetry_equiv_pos_site_id
 _symmetry_equiv_pos_as_xyz
  1  'x, y, z'
loop_
 _atom_site_type_symbol
 _atom_site_label
 _atom_site_symmetry_multiplicity
 _atom_site_fract_x
 _atom_site_fract_y
 _atom_site_fract_z
 _atom_site_occupancy
  Y  Y0  1  0.539887  0.460154  0.250000  1
  Y  Y1  1  0.539887  0.079733  0.250000  1
  Y  Y2  1  0.920264  0.460132  0.250000  1
  Y  Y3  1  0.082605  0.541302  0.750000  1
  Ho  Ho4  1  0.999951  0.999976  0.499684  1
  Ho  Ho5  1  0.999951  0.999976  0.000316  1
  Ho  Ho6  1  0.209983  0.790279  0.440633  1
  Ho  Ho7  1  0.209983  0.419706  0.440633  1
  Ho  Ho8  1  0.580204  0.790103  0.440782  1
  Ho  Ho9  1  0.789918  0.209705  0.560077  1
  Ho  Ho10  1  0.789918  0.580211  0.560077  1
  Ho  Ho11  1  0.419789  0.209893  0.560148  1
  Ho  Ho12  1  0.789918  0.209705  0.939923  1
  Ho  Ho13  1  0.789918  0.580211  0.939923  1
  Ho  Ho14  1  0.419789  0.209893  0.939852  1
  Ho  Ho15  1  0.209983  0.790279  0.059367  1
  Ho  Ho16  1  0.209983  0.419706  0.059367  1
  Ho  Ho17  1  0.580204  0.790103  0.059218  1
  Ho  Ho18  1  0.458991  0.541162  0.750000  1
  Ho  Ho19  1  0.458991  0.917829  0.750000  1
  Cd  Cd20  1  0.885451  0.114552  0.250000  1
  Cd  Cd21  1  0.885451  0.770900  0.250000  1
  Cd  Cd22  1  0.229100  0.114551  0.250000  1
  Cd  Cd23  1  0.114769  0.885510  0.750000  1
  Cd  Cd24  1  0.114769  0.229259  0.750000  1
  Cd  Cd25  1  0.770520  0.885260  0.750000  1
  Os  Os26  1  0.333336  0.666668  0.250000  1
  Ru  Ru27  1  0.666483  0.333241  0.750000  1
