# generated using pymatgen
data_CaMg(PO3)4
_symmetry_space_group_name_H-M   'P 1'
_cell_length_a   7.53619322
_cell_length_b   7.53619312
_cell_length_c   10.08339062
_cell_angle_alpha   67.80991571
_cell_angle_beta   67.80991835
_cell_angle_gamma   71.40869348
_symmetry_Int_Tables_number   1
_chemical_formula_structural   CaMg(PO3)4
_chemical_formula_sum   'Ca2 Mg2 P8 O24'
_cell_volume   480.51243267
_cell_formula_units_Z   2
loop_
 _symmetry_equiv_pos_site_id
 _symmetry_equiv_pos_as_xyz
  1  'x, y, z'
loop_
 _atom_site_type_symbol
 _atom_site_label
 _atom_site_symmetry_multiplicity
 _atom_site_fract_x
 _atom_site_fract_y
 _atom_site_fract_z
 _atom_site_occupancy
  Ca  Ca0  1  0.452527  0.547473  0.250000  1
  Ca  Ca1  1  0.547473  0.452527  0.750000  1
  Mg  Mg2  1  0.500000  0.000000  0.000000  1
  Mg  Mg3  1  0.000000  0.500000  0.500000  1
  P  P4  1  0.773734  0.217117  0.473072  1
  P  P5  1  0.226266  0.782883  0.526928  1
  P  P6  1  0.782883  0.226266  0.026928  1
  P  P7  1  0.217117  0.773734  0.973072  1
  P  P8  1  0.815259  0.806027  0.196273  1
  P  P9  1  0.184741  0.193973  0.803727  1
  P  P10  1  0.193973  0.184741  0.303727  1
  P  P11  1  0.806027  0.815259  0.696273  1
  O  O12  1  0.602933  0.323476  0.415222  1
  O  O13  1  0.397067  0.676524  0.584778  1
  O  O14  1  0.676524  0.397067  0.084778  1
  O  O15  1  0.323476  0.602933  0.915222  1
  O  O16  1  0.309880  0.147485  0.157298  1
  O  O17  1  0.690120  0.852515  0.842702  1
  O  O18  1  0.852515  0.690120  0.342702  1
  O  O19  1  0.147485  0.309880  0.657298  1
  O  O20  1  0.633261  0.797647  0.169295  1
  O  O21  1  0.366739  0.202353  0.830705  1
  O  O22  1  0.202353  0.366739  0.330705  1
  O  O23  1  0.797647  0.633261  0.669295  1
  O  O24  1  0.302579  0.817150  0.069340  1
  O  O25  1  0.697421  0.182850  0.930660  1
  O  O26  1  0.182850  0.697421  0.430660  1
  O  O27  1  0.817150  0.302579  0.569340  1
  O  O28  1  0.813272  0.032863  0.165635  1
  O  O29  1  0.186728  0.967137  0.834365  1
  O  O30  1  0.967137  0.186728  0.334365  1
  O  O31  1  0.032863  0.813272  0.665635  1
  O  O32  1  0.745408  0.996103  0.560661  1
  O  O33  1  0.254592  0.003897  0.439339  1
  O  O34  1  0.003897  0.254592  0.939339  1
  O  O35  1  0.996103  0.745408  0.060661  1
