# generated using pymatgen
data_Ho12Si11Ag
_symmetry_space_group_name_H-M   'P 1'
_cell_length_a   3.84562600
_cell_length_b   5.67400145
_cell_length_c   23.63716200
_cell_angle_alpha   82.68027769
_cell_angle_beta   90.00000000
_cell_angle_gamma   90.00000000
_symmetry_Int_Tables_number   1
_chemical_formula_structural   Ho12Si11Ag
_chemical_formula_sum   'Ho12 Si11 Ag1'
_cell_volume   511.56179167
_cell_formula_units_Z   1
loop_
 _symmetry_equiv_pos_site_id
 _symmetry_equiv_pos_as_xyz
  1  'x, y, z'
loop_
 _atom_site_type_symbol
 _atom_site_label
 _atom_site_symmetry_multiplicity
 _atom_site_fract_x
 _atom_site_fract_y
 _atom_site_fract_z
 _atom_site_occupancy
  Ho  Ho0  1  0.500000  0.081092  0.059648  1
  Ho  Ho1  1  0.500000  0.093020  0.555754  1
  Ho  Ho2  1  0.000000  0.923990  0.439181  1
  Ho  Ho3  1  0.000000  0.914759  0.940770  1
  Ho  Ho4  1  0.500000  0.448694  0.392458  1
  Ho  Ho5  1  0.500000  0.439115  0.894165  1
  Ho  Ho6  1  0.000000  0.556216  0.106641  1
  Ho  Ho7  1  0.000000  0.562028  0.605902  1
  Ho  Ho8  1  0.500000  0.256856  0.226280  1
  Ho  Ho9  1  0.500000  0.250863  0.728470  1
  Ho  Ho10  1  0.000000  0.747903  0.273314  1
  Ho  Ho11  1  0.000000  0.734175  0.776566  1
  Si  Si12  1  0.500000  0.621324  0.012504  1
  Si  Si13  1  0.500000  0.628622  0.510923  1
  Si  Si14  1  0.000000  0.385864  0.485686  1
  Si  Si15  1  0.000000  0.375232  0.987530  1
  Si  Si16  1  0.500000  0.769423  0.179218  1
  Si  Si17  1  0.500000  0.752448  0.682956  1
  Si  Si18  1  0.000000  0.235558  0.320063  1
  Si  Si19  1  0.000000  0.221385  0.822172  1
  Si  Si20  1  0.500000  0.960339  0.345782  1
  Si  Si21  1  0.500000  0.950927  0.847368  1
  Si  Si22  1  0.000000  0.044198  0.153700  1
  Ag  Ag23  1  0.000000  0.045969  0.652945  1
