# generated using pymatgen
data_Na2H11Cl
_symmetry_space_group_name_H-M   'P 1'
_cell_length_a   3.73997452
_cell_length_b   7.34860287
_cell_length_c   10.07760640
_cell_angle_alpha   96.60631030
_cell_angle_beta   84.91013325
_cell_angle_gamma   103.23582635
_symmetry_Int_Tables_number   1
_chemical_formula_structural   Na2H11Cl
_chemical_formula_sum   'Na2 H11 Cl1'
_cell_volume   267.26335212
_cell_formula_units_Z   1
loop_
 _symmetry_equiv_pos_site_id
 _symmetry_equiv_pos_as_xyz
  1  'x, y, z'
loop_
 _atom_site_type_symbol
 _atom_site_label
 _atom_site_symmetry_multiplicity
 _atom_site_fract_x
 _atom_site_fract_y
 _atom_site_fract_z
 _atom_site_occupancy
  Na  Na0  1  0.704754  0.597850  0.571147  1
  Na  Na1  1  0.959480  0.140267  0.579570  1
  H  H2  1  0.044331  0.761572  0.780509  1
  H  H3  1  0.529683  0.109827  0.187146  1
  H  H4  1  0.046416  0.505341  0.337610  1
  H  H5  1  0.512919  0.077217  0.859908  1
  H  H6  1  0.508167  0.040611  0.238289  1
  H  H7  1  0.555948  0.509888  0.037877  1
  H  H8  1  0.572931  0.042964  0.919925  1
  H  H9  1  0.920977  0.700151  0.828724  1
  H  H10  1  0.923950  0.410399  0.347305  1
  H  H11  1  0.529859  0.315166  0.605006  1
  H  H12  1  0.581885  0.582439  0.097106  1
  Cl  Cl13  1  0.334628  0.847776  0.525764  1
