# generated using pymatgen
data_Mn3Sb8MoSe4
_symmetry_space_group_name_H-M   'P 1'
_cell_length_a   6.88376000
_cell_length_b   6.34974418
_cell_length_c   18.32435987
_cell_angle_alpha   85.14784630
_cell_angle_beta   90.00000000
_cell_angle_gamma   90.00000000
_symmetry_Int_Tables_number   1
_chemical_formula_structural   Mn3Sb8MoSe4
_chemical_formula_sum   'Mn6 Sb16 Mo2 Se8'
_cell_volume   798.08945981
_cell_formula_units_Z   2
loop_
 _symmetry_equiv_pos_site_id
 _symmetry_equiv_pos_as_xyz
  1  'x, y, z'
loop_
 _atom_site_type_symbol
 _atom_site_label
 _atom_site_symmetry_multiplicity
 _atom_site_fract_x
 _atom_site_fract_y
 _atom_site_fract_z
 _atom_site_occupancy
  Mn  Mn0  1  0.875381  0.683229  0.494064  1
  Mn  Mn1  1  0.375381  0.316771  0.005936  1
  Mn  Mn2  1  0.126966  0.315751  0.504460  1
  Mn  Mn3  1  0.626966  0.684249  0.995540  1
  Mn  Mn4  1  0.622803  0.316546  0.505195  1
  Mn  Mn5  1  0.122803  0.683454  0.994805  1
  Sb  Sb6  1  0.411387  0.221609  0.272504  1
  Sb  Sb7  1  0.911387  0.778391  0.227496  1
  Sb  Sb8  1  0.589472  0.789905  0.726477  1
  Sb  Sb9  1  0.089472  0.210095  0.773523  1
  Sb  Sb10  1  0.837719  0.207237  0.272079  1
  Sb  Sb11  1  0.337719  0.792763  0.227921  1
  Sb  Sb12  1  0.162477  0.789122  0.726794  1
  Sb  Sb13  1  0.662477  0.210878  0.773206  1
  Sb  Sb14  1  0.376618  0.089947  0.429175  1
  Sb  Sb15  1  0.876618  0.910053  0.070825  1
  Sb  Sb16  1  0.627935  0.916649  0.570033  1
  Sb  Sb17  1  0.127935  0.083351  0.929967  1
  Sb  Sb18  1  0.873444  0.094634  0.430304  1
  Sb  Sb19  1  0.373444  0.905366  0.069696  1
  Sb  Sb20  1  0.122110  0.916591  0.570466  1
  Sb  Sb21  1  0.622110  0.083409  0.929534  1
  Mo  Mo22  1  0.374330  0.665490  0.492067  1
  Mo  Mo23  1  0.874330  0.334510  0.007933  1
  Se  Se24  1  0.114360  0.583072  0.405445  1
  Se  Se25  1  0.614360  0.416928  0.094555  1
  Se  Se26  1  0.635294  0.583107  0.405805  1
  Se  Se27  1  0.135294  0.416893  0.094195  1
  Se  Se28  1  0.374232  0.389570  0.593697  1
  Se  Se29  1  0.874232  0.610430  0.906303  1
  Se  Se30  1  0.875474  0.407099  0.588955  1
  Se  Se31  1  0.375474  0.592901  0.911045  1
