# generated using pymatgen
data_K3RbZr6GeI18
_symmetry_space_group_name_H-M   'P 1'
_cell_length_a   11.34305809
_cell_length_b   11.52807122
_cell_length_c   11.62030316
_cell_angle_alpha   118.57282888
_cell_angle_beta   100.07917321
_cell_angle_gamma   103.97366248
_symmetry_Int_Tables_number   1
_chemical_formula_structural   K3RbZr6GeI18
_chemical_formula_sum   'K3 Rb1 Zr6 Ge1 I18'
_cell_volume   1217.40326917
_cell_formula_units_Z   1
loop_
 _symmetry_equiv_pos_site_id
 _symmetry_equiv_pos_as_xyz
  1  'x, y, z'
loop_
 _atom_site_type_symbol
 _atom_site_label
 _atom_site_symmetry_multiplicity
 _atom_site_fract_x
 _atom_site_fract_y
 _atom_site_fract_z
 _atom_site_occupancy
  K  K0  1  0.348938  0.462118  0.773244  1
  K  K1  1  0.684963  0.224590  0.563895  1
  K  K2  1  0.314951  0.775501  0.436274  1
  Rb  Rb3  1  0.653570  0.538687  0.227841  1
  Zr  Zr4  1  0.151126  0.056208  0.231647  1
  Zr  Zr5  1  0.848938  0.944229  0.768731  1
  Zr  Zr6  1  0.861701  0.127256  0.134049  1
  Zr  Zr7  1  0.138606  0.872149  0.866154  1
  Zr  Zr8  1  0.146282  0.240530  0.045272  1
  Zr  Zr9  1  0.853606  0.759384  0.954109  1
  Ge  Ge10  1  0.000218  0.999974  0.999954  1
  I  I11  1  0.008022  0.411454  0.198187  1
  I  I12  1  0.992010  0.588712  0.801969  1
  I  I13  1  0.329969  0.334110  0.312244  1
  I  I14  1  0.669953  0.666267  0.687587  1
  I  I15  1  0.319963  0.524583  0.099267  1
  I  I16  1  0.676210  0.474169  0.893376  1
  I  I17  1  0.004377  0.794759  0.209832  1
  I  I18  1  0.995671  0.205110  0.790196  1
  I  I19  1  0.701257  0.272742  0.292331  1
  I  I20  1  0.299427  0.721778  0.709142  1
  I  I21  1  0.317723  0.127199  0.902374  1
  I  I22  1  0.682189  0.872248  0.097246  1
  I  I23  1  0.014974  0.205410  0.409793  1
  I  I24  1  0.985628  0.794710  0.590405  1
  I  I25  1  0.321789  0.922445  0.109932  1
  I  I26  1  0.678194  0.077776  0.890566  1
  I  I27  1  0.334340  0.121722  0.504561  1
  I  I28  1  0.665408  0.884180  0.499822  1
