# generated using pymatgen
data_LiNdCdAu4
_symmetry_space_group_name_H-M   'P 1'
_cell_length_a   5.80410793
_cell_length_b   5.80410831
_cell_length_c   5.80410700
_cell_angle_alpha   103.11684821
_cell_angle_beta   103.11682881
_cell_angle_gamma   123.10157983
_symmetry_Int_Tables_number   1
_chemical_formula_structural   LiNdCdAu4
_chemical_formula_sum   'Li1 Nd1 Cd1 Au4'
_cell_volume   144.01379145
_cell_formula_units_Z   1
loop_
 _symmetry_equiv_pos_site_id
 _symmetry_equiv_pos_as_xyz
  1  'x, y, z'
loop_
 _atom_site_type_symbol
 _atom_site_label
 _atom_site_symmetry_multiplicity
 _atom_site_fract_x
 _atom_site_fract_y
 _atom_site_fract_z
 _atom_site_occupancy
  Li  Li0  1  0.250000  0.750000  0.500000  1
  Nd  Nd1  1  0.999999  0.999999  0.000000  1
  Cd  Cd2  1  0.750001  0.250001  0.500000  1
  Au  Au3  1  0.301014  0.301015  0.602027  1
  Au  Au4  1  0.698986  0.698985  0.397973  1
  Au  Au5  1  0.698985  0.301015  0.000000  1
  Au  Au6  1  0.301015  0.698985  0.000000  1
