# generated using pymatgen
data_Sc12FeCo2Si12Rh
_symmetry_space_group_name_H-M   'P 1'
_cell_length_a   3.99577900
_cell_length_b   10.03941847
_cell_length_c   11.61022171
_cell_angle_alpha   89.84022548
_cell_angle_beta   90.00000000
_cell_angle_gamma   90.00000000
_symmetry_Int_Tables_number   1
_chemical_formula_structural   Sc12FeCo2Si12Rh
_chemical_formula_sum   'Sc12 Fe1 Co2 Si12 Rh1'
_cell_volume   465.74568705
_cell_formula_units_Z   1
loop_
 _symmetry_equiv_pos_site_id
 _symmetry_equiv_pos_as_xyz
  1  'x, y, z'
loop_
 _atom_site_type_symbol
 _atom_site_label
 _atom_site_symmetry_multiplicity
 _atom_site_fract_x
 _atom_site_fract_y
 _atom_site_fract_z
 _atom_site_occupancy
  Sc  Sc0  1  0.250000  0.880569  0.023909  1
  Sc  Sc1  1  0.250000  0.616540  0.524579  1
  Sc  Sc2  1  0.750000  0.123161  0.978682  1
  Sc  Sc3  1  0.750000  0.379639  0.474994  1
  Sc  Sc4  1  0.250000  0.919543  0.601268  1
  Sc  Sc5  1  0.250000  0.579909  0.100970  1
  Sc  Sc6  1  0.750000  0.078723  0.399950  1
  Sc  Sc7  1  0.750000  0.420984  0.902389  1
  Sc  Sc8  1  0.250000  0.652024  0.798683  1
  Sc  Sc9  1  0.250000  0.842088  0.300241  1
  Sc  Sc10  1  0.750000  0.342615  0.199620  1
  Sc  Sc11  1  0.750000  0.165871  0.699023  1
  Fe  Fe12  1  0.250000  0.389896  0.674485  1
  Co  Co13  1  0.250000  0.110836  0.177526  1
  Co  Co14  1  0.750000  0.610319  0.322910  1
  Si  Si15  1  0.250000  0.016900  0.822259  1
  Si  Si16  1  0.250000  0.493892  0.320923  1
  Si  Si17  1  0.750000  0.993988  0.179298  1
  Si  Si18  1  0.750000  0.501157  0.679660  1
  Si  Si19  1  0.250000  0.256917  0.837769  1
  Si  Si20  1  0.250000  0.247201  0.336981  1
  Si  Si21  1  0.750000  0.747828  0.163003  1
  Si  Si22  1  0.750000  0.746596  0.657612  1
  Si  Si23  1  0.250000  0.199261  0.544940  1
  Si  Si24  1  0.250000  0.301411  0.046706  1
  Si  Si25  1  0.750000  0.799020  0.452983  1
  Si  Si26  1  0.750000  0.693862  0.956682  1
  Rh  Rh27  1  0.750000  0.889248  0.821957  1
