# generated using pymatgen
data_Tb7Yb2DyRu4
_symmetry_space_group_name_H-M   'P 1'
_cell_length_a   8.56342853
_cell_length_b   8.56342878
_cell_length_c   7.27518866
_cell_angle_alpha   83.26465328
_cell_angle_beta   83.26465479
_cell_angle_gamma   43.94229091
_symmetry_Int_Tables_number   1
_chemical_formula_structural   Tb7Yb2DyRu4
_chemical_formula_sum   'Tb7 Yb2 Dy1 Ru4'
_cell_volume   367.24533263
_cell_formula_units_Z   1
loop_
 _symmetry_equiv_pos_site_id
 _symmetry_equiv_pos_as_xyz
  1  'x, y, z'
loop_
 _atom_site_type_symbol
 _atom_site_label
 _atom_site_symmetry_multiplicity
 _atom_site_fract_x
 _atom_site_fract_y
 _atom_site_fract_z
 _atom_site_occupancy
  Tb  Tb0  1  0.205967  0.361475  0.314621  1
  Tb  Tb1  1  0.638525  0.794033  0.185379  1
  Tb  Tb2  1  0.797801  0.635998  0.684406  1
  Tb  Tb3  1  0.364002  0.202199  0.815594  1
  Tb  Tb4  1  0.981276  0.205167  0.085054  1
  Tb  Tb5  1  0.794833  0.018724  0.414946  1
  Tb  Tb6  1  0.570521  0.429479  0.750000  1
  Yb  Yb7  1  0.202040  0.981051  0.582135  1
  Yb  Yb8  1  0.018949  0.797960  0.917865  1
  Dy  Dy9  1  0.422568  0.577432  0.250000  1
  Ru  Ru10  1  0.177386  0.590502  0.571350  1
  Ru  Ru11  1  0.409498  0.822614  0.928650  1
  Ru  Ru12  1  0.817613  0.400979  0.421463  1
  Ru  Ru13  1  0.599021  0.182387  0.078537  1
