# generated using pymatgen
data_Be6Ga5GeRh12
_symmetry_space_group_name_H-M   'P 1'
_cell_length_a   4.14532200
_cell_length_b   5.84446100
_cell_length_c   12.41662900
_cell_angle_alpha   90.00000000
_cell_angle_beta   89.99737643
_cell_angle_gamma   90.00000000
_symmetry_Int_Tables_number   1
_chemical_formula_structural   Be6Ga5GeRh12
_chemical_formula_sum   'Be6 Ga5 Ge1 Rh12'
_cell_volume   300.81981574
_cell_formula_units_Z   1
loop_
 _symmetry_equiv_pos_site_id
 _symmetry_equiv_pos_as_xyz
  1  'x, y, z'
loop_
 _atom_site_type_symbol
 _atom_site_label
 _atom_site_symmetry_multiplicity
 _atom_site_fract_x
 _atom_site_fract_y
 _atom_site_fract_z
 _atom_site_occupancy
  Be  Be0  1  0.000000  0.500000  0.000000  1
  Be  Be1  1  0.499781  0.000000  0.171037  1
  Be  Be2  1  0.999692  0.500000  0.334469  1
  Be  Be3  1  0.499999  0.000000  0.500000  1
  Be  Be4  1  0.000308  0.500000  0.665530  1
  Be  Be5  1  0.500219  0.000000  0.828962  1
  Ga  Ga6  1  0.499844  0.500000  0.166703  1
  Ga  Ga7  1  0.999799  0.000000  0.333314  1
  Ga  Ga8  1  0.499999  0.500000  0.500000  1
  Ga  Ga9  1  0.000202  0.000000  0.666687  1
  Ga  Ga10  1  0.500154  0.500000  0.833296  1
  Ge  Ge11  1  0.000000  0.000000  0.000000  1
  Rh  Rh12  1  0.499999  0.246850  0.000000  1
  Rh  Rh13  1  0.499999  0.753150  0.000000  1
  Rh  Rh14  1  0.999858  0.248487  0.164700  1
  Rh  Rh15  1  0.999858  0.751512  0.164700  1
  Rh  Rh16  1  0.499827  0.250192  0.332866  1
  Rh  Rh17  1  0.499827  0.749807  0.332866  1
  Rh  Rh18  1  0.000000  0.250011  0.500000  1
  Rh  Rh19  1  0.000000  0.749990  0.500000  1
  Rh  Rh20  1  0.500173  0.250192  0.667134  1
  Rh  Rh21  1  0.500173  0.749807  0.667134  1
  Rh  Rh22  1  0.000140  0.248487  0.835301  1
  Rh  Rh23  1  0.000140  0.751512  0.835301  1
