# generated using pymatgen
data_Pr12Co3RhBr12
_symmetry_space_group_name_H-M   'P 1'
_cell_length_a   10.48834852
_cell_length_b   10.48834818
_cell_length_c   10.48834708
_cell_angle_alpha   109.56462628
_cell_angle_beta   109.56462044
_cell_angle_gamma   109.56461259
_symmetry_Int_Tables_number   1
_chemical_formula_structural   Pr12Co3RhBr12
_chemical_formula_sum   'Pr12 Co3 Rh1 Br12'
_cell_volume   885.09203423
_cell_formula_units_Z   1
loop_
 _symmetry_equiv_pos_site_id
 _symmetry_equiv_pos_as_xyz
  1  'x, y, z'
loop_
 _atom_site_type_symbol
 _atom_site_label
 _atom_site_symmetry_multiplicity
 _atom_site_fract_x
 _atom_site_fract_y
 _atom_site_fract_z
 _atom_site_occupancy
  Pr  Pr0  1  0.465990  0.486906  0.228375  1
  Pr  Pr1  1  0.750000  0.230077  0.269923  1
  Pr  Pr2  1  0.750000  0.018336  0.481664  1
  Pr  Pr3  1  0.228375  0.465990  0.486906  1
  Pr  Pr4  1  0.269923  0.750000  0.230077  1
  Pr  Pr5  1  0.034010  0.271625  0.013094  1
  Pr  Pr6  1  0.013094  0.034010  0.271625  1
  Pr  Pr7  1  0.481664  0.750000  0.018336  1
  Pr  Pr8  1  0.486906  0.228375  0.465990  1
  Pr  Pr9  1  0.018336  0.481664  0.750000  1
  Pr  Pr10  1  0.271625  0.013094  0.034010  1
  Pr  Pr11  1  0.230077  0.269923  0.750000  1
  Co  Co12  1  0.500048  0.999952  0.250000  1
  Co  Co13  1  0.999952  0.250000  0.500048  1
  Co  Co14  1  0.250000  0.500048  0.999952  1
  Rh  Rh15  1  0.250000  0.250000  0.250000  1
  Br  Br16  1  0.250000  0.755798  0.744202  1
  Br  Br17  1  0.508141  0.505356  0.754858  1
  Br  Br18  1  0.991859  0.745142  0.994644  1
  Br  Br19  1  0.744202  0.250000  0.755798  1
  Br  Br20  1  0.994644  0.991859  0.745142  1
  Br  Br21  1  0.250000  0.995803  0.504197  1
  Br  Br22  1  0.754858  0.508141  0.505356  1
  Br  Br23  1  0.504197  0.250000  0.995803  1
  Br  Br24  1  0.755798  0.744202  0.250000  1
  Br  Br25  1  0.745142  0.994644  0.991859  1
  Br  Br26  1  0.995803  0.504197  0.250000  1
  Br  Br27  1  0.505356  0.754858  0.508141  1
