# generated using pymatgen
data_Ac4Mg3AlIr4
_symmetry_space_group_name_H-M   'P 1'
_cell_length_a   7.53004420
_cell_length_b   4.29196700
_cell_length_c   8.88451578
_cell_angle_alpha   90.00000000
_cell_angle_beta   89.97748348
_cell_angle_gamma   90.00000000
_symmetry_Int_Tables_number   1
_chemical_formula_structural   Ac4Mg3AlIr4
_chemical_formula_sum   'Ac4 Mg3 Al1 Ir4'
_cell_volume   287.13598882
_cell_formula_units_Z   1
loop_
 _symmetry_equiv_pos_site_id
 _symmetry_equiv_pos_as_xyz
  1  'x, y, z'
loop_
 _atom_site_type_symbol
 _atom_site_label
 _atom_site_symmetry_multiplicity
 _atom_site_fract_x
 _atom_site_fract_y
 _atom_site_fract_z
 _atom_site_occupancy
  Ac  Ac0  1  0.959413  0.250000  0.180548  1
  Ac  Ac1  1  0.464931  0.250000  0.313481  1
  Ac  Ac2  1  0.039154  0.750000  0.819263  1
  Ac  Ac3  1  0.535797  0.750000  0.683803  1
  Mg  Mg4  1  0.868352  0.250000  0.553764  1
  Mg  Mg5  1  0.370276  0.250000  0.944154  1
  Mg  Mg6  1  0.130086  0.750000  0.443515  1
  Al  Al7  1  0.629986  0.750000  0.054522  1
  Ir  Ir8  1  0.730738  0.250000  0.898213  1
  Ir  Ir9  1  0.238448  0.250000  0.625239  1
  Ir  Ir10  1  0.275021  0.750000  0.118745  1
  Ir  Ir11  1  0.757799  0.750000  0.364753  1
