# generated using pymatgen
data_La3SmCoI5
_symmetry_space_group_name_H-M   'P 1'
_cell_length_a   9.92308344
_cell_length_b   9.92308382
_cell_length_c   9.38155968
_cell_angle_alpha   76.69352829
_cell_angle_beta   76.69352707
_cell_angle_gamma   25.41108712
_symmetry_Int_Tables_number   1
_chemical_formula_structural   La3SmCoI5
_chemical_formula_sum   'La3 Sm1 Co1 I5'
_cell_volume   385.21187131
_cell_formula_units_Z   1
loop_
 _symmetry_equiv_pos_site_id
 _symmetry_equiv_pos_as_xyz
  1  'x, y, z'
loop_
 _atom_site_type_symbol
 _atom_site_label
 _atom_site_symmetry_multiplicity
 _atom_site_fract_x
 _atom_site_fract_y
 _atom_site_fract_z
 _atom_site_occupancy
  La  La0  1  0.867400  0.867400  0.065106  1
  La  La1  1  0.132785  0.132785  0.928003  1
  La  La2  1  0.500841  0.500841  0.222388  1
  Sm  Sm3  1  0.499409  0.499409  0.791158  1
  Co  Co4  1  0.000165  0.000165  0.000284  1
  I  I5  1  0.675247  0.675247  0.166525  1
  I  I6  1  0.329587  0.329587  0.822695  1
  I  I7  1  0.664811  0.664811  0.655201  1
  I  I8  1  0.330273  0.330273  0.338971  1
  I  I9  1  0.999481  0.999481  0.509668  1
