# generated using pymatgen
data_HfZr8In14Co6Tc
_symmetry_space_group_name_H-M   'P 1'
_cell_length_a   9.45742793
_cell_length_b   9.46578012
_cell_length_c   9.45785353
_cell_angle_alpha   59.98909881
_cell_angle_beta   59.97210604
_cell_angle_gamma   59.99286587
_symmetry_Int_Tables_number   1
_chemical_formula_structural   HfZr8In14Co6Tc
_chemical_formula_sum   'Hf1 Zr8 In14 Co6 Tc1'
_cell_volume   598.48906188
_cell_formula_units_Z   1
loop_
 _symmetry_equiv_pos_site_id
 _symmetry_equiv_pos_as_xyz
  1  'x, y, z'
loop_
 _atom_site_type_symbol
 _atom_site_label
 _atom_site_symmetry_multiplicity
 _atom_site_fract_x
 _atom_site_fract_y
 _atom_site_fract_z
 _atom_site_occupancy
  Hf  Hf0  1  0.119904  0.640715  0.119911  1
  Zr  Zr1  1  0.365213  0.877296  0.878565  1
  Zr  Zr2  1  0.878655  0.877406  0.878634  1
  Zr  Zr3  1  0.634648  0.121685  0.122062  1
  Zr  Zr4  1  0.500050  0.499825  0.500046  1
  Zr  Zr5  1  0.878577  0.877316  0.365186  1
  Zr  Zr6  1  0.121929  0.121603  0.121935  1
  Zr  Zr7  1  0.878017  0.365408  0.878032  1
  Zr  Zr8  1  0.122075  0.121680  0.634619  1
  In  In9  1  0.500350  0.842193  0.157220  1
  In  In10  1  0.500390  0.841639  0.500275  1
  In  In11  1  0.499776  0.157872  0.499842  1
  In  In12  1  0.499898  0.499745  0.842420  1
  In  In13  1  0.157997  0.499625  0.499784  1
  In  In14  1  0.842981  0.157366  0.499787  1
  In  In15  1  0.157217  0.842219  0.500261  1
  In  In16  1  0.499807  0.157306  0.843005  1
  In  In17  1  0.157443  0.499605  0.843085  1
  In  In18  1  0.499770  0.499646  0.158009  1
  In  In19  1  0.842397  0.499820  0.499869  1
  In  In20  1  0.843047  0.499688  0.157449  1
  In  In21  1  0.248829  0.253902  0.248837  1
  In  In22  1  0.749848  0.749925  0.749871  1
  Co  Co23  1  0.778542  0.776147  0.222659  1
  Co  Co24  1  0.222762  0.776046  0.222742  1
  Co  Co25  1  0.222606  0.776229  0.778587  1
  Co  Co26  1  0.222566  0.222700  0.777351  1
  Co  Co27  1  0.777339  0.222791  0.777315  1
  Co  Co28  1  0.777340  0.222742  0.222566  1
  Tc  Tc29  1  0.000028  0.999859  0.000077  1
