# generated using pymatgen
data_PrHo3Si6IrRh
_symmetry_space_group_name_H-M   'P 1'
_cell_length_a   8.19248000
_cell_length_b   8.19248067
_cell_length_c   8.02731200
_cell_angle_alpha   90.00000000
_cell_angle_beta   90.00000000
_cell_angle_gamma   120.00000536
_symmetry_Int_Tables_number   1
_chemical_formula_structural   PrHo3Si6IrRh
_chemical_formula_sum   'Pr2 Ho6 Si12 Ir2 Rh2'
_cell_volume   466.58585302
_cell_formula_units_Z   2
loop_
 _symmetry_equiv_pos_site_id
 _symmetry_equiv_pos_as_xyz
  1  'x, y, z'
loop_
 _atom_site_type_symbol
 _atom_site_label
 _atom_site_symmetry_multiplicity
 _atom_site_fract_x
 _atom_site_fract_y
 _atom_site_fract_z
 _atom_site_occupancy
  Pr  Pr0  1  0.000000  0.000000  0.249088  1
  Pr  Pr1  1  0.000000  0.000000  0.750912  1
  Ho  Ho2  1  0.508776  0.491224  0.250391  1
  Ho  Ho3  1  0.508776  0.017551  0.250391  1
  Ho  Ho4  1  0.982449  0.491224  0.250391  1
  Ho  Ho5  1  0.491224  0.508776  0.749609  1
  Ho  Ho6  1  0.491224  0.982449  0.749609  1
  Ho  Ho7  1  0.017551  0.508776  0.749609  1
  Si  Si8  1  0.168473  0.831527  0.500901  1
  Si  Si9  1  0.168473  0.336946  0.500901  1
  Si  Si10  1  0.663054  0.831527  0.500901  1
  Si  Si11  1  0.831527  0.168473  0.499099  1
  Si  Si12  1  0.831527  0.663054  0.499099  1
  Si  Si13  1  0.336946  0.168473  0.499099  1
  Si  Si14  1  0.831310  0.168690  0.001362  1
  Si  Si15  1  0.831310  0.662619  0.001362  1
  Si  Si16  1  0.337381  0.168690  0.001362  1
  Si  Si17  1  0.168690  0.831310  0.998638  1
  Si  Si18  1  0.168690  0.337381  0.998638  1
  Si  Si19  1  0.662619  0.831310  0.998638  1
  Ir  Ir20  1  0.333333  0.666667  0.466623  1
  Ir  Ir21  1  0.666667  0.333333  0.533377  1
  Rh  Rh22  1  0.666667  0.333333  0.963552  1
  Rh  Rh23  1  0.333333  0.666667  0.036448  1
