# generated using pymatgen
data_Er5P12Ru18Pt
_symmetry_space_group_name_H-M   'P 1'
_cell_length_a   12.57115366
_cell_length_b   12.57115489
_cell_length_c   3.98161100
_cell_angle_alpha   90.00000000
_cell_angle_beta   90.00000000
_cell_angle_gamma   120.56658513
_symmetry_Int_Tables_number   1
_chemical_formula_structural   Er5P12Ru18Pt
_chemical_formula_sum   'Er5 P12 Ru18 Pt1'
_cell_volume   541.79106472
_cell_formula_units_Z   1
loop_
 _symmetry_equiv_pos_site_id
 _symmetry_equiv_pos_as_xyz
  1  'x, y, z'
loop_
 _atom_site_type_symbol
 _atom_site_label
 _atom_site_symmetry_multiplicity
 _atom_site_fract_x
 _atom_site_fract_y
 _atom_site_fract_z
 _atom_site_occupancy
  Er  Er0  1  0.182401  0.182401  0.500000  1
  Er  Er1  1  0.815879  0.998356  0.500000  1
  Er  Er2  1  0.998356  0.815879  0.500000  1
  Er  Er3  1  0.329746  0.668646  0.000000  1
  Er  Er4  1  0.668646  0.329746  0.000000  1
  P  P5  1  0.812217  0.812217  0.000000  1
  P  P6  1  0.183573  0.002038  0.000000  1
  P  P7  1  0.002038  0.183573  0.000000  1
  P  P8  1  0.173125  0.480301  0.500000  1
  P  P9  1  0.518582  0.700904  0.500000  1
  P  P10  1  0.306105  0.832185  0.500000  1
  P  P11  1  0.700904  0.518582  0.500000  1
  P  P12  1  0.832185  0.306105  0.500000  1
  P  P13  1  0.480301  0.173125  0.500000  1
  P  P14  1  0.363867  0.363867  0.000000  1
  P  P15  1  0.627194  0.000269  0.000000  1
  P  P16  1  0.000269  0.627194  0.000000  1
  Ru  Ru17  1  0.446346  0.002488  0.000000  1
  Ru  Ru18  1  0.002488  0.446346  0.000000  1
  Ru  Ru19  1  0.709949  0.709949  0.500000  1
  Ru  Ru20  1  0.282892  0.002657  0.500000  1
  Ru  Ru21  1  0.002657  0.282892  0.500000  1
  Ru  Ru22  1  0.186919  0.379106  0.000000  1
  Ru  Ru23  1  0.620689  0.806437  0.000000  1
  Ru  Ru24  1  0.189514  0.816695  0.000000  1
  Ru  Ru25  1  0.806437  0.620689  0.000000  1
  Ru  Ru26  1  0.816695  0.189514  0.000000  1
  Ru  Ru27  1  0.379106  0.186919  0.000000  1
  Ru  Ru28  1  0.367330  0.495574  0.500000  1
  Ru  Ru29  1  0.507463  0.877699  0.500000  1
  Ru  Ru30  1  0.129089  0.636408  0.500000  1
  Ru  Ru31  1  0.877699  0.507463  0.500000  1
  Ru  Ru32  1  0.636408  0.129089  0.500000  1
  Ru  Ru33  1  0.495574  0.367330  0.500000  1
  Ru  Ru34  1  0.997228  0.997228  0.000000  1
  Pt  Pt35  1  0.550130  0.550130  0.000000  1
