# generated using pymatgen
data_TiSi(BMo2)2
_symmetry_space_group_name_H-M   'P 1'
_cell_length_a   7.01045733
_cell_length_b   7.01045701
_cell_length_c   7.01045738
_cell_angle_alpha   128.96813452
_cell_angle_beta   128.96813891
_cell_angle_gamma   75.06185864
_symmetry_Int_Tables_number   1
_chemical_formula_structural   TiSi(BMo2)2
_chemical_formula_sum   'Ti2 Si2 B4 Mo8'
_cell_volume   202.79655012
_cell_formula_units_Z   2
loop_
 _symmetry_equiv_pos_site_id
 _symmetry_equiv_pos_as_xyz
  1  'x, y, z'
loop_
 _atom_site_type_symbol
 _atom_site_label
 _atom_site_symmetry_multiplicity
 _atom_site_fract_x
 _atom_site_fract_y
 _atom_site_fract_z
 _atom_site_occupancy
  Ti  Ti0  1  0.000000  0.000000  0.000000  1
  Ti  Ti1  1  0.500000  0.500000  0.000000  1
  Si  Si2  1  0.750000  0.750000  0.000000  1
  Si  Si3  1  0.250000  0.250000  0.000000  1
  B  B4  1  0.380246  0.880246  0.260491  1
  B  B5  1  0.880246  0.619754  0.500000  1
  B  B6  1  0.619754  0.119754  0.739509  1
  B  B7  1  0.119754  0.380246  0.500000  1
  Mo  Mo8  1  0.803977  0.973452  0.500000  1
  Mo  Mo9  1  0.303977  0.803977  0.830525  1
  Mo  Mo10  1  0.196023  0.026548  0.500000  1
  Mo  Mo11  1  0.526548  0.696023  0.500000  1
  Mo  Mo12  1  0.026548  0.526548  0.830525  1
  Mo  Mo13  1  0.696023  0.196023  0.169475  1
  Mo  Mo14  1  0.973452  0.473452  0.169475  1
  Mo  Mo15  1  0.473452  0.303977  0.500000  1
