# generated using pymatgen
data_Pu2Fe2Co10P7
_symmetry_space_group_name_H-M   'P 1'
_cell_length_a   8.97461700
_cell_length_b   8.96897052
_cell_length_c   3.60478700
_cell_angle_alpha   90.00000000
_cell_angle_beta   90.00000000
_cell_angle_gamma   119.96134546
_symmetry_Int_Tables_number   1
_chemical_formula_structural   Pu2Fe2Co10P7
_chemical_formula_sum   'Pu2 Fe2 Co10 P7'
_cell_volume   251.38409111
_cell_formula_units_Z   1
loop_
 _symmetry_equiv_pos_site_id
 _symmetry_equiv_pos_as_xyz
  1  'x, y, z'
loop_
 _atom_site_type_symbol
 _atom_site_label
 _atom_site_symmetry_multiplicity
 _atom_site_fract_x
 _atom_site_fract_y
 _atom_site_fract_z
 _atom_site_occupancy
  Pu  Pu0  1  0.000105  0.000390  0.000000  1
  Pu  Pu1  1  0.332794  0.666305  0.500000  1
  Fe  Fe2  1  0.543202  0.427548  0.500000  1
  Fe  Fe3  1  0.572393  0.114355  0.500000  1
  Co  Co4  1  0.096400  0.705838  0.000000  1
  Co  Co5  1  0.294400  0.391271  0.000000  1
  Co  Co6  1  0.609111  0.903058  0.000000  1
  Co  Co7  1  0.823396  0.216987  0.000000  1
  Co  Co8  1  0.784623  0.605716  0.000000  1
  Co  Co9  1  0.392539  0.176567  0.000000  1
  Co  Co10  1  0.052510  0.286540  0.500000  1
  Co  Co11  1  0.713899  0.766115  0.500000  1
  Co  Co12  1  0.233363  0.946688  0.500000  1
  Co  Co13  1  0.883960  0.458811  0.500000  1
  P  P14  1  0.075535  0.446031  0.000000  1
  P  P15  1  0.554005  0.628976  0.000000  1
  P  P16  1  0.371713  0.924976  0.000000  1
  P  P17  1  0.779913  0.044738  0.500000  1
  P  P18  1  0.955633  0.736688  0.500000  1
  P  P19  1  0.264940  0.220523  0.500000  1
  P  P20  1  0.665567  0.331874  0.000000  1
