# generated using pymatgen
data_YHo(Ni2P)4
_symmetry_space_group_name_H-M   'P 1'
_cell_length_a   7.11498126
_cell_length_b   7.11498126
_cell_length_c   3.61323500
_cell_angle_alpha   90.00000000
_cell_angle_beta   90.00000000
_cell_angle_gamma   89.96907711
_symmetry_Int_Tables_number   1
_chemical_formula_structural   YHo(Ni2P)4
_chemical_formula_sum   'Y1 Ho1 Ni8 P4'
_cell_volume   182.91261815
_cell_formula_units_Z   1
loop_
 _symmetry_equiv_pos_site_id
 _symmetry_equiv_pos_as_xyz
  1  'x, y, z'
loop_
 _atom_site_type_symbol
 _atom_site_label
 _atom_site_symmetry_multiplicity
 _atom_site_fract_x
 _atom_site_fract_y
 _atom_site_fract_z
 _atom_site_occupancy
  Y  Y0  1  0.500000  0.500000  0.000000  1
  Ho  Ho1  1  0.000000  0.000000  0.500000  1
  Ni  Ni2  1  0.585473  0.162386  0.500000  1
  Ni  Ni3  1  0.414527  0.837614  0.500000  1
  Ni  Ni4  1  0.084962  0.336751  0.000000  1
  Ni  Ni5  1  0.915038  0.663249  0.000000  1
  Ni  Ni6  1  0.162386  0.585473  0.500000  1
  Ni  Ni7  1  0.837614  0.414527  0.500000  1
  Ni  Ni8  1  0.336751  0.084962  0.000000  1
  Ni  Ni9  1  0.663249  0.915038  0.000000  1
  P  P10  1  0.721061  0.721061  0.500000  1
  P  P11  1  0.278939  0.278939  0.500000  1
  P  P12  1  0.219649  0.780351  0.000000  1
  P  P13  1  0.780351  0.219649  0.000000  1
