# generated using pymatgen
data_La12CuOs3
_symmetry_space_group_name_H-M   'P 1'
_cell_length_a   6.62639806
_cell_length_b   7.50032083
_cell_length_c   10.11088400
_cell_angle_alpha   90.00000000
_cell_angle_beta   90.00000000
_cell_angle_gamma   90.14227390
_symmetry_Int_Tables_number   1
_chemical_formula_structural   La12CuOs3
_chemical_formula_sum   'La12 Cu1 Os3'
_cell_volume   502.51051219
_cell_formula_units_Z   1
loop_
 _symmetry_equiv_pos_site_id
 _symmetry_equiv_pos_as_xyz
  1  'x, y, z'
loop_
 _atom_site_type_symbol
 _atom_site_label
 _atom_site_symmetry_multiplicity
 _atom_site_fract_x
 _atom_site_fract_y
 _atom_site_fract_z
 _atom_site_occupancy
  La  La0  1  0.341177  0.666391  0.065246  1
  La  La1  1  0.171948  0.178717  0.438130  1
  La  La2  1  0.676244  0.327822  0.570732  1
  La  La3  1  0.823813  0.830892  0.928117  1
  La  La4  1  0.676244  0.327822  0.929268  1
  La  La5  1  0.823813  0.830892  0.571883  1
  La  La6  1  0.341177  0.666391  0.434754  1
  La  La7  1  0.171948  0.178717  0.061870  1
  La  La8  1  0.848190  0.525949  0.250000  1
  La  La9  1  0.633824  0.050794  0.250000  1
  La  La10  1  0.151948  0.459006  0.750000  1
  La  La11  1  0.345477  0.954469  0.750000  1
  Cu  Cu12  1  0.062979  0.882454  0.250000  1
  Os  Os13  1  0.429815  0.381110  0.250000  1
  Os  Os14  1  0.943710  0.118949  0.750000  1
  Os  Os15  1  0.557692  0.619625  0.750000  1
