# generated using pymatgen
data_Nd16MgGa(AgRh2)2
_symmetry_space_group_name_H-M   'P 1'
_cell_length_a   9.86145198
_cell_length_b   9.90758447
_cell_length_c   9.90758409
_cell_angle_alpha   59.85893656
_cell_angle_beta   59.94842342
_cell_angle_gamma   59.94841962
_symmetry_Int_Tables_number   1
_chemical_formula_structural   Nd16MgGa(AgRh2)2
_chemical_formula_sum   'Nd16 Mg1 Ga1 Ag2 Rh4'
_cell_volume   683.21592899
_cell_formula_units_Z   1
loop_
 _symmetry_equiv_pos_site_id
 _symmetry_equiv_pos_as_xyz
  1  'x, y, z'
loop_
 _atom_site_type_symbol
 _atom_site_label
 _atom_site_symmetry_multiplicity
 _atom_site_fract_x
 _atom_site_fract_y
 _atom_site_fract_z
 _atom_site_occupancy
  Nd  Nd0  1  0.598412  0.597678  0.597678  1
  Nd  Nd1  1  0.600383  0.600658  0.199547  1
  Nd  Nd2  1  0.600383  0.199547  0.600658  1
  Nd  Nd3  1  0.189205  0.603243  0.603243  1
  Nd  Nd4  1  0.057908  0.439854  0.439854  1
  Nd  Nd5  1  0.443834  0.057471  0.057471  1
  Nd  Nd6  1  0.436568  0.061118  0.438365  1
  Nd  Nd7  1  0.054178  0.446509  0.055049  1
  Nd  Nd8  1  0.436568  0.438365  0.061118  1
  Nd  Nd9  1  0.054178  0.055049  0.446509  1
  Nd  Nd10  1  0.185699  0.813968  0.813968  1
  Nd  Nd11  1  0.810565  0.189340  0.189340  1
  Nd  Nd12  1  0.811592  0.190553  0.814738  1
  Nd  Nd13  1  0.188317  0.813141  0.187049  1
  Nd  Nd14  1  0.811592  0.814738  0.190553  1
  Nd  Nd15  1  0.188317  0.187049  0.813141  1
  Mg  Mg16  1  0.542006  0.818269  0.818269  1
  Ga  Ga17  1  0.835051  0.834426  0.834426  1
  Ag  Ag18  1  0.830389  0.834162  0.502998  1
  Ag  Ag19  1  0.830389  0.502998  0.834162  1
  Rh  Rh20  1  0.389307  0.392939  0.392939  1
  Rh  Rh21  1  0.391707  0.393376  0.822863  1
  Rh  Rh22  1  0.391707  0.822863  0.393376  1
  Rh  Rh23  1  0.821738  0.392687  0.392687  1
