# generated using pymatgen
data_SmCdIO6
_symmetry_space_group_name_H-M   'P 1'
_cell_length_a   5.08839900
_cell_length_b   5.08368600
_cell_length_c   10.02233700
_cell_angle_alpha   90.00000000
_cell_angle_beta   90.00000000
_cell_angle_gamma   90.00000000
_symmetry_Int_Tables_number   1
_chemical_formula_structural   SmCdIO6
_chemical_formula_sum   'Sm2 Cd2 I2 O12'
_cell_volume   259.25603714
_cell_formula_units_Z   2
loop_
 _symmetry_equiv_pos_site_id
 _symmetry_equiv_pos_as_xyz
  1  'x, y, z'
loop_
 _atom_site_type_symbol
 _atom_site_label
 _atom_site_symmetry_multiplicity
 _atom_site_fract_x
 _atom_site_fract_y
 _atom_site_fract_z
 _atom_site_occupancy
  Sm  Sm0  1  0.000000  0.000000  0.343937  1
  Sm  Sm1  1  0.500000  0.500000  0.156063  1
  Cd  Cd2  1  0.000000  0.000000  0.669657  1
  Cd  Cd3  1  0.500000  0.500000  0.830343  1
  I  I4  1  0.500000  0.500000  0.504636  1
  I  I5  1  0.000000  0.000000  0.995364  1
  O  O6  1  0.682045  0.682444  0.639457  1
  O  O7  1  0.317955  0.317556  0.639457  1
  O  O8  1  0.817955  0.182444  0.860543  1
  O  O9  1  0.182045  0.817556  0.860543  1
  O  O10  1  0.322747  0.322616  0.357630  1
  O  O11  1  0.677253  0.677384  0.357630  1
  O  O12  1  0.177253  0.822616  0.142370  1
  O  O13  1  0.822747  0.177384  0.142370  1
  O  O14  1  0.734853  0.734861  0.003470  1
  O  O15  1  0.265147  0.265139  0.003470  1
  O  O16  1  0.765147  0.234861  0.496530  1
  O  O17  1  0.234853  0.765139  0.496530  1
