# generated using pymatgen
data_YLu3Ga7Ag5
_symmetry_space_group_name_H-M   'P 1'
_cell_length_a   4.28796500
_cell_length_b   6.97750338
_cell_length_c   10.32698158
_cell_angle_alpha   90.00025093
_cell_angle_beta   90.00000000
_cell_angle_gamma   90.00000000
_symmetry_Int_Tables_number   1
_chemical_formula_structural   YLu3Ga7Ag5
_chemical_formula_sum   'Y1 Lu3 Ga7 Ag5'
_cell_volume   308.97595993
_cell_formula_units_Z   1
loop_
 _symmetry_equiv_pos_site_id
 _symmetry_equiv_pos_as_xyz
  1  'x, y, z'
loop_
 _atom_site_type_symbol
 _atom_site_label
 _atom_site_symmetry_multiplicity
 _atom_site_fract_x
 _atom_site_fract_y
 _atom_site_fract_z
 _atom_site_occupancy
  Y  Y0  1  0.000000  0.221902  0.825929  1
  Lu  Lu1  1  0.500000  0.776213  0.176473  1
  Lu  Lu2  1  0.500000  0.269327  0.324003  1
  Lu  Lu3  1  0.000000  0.731072  0.672287  1
  Ga  Ga4  1  0.500000  0.926776  0.844616  1
  Ga  Ga5  1  0.500000  0.434063  0.658489  1
  Ga  Ga6  1  0.000000  0.069998  0.153679  1
  Ga  Ga7  1  0.000000  0.567791  0.342336  1
  Ga  Ga8  1  0.500000  0.199160  0.035195  1
  Ga  Ga9  1  0.000000  0.305107  0.532308  1
  Ga  Ga10  1  0.000000  0.795948  0.965623  1
  Ag  Ag11  1  0.500000  0.547333  0.906831  1
  Ag  Ag12  1  0.500000  0.051268  0.598071  1
  Ag  Ag13  1  0.000000  0.453473  0.097280  1
  Ag  Ag14  1  0.000000  0.957640  0.401675  1
  Ag  Ag15  1  0.500000  0.692931  0.465205  1
