# generated using pymatgen
data_TbNd2Be2(PPd5)4
_symmetry_space_group_name_H-M   'P 1'
_cell_length_a   8.72318933
_cell_length_b   8.62843608
_cell_length_c   8.62843568
_cell_angle_alpha   60.72788343
_cell_angle_beta   59.63605734
_cell_angle_gamma   59.63606381
_symmetry_Int_Tables_number   1
_chemical_formula_structural   TbNd2Be2(PPd5)4
_chemical_formula_sum   'Tb1 Nd2 Be2 P4 Pd20'
_cell_volume   459.11188891
_cell_formula_units_Z   1
loop_
 _symmetry_equiv_pos_site_id
 _symmetry_equiv_pos_as_xyz
  1  'x, y, z'
loop_
 _atom_site_type_symbol
 _atom_site_label
 _atom_site_symmetry_multiplicity
 _atom_site_fract_x
 _atom_site_fract_y
 _atom_site_fract_z
 _atom_site_occupancy
  Tb  Tb0  1  0.000000  0.000000  0.000000  1
  Nd  Nd1  1  0.250000  0.250000  0.250000  1
  Nd  Nd2  1  0.750000  0.750000  0.750000  1
  Be  Be3  1  0.732756  0.267244  0.267244  1
  Be  Be4  1  0.267244  0.732756  0.732756  1
  P  P5  1  0.265633  0.734367  0.265633  1
  P  P6  1  0.734367  0.265633  0.734367  1
  P  P7  1  0.265633  0.265633  0.734367  1
  P  P8  1  0.734367  0.734367  0.265633  1
  Pd  Pd9  1  0.389521  0.383911  0.383911  1
  Pd  Pd10  1  0.610479  0.616089  0.616089  1
  Pd  Pd11  1  0.383911  0.389521  0.842656  1
  Pd  Pd12  1  0.383911  0.842656  0.389521  1
  Pd  Pd13  1  0.616089  0.610479  0.157344  1
  Pd  Pd14  1  0.616089  0.157344  0.610479  1
  Pd  Pd15  1  0.842656  0.383911  0.383911  1
  Pd  Pd16  1  0.157344  0.616089  0.616089  1
  Pd  Pd17  1  0.344122  0.000000  0.000000  1
  Pd  Pd18  1  0.655878  0.000000  0.000000  1
  Pd  Pd19  1  0.000000  0.344122  0.655878  1
  Pd  Pd20  1  0.000000  0.655878  0.344122  1
  Pd  Pd21  1  0.996764  0.343204  0.003236  1
  Pd  Pd22  1  0.656796  0.003236  0.343204  1
  Pd  Pd23  1  0.003236  0.656796  0.996764  1
  Pd  Pd24  1  0.343204  0.996764  0.656796  1
  Pd  Pd25  1  0.996764  0.003236  0.343204  1
  Pd  Pd26  1  0.003236  0.996764  0.656796  1
  Pd  Pd27  1  0.656796  0.343204  0.003236  1
  Pd  Pd28  1  0.343204  0.656796  0.996764  1
