# generated using pymatgen
data_Mn28Cr
_symmetry_space_group_name_H-M   'P 1'
_cell_length_a   7.48274428
_cell_length_b   7.48274439
_cell_length_c   7.48274400
_cell_angle_alpha   109.47121957
_cell_angle_beta   109.47121987
_cell_angle_gamma   109.47122493
_symmetry_Int_Tables_number   1
_chemical_formula_structural   Mn28Cr
_chemical_formula_sum   'Mn28 Cr1'
_cell_volume   322.52307929
_cell_formula_units_Z   1
loop_
 _symmetry_equiv_pos_site_id
 _symmetry_equiv_pos_as_xyz
  1  'x, y, z'
loop_
 _atom_site_type_symbol
 _atom_site_label
 _atom_site_symmetry_multiplicity
 _atom_site_fract_x
 _atom_site_fract_y
 _atom_site_fract_z
 _atom_site_occupancy
  Mn  Mn0  1  0.635456  0.000000  0.000000  1
  Mn  Mn1  1  0.000000  0.635456  0.000000  1
  Mn  Mn2  1  0.000000  0.000000  0.635456  1
  Mn  Mn3  1  0.364544  0.364544  0.364544  1
  Mn  Mn4  1  0.390793  0.678308  0.000000  1
  Mn  Mn5  1  0.712486  0.321692  0.321692  1
  Mn  Mn6  1  0.390793  0.000000  0.678308  1
  Mn  Mn7  1  0.678308  0.390793  0.000000  1
  Mn  Mn8  1  0.000000  0.390793  0.678308  1
  Mn  Mn9  1  0.321692  0.712486  0.321692  1
  Mn  Mn10  1  0.321692  0.321692  0.712486  1
  Mn  Mn11  1  0.000000  0.678308  0.390793  1
  Mn  Mn12  1  0.678308  0.000000  0.390793  1
  Mn  Mn13  1  0.609207  0.609207  0.287514  1
  Mn  Mn14  1  0.287514  0.609207  0.609207  1
  Mn  Mn15  1  0.609207  0.287514  0.609207  1
  Mn  Mn16  1  0.372215  0.194123  0.000000  1
  Mn  Mn17  1  0.178091  0.805877  0.805877  1
  Mn  Mn18  1  0.372215  0.000000  0.194123  1
  Mn  Mn19  1  0.194123  0.372215  0.000000  1
  Mn  Mn20  1  0.000000  0.372215  0.194123  1
  Mn  Mn21  1  0.805877  0.178091  0.805877  1
  Mn  Mn22  1  0.805877  0.805877  0.178091  1
  Mn  Mn23  1  0.000000  0.194123  0.372215  1
  Mn  Mn24  1  0.194123  0.000000  0.372215  1
  Mn  Mn25  1  0.627785  0.627785  0.821909  1
  Mn  Mn26  1  0.821909  0.627785  0.627785  1
  Mn  Mn27  1  0.627785  0.821909  0.627785  1
  Cr  Cr28  1  0.000000  0.000000  0.000000  1
