# generated using pymatgen
data_Eu3CoH12Rh
_symmetry_space_group_name_H-M   'P 1'
_cell_length_a   4.89608400
_cell_length_b   4.89608526
_cell_length_c   8.22273100
_cell_angle_alpha   90.00000000
_cell_angle_beta   90.00000000
_cell_angle_gamma   120.00000500
_symmetry_Int_Tables_number   1
_chemical_formula_structural   Eu3CoH12Rh
_chemical_formula_sum   'Eu3 Co1 H12 Rh1'
_cell_volume   170.70432508
_cell_formula_units_Z   1
loop_
 _symmetry_equiv_pos_site_id
 _symmetry_equiv_pos_as_xyz
  1  'x, y, z'
loop_
 _atom_site_type_symbol
 _atom_site_label
 _atom_site_symmetry_multiplicity
 _atom_site_fract_x
 _atom_site_fract_y
 _atom_site_fract_z
 _atom_site_occupancy
  Eu  Eu0  1  0.000000  0.000000  0.988136  1
  Eu  Eu1  1  0.666667  0.333333  0.370208  1
  Eu  Eu2  1  0.333333  0.666667  0.643063  1
  Co  Co3  1  0.666667  0.333333  0.754074  1
  H  H4  1  0.170964  0.829036  0.363729  1
  H  H5  1  0.658073  0.829036  0.363729  1
  H  H6  1  0.170964  0.341927  0.363729  1
  H  H7  1  0.818967  0.181033  0.645565  1
  H  H8  1  0.362065  0.181033  0.645565  1
  H  H9  1  0.818967  0.637935  0.645565  1
  H  H10  1  0.518688  0.037376  0.866086  1
  H  H11  1  0.518688  0.481312  0.866086  1
  H  H12  1  0.962624  0.481312  0.866086  1
  H  H13  1  0.491193  0.982387  0.124471  1
  H  H14  1  0.491193  0.508807  0.124471  1
  H  H15  1  0.017613  0.508807  0.124471  1
  Rh  Rh16  1  0.333333  0.666667  0.244961  1
