# generated using pymatgen
data_PaSiH
_symmetry_space_group_name_H-M   'P 1'
_cell_length_a   5.78667238
_cell_length_b   5.78667276
_cell_length_c   4.03510500
_cell_angle_alpha   90.00000000
_cell_angle_beta   90.00000000
_cell_angle_gamma   139.17121221
_symmetry_Int_Tables_number   1
_chemical_formula_structural   PaSiH
_chemical_formula_sum   'Pa2 Si2 H2'
_cell_volume   88.34015372
_cell_formula_units_Z   2
loop_
 _symmetry_equiv_pos_site_id
 _symmetry_equiv_pos_as_xyz
  1  'x, y, z'
loop_
 _atom_site_type_symbol
 _atom_site_label
 _atom_site_symmetry_multiplicity
 _atom_site_fract_x
 _atom_site_fract_y
 _atom_site_fract_z
 _atom_site_occupancy
  Pa  Pa0  1  0.147555  0.852445  0.750000  1
  Pa  Pa1  1  0.852445  0.147555  0.250000  1
  Si  Si2  1  0.434682  0.565318  0.750000  1
  Si  Si3  1  0.565318  0.434682  0.250000  1
  H  H4  1  0.750105  0.249895  0.750000  1
  H  H5  1  0.249895  0.750105  0.250000  1
