# generated using pymatgen
data_TbYb(B4Ru)2
_symmetry_space_group_name_H-M   'P 1'
_cell_length_a   3.54298100
_cell_length_b   5.95069110
_cell_length_c   11.50937520
_cell_angle_alpha   89.97863922
_cell_angle_beta   90.00000000
_cell_angle_gamma   90.00000000
_symmetry_Int_Tables_number   1
_chemical_formula_structural   TbYb(B4Ru)2
_chemical_formula_sum   'Tb2 Yb2 B16 Ru4'
_cell_volume   242.65427565
_cell_formula_units_Z   2
loop_
 _symmetry_equiv_pos_site_id
 _symmetry_equiv_pos_as_xyz
  1  'x, y, z'
loop_
 _atom_site_type_symbol
 _atom_site_label
 _atom_site_symmetry_multiplicity
 _atom_site_fract_x
 _atom_site_fract_y
 _atom_site_fract_z
 _atom_site_occupancy
  Tb  Tb0  1  0.500000  0.629504  0.349317  1
  Tb  Tb1  1  0.500000  0.370496  0.650683  1
  Yb  Yb2  1  0.500000  0.128812  0.149326  1
  Yb  Yb3  1  0.500000  0.871188  0.850674  1
  B  B4  1  0.000000  0.476556  0.191091  1
  B  B5  1  0.000000  0.523444  0.808909  1
  B  B6  1  0.000000  0.975998  0.307710  1
  B  B7  1  0.000000  0.024002  0.692290  1
  B  B8  1  0.000000  0.287057  0.313993  1
  B  B9  1  0.000000  0.712943  0.686007  1
  B  B10  1  0.000000  0.788570  0.184181  1
  B  B11  1  0.000000  0.211430  0.815819  1
  B  B12  1  0.000000  0.363446  0.469172  1
  B  B13  1  0.000000  0.636554  0.530828  1
  B  B14  1  0.000000  0.864619  0.031036  1
  B  B15  1  0.000000  0.135381  0.968964  1
  B  B16  1  0.000000  0.386580  0.046629  1
  B  B17  1  0.000000  0.613420  0.953371  1
  B  B18  1  0.000000  0.888662  0.452893  1
  B  B19  1  0.000000  0.111338  0.547107  1
  Ru  Ru20  1  0.500000  0.139614  0.408770  1
  Ru  Ru21  1  0.500000  0.860386  0.591230  1
  Ru  Ru22  1  0.500000  0.636023  0.089244  1
  Ru  Ru23  1  0.500000  0.363977  0.910756  1
