# generated using pymatgen
data_Ho2ErSc3CoBi2
_symmetry_space_group_name_H-M   'P 1'
_cell_length_a   7.99289800
_cell_length_b   7.99289809
_cell_length_c   4.10820400
_cell_angle_alpha   90.00000000
_cell_angle_beta   90.00000000
_cell_angle_gamma   120.44767761
_symmetry_Int_Tables_number   1
_chemical_formula_structural   Ho2ErSc3CoBi2
_chemical_formula_sum   'Ho2 Er1 Sc3 Co1 Bi2'
_cell_volume   226.26339814
_cell_formula_units_Z   1
loop_
 _symmetry_equiv_pos_site_id
 _symmetry_equiv_pos_as_xyz
  1  'x, y, z'
loop_
 _atom_site_type_symbol
 _atom_site_label
 _atom_site_symmetry_multiplicity
 _atom_site_fract_x
 _atom_site_fract_y
 _atom_site_fract_z
 _atom_site_occupancy
  Ho  Ho0  1  0.614888  0.000530  0.000000  1
  Ho  Ho1  1  0.000530  0.614888  0.000000  1
  Er  Er2  1  0.383073  0.383073  0.000000  1
  Sc  Sc3  1  0.222033  0.998845  0.500000  1
  Sc  Sc4  1  0.998845  0.222033  0.500000  1
  Sc  Sc5  1  0.776858  0.776858  0.500000  1
  Co  Co6  1  0.005337  0.005337  0.000000  1
  Bi  Bi7  1  0.332925  0.665510  0.500000  1
  Bi  Bi8  1  0.665510  0.332925  0.500000  1
