# generated using pymatgen
data_Yb3SmY2(CoSn6)2
_symmetry_space_group_name_H-M   'P 1'
_cell_length_a   8.43997039
_cell_length_b   8.43997050
_cell_length_c   13.26862300
_cell_angle_alpha   90.13622642
_cell_angle_beta   89.86377269
_cell_angle_gamma   148.03840416
_symmetry_Int_Tables_number   1
_chemical_formula_structural   Yb3SmY2(CoSn6)2
_chemical_formula_sum   'Yb3 Sm1 Y2 Co2 Sn12'
_cell_volume   500.32232706
_cell_formula_units_Z   1
loop_
 _symmetry_equiv_pos_site_id
 _symmetry_equiv_pos_as_xyz
  1  'x, y, z'
loop_
 _atom_site_type_symbol
 _atom_site_label
 _atom_site_symmetry_multiplicity
 _atom_site_fract_x
 _atom_site_fract_y
 _atom_site_fract_z
 _atom_site_occupancy
  Yb  Yb0  1  0.100542  0.899458  0.597082  1
  Yb  Yb1  1  0.101035  0.898965  0.903240  1
  Yb  Yb2  1  0.899873  0.100127  0.402801  1
  Sm  Sm3  1  0.898875  0.101125  0.093993  1
  Y  Y4  1  0.901340  0.098660  0.754071  1
  Y  Y5  1  0.098727  0.901273  0.248442  1
  Co  Co6  1  0.298814  0.701186  0.250128  1
  Co  Co7  1  0.702880  0.297120  0.749989  1
  Sn  Sn8  1  0.758251  0.241749  0.572105  1
  Sn  Sn9  1  0.426106  0.573894  0.578365  1
  Sn  Sn10  1  0.572857  0.427143  0.422918  1
  Sn  Sn11  1  0.733453  0.266547  0.248905  1
  Sn  Sn12  1  0.266930  0.733070  0.750140  1
  Sn  Sn13  1  0.241186  0.758814  0.072244  1
  Sn  Sn14  1  0.242678  0.757322  0.427664  1
  Sn  Sn15  1  0.572250  0.427750  0.075659  1
  Sn  Sn16  1  0.455159  0.544841  0.249622  1
  Sn  Sn17  1  0.545803  0.454197  0.749993  1
  Sn  Sn18  1  0.756170  0.243830  0.928779  1
  Sn  Sn19  1  0.427071  0.572929  0.923860  1
