# generated using pymatgen
data_Tb5Mg3(P3Ir4)4
_symmetry_space_group_name_H-M   'P 1'
_cell_length_a   12.81075900
_cell_length_b   12.81075861
_cell_length_c   3.98810200
_cell_angle_alpha   90.00000000
_cell_angle_beta   90.00000000
_cell_angle_gamma   120.00000358
_symmetry_Int_Tables_number   1
_chemical_formula_structural   Tb5Mg3(P3Ir4)4
_chemical_formula_sum   'Tb5 Mg3 P12 Ir16'
_cell_volume   566.82184921
_cell_formula_units_Z   1
loop_
 _symmetry_equiv_pos_site_id
 _symmetry_equiv_pos_as_xyz
  1  'x, y, z'
loop_
 _atom_site_type_symbol
 _atom_site_label
 _atom_site_symmetry_multiplicity
 _atom_site_fract_x
 _atom_site_fract_y
 _atom_site_fract_z
 _atom_site_occupancy
  Tb  Tb0  1  0.333333  0.666667  0.500000  1
  Tb  Tb1  1  0.666667  0.333333  0.500000  1
  Tb  Tb2  1  0.000000  0.809429  0.000000  1
  Tb  Tb3  1  0.190571  0.190571  0.000000  1
  Tb  Tb4  1  0.809429  0.000000  0.000000  1
  Mg  Mg5  1  0.000000  0.444882  0.500000  1
  Mg  Mg6  1  0.555118  0.555118  0.500000  1
  Mg  Mg7  1  0.444882  0.000000  0.500000  1
  P  P8  1  0.000000  0.641077  0.500000  1
  P  P9  1  0.358923  0.358923  0.500000  1
  P  P10  1  0.641077  0.000000  0.500000  1
  P  P11  1  0.516424  0.688484  0.000000  1
  P  P12  1  0.311516  0.827939  0.000000  1
  P  P13  1  0.172061  0.483576  0.000000  1
  P  P14  1  0.483576  0.172061  0.000000  1
  P  P15  1  0.688484  0.516424  0.000000  1
  P  P16  1  0.827939  0.311516  0.000000  1
  P  P17  1  0.000000  0.177540  0.500000  1
  P  P18  1  0.822460  0.822460  0.500000  1
  P  P19  1  0.177540  0.000000  0.500000  1
  Ir  Ir20  1  0.508956  0.868289  0.000000  1
  Ir  Ir21  1  0.131711  0.640668  0.000000  1
  Ir  Ir22  1  0.359332  0.491044  0.000000  1
  Ir  Ir23  1  0.491044  0.359332  0.000000  1
  Ir  Ir24  1  0.868289  0.508956  0.000000  1
  Ir  Ir25  1  0.640668  0.131711  0.000000  1
  Ir  Ir26  1  0.000000  0.279498  0.000000  1
  Ir  Ir27  1  0.720502  0.720502  0.000000  1
  Ir  Ir28  1  0.279498  0.000000  0.000000  1
  Ir  Ir29  1  0.627530  0.805903  0.500000  1
  Ir  Ir30  1  0.194097  0.821626  0.500000  1
  Ir  Ir31  1  0.178374  0.372470  0.500000  1
  Ir  Ir32  1  0.372470  0.178374  0.500000  1
  Ir  Ir33  1  0.805903  0.627530  0.500000  1
  Ir  Ir34  1  0.821626  0.194097  0.500000  1
  Ir  Ir35  1  0.000000  0.000000  0.500000  1
