# generated using pymatgen
data_Tm4Al24IrPt8
_symmetry_space_group_name_H-M   'P 1'
_cell_length_a   7.50804915
_cell_length_b   7.53293085
_cell_length_c   13.13534394
_cell_angle_alpha   84.65942422
_cell_angle_beta   79.12454583
_cell_angle_gamma   59.90193528
_symmetry_Int_Tables_number   1
_chemical_formula_structural   Tm4Al24IrPt8
_chemical_formula_sum   'Tm4 Al24 Ir1 Pt8'
_cell_volume   631.19197040
_cell_formula_units_Z   1
loop_
 _symmetry_equiv_pos_site_id
 _symmetry_equiv_pos_as_xyz
  1  'x, y, z'
loop_
 _atom_site_type_symbol
 _atom_site_label
 _atom_site_symmetry_multiplicity
 _atom_site_fract_x
 _atom_site_fract_y
 _atom_site_fract_z
 _atom_site_occupancy
  Tm  Tm0  1  0.393541  0.168889  0.808306  1
  Tm  Tm1  1  0.606459  0.831111  0.191694  1
  Tm  Tm2  1  0.734271  0.498663  0.808247  1
  Tm  Tm3  1  0.265729  0.501337  0.191753  1
  Al  Al4  1  0.686497  0.830912  0.944904  1
  Al  Al5  1  0.313503  0.169088  0.055096  1
  Al  Al6  1  0.146611  0.832094  0.561704  1
  Al  Al7  1  0.853389  0.167906  0.438296  1
  Al  Al8  1  0.479816  0.166624  0.558968  1
  Al  Al9  1  0.520184  0.833376  0.441032  1
  Al  Al10  1  0.217833  0.165090  0.327744  1
  Al  Al11  1  0.782167  0.834910  0.672256  1
  Al  Al12  1  0.436688  0.506747  0.672195  1
  Al  Al13  1  0.563312  0.493253  0.327805  1
  Al  Al14  1  0.109194  0.160332  0.670441  1
  Al  Al15  1  0.890806  0.839668  0.329559  1
  Al  Al16  1  0.350443  0.498851  0.945041  1
  Al  Al17  1  0.649557  0.501149  0.054959  1
  Al  Al18  1  0.015541  0.171665  0.953251  1
  Al  Al19  1  0.984459  0.828335  0.046749  1
  Al  Al20  1  0.186512  0.499457  0.441144  1
  Al  Al21  1  0.813488  0.500543  0.558856  1
  Al  Al22  1  0.733788  0.163747  0.182961  1
  Al  Al23  1  0.266212  0.836253  0.817039  1
  Al  Al24  1  0.061126  0.629389  0.817481  1
  Al  Al25  1  0.938874  0.370611  0.182519  1
  Al  Al26  1  0.854854  0.042264  0.816499  1
  Al  Al27  1  0.145146  0.957736  0.183501  1
  Ir  Ir28  1  0.000000  0.500000  0.000000  1
  Pt  Pt29  1  0.119857  0.491584  0.639290  1
  Pt  Pt30  1  0.880143  0.508416  0.360710  1
  Pt  Pt31  1  0.656686  0.171706  0.999878  1
  Pt  Pt32  1  0.343314  0.828294  0.000122  1
  Pt  Pt33  1  0.536910  0.166784  0.361235  1
  Pt  Pt34  1  0.463090  0.833216  0.638765  1
  Pt  Pt35  1  0.778172  0.175660  0.637432  1
  Pt  Pt36  1  0.221828  0.824340  0.362568  1
