# generated using pymatgen
data_SrHo11(SiPd)12
_symmetry_space_group_name_H-M   'P 1'
_cell_length_a   4.33928600
_cell_length_b   7.44665622
_cell_length_c   21.12902335
_cell_angle_alpha   90.12978077
_cell_angle_beta   90.00000000
_cell_angle_gamma   90.00000000
_symmetry_Int_Tables_number   1
_chemical_formula_structural   SrHo11(SiPd)12
_chemical_formula_sum   'Sr1 Ho11 Si12 Pd12'
_cell_volume   682.74399471
_cell_formula_units_Z   1
loop_
 _symmetry_equiv_pos_site_id
 _symmetry_equiv_pos_as_xyz
  1  'x, y, z'
loop_
 _atom_site_type_symbol
 _atom_site_label
 _atom_site_symmetry_multiplicity
 _atom_site_fract_x
 _atom_site_fract_y
 _atom_site_fract_z
 _atom_site_occupancy
  Sr  Sr0  1  0.250000  0.796305  0.501038  1
  Ho  Ho1  1  0.250000  0.702695  0.332049  1
  Ho  Ho2  1  0.750000  0.295808  0.668217  1
  Ho  Ho3  1  0.750000  0.205321  0.167040  1
  Ho  Ho4  1  0.250000  0.794235  0.833250  1
  Ho  Ho5  1  0.250000  0.794063  0.166322  1
  Ho  Ho6  1  0.750000  0.205329  0.834120  1
  Ho  Ho7  1  0.750000  0.293889  0.331667  1
  Ho  Ho8  1  0.250000  0.705270  0.667491  1
  Ho  Ho9  1  0.250000  0.711294  0.000838  1
  Ho  Ho10  1  0.750000  0.289054  0.999003  1
  Ho  Ho11  1  0.750000  0.213687  0.498487  1
  Si  Si12  1  0.250000  0.091111  0.071503  1
  Si  Si13  1  0.750000  0.909437  0.928680  1
  Si  Si14  1  0.750000  0.586044  0.421783  1
  Si  Si15  1  0.250000  0.405471  0.570829  1
  Si  Si16  1  0.250000  0.086909  0.270245  1
  Si  Si17  1  0.750000  0.914060  0.730986  1
  Si  Si18  1  0.750000  0.586029  0.228080  1
  Si  Si19  1  0.250000  0.413272  0.772346  1
  Si  Si20  1  0.250000  0.090178  0.391161  1
  Si  Si21  1  0.750000  0.916063  0.610683  1
  Si  Si22  1  0.750000  0.588567  0.104466  1
  Si  Si23  1  0.250000  0.411297  0.895616  1
  Pd  Pd24  1  0.250000  0.416878  0.235927  1
  Pd  Pd25  1  0.750000  0.582917  0.763719  1
  Pd  Pd26  1  0.750000  0.916957  0.261893  1
  Pd  Pd27  1  0.250000  0.083676  0.738325  1
  Pd  Pd28  1  0.250000  0.411129  0.436256  1
  Pd  Pd29  1  0.750000  0.576339  0.567563  1
  Pd  Pd30  1  0.750000  0.916637  0.062405  1
  Pd  Pd31  1  0.250000  0.083241  0.937586  1
  Pd  Pd32  1  0.250000  0.420336  0.093293  1
  Pd  Pd33  1  0.750000  0.579762  0.906611  1
  Pd  Pd34  1  0.750000  0.921598  0.402668  1
  Pd  Pd35  1  0.250000  0.085140  0.597857  1
