# generated using pymatgen
data_Tb3Tm8ThCo4
_symmetry_space_group_name_H-M   'P 1'
_cell_length_a   6.21494166
_cell_length_b   6.90030379
_cell_length_c   9.38314900
_cell_angle_alpha   90.00000000
_cell_angle_beta   90.00000000
_cell_angle_gamma   91.14072856
_symmetry_Int_Tables_number   1
_chemical_formula_structural   Tb3Tm8ThCo4
_chemical_formula_sum   'Tb3 Tm8 Th1 Co4'
_cell_volume   402.31645962
_cell_formula_units_Z   1
loop_
 _symmetry_equiv_pos_site_id
 _symmetry_equiv_pos_as_xyz
  1  'x, y, z'
loop_
 _atom_site_type_symbol
 _atom_site_label
 _atom_site_symmetry_multiplicity
 _atom_site_fract_x
 _atom_site_fract_y
 _atom_site_fract_z
 _atom_site_occupancy
  Tb  Tb0  1  0.637705  0.041674  0.250000  1
  Tb  Tb1  1  0.142166  0.455853  0.750000  1
  Tb  Tb2  1  0.359780  0.957397  0.750000  1
  Tm  Tm3  1  0.327170  0.674357  0.067239  1
  Tm  Tm4  1  0.173216  0.174952  0.431212  1
  Tm  Tm5  1  0.675600  0.324899  0.568710  1
  Tm  Tm6  1  0.824452  0.827353  0.930267  1
  Tm  Tm7  1  0.675600  0.324899  0.931290  1
  Tm  Tm8  1  0.824452  0.827353  0.569733  1
  Tm  Tm9  1  0.327170  0.674357  0.432761  1
  Tm  Tm10  1  0.173216  0.174952  0.068788  1
  Th  Th11  1  0.849354  0.554193  0.250000  1
  Co  Co12  1  0.046401  0.871375  0.250000  1
  Co  Co13  1  0.464405  0.389176  0.250000  1
  Co  Co14  1  0.949833  0.114473  0.750000  1
  Co  Co15  1  0.549478  0.612738  0.750000  1
