# generated using pymatgen
data_Li5Mn3(P3Ir4)4
_symmetry_space_group_name_H-M   'P 1'
_cell_length_a   12.48302300
_cell_length_b   12.48302185
_cell_length_c   3.92908300
_cell_angle_alpha   90.00000000
_cell_angle_beta   90.00000000
_cell_angle_gamma   120.00000039
_symmetry_Int_Tables_number   1
_chemical_formula_structural   Li5Mn3(P3Ir4)4
_chemical_formula_sum   'Li5 Mn3 P12 Ir16'
_cell_volume   530.22638444
_cell_formula_units_Z   1
loop_
 _symmetry_equiv_pos_site_id
 _symmetry_equiv_pos_as_xyz
  1  'x, y, z'
loop_
 _atom_site_type_symbol
 _atom_site_label
 _atom_site_symmetry_multiplicity
 _atom_site_fract_x
 _atom_site_fract_y
 _atom_site_fract_z
 _atom_site_occupancy
  Li  Li0  1  0.333333  0.666667  0.500000  1
  Li  Li1  1  0.666667  0.333333  0.500000  1
  Li  Li2  1  0.000000  0.822207  0.000000  1
  Li  Li3  1  0.177793  0.177793  0.000000  1
  Li  Li4  1  0.822207  0.000000  0.000000  1
  Mn  Mn5  1  0.000000  0.456556  0.500000  1
  Mn  Mn6  1  0.543444  0.543444  0.500000  1
  Mn  Mn7  1  0.456556  0.000000  0.500000  1
  P  P8  1  0.000000  0.634969  0.500000  1
  P  P9  1  0.365031  0.365031  0.500000  1
  P  P10  1  0.634969  0.000000  0.500000  1
  P  P11  1  0.515563  0.688002  0.000000  1
  P  P12  1  0.311998  0.827560  0.000000  1
  P  P13  1  0.172440  0.484437  0.000000  1
  P  P14  1  0.484437  0.172440  0.000000  1
  P  P15  1  0.688002  0.515563  0.000000  1
  P  P16  1  0.827560  0.311998  0.000000  1
  P  P17  1  0.000000  0.178642  0.500000  1
  P  P18  1  0.821358  0.821358  0.500000  1
  P  P19  1  0.178642  0.000000  0.500000  1
  Ir  Ir20  1  0.508593  0.870615  0.000000  1
  Ir  Ir21  1  0.129385  0.637978  0.000000  1
  Ir  Ir22  1  0.362022  0.491407  0.000000  1
  Ir  Ir23  1  0.491407  0.362022  0.000000  1
  Ir  Ir24  1  0.870615  0.508593  0.000000  1
  Ir  Ir25  1  0.637978  0.129385  0.000000  1
  Ir  Ir26  1  0.000000  0.281760  0.000000  1
  Ir  Ir27  1  0.718240  0.718240  0.000000  1
  Ir  Ir28  1  0.281760  0.000000  0.000000  1
  Ir  Ir29  1  0.623095  0.804484  0.500000  1
  Ir  Ir30  1  0.195516  0.818612  0.500000  1
  Ir  Ir31  1  0.181388  0.376905  0.500000  1
  Ir  Ir32  1  0.376905  0.181388  0.500000  1
  Ir  Ir33  1  0.804484  0.623095  0.500000  1
  Ir  Ir34  1  0.818612  0.195516  0.500000  1
  Ir  Ir35  1  0.000000  0.000000  0.500000  1
