# generated using pymatgen
data_DyPu(TaN2)2
_symmetry_space_group_name_H-M   'P 1'
_cell_length_a   3.28011500
_cell_length_b   5.69740762
_cell_length_c   10.97219594
_cell_angle_alpha   89.82466036
_cell_angle_beta   90.00000000
_cell_angle_gamma   90.00000000
_symmetry_Int_Tables_number   1
_chemical_formula_structural   DyPu(TaN2)2
_chemical_formula_sum   'Dy2 Pu2 Ta4 N8'
_cell_volume   205.04910749
_cell_formula_units_Z   2
loop_
 _symmetry_equiv_pos_site_id
 _symmetry_equiv_pos_as_xyz
  1  'x, y, z'
loop_
 _atom_site_type_symbol
 _atom_site_label
 _atom_site_symmetry_multiplicity
 _atom_site_fract_x
 _atom_site_fract_y
 _atom_site_fract_z
 _atom_site_occupancy
  Dy  Dy0  1  0.750000  0.914533  0.361278  1
  Dy  Dy1  1  0.250000  0.085467  0.638722  1
  Pu  Pu2  1  0.250000  0.584773  0.862568  1
  Pu  Pu3  1  0.750000  0.415227  0.137432  1
  Ta  Ta4  1  0.250000  0.917717  0.109911  1
  Ta  Ta5  1  0.750000  0.082283  0.890089  1
  Ta  Ta6  1  0.750000  0.582493  0.608236  1
  Ta  Ta7  1  0.250000  0.417507  0.391764  1
  N  N8  1  0.250000  0.660747  0.246797  1
  N  N9  1  0.750000  0.339253  0.753203  1
  N  N10  1  0.750000  0.839873  0.743189  1
  N  N11  1  0.250000  0.160127  0.256811  1
  N  N12  1  0.250000  0.744113  0.507898  1
  N  N13  1  0.750000  0.255887  0.492102  1
  N  N14  1  0.750000  0.759507  0.007145  1
  N  N15  1  0.250000  0.240493  0.992855  1
