# generated using pymatgen
data_Dy8HoTm7(Ga3Co)2
_symmetry_space_group_name_H-M   'P 1'
_cell_length_a   9.93289700
_cell_length_b   9.93289700
_cell_length_c   6.93787100
_cell_angle_alpha   90.00000000
_cell_angle_beta   90.00000000
_cell_angle_gamma   119.99999001
_symmetry_Int_Tables_number   1
_chemical_formula_structural   Dy8HoTm7(Ga3Co)2
_chemical_formula_sum   'Dy8 Ho1 Tm7 Ga6 Co2'
_cell_volume   592.80077115
_cell_formula_units_Z   1
loop_
 _symmetry_equiv_pos_site_id
 _symmetry_equiv_pos_as_xyz
  1  'x, y, z'
loop_
 _atom_site_type_symbol
 _atom_site_label
 _atom_site_symmetry_multiplicity
 _atom_site_fract_x
 _atom_site_fract_y
 _atom_site_fract_z
 _atom_site_occupancy
  Dy  Dy0  1  0.463344  0.536656  0.207573  1
  Dy  Dy1  1  0.073311  0.536656  0.207573  1
  Dy  Dy2  1  0.463344  0.926689  0.207573  1
  Dy  Dy3  1  0.536233  0.463767  0.708257  1
  Dy  Dy4  1  0.927533  0.463767  0.708257  1
  Dy  Dy5  1  0.536233  0.072467  0.708257  1
  Dy  Dy6  1  0.000000  0.000000  0.232075  1
  Dy  Dy7  1  0.000000  0.000000  0.731183  1
  Ho  Ho8  1  0.666667  0.333333  0.327120  1
  Tm  Tm9  1  0.173535  0.826465  0.512295  1
  Tm  Tm10  1  0.652929  0.826465  0.512295  1
  Tm  Tm11  1  0.173535  0.347071  0.512295  1
  Tm  Tm12  1  0.826983  0.173017  0.011209  1
  Tm  Tm13  1  0.346033  0.173017  0.011209  1
  Tm  Tm14  1  0.826983  0.653967  0.011209  1
  Tm  Tm15  1  0.333333  0.666667  0.825231  1
  Ga  Ga16  1  0.163627  0.836373  0.957715  1
  Ga  Ga17  1  0.672746  0.836373  0.957715  1
  Ga  Ga18  1  0.163627  0.327254  0.957715  1
  Ga  Ga19  1  0.837122  0.162878  0.458608  1
  Ga  Ga20  1  0.325755  0.162878  0.458608  1
  Ga  Ga21  1  0.837122  0.674245  0.458608  1
  Co  Co22  1  0.333333  0.666667  0.445702  1
  Co  Co23  1  0.666667  0.333333  0.946554  1
