# generated using pymatgen
data_Sm4Ti3Co16ReP12
_symmetry_space_group_name_H-M   'P 1'
_cell_length_a   3.70209800
_cell_length_b   10.51438742
_cell_length_c   11.98482559
_cell_angle_alpha   90.05922468
_cell_angle_beta   90.00000000
_cell_angle_gamma   90.00000000
_symmetry_Int_Tables_number   1
_chemical_formula_structural   Sm4Ti3Co16ReP12
_chemical_formula_sum   'Sm4 Ti3 Co16 Re1 P12'
_cell_volume   466.51259381
_cell_formula_units_Z   1
loop_
 _symmetry_equiv_pos_site_id
 _symmetry_equiv_pos_as_xyz
  1  'x, y, z'
loop_
 _atom_site_type_symbol
 _atom_site_label
 _atom_site_symmetry_multiplicity
 _atom_site_fract_x
 _atom_site_fract_y
 _atom_site_fract_z
 _atom_site_occupancy
  Sm  Sm0  1  0.250000  0.581969  0.705124  1
  Sm  Sm1  1  0.250000  0.917043  0.204216  1
  Sm  Sm2  1  0.750000  0.417789  0.295473  1
  Sm  Sm3  1  0.750000  0.082719  0.795072  1
  Ti  Ti4  1  0.250000  0.701615  0.990368  1
  Ti  Ti5  1  0.250000  0.796281  0.490252  1
  Ti  Ti6  1  0.750000  0.299333  0.009039  1
  Co  Co7  1  0.250000  0.403034  0.490066  1
  Co  Co8  1  0.250000  0.094443  0.992141  1
  Co  Co9  1  0.750000  0.593165  0.509179  1
  Co  Co10  1  0.750000  0.906682  0.010088  1
  Co  Co11  1  0.250000  0.221618  0.178812  1
  Co  Co12  1  0.250000  0.277329  0.673730  1
  Co  Co13  1  0.750000  0.779296  0.824594  1
  Co  Co14  1  0.750000  0.721602  0.324602  1
  Co  Co15  1  0.250000  0.886490  0.698803  1
  Co  Co16  1  0.250000  0.614983  0.199026  1
  Co  Co17  1  0.750000  0.113143  0.301227  1
  Co  Co18  1  0.750000  0.383845  0.799186  1
  Co  Co19  1  0.250000  0.464295  0.933177  1
  Co  Co20  1  0.250000  0.035921  0.433737  1
  Co  Co21  1  0.750000  0.534467  0.065814  1
  Co  Co22  1  0.750000  0.967216  0.565261  1
  Re  Re23  1  0.750000  0.207121  0.510284  1
  P  P24  1  0.250000  0.421751  0.114393  1
  P  P25  1  0.250000  0.079858  0.612671  1
  P  P26  1  0.750000  0.578575  0.885358  1
  P  P27  1  0.750000  0.919832  0.385640  1
  P  P28  1  0.250000  0.271283  0.861927  1
  P  P29  1  0.250000  0.229219  0.366390  1
  P  P30  1  0.750000  0.727257  0.137601  1
  P  P31  1  0.750000  0.773509  0.637967  1
  P  P32  1  0.250000  0.595076  0.391517  1
  P  P33  1  0.250000  0.904831  0.891879  1
  P  P34  1  0.750000  0.401153  0.606218  1
  P  P35  1  0.750000  0.096256  0.109166  1
