# generated using pymatgen
data_ErSc3VSi7Pt9
_symmetry_space_group_name_H-M   'P 1'
_cell_length_a   9.95963540
_cell_length_b   9.95964949
_cell_length_c   3.91981100
_cell_angle_alpha   90.00000000
_cell_angle_beta   90.00000000
_cell_angle_gamma   119.70322502
_symmetry_Int_Tables_number   1
_chemical_formula_structural   ErSc3VSi7Pt9
_chemical_formula_sum   'Er1 Sc3 V1 Si7 Pt9'
_cell_volume   337.73359253
_cell_formula_units_Z   1
loop_
 _symmetry_equiv_pos_site_id
 _symmetry_equiv_pos_as_xyz
  1  'x, y, z'
loop_
 _atom_site_type_symbol
 _atom_site_label
 _atom_site_symmetry_multiplicity
 _atom_site_fract_x
 _atom_site_fract_y
 _atom_site_fract_z
 _atom_site_occupancy
  Er  Er0  1  0.331112  0.665960  0.500000  1
  Sc  Sc1  1  0.001123  0.997219  0.000000  1
  Sc  Sc2  1  0.566807  0.108244  0.500000  1
  Sc  Sc3  1  0.544666  0.436424  0.500000  1
  V  V4  1  0.886235  0.456774  0.500000  1
  Si  Si5  1  0.240952  0.194700  0.500000  1
  Si  Si6  1  0.810355  0.048107  0.500000  1
  Si  Si7  1  0.951261  0.746664  0.500000  1
  Si  Si8  1  0.554800  0.645087  0.000000  1
  Si  Si9  1  0.354123  0.910544  0.000000  1
  Si  Si10  1  0.081377  0.445807  0.000000  1
  Si  Si11  1  0.677687  0.338252  0.000000  1
  Pt  Pt12  1  0.216515  0.938078  0.500000  1
  Pt  Pt13  1  0.060983  0.283836  0.500000  1
  Pt  Pt14  1  0.722075  0.780880  0.500000  1
  Pt  Pt15  1  0.309981  0.414351  0.000000  1
  Pt  Pt16  1  0.586531  0.899884  0.000000  1
  Pt  Pt17  1  0.097488  0.688987  0.000000  1
  Pt  Pt18  1  0.389496  0.175883  0.000000  1
  Pt  Pt19  1  0.828453  0.210021  0.000000  1
  Pt  Pt20  1  0.787978  0.614300  0.000000  1
