# generated using pymatgen
data_Ba3V2(P3Rh2)2
_symmetry_space_group_name_H-M   'P 1'
_cell_length_a   8.95707253
_cell_length_b   8.95978898
_cell_length_c   8.95978831
_cell_angle_alpha   153.95101169
_cell_angle_beta   90.75072882
_cell_angle_gamma   95.07787169
_symmetry_Int_Tables_number   1
_chemical_formula_structural   Ba3V2(P3Rh2)2
_chemical_formula_sum   'Ba3 V2 P6 Rh4'
_cell_volume   307.39384752
_cell_formula_units_Z   1
loop_
 _symmetry_equiv_pos_site_id
 _symmetry_equiv_pos_as_xyz
  1  'x, y, z'
loop_
 _atom_site_type_symbol
 _atom_site_label
 _atom_site_symmetry_multiplicity
 _atom_site_fract_x
 _atom_site_fract_y
 _atom_site_fract_z
 _atom_site_occupancy
  Ba  Ba0  1  0.330874  0.330271  0.000602  1
  Ba  Ba1  1  0.670105  0.666715  0.003389  1
  Ba  Ba2  1  0.003677  0.003018  0.000659  1
  V  V3  1  0.585311  0.834732  0.750578  1
  V  V4  1  0.249307  0.498609  0.750696  1
  P  P5  1  0.317210  0.666671  0.650538  1
  P  P6  1  0.682135  0.333166  0.348969  1
  P  P7  1  0.987113  0.336412  0.650699  1
  P  P8  1  0.349266  0.000209  0.349057  1
  P  P9  1  0.010049  0.666609  0.343441  1
  P  P10  1  0.647493  0.996931  0.650562  1
  Rh  Rh11  1  0.751968  0.501684  0.250284  1
  Rh  Rh12  1  0.081959  0.831532  0.250427  1
  Rh  Rh13  1  0.415577  0.166793  0.248784  1
  Rh  Rh14  1  0.917958  0.166644  0.751315  1
