# generated using pymatgen
data_HfSc(ZnPt2)2
_symmetry_space_group_name_H-M   'P 1'
_cell_length_a   4.10712600
_cell_length_b   7.68834000
_cell_length_c   12.27682500
_cell_angle_alpha   90.00000000
_cell_angle_beta   89.99999533
_cell_angle_gamma   90.00000000
_symmetry_Int_Tables_number   1
_chemical_formula_structural   HfSc(ZnPt2)2
_chemical_formula_sum   'Hf3 Sc3 Zn6 Pt12'
_cell_volume   387.66507113
_cell_formula_units_Z   3
loop_
 _symmetry_equiv_pos_site_id
 _symmetry_equiv_pos_as_xyz
  1  'x, y, z'
loop_
 _atom_site_type_symbol
 _atom_site_label
 _atom_site_symmetry_multiplicity
 _atom_site_fract_x
 _atom_site_fract_y
 _atom_site_fract_z
 _atom_site_occupancy
  Hf  Hf0  1  0.000007  0.500000  0.998979  1
  Hf  Hf1  1  0.500011  0.000000  0.166676  1
  Hf  Hf2  1  0.000013  0.500000  0.334355  1
  Sc  Sc3  1  0.500004  0.000000  0.500879  1
  Sc  Sc4  1  0.999971  0.500000  0.666679  1
  Sc  Sc5  1  0.499990  0.000000  0.832451  1
  Zn  Zn6  1  0.000003  0.000000  0.998472  1
  Zn  Zn7  1  0.500017  0.500000  0.166661  1
  Zn  Zn8  1  0.000011  0.000000  0.334865  1
  Zn  Zn9  1  0.499990  0.500000  0.501173  1
  Zn  Zn10  1  0.999988  0.000000  0.666661  1
  Zn  Zn11  1  0.499982  0.500000  0.832166  1
  Pt  Pt12  1  0.500006  0.251596  0.000466  1
  Pt  Pt13  1  0.500006  0.748404  0.000466  1
  Pt  Pt14  1  0.000016  0.249101  0.166674  1
  Pt  Pt15  1  0.000016  0.750899  0.166674  1
  Pt  Pt16  1  0.500008  0.251600  0.332879  1
  Pt  Pt17  1  0.500008  0.748400  0.332879  1
  Pt  Pt18  1  0.000001  0.251158  0.499945  1
  Pt  Pt19  1  0.000001  0.748842  0.499945  1
  Pt  Pt20  1  0.499983  0.250772  0.666649  1
  Pt  Pt21  1  0.499983  0.749228  0.666649  1
  Pt  Pt22  1  0.999989  0.251160  0.833378  1
  Pt  Pt23  1  0.999989  0.748840  0.833378  1
