# generated using pymatgen
data_PuNpTeCl12
_symmetry_space_group_name_H-M   'P 1'
_cell_length_a   6.90417461
_cell_length_b   7.48160330
_cell_length_c   11.90603978
_cell_angle_alpha   74.03131211
_cell_angle_beta   90.59957717
_cell_angle_gamma   62.29007846
_symmetry_Int_Tables_number   1
_chemical_formula_structural   PuNpTeCl12
_chemical_formula_sum   'Pu1 Np1 Te1 Cl12'
_cell_volume   516.49072060
_cell_formula_units_Z   1
loop_
 _symmetry_equiv_pos_site_id
 _symmetry_equiv_pos_as_xyz
  1  'x, y, z'
loop_
 _atom_site_type_symbol
 _atom_site_label
 _atom_site_symmetry_multiplicity
 _atom_site_fract_x
 _atom_site_fract_y
 _atom_site_fract_z
 _atom_site_occupancy
  Pu  Pu0  1  0.246286  0.501771  0.754426  1
  Np  Np1  1  0.999424  0.000566  0.997077  1
  Te  Te2  1  0.747964  0.491340  0.257828  1
  Cl  Cl3  1  0.958072  0.734489  0.576190  1
  Cl  Cl4  1  0.032712  0.271644  0.420374  1
  Cl  Cl5  1  0.425952  0.728521  0.710294  1
  Cl  Cl6  1  0.555944  0.240286  0.961366  1
  Cl  Cl7  1  0.427201  0.765818  0.032654  1
  Cl  Cl8  1  0.974847  0.763985  0.194021  1
  Cl  Cl9  1  0.032290  0.255463  0.803933  1
  Cl  Cl10  1  0.968514  0.749284  0.885114  1
  Cl  Cl11  1  0.043873  0.230630  0.112311  1
  Cl  Cl12  1  0.520839  0.724964  0.354873  1
  Cl  Cl13  1  0.489944  0.260764  0.648044  1
  Cl  Cl14  1  0.576139  0.280474  0.291494  1
