# generated using pymatgen
data_La8Pr8Cd4Ir3Pd
_symmetry_space_group_name_H-M   'P 1'
_cell_length_a   10.07279611
_cell_length_b   10.07279519
_cell_length_c   10.10535002
_cell_angle_alpha   60.08732916
_cell_angle_beta   60.08734052
_cell_angle_gamma   60.54035529
_symmetry_Int_Tables_number   1
_chemical_formula_structural   La8Pr8Cd4Ir3Pd
_chemical_formula_sum   'La8 Pr8 Cd4 Ir3 Pd1'
_cell_volume   728.87889306
_cell_formula_units_Z   1
loop_
 _symmetry_equiv_pos_site_id
 _symmetry_equiv_pos_as_xyz
  1  'x, y, z'
loop_
 _atom_site_type_symbol
 _atom_site_label
 _atom_site_symmetry_multiplicity
 _atom_site_fract_x
 _atom_site_fract_y
 _atom_site_fract_z
 _atom_site_occupancy
  La  La0  1  0.345521  0.345521  0.347705  1
  La  La1  1  0.351855  0.351855  0.951489  1
  La  La2  1  0.353045  0.952230  0.351273  1
  La  La3  1  0.952230  0.353045  0.351273  1
  La  La4  1  0.803801  0.190336  0.190669  1
  La  La5  1  0.188949  0.809978  0.809910  1
  La  La6  1  0.190336  0.803801  0.190669  1
  La  La7  1  0.809978  0.188949  0.809910  1
  Pr  Pr8  1  0.192371  0.192371  0.803715  1
  Pr  Pr9  1  0.807408  0.807408  0.191562  1
  Pr  Pr10  1  0.938782  0.563301  0.563810  1
  Pr  Pr11  1  0.563585  0.937188  0.937046  1
  Pr  Pr12  1  0.563301  0.938782  0.563810  1
  Pr  Pr13  1  0.937188  0.563585  0.937046  1
  Pr  Pr14  1  0.562821  0.562821  0.939720  1
  Pr  Pr15  1  0.937810  0.937810  0.563410  1
  Cd  Cd16  1  0.580943  0.580943  0.579390  1
  Cd  Cd17  1  0.580632  0.580632  0.259019  1
  Cd  Cd18  1  0.579605  0.258954  0.580547  1
  Cd  Cd19  1  0.258954  0.579605  0.580547  1
  Ir  Ir20  1  0.139800  0.139800  0.574140  1
  Ir  Ir21  1  0.144829  0.574677  0.139761  1
  Ir  Ir22  1  0.574677  0.144829  0.139761  1
  Pd  Pd23  1  0.141574  0.141574  0.143814  1
