# generated using pymatgen
data_Dy16Cd4CoIr2Os
_symmetry_space_group_name_H-M   'P 1'
_cell_length_a   9.65224572
_cell_length_b   9.65224536
_cell_length_c   9.61181840
_cell_angle_alpha   59.48630991
_cell_angle_beta   59.48631111
_cell_angle_gamma   59.58581033
_symmetry_Int_Tables_number   1
_chemical_formula_structural   Dy16Cd4CoIr2Os
_chemical_formula_sum   'Dy16 Cd4 Co1 Ir2 Os1'
_cell_volume   626.28888331
_cell_formula_units_Z   1
loop_
 _symmetry_equiv_pos_site_id
 _symmetry_equiv_pos_as_xyz
  1  'x, y, z'
loop_
 _atom_site_type_symbol
 _atom_site_label
 _atom_site_symmetry_multiplicity
 _atom_site_fract_x
 _atom_site_fract_y
 _atom_site_fract_z
 _atom_site_occupancy
  Dy  Dy0  1  0.595119  0.595119  0.604211  1
  Dy  Dy1  1  0.599257  0.599257  0.204765  1
  Dy  Dy2  1  0.594588  0.209818  0.603339  1
  Dy  Dy3  1  0.209818  0.594588  0.603339  1
  Dy  Dy4  1  0.061483  0.439582  0.438541  1
  Dy  Dy5  1  0.436974  0.064867  0.055768  1
  Dy  Dy6  1  0.439582  0.061483  0.438541  1
  Dy  Dy7  1  0.064867  0.436974  0.055768  1
  Dy  Dy8  1  0.438006  0.438006  0.057460  1
  Dy  Dy9  1  0.059802  0.059802  0.436343  1
  Dy  Dy10  1  0.187865  0.813989  0.810457  1
  Dy  Dy11  1  0.806306  0.189963  0.190487  1
  Dy  Dy12  1  0.813989  0.187865  0.810457  1
  Dy  Dy13  1  0.189963  0.806306  0.190487  1
  Dy  Dy14  1  0.810306  0.810306  0.189950  1
  Dy  Dy15  1  0.188248  0.188248  0.807104  1
  Cd  Cd16  1  0.830328  0.830328  0.829289  1
  Cd  Cd17  1  0.830694  0.830694  0.506412  1
  Cd  Cd18  1  0.831121  0.505959  0.830033  1
  Cd  Cd19  1  0.505959  0.831121  0.830033  1
  Co  Co20  1  0.393146  0.393146  0.829869  1
  Ir  Ir21  1  0.393697  0.827158  0.393401  1
  Ir  Ir22  1  0.827158  0.393697  0.393401  1
  Os  Os23  1  0.391727  0.391727  0.390551  1
