# generated using pymatgen
data_RbTb2CuS4
_symmetry_space_group_name_H-M   'P 1'
_cell_length_a   3.99332400
_cell_length_b   7.17840611
_cell_length_c   13.83490500
_cell_angle_alpha   90.00000000
_cell_angle_beta   90.00000000
_cell_angle_gamma   73.85028328
_symmetry_Int_Tables_number   1
_chemical_formula_structural   RbTb2CuS4
_chemical_formula_sum   'Rb2 Tb4 Cu2 S8'
_cell_volume   380.93719300
_cell_formula_units_Z   2
loop_
 _symmetry_equiv_pos_site_id
 _symmetry_equiv_pos_as_xyz
  1  'x, y, z'
loop_
 _atom_site_type_symbol
 _atom_site_label
 _atom_site_symmetry_multiplicity
 _atom_site_fract_x
 _atom_site_fract_y
 _atom_site_fract_z
 _atom_site_occupancy
  Rb  Rb0  1  0.892709  0.214580  0.250000  1
  Rb  Rb1  1  0.107290  0.785420  0.750000  1
  Tb  Tb2  1  0.634055  0.731891  0.062239  1
  Tb  Tb3  1  0.634055  0.731891  0.437761  1
  Tb  Tb4  1  0.365945  0.268109  0.562239  1
  Tb  Tb5  1  0.365945  0.268109  0.937761  1
  Cu  Cu6  1  0.165036  0.669927  0.250000  1
  Cu  Cu7  1  0.834964  0.330072  0.750000  1
  S  S8  1  0.000000  0.000000  0.000000  1
  S  S9  1  0.259656  0.480688  0.108803  1
  S  S10  1  0.575722  0.848555  0.250000  1
  S  S11  1  0.259656  0.480688  0.391197  1
  S  S12  1  0.000000  0.000000  0.500000  1
  S  S13  1  0.740344  0.519311  0.608803  1
  S  S14  1  0.424276  0.151446  0.750000  1
  S  S15  1  0.740344  0.519311  0.891197  1
