# generated using pymatgen
data_Dy3Ho3(Er3Co2)2
_symmetry_space_group_name_H-M   'P 1'
_cell_length_a   6.15746791
_cell_length_b   6.90924045
_cell_length_c   9.35019427
_cell_angle_alpha   90.00518094
_cell_angle_beta   90.05948706
_cell_angle_gamma   90.01113104
_symmetry_Int_Tables_number   1
_chemical_formula_structural   Dy3Ho3(Er3Co2)2
_chemical_formula_sum   'Dy3 Ho3 Er6 Co4'
_cell_volume   397.78907802
_cell_formula_units_Z   1
loop_
 _symmetry_equiv_pos_site_id
 _symmetry_equiv_pos_as_xyz
  1  'x, y, z'
loop_
 _atom_site_type_symbol
 _atom_site_label
 _atom_site_symmetry_multiplicity
 _atom_site_fract_x
 _atom_site_fract_y
 _atom_site_fract_z
 _atom_site_occupancy
  Dy  Dy0  1  0.862251  0.541262  0.250112  1
  Dy  Dy1  1  0.638031  0.041111  0.249891  1
  Dy  Dy2  1  0.137660  0.458545  0.750032  1
  Ho  Ho3  1  0.324163  0.675513  0.067045  1
  Ho  Ho4  1  0.175880  0.174974  0.432977  1
  Ho  Ho5  1  0.361921  0.958634  0.749989  1
  Er  Er6  1  0.675607  0.324706  0.567474  1
  Er  Er7  1  0.823995  0.825136  0.932252  1
  Er  Er8  1  0.675793  0.324396  0.932574  1
  Er  Er9  1  0.823853  0.824883  0.567668  1
  Er  Er10  1  0.324605  0.675365  0.433152  1
  Er  Er11  1  0.175772  0.175003  0.066831  1
  Co  Co12  1  0.051427  0.886793  0.249948  1
  Co  Co13  1  0.448553  0.386860  0.250038  1
  Co  Co14  1  0.949268  0.113215  0.750369  1
  Co  Co15  1  0.551223  0.613604  0.749647  1
