# generated using pymatgen
data_Ho7Lu3(Bi2Sb)2
_symmetry_space_group_name_H-M   'P 1'
_cell_length_a   8.13240100
_cell_length_b   9.36320220
_cell_length_c   11.90339201
_cell_angle_alpha   89.98994860
_cell_angle_beta   90.00000000
_cell_angle_gamma   90.00000000
_symmetry_Int_Tables_number   1
_chemical_formula_structural   Ho7Lu3(Bi2Sb)2
_chemical_formula_sum   'Ho14 Lu6 Bi8 Sb4'
_cell_volume   906.38751940
_cell_formula_units_Z   2
loop_
 _symmetry_equiv_pos_site_id
 _symmetry_equiv_pos_as_xyz
  1  'x, y, z'
loop_
 _atom_site_type_symbol
 _atom_site_label
 _atom_site_symmetry_multiplicity
 _atom_site_fract_x
 _atom_site_fract_y
 _atom_site_fract_z
 _atom_site_occupancy
  Ho  Ho0  1  0.353399  0.750029  0.214896  1
  Ho  Ho1  1  0.853399  0.749971  0.285104  1
  Ho  Ho2  1  0.647109  0.249676  0.785140  1
  Ho  Ho3  1  0.147109  0.250324  0.714860  1
  Ho  Ho4  1  0.689132  0.936847  0.058025  1
  Ho  Ho5  1  0.189132  0.563153  0.441975  1
  Ho  Ho6  1  0.474515  0.249720  0.488604  1
  Ho  Ho7  1  0.974515  0.250280  0.011396  1
  Ho  Ho8  1  0.526361  0.750312  0.511789  1
  Ho  Ho9  1  0.026361  0.749688  0.988211  1
  Ho  Ho10  1  0.315612  0.250025  0.217307  1
  Ho  Ho11  1  0.815612  0.249975  0.282693  1
  Ho  Ho12  1  0.684739  0.749834  0.782414  1
  Ho  Ho13  1  0.184739  0.750166  0.717586  1
  Lu  Lu14  1  0.689271  0.566067  0.058411  1
  Lu  Lu15  1  0.189271  0.933933  0.441589  1
  Lu  Lu16  1  0.311182  0.066027  0.941848  1
  Lu  Lu17  1  0.811182  0.433973  0.558152  1
  Lu  Lu18  1  0.310337  0.434471  0.941583  1
  Lu  Lu19  1  0.810337  0.065529  0.558417  1
  Bi  Bi20  1  0.566006  0.995934  0.325236  1
  Bi  Bi21  1  0.066006  0.504066  0.174764  1
  Bi  Bi22  1  0.433446  0.495759  0.674890  1
  Bi  Bi23  1  0.933446  0.004241  0.825110  1
  Bi  Bi24  1  0.433508  0.004337  0.674690  1
  Bi  Bi25  1  0.933508  0.495663  0.825310  1
  Bi  Bi26  1  0.566507  0.504223  0.325337  1
  Bi  Bi27  1  0.066507  0.995777  0.174663  1
  Sb  Sb28  1  0.404778  0.749300  0.957520  1
  Sb  Sb29  1  0.904778  0.750700  0.542480  1
  Sb  Sb30  1  0.594098  0.253119  0.041576  1
  Sb  Sb31  1  0.094098  0.246881  0.458424  1
