# generated using pymatgen
data_Hf4Zr6Sn4Sb3
_symmetry_space_group_name_H-M   'P 1'
_cell_length_a   5.88663008
_cell_length_b   8.65135763
_cell_length_c   8.65023800
_cell_angle_alpha   119.99588021
_cell_angle_beta   89.87835950
_cell_angle_gamma   90.06192918
_symmetry_Int_Tables_number   1
_chemical_formula_structural   Hf4Zr6Sn4Sb3
_chemical_formula_sum   'Hf4 Zr6 Sn4 Sb3'
_cell_volume   381.52829162
_cell_formula_units_Z   1
loop_
 _symmetry_equiv_pos_site_id
 _symmetry_equiv_pos_as_xyz
  1  'x, y, z'
loop_
 _atom_site_type_symbol
 _atom_site_label
 _atom_site_symmetry_multiplicity
 _atom_site_fract_x
 _atom_site_fract_y
 _atom_site_fract_z
 _atom_site_occupancy
  Hf  Hf0  1  0.499888  0.334964  0.666919  1
  Hf  Hf1  1  0.499891  0.665045  0.331950  1
  Hf  Hf2  1  0.001523  0.665730  0.332668  1
  Hf  Hf3  1  0.001526  0.334282  0.666935  1
  Zr  Zr4  1  0.772007  0.267683  0.000519  1
  Zr  Zr5  1  0.771991  0.732301  0.732847  1
  Zr  Zr6  1  0.771688  0.999990  0.265974  1
  Zr  Zr7  1  0.228374  0.731884  0.000247  1
  Zr  Zr8  1  0.228388  0.268107  0.268364  1
  Zr  Zr9  1  0.225728  0.000011  0.732968  1
  Sn  Sn10  1  0.743099  0.000007  0.610908  1
  Sn  Sn11  1  0.255633  0.386520  0.999167  1
  Sn  Sn12  1  0.255644  0.613480  0.612664  1
  Sn  Sn13  1  0.254749  0.000017  0.389280  1
  Sb  Sb14  1  0.745951  0.610919  0.000155  1
  Sb  Sb15  1  0.745945  0.389060  0.389233  1
  Sb  Sb16  1  0.497972  0.000004  0.999202  1
