# generated using pymatgen
data_Ca6Cd2Ag14N
_symmetry_space_group_name_H-M   'P 1'
_cell_length_a   8.65497130
_cell_length_b   8.59894561
_cell_length_c   8.63095917
_cell_angle_alpha   109.33964758
_cell_angle_beta   109.60257643
_cell_angle_gamma   109.45276402
_symmetry_Int_Tables_number   1
_chemical_formula_structural   Ca6Cd2Ag14N
_chemical_formula_sum   'Ca6 Cd2 Ag14 N1'
_cell_volume   494.59113319
_cell_formula_units_Z   1
loop_
 _symmetry_equiv_pos_site_id
 _symmetry_equiv_pos_as_xyz
  1  'x, y, z'
loop_
 _atom_site_type_symbol
 _atom_site_label
 _atom_site_symmetry_multiplicity
 _atom_site_fract_x
 _atom_site_fract_y
 _atom_site_fract_z
 _atom_site_occupancy
  Ca  Ca0  1  0.004191  0.252740  0.253305  1
  Ca  Ca1  1  0.250722  0.997731  0.248055  1
  Ca  Ca2  1  0.750885  0.999435  0.746695  1
  Ca  Ca3  1  0.745042  0.746298  0.000000  1
  Ca  Ca4  1  0.251439  0.256064  0.000000  1
  Ca  Ca5  1  0.002667  0.749676  0.751945  1
  Cd  Cd6  1  0.691955  0.346105  0.346256  1
  Cd  Cd7  1  0.345700  0.999849  0.653744  1
  Ag  Ag8  1  0.498849  0.500304  0.500077  1
  Ag  Ag9  1  0.498958  0.998300  0.000000  1
  Ag  Ag10  1  0.000813  0.500158  0.000000  1
  Ag  Ag11  1  0.998772  0.000227  0.499923  1
  Ag  Ag12  1  0.347181  0.694030  0.346224  1
  Ag  Ag13  1  0.346332  0.348088  0.693682  1
  Ag  Ag14  1  0.346278  0.652470  0.000000  1
  Ag  Ag15  1  0.000957  0.347807  0.653776  1
  Ag  Ag16  1  0.999281  0.651907  0.345775  1
  Ag  Ag17  1  0.652649  0.654405  0.306318  1
  Ag  Ag18  1  0.652847  0.998282  0.346695  1
  Ag  Ag19  1  0.654588  0.348389  0.000000  1
  Ag  Ag20  1  0.653505  0.306133  0.654225  1
  Ag  Ag21  1  0.306154  0.651587  0.653305  1
  N  N22  1  0.000233  0.000016  0.000000  1
