# generated using pymatgen
data_BeV2Si5Mo7W
_symmetry_space_group_name_H-M   'P 1'
_cell_length_a   7.20965930
_cell_length_b   7.21139866
_cell_length_c   7.21594982
_cell_angle_alpha   96.48523655
_cell_angle_beta   96.27328918
_cell_angle_gamma   141.03531759
_symmetry_Int_Tables_number   1
_chemical_formula_structural   BeV2Si5Mo7W
_chemical_formula_sum   'Be1 V2 Si5 Mo7 W1'
_cell_volume   222.44484607
_cell_formula_units_Z   1
loop_
 _symmetry_equiv_pos_site_id
 _symmetry_equiv_pos_as_xyz
  1  'x, y, z'
loop_
 _atom_site_type_symbol
 _atom_site_label
 _atom_site_symmetry_multiplicity
 _atom_site_fract_x
 _atom_site_fract_y
 _atom_site_fract_z
 _atom_site_occupancy
  Be  Be0  1  0.249595  0.249663  0.999761  1
  V  V1  1  0.249585  0.748569  0.499241  1
  V  V2  1  0.750749  0.249653  0.499264  1
  Si  Si3  1  0.749333  0.749011  0.998920  1
  Si  Si4  1  0.164015  0.663613  0.828165  1
  Si  Si5  1  0.834683  0.336681  0.171704  1
  Si  Si6  1  0.336885  0.163539  0.500259  1
  Si  Si7  1  0.665218  0.837617  0.501664  1
  Mo  Mo8  1  0.927547  0.779134  0.699603  1
  Mo  Mo9  1  0.779388  0.080285  0.853523  1
  Mo  Mo10  1  0.421856  0.721083  0.148866  1
  Mo  Mo11  1  0.226403  0.927254  0.147870  1
  Mo  Mo12  1  0.572329  0.271982  0.851401  1
  Mo  Mo13  1  0.719893  0.573751  0.300937  1
  Mo  Mo14  1  0.272827  0.419755  0.698824  1
  W  W15  1  0.079695  0.228410  0.299997  1
