# generated using pymatgen
data_Ac10Si5Sn
_symmetry_space_group_name_H-M   'P 1'
_cell_length_a   9.73891633
_cell_length_b   9.73899436
_cell_length_c   9.73899129
_cell_angle_alpha   129.90811889
_cell_angle_beta   129.90765157
_cell_angle_gamma   73.55409682
_symmetry_Int_Tables_number   1
_chemical_formula_structural   Ac10Si5Sn
_chemical_formula_sum   'Ac10 Si5 Sn1'
_cell_volume   530.40539810
_cell_formula_units_Z   1
loop_
 _symmetry_equiv_pos_site_id
 _symmetry_equiv_pos_as_xyz
  1  'x, y, z'
loop_
 _atom_site_type_symbol
 _atom_site_label
 _atom_site_symmetry_multiplicity
 _atom_site_fract_x
 _atom_site_fract_y
 _atom_site_fract_z
 _atom_site_occupancy
  Ac  Ac0  1  0.827085  0.300848  0.846024  1
  Ac  Ac1  1  0.199154  0.672916  0.153978  1
  Ac  Ac2  1  0.454844  0.981079  0.154001  1
  Ac  Ac3  1  0.300851  0.454833  0.473774  1
  Ac  Ac4  1  0.045166  0.199152  0.526227  1
  Ac  Ac5  1  0.518922  0.045156  0.845999  1
  Ac  Ac6  1  0.672910  0.518929  0.473757  1
  Ac  Ac7  1  0.981071  0.827088  0.526241  1
  Ac  Ac8  1  0.974167  0.974174  0.999996  1
  Ac  Ac9  1  0.525822  0.525825  0.000002  1
  Si  Si10  1  0.114569  0.614575  0.729143  1
  Si  Si11  1  0.885425  0.385432  0.270858  1
  Si  Si12  1  0.614574  0.885427  0.500000  1
  Si  Si13  1  0.385430  0.114572  0.500001  1
  Si  Si14  1  0.250001  0.250000  0.000000  1
  Sn  Sn15  1  0.750008  0.749994  0.999999  1
