# generated using pymatgen
data_ErLu(Be12Cu)2
_symmetry_space_group_name_H-M   'P 1'
_cell_length_a   7.24053157
_cell_length_b   7.29840310
_cell_length_c   7.22368088
_cell_angle_alpha   59.81058031
_cell_angle_beta   59.78330857
_cell_angle_gamma   59.58215824
_symmetry_Int_Tables_number   1
_chemical_formula_structural   ErLu(Be12Cu)2
_chemical_formula_sum   'Er1 Lu1 Be24 Cu2'
_cell_volume   268.23795247
_cell_formula_units_Z   1
loop_
 _symmetry_equiv_pos_site_id
 _symmetry_equiv_pos_as_xyz
  1  'x, y, z'
loop_
 _atom_site_type_symbol
 _atom_site_label
 _atom_site_symmetry_multiplicity
 _atom_site_fract_x
 _atom_site_fract_y
 _atom_site_fract_z
 _atom_site_occupancy
  Er  Er0  1  0.747093  0.752907  0.747093  1
  Lu  Lu1  1  0.252943  0.247057  0.252943  1
  Be  Be2  1  0.499952  0.500048  0.499952  1
  Be  Be3  1  0.999961  0.000039  0.999961  1
  Be  Be4  1  0.564573  0.793744  0.434773  1
  Be  Be5  1  0.434773  0.206909  0.564573  1
  Be  Be6  1  0.291081  0.936951  0.708331  1
  Be  Be7  1  0.708331  0.063637  0.291081  1
  Be  Be8  1  0.930883  0.278111  0.069289  1
  Be  Be9  1  0.069289  0.721717  0.930883  1
  Be  Be10  1  0.207594  0.800716  0.557097  1
  Be  Be11  1  0.792658  0.199784  0.442468  1
  Be  Be12  1  0.442468  0.565089  0.792658  1
  Be  Be13  1  0.557097  0.434594  0.207594  1
  Be  Be14  1  0.710473  0.286532  0.936651  1
  Be  Be15  1  0.289176  0.713388  0.063592  1
  Be  Be16  1  0.063592  0.933843  0.289176  1
  Be  Be17  1  0.936651  0.066344  0.710473  1
  Be  Be18  1  0.565435  0.206533  0.792584  1
  Be  Be19  1  0.434279  0.793940  0.207761  1
  Be  Be20  1  0.792584  0.435447  0.565435  1
  Be  Be21  1  0.207761  0.564020  0.434279  1
  Be  Be22  1  0.936828  0.711420  0.291476  1
  Be  Be23  1  0.063638  0.288318  0.708009  1
  Be  Be24  1  0.291476  0.060276  0.936828  1
  Be  Be25  1  0.708009  0.940035  0.063638  1
  Cu  Cu26  1  0.806108  0.557232  0.195291  1
  Cu  Cu27  1  0.195291  0.441368  0.806108  1
