# generated using pymatgen
data_Ce2Mn3Al20Pt
_symmetry_space_group_name_H-M   'P 1'
_cell_length_a   6.83854512
_cell_length_b   6.83857714
_cell_length_c   9.08953920
_cell_angle_alpha   89.74683195
_cell_angle_beta   89.92900413
_cell_angle_gamma   97.33567675
_symmetry_Int_Tables_number   1
_chemical_formula_structural   Ce2Mn3Al20Pt
_chemical_formula_sum   'Ce2 Mn3 Al20 Pt1'
_cell_volume   421.59660540
_cell_formula_units_Z   1
loop_
 _symmetry_equiv_pos_site_id
 _symmetry_equiv_pos_as_xyz
  1  'x, y, z'
loop_
 _atom_site_type_symbol
 _atom_site_label
 _atom_site_symmetry_multiplicity
 _atom_site_fract_x
 _atom_site_fract_y
 _atom_site_fract_z
 _atom_site_occupancy
  Ce  Ce0  1  0.879616  0.130297  0.753528  1
  Ce  Ce1  1  0.120384  0.869703  0.246472  1
  Mn  Mn2  1  0.500000  0.000000  0.000000  1
  Mn  Mn3  1  0.000000  0.500000  0.000000  1
  Mn  Mn4  1  0.000000  0.500000  0.500000  1
  Al  Al5  1  0.590545  0.862246  0.243711  1
  Al  Al6  1  0.779379  0.519049  0.250255  1
  Al  Al7  1  0.161402  0.840249  0.901637  1
  Al  Al8  1  0.409455  0.137754  0.756289  1
  Al  Al9  1  0.625401  0.375797  0.951326  1
  Al  Al10  1  0.847607  0.164697  0.398600  1
  Al  Al11  1  0.773752  0.771707  0.998754  1
  Al  Al12  1  0.866513  0.587573  0.751048  1
  Al  Al13  1  0.838598  0.159751  0.098363  1
  Al  Al14  1  0.220621  0.480951  0.749745  1
  Al  Al15  1  0.152393  0.835303  0.601400  1
  Al  Al16  1  0.779517  0.767602  0.496145  1
  Al  Al17  1  0.477890  0.222623  0.241262  1
  Al  Al18  1  0.628938  0.384087  0.552038  1
  Al  Al19  1  0.220483  0.232398  0.503855  1
  Al  Al20  1  0.371062  0.615913  0.447962  1
  Al  Al21  1  0.133487  0.412427  0.248952  1
  Al  Al22  1  0.522110  0.777377  0.758738  1
  Al  Al23  1  0.374599  0.624203  0.048674  1
  Al  Al24  1  0.226248  0.228293  0.001246  1
  Pt  Pt25  1  0.500000  0.000000  0.500000  1
