# generated using pymatgen
data_Dy3Mg2AlSi2Pt
_symmetry_space_group_name_H-M   'P 1'
_cell_length_a   7.08517075
_cell_length_b   7.08517055
_cell_length_c   4.31158500
_cell_angle_alpha   90.00000000
_cell_angle_beta   90.00000000
_cell_angle_gamma   120.67453930
_symmetry_Int_Tables_number   1
_chemical_formula_structural   Dy3Mg2AlSi2Pt
_chemical_formula_sum   'Dy3 Mg2 Al1 Si2 Pt1'
_cell_volume   186.15553563
_cell_formula_units_Z   1
loop_
 _symmetry_equiv_pos_site_id
 _symmetry_equiv_pos_as_xyz
  1  'x, y, z'
loop_
 _atom_site_type_symbol
 _atom_site_label
 _atom_site_symmetry_multiplicity
 _atom_site_fract_x
 _atom_site_fract_y
 _atom_site_fract_z
 _atom_site_occupancy
  Dy  Dy0  1  0.585510  0.001071  0.000000  1
  Dy  Dy1  1  0.418774  0.418773  0.000000  1
  Dy  Dy2  1  0.001071  0.585510  0.000000  1
  Mg  Mg3  1  0.238061  0.999444  0.499999  1
  Mg  Mg4  1  0.999444  0.238062  0.499999  1
  Al  Al5  1  0.760631  0.760630  0.499999  1
  Si  Si6  1  0.669396  0.344150  0.499999  1
  Si  Si7  1  0.344150  0.669397  0.499999  1
  Pt  Pt8  1  0.982961  0.982961  0.000000  1
