# generated using pymatgen
data_Er2GaCoRu
_symmetry_space_group_name_H-M   'P 1'
_cell_length_a   4.07832327
_cell_length_b   5.55705001
_cell_length_c   5.42325367
_cell_angle_alpha   120.81951796
_cell_angle_beta   112.08635071
_cell_angle_gamma   89.99999947
_symmetry_Int_Tables_number   1
_chemical_formula_structural   Er2GaCoRu
_chemical_formula_sum   'Er2 Ga1 Co1 Ru1'
_cell_volume   94.89814508
_cell_formula_units_Z   1
loop_
 _symmetry_equiv_pos_site_id
 _symmetry_equiv_pos_as_xyz
  1  'x, y, z'
loop_
 _atom_site_type_symbol
 _atom_site_label
 _atom_site_symmetry_multiplicity
 _atom_site_fract_x
 _atom_site_fract_y
 _atom_site_fract_z
 _atom_site_occupancy
  Er  Er0  1  0.791828  0.285023  0.583655  1
  Er  Er1  1  0.208172  0.701368  0.416345  1
  Ga  Ga2  1  0.000000  0.990518  0.000000  1
  Co  Co3  1  0.500000  0.727430  0.000000  1
  Ru  Ru4  1  0.500000  0.295661  0.000000  1
