# generated using pymatgen
data_Dy2Er18(Bi3Sb)3
_symmetry_space_group_name_H-M   'P 1'
_cell_length_a   8.14887375
_cell_length_b   9.43411700
_cell_length_c   11.91550089
_cell_angle_alpha   90.00000000
_cell_angle_beta   90.05973160
_cell_angle_gamma   90.00000000
_symmetry_Int_Tables_number   1
_chemical_formula_structural   Dy2Er18(Bi3Sb)3
_chemical_formula_sum   'Dy2 Er18 Bi9 Sb3'
_cell_volume   916.03256884
_cell_formula_units_Z   1
loop_
 _symmetry_equiv_pos_site_id
 _symmetry_equiv_pos_as_xyz
  1  'x, y, z'
loop_
 _atom_site_type_symbol
 _atom_site_label
 _atom_site_symmetry_multiplicity
 _atom_site_fract_x
 _atom_site_fract_y
 _atom_site_fract_z
 _atom_site_occupancy
  Dy  Dy0  1  0.811225  0.250000  0.278974  1
  Dy  Dy1  1  0.184008  0.750000  0.717922  1
  Er  Er2  1  0.352687  0.750000  0.213468  1
  Er  Er3  1  0.853090  0.750000  0.286028  1
  Er  Er4  1  0.647138  0.250000  0.786226  1
  Er  Er5  1  0.148138  0.250000  0.716945  1
  Er  Er6  1  0.689383  0.563748  0.057598  1
  Er  Er7  1  0.190584  0.932959  0.442187  1
  Er  Er8  1  0.310815  0.063244  0.942607  1
  Er  Er9  1  0.808196  0.439114  0.559334  1
  Er  Er10  1  0.310815  0.436756  0.942607  1
  Er  Er11  1  0.808196  0.060886  0.559334  1
  Er  Er12  1  0.689383  0.936252  0.057598  1
  Er  Er13  1  0.190584  0.567041  0.442187  1
  Er  Er14  1  0.475947  0.250000  0.488340  1
  Er  Er15  1  0.973379  0.250000  0.011472  1
  Er  Er16  1  0.528286  0.750000  0.512287  1
  Er  Er17  1  0.027157  0.750000  0.988328  1
  Er  Er18  1  0.317744  0.250000  0.215721  1
  Er  Er19  1  0.683623  0.750000  0.782558  1
  Bi  Bi20  1  0.093358  0.250000  0.457149  1
  Bi  Bi21  1  0.565010  0.994793  0.325602  1
  Bi  Bi22  1  0.066321  0.504219  0.174275  1
  Bi  Bi23  1  0.434353  0.495214  0.674627  1
  Bi  Bi24  1  0.933569  0.004209  0.825932  1
  Bi  Bi25  1  0.434353  0.004786  0.674627  1
  Bi  Bi26  1  0.933569  0.495791  0.825932  1
  Bi  Bi27  1  0.565010  0.505207  0.325602  1
  Bi  Bi28  1  0.066321  0.995781  0.174275  1
  Sb  Sb29  1  0.407135  0.750000  0.958313  1
  Sb  Sb30  1  0.906945  0.750000  0.541047  1
  Sb  Sb31  1  0.593682  0.250000  0.040897  1
