# generated using pymatgen
data_LaPrY4(RuO7)2
_symmetry_space_group_name_H-M   'P 1'
_cell_length_a   6.49124587
_cell_length_b   6.49124386
_cell_length_c   7.56017802
_cell_angle_alpha   89.99536755
_cell_angle_beta   89.99537282
_cell_angle_gamma   110.09847381
_symmetry_Int_Tables_number   1
_chemical_formula_structural   LaPrY4(RuO7)2
_chemical_formula_sum   'La1 Pr1 Y4 Ru2 O14'
_cell_volume   299.15854856
_cell_formula_units_Z   1
loop_
 _symmetry_equiv_pos_site_id
 _symmetry_equiv_pos_as_xyz
  1  'x, y, z'
loop_
 _atom_site_type_symbol
 _atom_site_label
 _atom_site_symmetry_multiplicity
 _atom_site_fract_x
 _atom_site_fract_y
 _atom_site_fract_z
 _atom_site_occupancy
  La  La0  1  0.000000  0.000000  0.500000  1
  Pr  Pr1  1  0.000000  0.000000  0.000000  1
  Y  Y2  1  0.482053  0.931258  0.750170  1
  Y  Y3  1  0.517947  0.068742  0.249830  1
  Y  Y4  1  0.931258  0.482053  0.750170  1
  Y  Y5  1  0.068742  0.517947  0.249830  1
  Ru  Ru6  1  0.500000  0.500000  0.500000  1
  Ru  Ru7  1  0.500000  0.500000  0.000000  1
  O  O8  1  0.587370  0.587370  0.749950  1
  O  O9  1  0.412630  0.412630  0.250050  1
  O  O10  1  0.837656  0.118289  0.750856  1
  O  O11  1  0.162344  0.881711  0.249144  1
  O  O12  1  0.118289  0.837656  0.750856  1
  O  O13  1  0.881711  0.162344  0.249144  1
  O  O14  1  0.440267  0.182729  0.964170  1
  O  O15  1  0.557728  0.816827  0.463953  1
  O  O16  1  0.182729  0.440267  0.964170  1
  O  O17  1  0.816827  0.557728  0.463953  1
  O  O18  1  0.442272  0.183173  0.536047  1
  O  O19  1  0.559733  0.817271  0.035830  1
  O  O20  1  0.817271  0.559733  0.035830  1
  O  O21  1  0.183173  0.442272  0.536047  1
