# generated using pymatgen
data_Ir2OsO6
_symmetry_space_group_name_H-M   'P 1'
_cell_length_a   4.53950003
_cell_length_b   4.53950000
_cell_length_c   9.58569200
_cell_angle_alpha   90.00000000
_cell_angle_beta   90.00000000
_cell_angle_gamma   89.99233869
_symmetry_Int_Tables_number   1
_chemical_formula_structural   Ir2OsO6
_chemical_formula_sum   'Ir4 Os2 O12'
_cell_volume   197.53293216
_cell_formula_units_Z   2
loop_
 _symmetry_equiv_pos_site_id
 _symmetry_equiv_pos_as_xyz
  1  'x, y, z'
loop_
 _atom_site_type_symbol
 _atom_site_label
 _atom_site_symmetry_multiplicity
 _atom_site_fract_x
 _atom_site_fract_y
 _atom_site_fract_z
 _atom_site_occupancy
  Ir  Ir0  1  0.500002  0.499999  0.166996  1
  Ir  Ir1  1  0.000000  0.000000  0.333021  1
  Ir  Ir2  1  0.000000  0.000000  0.666979  1
  Ir  Ir3  1  0.500002  0.499999  0.833005  1
  Os  Os4  1  0.000000  0.000000  0.000000  1
  Os  Os5  1  0.500002  0.499999  0.500000  1
  O  O6  1  0.696506  0.303494  0.000000  1
  O  O7  1  0.303493  0.696508  0.000000  1
  O  O8  1  0.189178  0.189427  0.164811  1
  O  O9  1  0.810824  0.810575  0.164811  1
  O  O10  1  0.689166  0.310585  0.335210  1
  O  O11  1  0.310834  0.689415  0.335210  1
  O  O12  1  0.803476  0.803476  0.500000  1
  O  O13  1  0.196525  0.196525  0.500000  1
  O  O14  1  0.689415  0.310834  0.664790  1
  O  O15  1  0.310585  0.689166  0.664790  1
  O  O16  1  0.189426  0.189176  0.835189  1
  O  O17  1  0.810573  0.810822  0.835189  1
