# generated using pymatgen
data_Y10CdTcAg2
_symmetry_space_group_name_H-M   'P 1'
_cell_length_a   9.54284088
_cell_length_b   9.54284015
_cell_length_c   9.84039100
_cell_angle_alpha   90.00000000
_cell_angle_beta   90.00000000
_cell_angle_gamma   119.95088962
_symmetry_Int_Tables_number   1
_chemical_formula_structural   Y10CdTcAg2
_chemical_formula_sum   'Y20 Cd2 Tc2 Ag4'
_cell_volume   776.44915962
_cell_formula_units_Z   2
loop_
 _symmetry_equiv_pos_site_id
 _symmetry_equiv_pos_as_xyz
  1  'x, y, z'
loop_
 _atom_site_type_symbol
 _atom_site_label
 _atom_site_symmetry_multiplicity
 _atom_site_fract_x
 _atom_site_fract_y
 _atom_site_fract_z
 _atom_site_occupancy
  Y  Y0  1  0.002083  0.997917  0.491303  1
  Y  Y1  1  0.002083  0.997917  0.008697  1
  Y  Y2  1  0.209432  0.790568  0.440891  1
  Y  Y3  1  0.209510  0.418913  0.442016  1
  Y  Y4  1  0.581087  0.790490  0.442016  1
  Y  Y5  1  0.791162  0.208838  0.559371  1
  Y  Y6  1  0.790294  0.581493  0.558756  1
  Y  Y7  1  0.418507  0.209706  0.558756  1
  Y  Y8  1  0.791162  0.208838  0.940629  1
  Y  Y9  1  0.790294  0.581493  0.941244  1
  Y  Y10  1  0.418507  0.209706  0.941244  1
  Y  Y11  1  0.209432  0.790568  0.059109  1
  Y  Y12  1  0.209510  0.418913  0.057984  1
  Y  Y13  1  0.581087  0.790490  0.057984  1
  Y  Y14  1  0.539762  0.460238  0.250000  1
  Y  Y15  1  0.539730  0.079966  0.250000  1
  Y  Y16  1  0.920034  0.460270  0.250000  1
  Y  Y17  1  0.459856  0.540144  0.750000  1
  Y  Y18  1  0.455313  0.920540  0.750000  1
  Y  Y19  1  0.079460  0.544687  0.750000  1
  Cd  Cd20  1  0.112799  0.225060  0.750000  1
  Cd  Cd21  1  0.774940  0.887201  0.750000  1
  Tc  Tc22  1  0.332835  0.667165  0.250000  1
  Tc  Tc23  1  0.666747  0.333253  0.750000  1
  Ag  Ag24  1  0.883729  0.116271  0.250000  1
  Ag  Ag25  1  0.883153  0.765757  0.250000  1
  Ag  Ag26  1  0.234243  0.116847  0.250000  1
  Ag  Ag27  1  0.113248  0.886752  0.750000  1
