# generated using pymatgen
data_Lu2Co9Si7Tc3
_symmetry_space_group_name_H-M   'P 1'
_cell_length_a   3.75093800
_cell_length_b   9.17902986
_cell_length_c   9.17903000
_cell_angle_alpha   120.00000051
_cell_angle_beta   90.00000000
_cell_angle_gamma   90.00000000
_symmetry_Int_Tables_number   1
_chemical_formula_structural   Lu2Co9Si7Tc3
_chemical_formula_sum   'Lu2 Co9 Si7 Tc3'
_cell_volume   273.69325023
_cell_formula_units_Z   1
loop_
 _symmetry_equiv_pos_site_id
 _symmetry_equiv_pos_as_xyz
  1  'x, y, z'
loop_
 _atom_site_type_symbol
 _atom_site_label
 _atom_site_symmetry_multiplicity
 _atom_site_fract_x
 _atom_site_fract_y
 _atom_site_fract_z
 _atom_site_occupancy
  Lu  Lu0  1  0.000000  0.666667  0.333333  1
  Lu  Lu1  1  0.500000  0.333333  0.666667  1
  Co  Co2  1  0.000000  0.569092  0.945270  1
  Co  Co3  1  0.000000  0.376178  0.430908  1
  Co  Co4  1  0.000000  0.054730  0.623822  1
  Co  Co5  1  0.000000  0.874568  0.156227  1
  Co  Co6  1  0.000000  0.281659  0.125432  1
  Co  Co7  1  0.000000  0.843773  0.718341  1
  Co  Co8  1  0.500000  0.948779  0.384716  1
  Co  Co9  1  0.500000  0.435936  0.051221  1
  Co  Co10  1  0.500000  0.615284  0.564064  1
  Si  Si11  1  0.000000  0.000000  0.000000  1
  Si  Si12  1  0.500000  0.709917  0.113672  1
  Si  Si13  1  0.500000  0.403755  0.290083  1
  Si  Si14  1  0.500000  0.886328  0.596245  1
  Si  Si15  1  0.000000  0.590513  0.703671  1
  Si  Si16  1  0.000000  0.113158  0.409487  1
  Si  Si17  1  0.000000  0.296329  0.886842  1
  Tc  Tc18  1  0.500000  0.783861  0.895983  1
  Tc  Tc19  1  0.500000  0.112122  0.216139  1
  Tc  Tc20  1  0.500000  0.104017  0.887878  1
