# generated using pymatgen
data_Sr2SiSe3F2
_symmetry_space_group_name_H-M   'P 1'
_cell_length_a   6.04527800
_cell_length_b   18.74374700
_cell_length_c   6.24099900
_cell_angle_alpha   90.00000000
_cell_angle_beta   90.00000000
_cell_angle_gamma   90.00000000
_symmetry_Int_Tables_number   1
_chemical_formula_structural   Sr2SiSe3F2
_chemical_formula_sum   'Sr8 Si4 Se12 F8'
_cell_volume   707.17484484
_cell_formula_units_Z   4
loop_
 _symmetry_equiv_pos_site_id
 _symmetry_equiv_pos_as_xyz
  1  'x, y, z'
loop_
 _atom_site_type_symbol
 _atom_site_label
 _atom_site_symmetry_multiplicity
 _atom_site_fract_x
 _atom_site_fract_y
 _atom_site_fract_z
 _atom_site_occupancy
  Sr  Sr0  1  0.746276  0.323040  0.006406  1
  Sr  Sr1  1  0.746276  0.676960  0.006406  1
  Sr  Sr2  1  0.246276  0.323040  0.493594  1
  Sr  Sr3  1  0.246276  0.676960  0.493594  1
  Sr  Sr4  1  0.753726  0.176960  0.506408  1
  Sr  Sr5  1  0.753726  0.823040  0.506408  1
  Sr  Sr6  1  0.253725  0.176960  0.993594  1
  Sr  Sr7  1  0.253725  0.823040  0.993594  1
  Si  Si8  1  0.353136  0.500000  0.102242  1
  Si  Si9  1  0.853136  0.500000  0.397761  1
  Si  Si10  1  0.146865  0.000000  0.602241  1
  Si  Si11  1  0.646864  0.000000  0.897760  1
  Se  Se12  1  0.753580  0.108389  0.017978  1
  Se  Se13  1  0.753580  0.891611  0.017978  1
  Se  Se14  1  0.740039  0.500000  0.040840  1
  Se  Se15  1  0.240038  0.500000  0.459160  1
  Se  Se16  1  0.253579  0.108389  0.482024  1
  Se  Se17  1  0.253579  0.891611  0.482024  1
  Se  Se18  1  0.746423  0.391610  0.517979  1
  Se  Se19  1  0.746423  0.608390  0.517979  1
  Se  Se20  1  0.759963  0.000000  0.540839  1
  Se  Se21  1  0.259962  0.000000  0.959162  1
  Se  Se22  1  0.246422  0.391610  0.982022  1
  Se  Se23  1  0.246422  0.608390  0.982022  1
  F  F24  1  0.998215  0.248366  0.246480  1
  F  F25  1  0.998215  0.751634  0.246480  1
  F  F26  1  0.498215  0.248366  0.253522  1
  F  F27  1  0.498215  0.751634  0.253522  1
  F  F28  1  0.501785  0.251633  0.746480  1
  F  F29  1  0.501785  0.748367  0.746480  1
  F  F30  1  0.001786  0.251633  0.753521  1
  F  F31  1  0.001786  0.748367  0.753521  1
