# generated using pymatgen
data_Mg2P7(IrRu5)2
_symmetry_space_group_name_H-M   'P 1'
_cell_length_a   9.36340496
_cell_length_b   9.45735202
_cell_length_c   3.91859800
_cell_angle_alpha   90.00000000
_cell_angle_beta   90.00000000
_cell_angle_gamma   120.42101052
_symmetry_Int_Tables_number   1
_chemical_formula_structural   Mg2P7(IrRu5)2
_chemical_formula_sum   'Mg2 P7 Ir2 Ru10'
_cell_volume   299.23100091
_cell_formula_units_Z   1
loop_
 _symmetry_equiv_pos_site_id
 _symmetry_equiv_pos_as_xyz
  1  'x, y, z'
loop_
 _atom_site_type_symbol
 _atom_site_label
 _atom_site_symmetry_multiplicity
 _atom_site_fract_x
 _atom_site_fract_y
 _atom_site_fract_z
 _atom_site_occupancy
  Mg  Mg0  1  0.669195  0.335126  0.500000  1
  Mg  Mg1  1  0.331319  0.665913  0.000000  1
  P  P2  1  0.599670  0.718313  0.500000  1
  P  P3  1  0.999396  0.000513  0.000000  1
  P  P4  1  0.276330  0.877633  0.500000  1
  P  P5  1  0.113936  0.401138  0.500000  1
  P  P6  1  0.884141  0.576116  0.000000  1
  P  P7  1  0.426112  0.303321  0.000000  1
  P  P8  1  0.699377  0.119386  0.000000  1
  Ir  Ir9  1  0.546867  0.939611  0.500000  1
  Ir  Ir10  1  0.389629  0.452159  0.500000  1
  Ru  Ru11  1  0.917006  0.122940  0.500000  1
  Ru  Ru12  1  0.212246  0.086239  0.500000  1
  Ru  Ru13  1  0.876017  0.794103  0.500000  1
  Ru  Ru14  1  0.723355  0.889002  0.000000  1
  Ru  Ru15  1  0.109906  0.838889  0.000000  1
  Ru  Ru16  1  0.166644  0.272422  0.000000  1
  Ru  Ru17  1  0.434768  0.069745  0.000000  1
  Ru  Ru18  1  0.936050  0.362547  0.000000  1
  Ru  Ru19  1  0.637375  0.568211  0.000000  1
  Ru  Ru20  1  0.050661  0.606672  0.500000  1
