# generated using pymatgen
data_Al3SiNi4
_symmetry_space_group_name_H-M   'P 1'
_cell_length_a   4.57963752
_cell_length_b   4.57963847
_cell_length_c   4.57963741
_cell_angle_alpha   90.89717510
_cell_angle_beta   90.89717145
_cell_angle_gamma   90.89717820
_symmetry_Int_Tables_number   1
_chemical_formula_structural   Al3SiNi4
_chemical_formula_sum   'Al3 Si1 Ni4'
_cell_volume   96.01342253
_cell_formula_units_Z   1
loop_
 _symmetry_equiv_pos_site_id
 _symmetry_equiv_pos_as_xyz
  1  'x, y, z'
loop_
 _atom_site_type_symbol
 _atom_site_label
 _atom_site_symmetry_multiplicity
 _atom_site_fract_x
 _atom_site_fract_y
 _atom_site_fract_z
 _atom_site_occupancy
  Al  Al0  1  0.342304  0.156649  0.649781  1
  Al  Al1  1  0.156649  0.649781  0.342304  1
  Al  Al2  1  0.649781  0.342304  0.156649  1
  Si  Si3  1  0.844103  0.844103  0.844103  1
  Ni  Ni4  1  0.138926  0.138926  0.138926  1
  Ni  Ni5  1  0.656582  0.853465  0.358191  1
  Ni  Ni6  1  0.853465  0.358191  0.656582  1
  Ni  Ni7  1  0.358191  0.656582  0.853465  1
