# generated using pymatgen
data_ZrZn2Ni2Au
_symmetry_space_group_name_H-M   'P 1'
_cell_length_a   5.10261147
_cell_length_b   5.00647510
_cell_length_c   5.00647431
_cell_angle_alpha   60.47311339
_cell_angle_beta   59.36272820
_cell_angle_gamma   59.36272440
_symmetry_Int_Tables_number   1
_chemical_formula_structural   ZrZn2Ni2Au
_chemical_formula_sum   'Zr1 Zn2 Ni2 Au1'
_cell_volume   89.86451252
_cell_formula_units_Z   1
loop_
 _symmetry_equiv_pos_site_id
 _symmetry_equiv_pos_as_xyz
  1  'x, y, z'
loop_
 _atom_site_type_symbol
 _atom_site_label
 _atom_site_symmetry_multiplicity
 _atom_site_fract_x
 _atom_site_fract_y
 _atom_site_fract_z
 _atom_site_occupancy
  Zr  Zr0  1  0.988774  0.011226  0.011226  1
  Zn  Zn1  1  0.378516  0.869959  0.373009  1
  Zn  Zn2  1  0.378516  0.373009  0.869959  1
  Ni  Ni3  1  0.878446  0.371584  0.371584  1
  Ni  Ni4  1  0.378385  0.371584  0.371584  1
  Au  Au5  1  0.747362  0.752638  0.752638  1
