# generated using pymatgen
data_La8Pr11LuPb16
_symmetry_space_group_name_H-M   'P 1'
_cell_length_a   8.50455800
_cell_length_b   8.58748774
_cell_length_c   16.25388500
_cell_angle_alpha   90.00000000
_cell_angle_beta   90.00000000
_cell_angle_gamma   90.03642916
_symmetry_Int_Tables_number   1
_chemical_formula_structural   La8Pr11LuPb16
_chemical_formula_sum   'La8 Pr11 Lu1 Pb16'
_cell_volume   1187.06628969
_cell_formula_units_Z   1
loop_
 _symmetry_equiv_pos_site_id
 _symmetry_equiv_pos_as_xyz
  1  'x, y, z'
loop_
 _atom_site_type_symbol
 _atom_site_label
 _atom_site_symmetry_multiplicity
 _atom_site_fract_x
 _atom_site_fract_y
 _atom_site_fract_z
 _atom_site_occupancy
  La  La0  1  0.478092  0.679639  0.598167  1
  La  La1  1  0.978221  0.820030  0.902558  1
  La  La2  1  0.522697  0.318372  0.098821  1
  La  La3  1  0.021437  0.179144  0.400998  1
  La  La4  1  0.522697  0.318372  0.401179  1
  La  La5  1  0.021437  0.179144  0.099002  1
  La  La6  1  0.478092  0.679639  0.901833  1
  La  La7  1  0.978221  0.820030  0.597442  1
  Pr  Pr8  1  0.630741  0.156568  0.618321  1
  Pr  Pr9  1  0.131024  0.343187  0.880436  1
  Pr  Pr10  1  0.370342  0.843808  0.120194  1
  Pr  Pr11  1  0.867496  0.657489  0.379559  1
  Pr  Pr12  1  0.370342  0.843808  0.379806  1
  Pr  Pr13  1  0.867496  0.657489  0.120441  1
  Pr  Pr14  1  0.630741  0.156568  0.881679  1
  Pr  Pr15  1  0.131024  0.343187  0.619564  1
  Pr  Pr16  1  0.800801  0.497405  0.750000  1
  Pr  Pr17  1  0.299755  0.003591  0.750000  1
  Pr  Pr18  1  0.199997  0.501841  0.250000  1
  Lu  Lu19  1  0.702824  0.994846  0.250000  1
  Pb  Pb20  1  0.711913  0.964835  0.452587  1
  Pb  Pb21  1  0.211430  0.538187  0.044088  1
  Pb  Pb22  1  0.287577  0.038037  0.956875  1
  Pb  Pb23  1  0.788263  0.462574  0.543178  1
  Pb  Pb24  1  0.287577  0.038037  0.543125  1
  Pb  Pb25  1  0.788263  0.462574  0.956822  1
  Pb  Pb26  1  0.711913  0.964835  0.047413  1
  Pb  Pb27  1  0.211430  0.538187  0.455912  1
  Pb  Pb28  1  0.435830  0.377003  0.750000  1
  Pb  Pb29  1  0.933881  0.122575  0.750000  1
  Pb  Pb30  1  0.566036  0.625487  0.250000  1
  Pb  Pb31  1  0.061513  0.879467  0.250000  1
  Pb  Pb32  1  0.670306  0.852480  0.750000  1
  Pb  Pb33  1  0.170966  0.648862  0.750000  1
  Pb  Pb34  1  0.332097  0.146960  0.250000  1
  Pb  Pb35  1  0.827530  0.345741  0.250000  1
