# generated using pymatgen
data_Zr6Be17Ni6
_symmetry_space_group_name_H-M   'P 1'
_cell_length_a   7.78835748
_cell_length_b   7.78835763
_cell_length_c   7.78835758
_cell_angle_alpha   59.96898200
_cell_angle_beta   59.96898264
_cell_angle_gamma   59.96898778
_symmetry_Int_Tables_number   1
_chemical_formula_structural   Zr6Be17Ni6
_chemical_formula_sum   'Zr6 Be17 Ni6'
_cell_volume   333.82363453
_cell_formula_units_Z   1
loop_
 _symmetry_equiv_pos_site_id
 _symmetry_equiv_pos_as_xyz
  1  'x, y, z'
loop_
 _atom_site_type_symbol
 _atom_site_label
 _atom_site_symmetry_multiplicity
 _atom_site_fract_x
 _atom_site_fract_y
 _atom_site_fract_z
 _atom_site_occupancy
  Zr  Zr0  1  0.702981  0.291718  0.291718  1
  Zr  Zr1  1  0.297019  0.708282  0.708282  1
  Zr  Zr2  1  0.291718  0.702981  0.291718  1
  Zr  Zr3  1  0.708282  0.297019  0.708282  1
  Zr  Zr4  1  0.291718  0.291718  0.702981  1
  Zr  Zr5  1  0.708282  0.708282  0.297019  1
  Be  Be6  1  0.322316  0.322316  0.322316  1
  Be  Be7  1  0.677684  0.677684  0.677684  1
  Be  Be8  1  0.323338  0.323338  0.033018  1
  Be  Be9  1  0.323338  0.033018  0.323338  1
  Be  Be10  1  0.676662  0.676662  0.966982  1
  Be  Be11  1  0.676662  0.966982  0.676662  1
  Be  Be12  1  0.033018  0.323338  0.323338  1
  Be  Be13  1  0.966982  0.676662  0.676662  1
  Be  Be14  1  0.500000  0.000000  0.000000  1
  Be  Be15  1  0.000000  0.500000  0.500000  1
  Be  Be16  1  0.000000  0.500000  0.000000  1
  Be  Be17  1  0.500000  0.000000  0.500000  1
  Be  Be18  1  0.000000  0.000000  0.500000  1
  Be  Be19  1  0.500000  0.500000  0.000000  1
  Be  Be20  1  0.000000  0.000000  0.000000  1
  Be  Be21  1  0.124450  0.124450  0.124450  1
  Be  Be22  1  0.875550  0.875550  0.875550  1
  Ni  Ni23  1  0.119740  0.119740  0.632301  1
  Ni  Ni24  1  0.119740  0.632301  0.119740  1
  Ni  Ni25  1  0.880260  0.880260  0.367699  1
  Ni  Ni26  1  0.880260  0.367699  0.880260  1
  Ni  Ni27  1  0.632301  0.119740  0.119740  1
  Ni  Ni28  1  0.367699  0.880260  0.880260  1
