# generated using pymatgen
data_TbDyGe5(AsRh6)2
_symmetry_space_group_name_H-M   'P 1'
_cell_length_a   9.97441944
_cell_length_b   9.98407499
_cell_length_c   3.92539038
_cell_angle_alpha   90.02676165
_cell_angle_beta   89.90184793
_cell_angle_gamma   119.87130366
_symmetry_Int_Tables_number   1
_chemical_formula_structural   TbDyGe5(AsRh6)2
_chemical_formula_sum   'Tb1 Dy1 Ge5 As2 Rh12'
_cell_volume   338.97682907
_cell_formula_units_Z   1
loop_
 _symmetry_equiv_pos_site_id
 _symmetry_equiv_pos_as_xyz
  1  'x, y, z'
loop_
 _atom_site_type_symbol
 _atom_site_label
 _atom_site_symmetry_multiplicity
 _atom_site_fract_x
 _atom_site_fract_y
 _atom_site_fract_z
 _atom_site_occupancy
  Tb  Tb0  1  0.331882  0.664492  0.749484  1
  Dy  Dy1  1  0.668610  0.334049  0.251771  1
  Ge  Ge2  1  0.999024  0.000543  0.587944  1
  Ge  Ge3  1  0.884967  0.596912  0.750705  1
  Ge  Ge4  1  0.404563  0.288330  0.751264  1
  Ge  Ge5  1  0.714049  0.117263  0.750727  1
  Ge  Ge6  1  0.112985  0.403039  0.251386  1
  As  As7  1  0.594692  0.709027  0.249588  1
  As  As8  1  0.289013  0.886075  0.249685  1
  Rh  Rh9  1  0.619752  0.555031  0.751665  1
  Rh  Rh10  1  0.446277  0.064306  0.751730  1
  Rh  Rh11  1  0.937924  0.381767  0.752332  1
  Rh  Rh12  1  0.382896  0.443641  0.249635  1
  Rh  Rh13  1  0.554216  0.936760  0.249880  1
  Rh  Rh14  1  0.062098  0.620093  0.249155  1
  Rh  Rh15  1  0.121941  0.852363  0.749875  1
  Rh  Rh16  1  0.148402  0.269330  0.750052  1
  Rh  Rh17  1  0.726772  0.876473  0.748914  1
  Rh  Rh18  1  0.883404  0.139169  0.251569  1
  Rh  Rh19  1  0.857951  0.745105  0.253083  1
  Rh  Rh20  1  0.258580  0.116232  0.253839  1
