# generated using pymatgen
data_YEr5(MoO6)2
_symmetry_space_group_name_H-M   'P 1'
_cell_length_a   6.58578507
_cell_length_b   6.58825271
_cell_length_c   6.58636000
_cell_angle_alpha   92.10972061
_cell_angle_beta   92.08212204
_cell_angle_gamma   92.07580508
_symmetry_Int_Tables_number   1
_chemical_formula_structural   YEr5(MoO6)2
_chemical_formula_sum   'Y1 Er5 Mo2 O12'
_cell_volume   285.19019831
_cell_formula_units_Z   1
loop_
 _symmetry_equiv_pos_site_id
 _symmetry_equiv_pos_as_xyz
  1  'x, y, z'
loop_
 _atom_site_type_symbol
 _atom_site_label
 _atom_site_symmetry_multiplicity
 _atom_site_fract_x
 _atom_site_fract_y
 _atom_site_fract_z
 _atom_site_occupancy
  Y  Y0  1  0.560331  0.253120  0.068763  1
  Er  Er1  1  0.746971  0.930532  0.440250  1
  Er  Er2  1  0.931602  0.439984  0.746539  1
  Er  Er3  1  0.439258  0.746969  0.930681  1
  Er  Er4  1  0.252632  0.068592  0.560063  1
  Er  Er5  1  0.068975  0.560935  0.253213  1
  Mo  Mo6  1  0.499739  0.500670  0.499868  1
  Mo  Mo7  1  0.999861  0.999230  0.999800  1
  O  O8  1  0.598192  0.468766  0.811327  1
  O  O9  1  0.466683  0.812576  0.597386  1
  O  O10  1  0.812491  0.597479  0.466589  1
  O  O11  1  0.401379  0.535863  0.188370  1
  O  O12  1  0.533416  0.187135  0.405450  1
  O  O13  1  0.187469  0.402478  0.533319  1
  O  O14  1  0.070046  0.908854  0.311649  1
  O  O15  1  0.911583  0.311811  0.069669  1
  O  O16  1  0.688905  0.927534  0.091775  1
  O  O17  1  0.091044  0.688088  0.929825  1
  O  O18  1  0.929606  0.091317  0.688403  1
  O  O19  1  0.309815  0.068067  0.907061  1
