# generated using pymatgen
data_YHf2Al6VCu2
_symmetry_space_group_name_H-M   'P 1'
_cell_length_a   8.96395347
_cell_length_b   8.96395310
_cell_length_c   8.96395402
_cell_angle_alpha   34.25877569
_cell_angle_beta   34.25877859
_cell_angle_gamma   34.25877245
_symmetry_Int_Tables_number   1
_chemical_formula_structural   YHf2Al6VCu2
_chemical_formula_sum   'Y1 Hf2 Al6 V1 Cu2'
_cell_volume   203.54414510
_cell_formula_units_Z   1
loop_
 _symmetry_equiv_pos_site_id
 _symmetry_equiv_pos_as_xyz
  1  'x, y, z'
loop_
 _atom_site_type_symbol
 _atom_site_label
 _atom_site_symmetry_multiplicity
 _atom_site_fract_x
 _atom_site_fract_y
 _atom_site_fract_z
 _atom_site_occupancy
  Y  Y0  1  0.000000  0.000000  0.000000  1
  Hf  Hf1  1  0.853774  0.853774  0.853774  1
  Hf  Hf2  1  0.146226  0.146226  0.146226  1
  Al  Al3  1  0.416950  0.416950  0.916002  1
  Al  Al4  1  0.916002  0.416950  0.416950  1
  Al  Al5  1  0.416950  0.916002  0.416950  1
  Al  Al6  1  0.583050  0.083998  0.583050  1
  Al  Al7  1  0.083998  0.583050  0.583050  1
  Al  Al8  1  0.583050  0.583050  0.083998  1
  V  V9  1  0.500000  0.500000  0.500000  1
  Cu  Cu10  1  0.668092  0.668092  0.668092  1
  Cu  Cu11  1  0.331908  0.331908  0.331908  1
