# generated using pymatgen
data_K2Mo(PO4)2
_symmetry_space_group_name_H-M   'P 1'
_cell_length_a   5.10619600
_cell_length_b   5.10620100
_cell_length_c   9.17557800
_cell_angle_alpha   90.00015631
_cell_angle_beta   89.99993141
_cell_angle_gamma   120.00053378
_symmetry_Int_Tables_number   1
_chemical_formula_structural   K2Mo(PO4)2
_chemical_formula_sum   'K2 Mo1 P2 O8'
_cell_volume   207.18443001
_cell_formula_units_Z   1
loop_
 _symmetry_equiv_pos_site_id
 _symmetry_equiv_pos_as_xyz
  1  'x, y, z'
loop_
 _atom_site_type_symbol
 _atom_site_label
 _atom_site_symmetry_multiplicity
 _atom_site_fract_x
 _atom_site_fract_y
 _atom_site_fract_z
 _atom_site_occupancy
  K  K0  1  0.333334  0.666668  0.147064  1
  K  K1  1  0.666666  0.333332  0.852936  1
  Mo  Mo2  1  0.000000  0.000000  0.500000  1
  P  P3  1  0.333330  0.666665  0.689515  1
  P  P4  1  0.666670  0.333335  0.310485  1
  O  O5  1  0.073848  0.717777  0.633224  1
  O  O6  1  0.282218  0.356058  0.633221  1
  O  O7  1  0.666660  0.333332  0.144014  1
  O  O8  1  0.643941  0.926158  0.633218  1
  O  O9  1  0.717782  0.643942  0.366779  1
  O  O10  1  0.926152  0.282223  0.366776  1
  O  O11  1  0.333340  0.666668  0.855986  1
  O  O12  1  0.356059  0.073842  0.366782  1
