# generated using pymatgen
data_Nd2SiAs5Pd21
_symmetry_space_group_name_H-M   'P 1'
_cell_length_a   8.87693679
_cell_length_b   8.84478192
_cell_length_c   8.84478166
_cell_angle_alpha   60.24066488
_cell_angle_beta   59.87967297
_cell_angle_gamma   59.87966348
_symmetry_Int_Tables_number   1
_chemical_formula_structural   Nd2SiAs5Pd21
_chemical_formula_sum   'Nd2 Si1 As5 Pd21'
_cell_volume   491.03320130
_cell_formula_units_Z   1
loop_
 _symmetry_equiv_pos_site_id
 _symmetry_equiv_pos_as_xyz
  1  'x, y, z'
loop_
 _atom_site_type_symbol
 _atom_site_label
 _atom_site_symmetry_multiplicity
 _atom_site_fract_x
 _atom_site_fract_y
 _atom_site_fract_z
 _atom_site_occupancy
  Nd  Nd0  1  0.750258  0.749742  0.749742  1
  Nd  Nd1  1  0.250258  0.249742  0.249742  1
  Si  Si2  1  0.261607  0.738393  0.738393  1
  As  As3  1  0.738495  0.738301  0.261505  1
  As  As4  1  0.261699  0.738301  0.261505  1
  As  As5  1  0.738463  0.261537  0.261537  1
  As  As6  1  0.261699  0.261505  0.738301  1
  As  As7  1  0.738495  0.261505  0.738301  1
  Pd  Pd8  1  0.001045  0.998955  0.998955  1
  Pd  Pd9  1  0.615112  0.615873  0.153903  1
  Pd  Pd10  1  0.615112  0.153903  0.615873  1
  Pd  Pd11  1  0.155042  0.618047  0.618047  1
  Pd  Pd12  1  0.608866  0.618047  0.618047  1
  Pd  Pd13  1  0.381953  0.391134  0.844958  1
  Pd  Pd14  1  0.381953  0.844958  0.391134  1
  Pd  Pd15  1  0.846097  0.384888  0.384888  1
  Pd  Pd16  1  0.384127  0.384888  0.384888  1
  Pd  Pd17  1  0.999359  0.000641  0.348743  1
  Pd  Pd18  1  0.651257  0.000641  0.348743  1
  Pd  Pd19  1  0.001112  0.651517  0.346259  1
  Pd  Pd20  1  0.651257  0.348743  0.000641  1
  Pd  Pd21  1  0.999359  0.348743  0.000641  1
  Pd  Pd22  1  0.001112  0.346259  0.651517  1
  Pd  Pd23  1  0.346076  0.653924  0.994057  1
  Pd  Pd24  1  0.346076  0.994057  0.653924  1
  Pd  Pd25  1  0.348483  0.998888  0.998888  1
  Pd  Pd26  1  0.005943  0.994057  0.653924  1
  Pd  Pd27  1  0.005943  0.653924  0.994057  1
  Pd  Pd28  1  0.653741  0.998888  0.998888  1
