# generated using pymatgen
data_Li4LaNd3As8
_symmetry_space_group_name_H-M   'P 1'
_cell_length_a   5.65947200
_cell_length_b   5.69365007
_cell_length_c   21.41348503
_cell_angle_alpha   90.01177835
_cell_angle_beta   90.00000000
_cell_angle_gamma   90.00000000
_symmetry_Int_Tables_number   1
_chemical_formula_structural   Li4LaNd3As8
_chemical_formula_sum   'Li8 La2 Nd6 As16'
_cell_volume   690.00785211
_cell_formula_units_Z   2
loop_
 _symmetry_equiv_pos_site_id
 _symmetry_equiv_pos_as_xyz
  1  'x, y, z'
loop_
 _atom_site_type_symbol
 _atom_site_label
 _atom_site_symmetry_multiplicity
 _atom_site_fract_x
 _atom_site_fract_y
 _atom_site_fract_z
 _atom_site_occupancy
  Li  Li0  1  0.500171  0.744480  0.751103  1
  Li  Li1  1  0.000007  0.255943  0.248914  1
  Li  Li2  1  0.500324  0.242663  0.751123  1
  Li  Li3  1  0.499993  0.255943  0.248914  1
  Li  Li4  1  0.999829  0.744480  0.751103  1
  Li  Li5  1  0.000186  0.757085  0.248939  1
  Li  Li6  1  0.999676  0.242663  0.751123  1
  Li  Li7  1  0.499814  0.757085  0.248939  1
  La  La8  1  0.250000  0.006223  0.383848  1
  La  La9  1  0.250000  0.493274  0.618734  1
  Nd  Nd10  1  0.750000  0.492981  0.883491  1
  Nd  Nd11  1  0.750000  0.505774  0.382403  1
  Nd  Nd12  1  0.750000  0.994281  0.615030  1
  Nd  Nd13  1  0.750000  0.006941  0.114437  1
  Nd  Nd14  1  0.250000  0.993092  0.885584  1
  Nd  Nd15  1  0.250000  0.507178  0.116667  1
  As  As16  1  0.250000  0.993446  0.671964  1
  As  As17  1  0.750000  0.006753  0.327830  1
  As  As18  1  0.750000  0.507502  0.170393  1
  As  As19  1  0.976441  0.732484  0.999522  1
  As  As20  1  0.023923  0.730974  0.500411  1
  As  As21  1  0.250000  0.506339  0.327551  1
  As  As22  1  0.974385  0.268926  0.499329  1
  As  As23  1  0.523559  0.732484  0.999522  1
  As  As24  1  0.525615  0.268926  0.499329  1
  As  As25  1  0.476077  0.730974  0.500411  1
  As  As26  1  0.023428  0.267521  0.000541  1
  As  As27  1  0.250000  0.007537  0.169853  1
  As  As28  1  0.250000  0.492707  0.829736  1
  As  As29  1  0.750000  0.493392  0.672539  1
  As  As30  1  0.750000  0.992429  0.830176  1
  As  As31  1  0.476572  0.267521  0.000541  1
