# generated using pymatgen
data_Pr2ErMg3Ga2Hg
_symmetry_space_group_name_H-M   'P 1'
_cell_length_a   4.49753900
_cell_length_b   7.58998317
_cell_length_c   7.51475194
_cell_angle_alpha   120.33172201
_cell_angle_beta   90.00000000
_cell_angle_gamma   90.00000000
_symmetry_Int_Tables_number   1
_chemical_formula_structural   Pr2ErMg3Ga2Hg
_chemical_formula_sum   'Pr2 Er1 Mg3 Ga2 Hg1'
_cell_volume   221.41121259
_cell_formula_units_Z   1
loop_
 _symmetry_equiv_pos_site_id
 _symmetry_equiv_pos_as_xyz
  1  'x, y, z'
loop_
 _atom_site_type_symbol
 _atom_site_label
 _atom_site_symmetry_multiplicity
 _atom_site_fract_x
 _atom_site_fract_y
 _atom_site_fract_z
 _atom_site_occupancy
  Pr  Pr0  1  0.000000  0.426316  0.424985  1
  Pr  Pr1  1  0.000000  0.001331  0.575015  1
  Er  Er2  1  0.000000  0.575859  0.000000  1
  Mg  Mg3  1  0.500000  0.751093  0.753032  1
  Mg  Mg4  1  0.500000  0.998061  0.246968  1
  Mg  Mg5  1  0.500000  0.251148  0.000000  1
  Ga  Ga6  1  0.500000  0.664730  0.325306  1
  Ga  Ga7  1  0.500000  0.339423  0.674694  1
  Hg  Hg8  1  0.000000  0.992039  0.000000  1
