# generated using pymatgen
data_TbY5Al24Pd3Ru5
_symmetry_space_group_name_H-M   'P 1'
_cell_length_a   8.85905217
_cell_length_b   8.85365562
_cell_length_c   9.53562184
_cell_angle_alpha   90.22811856
_cell_angle_beta   90.04844434
_cell_angle_gamma   119.63637191
_symmetry_Int_Tables_number   1
_chemical_formula_structural   TbY5Al24Pd3Ru5
_chemical_formula_sum   'Tb1 Y5 Al24 Pd3 Ru5'
_cell_volume   650.07506360
_cell_formula_units_Z   1
loop_
 _symmetry_equiv_pos_site_id
 _symmetry_equiv_pos_as_xyz
  1  'x, y, z'
loop_
 _atom_site_type_symbol
 _atom_site_label
 _atom_site_symmetry_multiplicity
 _atom_site_fract_x
 _atom_site_fract_y
 _atom_site_fract_z
 _atom_site_occupancy
  Tb  Tb0  1  0.187585  0.383521  0.752215  1
  Y  Y1  1  0.382476  0.188947  0.249635  1
  Y  Y2  1  0.809795  0.192512  0.249942  1
  Y  Y3  1  0.812117  0.615988  0.247838  1
  Y  Y4  1  0.617656  0.811147  0.750370  1
  Y  Y5  1  0.190075  0.807621  0.750059  1
  Al  Al6  1  0.438895  0.875461  0.246220  1
  Al  Al7  1  0.121825  0.559490  0.250562  1
  Al  Al8  1  0.437287  0.562819  0.250730  1
  Al  Al9  1  0.561081  0.124506  0.753806  1
  Al  Al10  1  0.877920  0.440528  0.749385  1
  Al  Al11  1  0.562867  0.437182  0.749244  1
  Al  Al12  1  0.157458  0.831577  0.421863  1
  Al  Al13  1  0.157405  0.324644  0.423345  1
  Al  Al14  1  0.677940  0.837766  0.420828  1
  Al  Al15  1  0.842492  0.168359  0.578208  1
  Al  Al16  1  0.842643  0.675344  0.576553  1
  Al  Al17  1  0.322104  0.162219  0.579097  1
  Al  Al18  1  0.836064  0.164031  0.923532  1
  Al  Al19  1  0.842817  0.675376  0.922961  1
  Al  Al20  1  0.324577  0.156934  0.923908  1
  Al  Al21  1  0.163917  0.835972  0.076372  1
  Al  Al22  1  0.157243  0.324572  0.077185  1
  Al  Al23  1  0.675462  0.843092  0.076150  1
  Al  Al24  1  0.327473  0.663930  0.526829  1
  Al  Al25  1  0.672589  0.336164  0.473040  1
  Al  Al26  1  0.669260  0.329386  0.025946  1
  Al  Al27  1  0.330766  0.670709  0.974214  1
  Al  Al28  1  0.002385  0.998881  0.249765  1
  Al  Al29  1  0.997569  0.001345  0.750245  1
  Pd  Pd30  1  0.500069  0.000057  0.499980  1
  Pd  Pd31  1  0.500097  0.500080  0.499943  1
  Pd  Pd32  1  0.500053  0.500038  0.000028  1
  Ru  Ru33  1  0.999977  0.999905  0.499917  1
  Ru  Ru34  1  0.999959  0.999897  0.000099  1
  Ru  Ru35  1  0.000022  0.500004  0.499973  1
  Ru  Ru36  1  0.500056  0.000051  0.000050  1
  Ru  Ru37  1  0.000022  0.499944  0.999964  1
