# generated using pymatgen
data_Dy3ErTm4(ReC2)4
_symmetry_space_group_name_H-M   'P 1'
_cell_length_a   5.06691800
_cell_length_b   6.56252755
_cell_length_c   9.78926482
_cell_angle_alpha   90.10117007
_cell_angle_beta   90.00000000
_cell_angle_gamma   90.00000000
_symmetry_Int_Tables_number   1
_chemical_formula_structural   Dy3ErTm4(ReC2)4
_chemical_formula_sum   'Dy3 Er1 Tm4 Re4 C8'
_cell_volume   325.51006072
_cell_formula_units_Z   1
loop_
 _symmetry_equiv_pos_site_id
 _symmetry_equiv_pos_as_xyz
  1  'x, y, z'
loop_
 _atom_site_type_symbol
 _atom_site_label
 _atom_site_symmetry_multiplicity
 _atom_site_fract_x
 _atom_site_fract_y
 _atom_site_fract_z
 _atom_site_occupancy
  Dy  Dy0  1  0.250000  0.965484  0.284774  1
  Dy  Dy1  1  0.750000  0.534302  0.784790  1
  Dy  Dy2  1  0.750000  0.034283  0.715009  1
  Er  Er3  1  0.250000  0.465512  0.215725  1
  Tm  Tm4  1  0.250000  0.824453  0.942667  1
  Tm  Tm5  1  0.250000  0.323963  0.557529  1
  Tm  Tm6  1  0.750000  0.176161  0.057845  1
  Tm  Tm7  1  0.750000  0.675704  0.442243  1
  Re  Re8  1  0.250000  0.280477  0.867481  1
  Re  Re9  1  0.250000  0.779734  0.632453  1
  Re  Re10  1  0.750000  0.719424  0.132559  1
  Re  Re11  1  0.750000  0.220011  0.367050  1
  C  C12  1  0.250000  0.048162  0.740388  1
  C  C13  1  0.250000  0.548161  0.759693  1
  C  C14  1  0.750000  0.951537  0.259615  1
  C  C15  1  0.750000  0.451535  0.239892  1
  C  C16  1  0.250000  0.671570  0.449030  1
  C  C17  1  0.250000  0.174393  0.051347  1
  C  C18  1  0.750000  0.327601  0.550519  1
  C  C19  1  0.750000  0.827534  0.949391  1
