# generated using pymatgen
data_Pr5Zr3(As3Pd4)4
_symmetry_space_group_name_H-M   'P 1'
_cell_length_a   13.62590800
_cell_length_b   13.62590809
_cell_length_c   4.17725400
_cell_angle_alpha   90.00000000
_cell_angle_beta   90.00000000
_cell_angle_gamma   120.00000465
_symmetry_Int_Tables_number   1
_chemical_formula_structural   Pr5Zr3(As3Pd4)4
_chemical_formula_sum   'Pr5 Zr3 As12 Pd16'
_cell_volume   671.66451163
_cell_formula_units_Z   1
loop_
 _symmetry_equiv_pos_site_id
 _symmetry_equiv_pos_as_xyz
  1  'x, y, z'
loop_
 _atom_site_type_symbol
 _atom_site_label
 _atom_site_symmetry_multiplicity
 _atom_site_fract_x
 _atom_site_fract_y
 _atom_site_fract_z
 _atom_site_occupancy
  Pr  Pr0  1  0.190720  0.190720  0.500000  1
  Pr  Pr1  1  0.809280  0.000000  0.500000  1
  Pr  Pr2  1  0.000000  0.809280  0.500000  1
  Pr  Pr3  1  0.333333  0.666667  0.000000  1
  Pr  Pr4  1  0.666667  0.333333  0.000000  1
  Zr  Zr5  1  0.559223  0.559223  0.000000  1
  Zr  Zr6  1  0.440777  0.000000  0.000000  1
  Zr  Zr7  1  0.000000  0.440777  0.000000  1
  As  As8  1  0.824302  0.824302  0.000000  1
  As  As9  1  0.175698  0.000000  0.000000  1
  As  As10  1  0.000000  0.175698  0.000000  1
  As  As11  1  0.165820  0.481258  0.500000  1
  As  As12  1  0.518742  0.684562  0.500000  1
  As  As13  1  0.315438  0.834180  0.500000  1
  As  As14  1  0.684562  0.518742  0.500000  1
  As  As15  1  0.834180  0.315438  0.500000  1
  As  As16  1  0.481258  0.165820  0.500000  1
  As  As17  1  0.362014  0.362014  0.000000  1
  As  As18  1  0.637986  0.000000  0.000000  1
  As  As19  1  0.000000  0.637986  0.000000  1
  Pd  Pd20  1  0.721782  0.721782  0.500000  1
  Pd  Pd21  1  0.278218  0.000000  0.500000  1
  Pd  Pd22  1  0.000000  0.278218  0.500000  1
  Pd  Pd23  1  0.181908  0.375225  0.000000  1
  Pd  Pd24  1  0.624775  0.806683  0.000000  1
  Pd  Pd25  1  0.193317  0.818092  0.000000  1
  Pd  Pd26  1  0.806683  0.624775  0.000000  1
  Pd  Pd27  1  0.818092  0.193317  0.000000  1
  Pd  Pd28  1  0.375225  0.181908  0.000000  1
  Pd  Pd29  1  0.358759  0.484005  0.500000  1
  Pd  Pd30  1  0.515995  0.874754  0.500000  1
  Pd  Pd31  1  0.125246  0.641241  0.500000  1
  Pd  Pd32  1  0.874754  0.515995  0.500000  1
  Pd  Pd33  1  0.641241  0.125246  0.500000  1
  Pd  Pd34  1  0.484005  0.358759  0.500000  1
  Pd  Pd35  1  0.000000  0.000000  0.000000  1
