# generated using pymatgen
data_Er17Lu3AlBi11
_symmetry_space_group_name_H-M   'P 1'
_cell_length_a   8.15040786
_cell_length_b   9.42175214
_cell_length_c   11.92789800
_cell_angle_alpha   90.00423861
_cell_angle_beta   89.66918256
_cell_angle_gamma   89.99113387
_symmetry_Int_Tables_number   1
_chemical_formula_structural   Er17Lu3AlBi11
_chemical_formula_sum   'Er17 Lu3 Al1 Bi11'
_cell_volume   915.94139705
_cell_formula_units_Z   1
loop_
 _symmetry_equiv_pos_site_id
 _symmetry_equiv_pos_as_xyz
  1  'x, y, z'
loop_
 _atom_site_type_symbol
 _atom_site_label
 _atom_site_symmetry_multiplicity
 _atom_site_fract_x
 _atom_site_fract_y
 _atom_site_fract_z
 _atom_site_occupancy
  Er  Er0  1  0.034322  0.250756  0.509720  1
  Er  Er1  1  0.978503  0.750381  0.489545  1
  Er  Er2  1  0.475344  0.750269  0.011291  1
  Er  Er3  1  0.525480  0.250297  0.988573  1
  Er  Er4  1  0.354546  0.251172  0.293151  1
  Er  Er5  1  0.648840  0.750816  0.715842  1
  Er  Er6  1  0.149948  0.750829  0.782724  1
  Er  Er7  1  0.851023  0.250888  0.215677  1
  Er  Er8  1  0.192132  0.250573  0.777054  1
  Er  Er9  1  0.810301  0.749922  0.217977  1
  Er  Er10  1  0.312119  0.749675  0.281375  1
  Er  Er11  1  0.678226  0.250275  0.712519  1
  Er  Er12  1  0.193086  0.064165  0.060396  1
  Er  Er13  1  0.808212  0.935057  0.941185  1
  Er  Er14  1  0.308778  0.947088  0.557850  1
  Er  Er15  1  0.806254  0.564224  0.940463  1
  Er  Er16  1  0.684640  0.070060  0.445168  1
  Lu  Lu17  1  0.194147  0.432728  0.061090  1
  Lu  Lu18  1  0.684746  0.427064  0.445306  1
  Lu  Lu19  1  0.307762  0.554204  0.558355  1
  Al  Al20  1  0.406348  0.252212  0.542141  1
  Bi  Bi21  1  0.594665  0.746882  0.456843  1
  Bi  Bi22  1  0.094399  0.746853  0.042617  1
  Bi  Bi23  1  0.909256  0.250443  0.955495  1
  Bi  Bi24  1  0.062680  0.003270  0.324197  1
  Bi  Bi25  1  0.935775  0.997379  0.675231  1
  Bi  Bi26  1  0.435721  0.996538  0.825054  1
  Bi  Bi27  1  0.936289  0.503502  0.675391  1
  Bi  Bi28  1  0.564036  0.004801  0.174746  1
  Bi  Bi29  1  0.061874  0.497315  0.323942  1
  Bi  Bi30  1  0.563907  0.495982  0.174786  1
  Bi  Bi31  1  0.436639  0.504382  0.824288  1
