# generated using pymatgen
data_Ac4Mg5Ge6
_symmetry_space_group_name_H-M   'P 1'
_cell_length_a   10.56187873
_cell_length_b   10.56187897
_cell_length_c   16.64183600
_cell_angle_alpha   90.00000000
_cell_angle_beta   90.00000000
_cell_angle_gamma   154.51932602
_symmetry_Int_Tables_number   1
_chemical_formula_structural   Ac4Mg5Ge6
_chemical_formula_sum   'Ac8 Mg10 Ge12'
_cell_volume   798.65772688
_cell_formula_units_Z   2
loop_
 _symmetry_equiv_pos_site_id
 _symmetry_equiv_pos_as_xyz
  1  'x, y, z'
loop_
 _atom_site_type_symbol
 _atom_site_label
 _atom_site_symmetry_multiplicity
 _atom_site_fract_x
 _atom_site_fract_y
 _atom_site_fract_z
 _atom_site_occupancy
  Ac  Ac0  1  0.015336  0.984664  0.763156  1
  Ac  Ac1  1  0.984664  0.015336  0.263156  1
  Ac  Ac2  1  0.034225  0.965775  0.502213  1
  Ac  Ac3  1  0.965775  0.034225  0.002213  1
  Ac  Ac4  1  0.165133  0.834867  0.963102  1
  Ac  Ac5  1  0.834867  0.165133  0.463102  1
  Ac  Ac6  1  0.176073  0.823927  0.321338  1
  Ac  Ac7  1  0.823927  0.176073  0.821338  1
  Mg  Mg8  1  0.155814  0.844186  0.641844  1
  Mg  Mg9  1  0.844186  0.155814  0.141844  1
  Mg  Mg10  1  0.301742  0.698258  0.644260  1
  Mg  Mg11  1  0.698258  0.301742  0.144260  1
  Mg  Mg12  1  0.339827  0.660173  0.000358  1
  Mg  Mg13  1  0.660173  0.339827  0.500358  1
  Mg  Mg14  1  0.441240  0.558760  0.597304  1
  Mg  Mg15  1  0.558760  0.441240  0.097304  1
  Mg  Mg16  1  0.649743  0.350257  0.783440  1
  Mg  Mg17  1  0.350257  0.649743  0.283440  1
  Ge  Ge18  1  0.112821  0.887179  0.144800  1
  Ge  Ge19  1  0.887179  0.112821  0.644800  1
  Ge  Ge20  1  0.222974  0.777026  0.782843  1
  Ge  Ge21  1  0.777026  0.222974  0.282843  1
  Ge  Ge22  1  0.229375  0.770625  0.502854  1
  Ge  Ge23  1  0.770625  0.229375  0.002854  1
  Ge  Ge24  1  0.433866  0.566134  0.866524  1
  Ge  Ge25  1  0.566134  0.433866  0.366524  1
  Ge  Ge26  1  0.554567  0.445433  0.912659  1
  Ge  Ge27  1  0.445433  0.554567  0.412659  1
  Ge  Ge28  1  0.574077  0.425923  0.637763  1
  Ge  Ge29  1  0.425923  0.574077  0.137763  1
