# generated using pymatgen
data_Pr2YCd3(IrO7)2
_symmetry_space_group_name_H-M   'P 1'
_cell_length_a   6.47608206
_cell_length_b   6.63357989
_cell_length_c   7.63886500
_cell_angle_alpha   90.00000000
_cell_angle_beta   90.00000000
_cell_angle_gamma   112.35080859
_symmetry_Int_Tables_number   1
_chemical_formula_structural   Pr2YCd3(IrO7)2
_chemical_formula_sum   'Pr2 Y1 Cd3 Ir2 O14'
_cell_volume   303.50872350
_cell_formula_units_Z   1
loop_
 _symmetry_equiv_pos_site_id
 _symmetry_equiv_pos_as_xyz
  1  'x, y, z'
loop_
 _atom_site_type_symbol
 _atom_site_label
 _atom_site_symmetry_multiplicity
 _atom_site_fract_x
 _atom_site_fract_y
 _atom_site_fract_z
 _atom_site_occupancy
  Pr  Pr0  1  0.996802  0.998674  0.999276  1
  Pr  Pr1  1  0.996802  0.998674  0.500724  1
  Y  Y2  1  0.053682  0.511447  0.250000  1
  Cd  Cd3  1  0.486343  0.988140  0.750000  1
  Cd  Cd4  1  0.514303  0.023283  0.250000  1
  Cd  Cd5  1  0.969799  0.491761  0.750000  1
  Ir  Ir6  1  0.501633  0.499832  0.998526  1
  Ir  Ir7  1  0.501633  0.499832  0.501474  1
  O  O8  1  0.590995  0.513041  0.750000  1
  O  O9  1  0.410057  0.486609  0.250000  1
  O  O10  1  0.848626  0.132738  0.750000  1
  O  O11  1  0.155430  0.873579  0.250000  1
  O  O12  1  0.119790  0.849224  0.750000  1
  O  O13  1  0.873920  0.148413  0.250000  1
  O  O14  1  0.429388  0.191589  0.997627  1
  O  O15  1  0.566317  0.806726  0.501512  1
  O  O16  1  0.182301  0.426784  0.974258  1
  O  O17  1  0.812086  0.567276  0.452158  1
  O  O18  1  0.429388  0.191589  0.502373  1
  O  O19  1  0.566317  0.806726  0.998488  1
  O  O20  1  0.812086  0.567276  0.047842  1
  O  O21  1  0.182301  0.426784  0.525742  1
