# generated using pymatgen
data_K4GaSb7Au8
_symmetry_space_group_name_H-M   'P 1'
_cell_length_a   4.80864000
_cell_length_b   8.89626678
_cell_length_c   12.45032907
_cell_angle_alpha   89.37512036
_cell_angle_beta   90.00000000
_cell_angle_gamma   90.00000000
_symmetry_Int_Tables_number   1
_chemical_formula_structural   K4GaSb7Au8
_chemical_formula_sum   'K4 Ga1 Sb7 Au8'
_cell_volume   532.58025797
_cell_formula_units_Z   1
loop_
 _symmetry_equiv_pos_site_id
 _symmetry_equiv_pos_as_xyz
  1  'x, y, z'
loop_
 _atom_site_type_symbol
 _atom_site_label
 _atom_site_symmetry_multiplicity
 _atom_site_fract_x
 _atom_site_fract_y
 _atom_site_fract_z
 _atom_site_occupancy
  K  K0  1  0.750000  0.743415  0.333179  1
  K  K1  1  0.250000  0.760370  0.840527  1
  K  K2  1  0.250000  0.257438  0.665513  1
  K  K3  1  0.750000  0.240371  0.163735  1
  Ga  Ga4  1  0.250000  0.388115  0.949830  1
  Sb  Sb5  1  0.250000  0.402535  0.342902  1
  Sb  Sb6  1  0.250000  0.907971  0.155750  1
  Sb  Sb7  1  0.750000  0.601417  0.039899  1
  Sb  Sb8  1  0.750000  0.598273  0.656969  1
  Sb  Sb9  1  0.750000  0.100740  0.848201  1
  Sb  Sb10  1  0.250000  0.891248  0.550977  1
  Sb  Sb11  1  0.750000  0.109026  0.454642  1
  Au  Au12  1  0.250000  0.090512  0.967236  1
  Au  Au13  1  0.750000  0.430424  0.847489  1
  Au  Au14  1  0.750000  0.933045  0.661339  1
  Au  Au15  1  0.250000  0.558545  0.147624  1
  Au  Au16  1  0.250000  0.071071  0.343723  1
  Au  Au17  1  0.750000  0.911783  0.033436  1
  Au  Au18  1  0.250000  0.582453  0.532275  1
  Au  Au19  1  0.750000  0.421248  0.464753  1
