# generated using pymatgen
data_YbHo11(Si3Ir)4
_symmetry_space_group_name_H-M   'P 1'
_cell_length_a   4.23077700
_cell_length_b   10.60298295
_cell_length_c   12.24873815
_cell_angle_alpha   90.07901176
_cell_angle_beta   90.00000000
_cell_angle_gamma   90.00000000
_symmetry_Int_Tables_number   1
_chemical_formula_structural   YbHo11(Si3Ir)4
_chemical_formula_sum   'Yb1 Ho11 Si12 Ir4'
_cell_volume   549.46386356
_cell_formula_units_Z   1
loop_
 _symmetry_equiv_pos_site_id
 _symmetry_equiv_pos_as_xyz
  1  'x, y, z'
loop_
 _atom_site_type_symbol
 _atom_site_label
 _atom_site_symmetry_multiplicity
 _atom_site_fract_x
 _atom_site_fract_y
 _atom_site_fract_z
 _atom_site_occupancy
  Yb  Yb0  1  0.750000  0.159486  0.698473  1
  Ho  Ho1  1  0.250000  0.880283  0.020634  1
  Ho  Ho2  1  0.250000  0.619648  0.520030  1
  Ho  Ho3  1  0.750000  0.119397  0.977293  1
  Ho  Ho4  1  0.750000  0.378375  0.480817  1
  Ho  Ho5  1  0.250000  0.919304  0.604801  1
  Ho  Ho6  1  0.250000  0.581051  0.103977  1
  Ho  Ho7  1  0.750000  0.081117  0.395570  1
  Ho  Ho8  1  0.750000  0.418703  0.895528  1
  Ho  Ho9  1  0.250000  0.659446  0.800837  1
  Ho  Ho10  1  0.250000  0.841311  0.300942  1
  Ho  Ho11  1  0.750000  0.339687  0.199087  1
  Si  Si12  1  0.250000  0.009954  0.821202  1
  Si  Si13  1  0.250000  0.488791  0.320763  1
  Si  Si14  1  0.750000  0.990550  0.178452  1
  Si  Si15  1  0.750000  0.510909  0.679196  1
  Si  Si16  1  0.250000  0.247335  0.841355  1
  Si  Si17  1  0.250000  0.253549  0.341287  1
  Si  Si18  1  0.750000  0.753882  0.159145  1
  Si  Si19  1  0.750000  0.747799  0.658954  1
  Si  Si20  1  0.250000  0.200096  0.541721  1
  Si  Si21  1  0.250000  0.299493  0.043741  1
  Si  Si22  1  0.750000  0.799349  0.456968  1
  Si  Si23  1  0.750000  0.700572  0.956641  1
  Ir  Ir24  1  0.250000  0.391757  0.681034  1
  Ir  Ir25  1  0.250000  0.110601  0.180861  1
  Ir  Ir26  1  0.750000  0.610551  0.319440  1
  Ir  Ir27  1  0.750000  0.887001  0.821249  1
