# generated using pymatgen
data_ThAl4Si2Rh
_symmetry_space_group_name_H-M   'P 1'
_cell_length_a   4.33134900
_cell_length_b   4.33134900
_cell_length_c   7.79057200
_cell_angle_alpha   90.00000000
_cell_angle_beta   90.00000000
_cell_angle_gamma   90.00000000
_symmetry_Int_Tables_number   1
_chemical_formula_structural   ThAl4Si2Rh
_chemical_formula_sum   'Th1 Al4 Si2 Rh1'
_cell_volume   146.15568166
_cell_formula_units_Z   1
loop_
 _symmetry_equiv_pos_site_id
 _symmetry_equiv_pos_as_xyz
  1  'x, y, z'
loop_
 _atom_site_type_symbol
 _atom_site_label
 _atom_site_symmetry_multiplicity
 _atom_site_fract_x
 _atom_site_fract_y
 _atom_site_fract_z
 _atom_site_occupancy
  Th  Th0  1  0.000000  0.000000  0.500000  1
  Al  Al1  1  0.000000  0.500000  0.169973  1
  Al  Al2  1  0.000000  0.500000  0.830027  1
  Al  Al3  1  0.500000  0.000000  0.169973  1
  Al  Al4  1  0.500000  0.000000  0.830027  1
  Si  Si5  1  0.500000  0.500000  0.353820  1
  Si  Si6  1  0.500000  0.500000  0.646180  1
  Rh  Rh7  1  0.000000  0.000000  0.000000  1
