# generated using pymatgen
data_YTm2Co9(GeB2)2
_symmetry_space_group_name_H-M   'P 1'
_cell_length_a   5.13351700
_cell_length_b   5.13351714
_cell_length_c   9.43106300
_cell_angle_alpha   90.00000000
_cell_angle_beta   90.00000000
_cell_angle_gamma   120.00000557
_symmetry_Int_Tables_number   1
_chemical_formula_structural   YTm2Co9(GeB2)2
_chemical_formula_sum   'Y1 Tm2 Co9 Ge2 B4'
_cell_volume   215.23915273
_cell_formula_units_Z   1
loop_
 _symmetry_equiv_pos_site_id
 _symmetry_equiv_pos_as_xyz
  1  'x, y, z'
loop_
 _atom_site_type_symbol
 _atom_site_label
 _atom_site_symmetry_multiplicity
 _atom_site_fract_x
 _atom_site_fract_y
 _atom_site_fract_z
 _atom_site_occupancy
  Y  Y0  1  0.000000  0.000000  0.000000  1
  Tm  Tm1  1  0.000000  0.000000  0.659866  1
  Tm  Tm2  1  0.000000  0.000000  0.340134  1
  Co  Co3  1  0.500000  0.500000  0.500000  1
  Co  Co4  1  0.500000  0.000000  0.500000  1
  Co  Co5  1  0.000000  0.500000  0.500000  1
  Co  Co6  1  0.500000  0.500000  0.796429  1
  Co  Co7  1  0.500000  0.000000  0.796429  1
  Co  Co8  1  0.000000  0.500000  0.796429  1
  Co  Co9  1  0.500000  0.500000  0.203571  1
  Co  Co10  1  0.500000  0.000000  0.203571  1
  Co  Co11  1  0.000000  0.500000  0.203571  1
  Ge  Ge12  1  0.666667  0.333333  0.000000  1
  Ge  Ge13  1  0.333333  0.666667  0.000000  1
  B  B14  1  0.666667  0.333333  0.651879  1
  B  B15  1  0.333333  0.666667  0.651879  1
  B  B16  1  0.333333  0.666667  0.348121  1
  B  B17  1  0.666667  0.333333  0.348121  1
