# generated using pymatgen
data_Lu12Co4RhPb
_symmetry_space_group_name_H-M   'P 1'
_cell_length_a   8.12847775
_cell_length_b   8.12847879
_cell_length_c   8.12847723
_cell_angle_alpha   111.20883275
_cell_angle_beta   110.94329458
_cell_angle_gamma   106.30723396
_symmetry_Int_Tables_number   1
_chemical_formula_structural   Lu12Co4RhPb
_chemical_formula_sum   'Lu12 Co4 Rh1 Pb1'
_cell_volume   412.49237823
_cell_formula_units_Z   1
loop_
 _symmetry_equiv_pos_site_id
 _symmetry_equiv_pos_as_xyz
  1  'x, y, z'
loop_
 _atom_site_type_symbol
 _atom_site_label
 _atom_site_symmetry_multiplicity
 _atom_site_fract_x
 _atom_site_fract_y
 _atom_site_fract_z
 _atom_site_occupancy
  Lu  Lu0  1  0.414268  0.217444  0.196824  1
  Lu  Lu1  1  0.585732  0.782556  0.803176  1
  Lu  Lu2  1  0.020620  0.217444  0.803176  1
  Lu  Lu3  1  0.979380  0.782556  0.196824  1
  Lu  Lu4  1  0.184459  0.284659  0.469118  1
  Lu  Lu5  1  0.815541  0.715341  0.530882  1
  Lu  Lu6  1  0.184459  0.715341  0.899799  1
  Lu  Lu7  1  0.815541  0.284659  0.100201  1
  Lu  Lu8  1  0.313889  0.620962  0.307072  1
  Lu  Lu9  1  0.686111  0.379038  0.692928  1
  Lu  Lu10  1  0.313889  0.006817  0.692928  1
  Lu  Lu11  1  0.686111  0.993183  0.307072  1
  Co  Co12  1  0.372592  0.000000  0.372592  1
  Co  Co13  1  0.627408  0.000000  0.627408  1
  Co  Co14  1  0.112914  0.612914  0.500000  1
  Co  Co15  1  0.887086  0.387086  0.500000  1
  Rh  Rh16  1  0.000000  0.000000  0.000000  1
  Pb  Pb17  1  0.500000  0.500000  0.000000  1
