# generated using pymatgen
data_AcYbSi6Pd20Pb
_symmetry_space_group_name_H-M   'P 1'
_cell_length_a   8.76576820
_cell_length_b   8.76576743
_cell_length_c   8.76576800
_cell_angle_alpha   59.99999787
_cell_angle_beta   60.00000075
_cell_angle_gamma   59.99999980
_symmetry_Int_Tables_number   1
_chemical_formula_structural   AcYbSi6Pd20Pb
_chemical_formula_sum   'Ac1 Yb1 Si6 Pd20 Pb1'
_cell_volume   476.27183019
_cell_formula_units_Z   1
loop_
 _symmetry_equiv_pos_site_id
 _symmetry_equiv_pos_as_xyz
  1  'x, y, z'
loop_
 _atom_site_type_symbol
 _atom_site_label
 _atom_site_symmetry_multiplicity
 _atom_site_fract_x
 _atom_site_fract_y
 _atom_site_fract_z
 _atom_site_occupancy
  Ac  Ac0  1  0.250000  0.250000  0.250000  1
  Yb  Yb1  1  0.000000  0.000000  0.000000  1
  Si  Si2  1  0.732280  0.267720  0.267720  1
  Si  Si3  1  0.267720  0.732280  0.732280  1
  Si  Si4  1  0.267720  0.732280  0.267720  1
  Si  Si5  1  0.732280  0.267720  0.732280  1
  Si  Si6  1  0.267720  0.267720  0.732280  1
  Si  Si7  1  0.732280  0.732280  0.267720  1
  Pd  Pd8  1  0.389247  0.389247  0.389247  1
  Pd  Pd9  1  0.619125  0.619125  0.619125  1
  Pd  Pd10  1  0.389247  0.389247  0.832260  1
  Pd  Pd11  1  0.389247  0.832260  0.389247  1
  Pd  Pd12  1  0.619125  0.619125  0.142622  1
  Pd  Pd13  1  0.619125  0.142622  0.619125  1
  Pd  Pd14  1  0.832260  0.389247  0.389247  1
  Pd  Pd15  1  0.142622  0.619125  0.619125  1
  Pd  Pd16  1  0.342544  0.000832  0.000832  1
  Pd  Pd17  1  0.655791  0.000832  0.000832  1
  Pd  Pd18  1  0.000832  0.342544  0.655791  1
  Pd  Pd19  1  0.000832  0.655791  0.342544  1
  Pd  Pd20  1  0.000832  0.342544  0.000832  1
  Pd  Pd21  1  0.655791  0.000832  0.342544  1
  Pd  Pd22  1  0.000832  0.655791  0.000832  1
  Pd  Pd23  1  0.342544  0.000832  0.655791  1
  Pd  Pd24  1  0.000832  0.000832  0.342544  1
  Pd  Pd25  1  0.000832  0.000832  0.655791  1
  Pd  Pd26  1  0.655791  0.342544  0.000832  1
  Pd  Pd27  1  0.342544  0.655791  0.000832  1
  Pb  Pb28  1  0.750000  0.750000  0.750000  1
