# generated using pymatgen
data_Ho12Si11Ni
_symmetry_space_group_name_H-M   'P 1'
_cell_length_a   3.84562600
_cell_length_b   5.67400154
_cell_length_c   23.63716221
_cell_angle_alpha   82.68027970
_cell_angle_beta   90.00000000
_cell_angle_gamma   90.00000000
_symmetry_Int_Tables_number   1
_chemical_formula_structural   Ho12Si11Ni
_chemical_formula_sum   'Ho12 Si11 Ni1'
_cell_volume   511.56180681
_cell_formula_units_Z   1
loop_
 _symmetry_equiv_pos_site_id
 _symmetry_equiv_pos_as_xyz
  1  'x, y, z'
loop_
 _atom_site_type_symbol
 _atom_site_label
 _atom_site_symmetry_multiplicity
 _atom_site_fract_x
 _atom_site_fract_y
 _atom_site_fract_z
 _atom_site_occupancy
  Ho  Ho0  1  0.500000  0.082245  0.059013  1
  Ho  Ho1  1  0.500000  0.090473  0.565822  1
  Ho  Ho2  1  0.000000  0.924010  0.440610  1
  Ho  Ho3  1  0.000000  0.916629  0.939417  1
  Ho  Ho4  1  0.500000  0.448748  0.393435  1
  Ho  Ho5  1  0.500000  0.440689  0.892597  1
  Ho  Ho6  1  0.000000  0.556496  0.105988  1
  Ho  Ho7  1  0.000000  0.556267  0.608905  1
  Ho  Ho8  1  0.500000  0.256660  0.226029  1
  Ho  Ho9  1  0.500000  0.244567  0.721931  1
  Ho  Ho10  1  0.000000  0.746958  0.273365  1
  Ho  Ho11  1  0.000000  0.736618  0.773465  1
  Si  Si12  1  0.500000  0.623282  0.011542  1
  Si  Si13  1  0.500000  0.626243  0.513386  1
  Si  Si14  1  0.000000  0.381978  0.488672  1
  Si  Si15  1  0.000000  0.376733  0.986459  1
  Si  Si16  1  0.500000  0.769359  0.178905  1
  Si  Si17  1  0.500000  0.777361  0.679485  1
  Si  Si18  1  0.000000  0.235441  0.320442  1
  Si  Si19  1  0.000000  0.222994  0.819014  1
  Si  Si20  1  0.500000  0.959803  0.346130  1
  Si  Si21  1  0.500000  0.953878  0.844917  1
  Si  Si22  1  0.000000  0.043813  0.153315  1
  Ni  Ni23  1  0.000000  0.028756  0.657152  1
