# generated using pymatgen
data_BaMnS6(O3F)6
_symmetry_space_group_name_H-M   'P 1'
_cell_length_a   7.76438146
_cell_length_b   7.76438179
_cell_length_c   7.76438163
_cell_angle_alpha   97.63953822
_cell_angle_beta   97.63953529
_cell_angle_gamma   97.63950842
_symmetry_Int_Tables_number   1
_chemical_formula_structural   BaMnS6(O3F)6
_chemical_formula_sum   'Ba1 Mn1 S6 O18 F6'
_cell_volume   454.37143475
_cell_formula_units_Z   1
loop_
 _symmetry_equiv_pos_site_id
 _symmetry_equiv_pos_as_xyz
  1  'x, y, z'
loop_
 _atom_site_type_symbol
 _atom_site_label
 _atom_site_symmetry_multiplicity
 _atom_site_fract_x
 _atom_site_fract_y
 _atom_site_fract_z
 _atom_site_occupancy
  Ba  Ba0  1  0.000000  0.000000  0.000000  1
  Mn  Mn1  1  0.500000  0.500000  0.500000  1
  S  S2  1  0.262420  0.551422  0.144563  1
  S  S3  1  0.551422  0.144563  0.262420  1
  S  S4  1  0.855435  0.737580  0.448577  1
  S  S5  1  0.144565  0.262420  0.551421  1
  S  S6  1  0.448577  0.855436  0.737580  1
  S  S7  1  0.737579  0.448577  0.855436  1
  O  O8  1  0.229793  0.372810  0.057582  1
  O  O9  1  0.140277  0.668553  0.102464  1
  O  O10  1  0.668555  0.102463  0.140276  1
  O  O11  1  0.372810  0.057582  0.229793  1
  O  O12  1  0.569433  0.342382  0.309181  1
  O  O13  1  0.897538  0.859723  0.331445  1
  O  O14  1  0.309181  0.569433  0.342382  1
  O  O15  1  0.057582  0.229792  0.372810  1
  O  O16  1  0.657619  0.690819  0.430567  1
  O  O17  1  0.342381  0.309181  0.569433  1
  O  O18  1  0.942419  0.770208  0.627189  1
  O  O19  1  0.690819  0.430567  0.657618  1
  O  O20  1  0.102463  0.140277  0.668554  1
  O  O21  1  0.430568  0.657618  0.690820  1
  O  O22  1  0.627190  0.942418  0.770208  1
  O  O23  1  0.331446  0.897537  0.859724  1
  O  O24  1  0.859724  0.331447  0.897536  1
  O  O25  1  0.770208  0.627190  0.942419  1
  F  F26  1  0.441851  0.636360  0.092520  1
  F  F27  1  0.907481  0.558150  0.363640  1
  F  F28  1  0.636361  0.092520  0.441851  1
  F  F29  1  0.363640  0.907481  0.558149  1
  F  F30  1  0.092520  0.441851  0.636361  1
  F  F31  1  0.558149  0.363640  0.907481  1
