# generated using pymatgen
data_Dy4Lu4Ga3Ir
_symmetry_space_group_name_H-M   'P 1'
_cell_length_a   9.91175200
_cell_length_b   9.91175148
_cell_length_c   7.04366500
_cell_angle_alpha   90.00000000
_cell_angle_beta   90.00000000
_cell_angle_gamma   119.99999507
_symmetry_Int_Tables_number   1
_chemical_formula_structural   Dy4Lu4Ga3Ir
_chemical_formula_sum   'Dy8 Lu8 Ga6 Ir2'
_cell_volume   599.28054225
_cell_formula_units_Z   2
loop_
 _symmetry_equiv_pos_site_id
 _symmetry_equiv_pos_as_xyz
  1  'x, y, z'
loop_
 _atom_site_type_symbol
 _atom_site_label
 _atom_site_symmetry_multiplicity
 _atom_site_fract_x
 _atom_site_fract_y
 _atom_site_fract_z
 _atom_site_occupancy
  Dy  Dy0  1  0.465743  0.534257  0.205893  1
  Dy  Dy1  1  0.068513  0.534257  0.205893  1
  Dy  Dy2  1  0.465743  0.931487  0.205893  1
  Dy  Dy3  1  0.534257  0.465743  0.705893  1
  Dy  Dy4  1  0.931487  0.465743  0.705893  1
  Dy  Dy5  1  0.534257  0.068513  0.705893  1
  Dy  Dy6  1  0.000000  0.000000  0.232942  1
  Dy  Dy7  1  0.000000  0.000000  0.732942  1
  Lu  Lu8  1  0.172110  0.827890  0.513066  1
  Lu  Lu9  1  0.655780  0.827890  0.513066  1
  Lu  Lu10  1  0.172110  0.344220  0.513066  1
  Lu  Lu11  1  0.827890  0.172110  0.013066  1
  Lu  Lu12  1  0.344220  0.172110  0.013066  1
  Lu  Lu13  1  0.827890  0.655780  0.013066  1
  Lu  Lu14  1  0.333333  0.666667  0.833149  1
  Lu  Lu15  1  0.666667  0.333333  0.333149  1
  Ga  Ga16  1  0.163703  0.836297  0.955558  1
  Ga  Ga17  1  0.672593  0.836297  0.955558  1
  Ga  Ga18  1  0.163703  0.327407  0.955558  1
  Ga  Ga19  1  0.836297  0.163703  0.455558  1
  Ga  Ga20  1  0.327407  0.163703  0.455558  1
  Ga  Ga21  1  0.836297  0.672593  0.455558  1
  Ir  Ir22  1  0.333333  0.666667  0.447774  1
  Ir  Ir23  1  0.666667  0.333333  0.947774  1
