# generated using pymatgen
data_Na2Co9Mo3P7
_symmetry_space_group_name_H-M   'P 1'
_cell_length_a   3.68565800
_cell_length_b   9.04956099
_cell_length_c   9.04956200
_cell_angle_alpha   119.99999637
_cell_angle_beta   90.00000000
_cell_angle_gamma   90.00000000
_symmetry_Int_Tables_number   1
_chemical_formula_structural   Na2Co9Mo3P7
_chemical_formula_sum   'Na2 Co9 Mo3 P7'
_cell_volume   261.39709243
_cell_formula_units_Z   1
loop_
 _symmetry_equiv_pos_site_id
 _symmetry_equiv_pos_as_xyz
  1  'x, y, z'
loop_
 _atom_site_type_symbol
 _atom_site_label
 _atom_site_symmetry_multiplicity
 _atom_site_fract_x
 _atom_site_fract_y
 _atom_site_fract_z
 _atom_site_occupancy
  Na  Na0  1  0.000000  0.666667  0.333333  1
  Na  Na1  1  0.500000  0.333333  0.666667  1
  Co  Co2  1  0.000000  0.569430  0.944010  1
  Co  Co3  1  0.000000  0.374580  0.430570  1
  Co  Co4  1  0.000000  0.055990  0.625420  1
  Co  Co5  1  0.000000  0.881389  0.161325  1
  Co  Co6  1  0.000000  0.279936  0.118611  1
  Co  Co7  1  0.000000  0.838675  0.720064  1
  Co  Co8  1  0.500000  0.952854  0.389251  1
  Co  Co9  1  0.500000  0.436397  0.047146  1
  Co  Co10  1  0.500000  0.610749  0.563603  1
  Mo  Mo11  1  0.500000  0.780865  0.903195  1
  Mo  Mo12  1  0.500000  0.122330  0.219135  1
  Mo  Mo13  1  0.500000  0.096805  0.877670  1
  P  P14  1  0.000000  0.000000  0.000000  1
  P  P15  1  0.500000  0.711348  0.123546  1
  P  P16  1  0.500000  0.412197  0.288652  1
  P  P17  1  0.500000  0.876454  0.587803  1
  P  P18  1  0.000000  0.583083  0.699586  1
  P  P19  1  0.000000  0.116503  0.416917  1
  P  P20  1  0.000000  0.300414  0.883497  1
