# generated using pymatgen
data_Cs8Na4Dy3YSb8
_symmetry_space_group_name_H-M   'P 1'
_cell_length_a   11.65359976
_cell_length_b   11.65359752
_cell_length_c   7.59706200
_cell_angle_alpha   89.99826262
_cell_angle_beta   90.00173665
_cell_angle_gamma   99.62330578
_symmetry_Int_Tables_number   1
_chemical_formula_structural   Cs8Na4Dy3YSb8
_chemical_formula_sum   'Cs8 Na4 Dy3 Y1 Sb8'
_cell_volume   1017.21097467
_cell_formula_units_Z   1
loop_
 _symmetry_equiv_pos_site_id
 _symmetry_equiv_pos_as_xyz
  1  'x, y, z'
loop_
 _atom_site_type_symbol
 _atom_site_label
 _atom_site_symmetry_multiplicity
 _atom_site_fract_x
 _atom_site_fract_y
 _atom_site_fract_z
 _atom_site_occupancy
  Cs  Cs0  1  0.070670  0.429329  0.250004  1
  Cs  Cs1  1  0.429329  0.070670  0.749996  1
  Cs  Cs2  1  0.929372  0.570650  0.750029  1
  Cs  Cs3  1  0.570650  0.929372  0.249971  1
  Cs  Cs4  1  0.677032  0.322954  0.213081  1
  Cs  Cs5  1  0.822977  0.177036  0.713088  1
  Cs  Cs6  1  0.322954  0.677032  0.786919  1
  Cs  Cs7  1  0.177036  0.822977  0.286912  1
  Na  Na8  1  0.381970  0.381970  0.000000  1
  Na  Na9  1  0.118030  0.118030  0.500000  1
  Na  Na10  1  0.618023  0.618023  0.000000  1
  Na  Na11  1  0.881986  0.881986  0.500000  1
  Dy  Dy12  1  0.131338  0.131338  0.000000  1
  Dy  Dy13  1  0.368691  0.368691  0.500000  1
  Dy  Dy14  1  0.868690  0.868690  0.000000  1
  Y  Y15  1  0.631353  0.631353  0.500000  1
  Sb  Sb16  1  0.842311  0.657837  0.249875  1
  Sb  Sb17  1  0.657837  0.842311  0.750125  1
  Sb  Sb18  1  0.157790  0.342198  0.750004  1
  Sb  Sb19  1  0.342198  0.157790  0.249996  1
  Sb  Sb20  1  0.904576  0.095409  0.210849  1
  Sb  Sb21  1  0.595329  0.404447  0.710916  1
  Sb  Sb22  1  0.095409  0.904576  0.789151  1
  Sb  Sb23  1  0.404447  0.595329  0.289084  1
