# generated using pymatgen
data_Sr4Cr(IN2)2
_symmetry_space_group_name_H-M   'P 1'
_cell_length_a   5.95714800
_cell_length_b   8.02735978
_cell_length_c   11.16467449
_cell_angle_alpha   84.20151303
_cell_angle_beta   90.00000000
_cell_angle_gamma   90.00000000
_symmetry_Int_Tables_number   1
_chemical_formula_structural   Sr4Cr(IN2)2
_chemical_formula_sum   'Sr8 Cr2 I4 N8'
_cell_volume   531.16488744
_cell_formula_units_Z   2
loop_
 _symmetry_equiv_pos_site_id
 _symmetry_equiv_pos_as_xyz
  1  'x, y, z'
loop_
 _atom_site_type_symbol
 _atom_site_label
 _atom_site_symmetry_multiplicity
 _atom_site_fract_x
 _atom_site_fract_y
 _atom_site_fract_z
 _atom_site_occupancy
  Sr  Sr0  1  0.750000  0.264645  0.313446  1
  Sr  Sr1  1  0.750000  0.009128  0.612011  1
  Sr  Sr2  1  0.750000  0.453501  0.590894  1
  Sr  Sr3  1  0.750000  0.762361  0.138076  1
  Sr  Sr4  1  0.250000  0.990872  0.387989  1
  Sr  Sr5  1  0.250000  0.546499  0.409106  1
  Sr  Sr6  1  0.250000  0.237639  0.861924  1
  Sr  Sr7  1  0.250000  0.735355  0.686554  1
  Cr  Cr8  1  0.750000  0.766700  0.412141  1
  Cr  Cr9  1  0.250000  0.233300  0.587859  1
  I  I10  1  0.250000  0.351827  0.156706  1
  I  I11  1  0.750000  0.648173  0.843294  1
  I  I12  1  0.250000  0.868813  0.082231  1
  I  I13  1  0.750000  0.131187  0.917769  1
  N  N14  1  0.250000  0.057835  0.691703  1
  N  N15  1  0.010725  0.235308  0.494137  1
  N  N16  1  0.510725  0.764692  0.505863  1
  N  N17  1  0.989275  0.764692  0.505863  1
  N  N18  1  0.750000  0.586443  0.334416  1
  N  N19  1  0.750000  0.942165  0.308297  1
  N  N20  1  0.489275  0.235308  0.494137  1
  N  N21  1  0.250000  0.413557  0.665584  1
