# generated using pymatgen
data_Ba4La7PrSc8O28
_symmetry_space_group_name_H-M   'P 1'
_cell_length_a   5.88026306
_cell_length_b   5.88026306
_cell_length_c   20.73905200
_cell_angle_alpha   90.00118419
_cell_angle_beta   90.00118419
_cell_angle_gamma   90.01672026
_symmetry_Int_Tables_number   1
_chemical_formula_structural   Ba4La7PrSc8O28
_chemical_formula_sum   'Ba4 La7 Pr1 Sc8 O28'
_cell_volume   717.10440888
_cell_formula_units_Z   1
loop_
 _symmetry_equiv_pos_site_id
 _symmetry_equiv_pos_as_xyz
  1  'x, y, z'
loop_
 _atom_site_type_symbol
 _atom_site_label
 _atom_site_symmetry_multiplicity
 _atom_site_fract_x
 _atom_site_fract_y
 _atom_site_fract_z
 _atom_site_occupancy
  Ba  Ba0  1  0.259685  0.259685  0.000099  1
  Ba  Ba1  1  0.740476  0.740476  0.999968  1
  Ba  Ba2  1  0.759521  0.240454  0.500081  1
  Ba  Ba3  1  0.240454  0.759521  0.500081  1
  La  La4  1  0.272845  0.272845  0.184241  1
  La  La5  1  0.727154  0.727154  0.184225  1
  La  La6  1  0.772840  0.227143  0.315845  1
  La  La7  1  0.227143  0.772840  0.315845  1
  La  La8  1  0.772796  0.227030  0.684489  1
  La  La9  1  0.227030  0.772796  0.684489  1
  La  La10  1  0.273130  0.273130  0.815573  1
  Pr  Pr11  1  0.725516  0.725516  0.816728  1
  Sc  Sc12  1  0.757016  0.242984  0.100044  1
  Sc  Sc13  1  0.242984  0.757016  0.100044  1
  Sc  Sc14  1  0.257021  0.257021  0.399982  1
  Sc  Sc15  1  0.742973  0.742973  0.400002  1
  Sc  Sc16  1  0.257018  0.257018  0.600077  1
  Sc  Sc17  1  0.742938  0.742938  0.600225  1
  Sc  Sc18  1  0.757000  0.242638  0.899568  1
  Sc  Sc19  1  0.242638  0.757000  0.899568  1
  O  O20  1  0.784394  0.215792  0.999850  1
  O  O21  1  0.215792  0.784394  0.999850  1
  O  O22  1  0.499900  0.499900  0.093708  1
  O  O23  1  0.499946  0.000047  0.111217  1
  O  O24  1  0.000047  0.499946  0.111217  1
  O  O25  1  0.000007  0.000007  0.126740  1
  O  O26  1  0.690073  0.309968  0.208782  1
  O  O27  1  0.309968  0.690073  0.208782  1
  O  O28  1  0.190050  0.190050  0.291185  1
  O  O29  1  0.809927  0.809927  0.291176  1
  O  O30  1  0.499991  0.499991  0.373221  1
  O  O31  1  0.500002  0.000002  0.388740  1
  O  O32  1  0.000002  0.500002  0.388740  1
  O  O33  1  0.000006  0.000006  0.406230  1
  O  O34  1  0.284253  0.284253  0.499998  1
  O  O35  1  0.715693  0.715693  0.500039  1
  O  O36  1  0.999853  0.999853  0.593900  1
  O  O37  1  0.499989  0.999981  0.611290  1
  O  O38  1  0.999981  0.499989  0.611290  1
  O  O39  1  0.499921  0.499921  0.626767  1
  O  O40  1  0.190377  0.190377  0.708854  1
  O  O41  1  0.809858  0.809858  0.709569  1
  O  O42  1  0.690534  0.313053  0.791373  1
  O  O43  1  0.313053  0.690534  0.791373  1
  O  O44  1  0.998545  0.998545  0.872655  1
  O  O45  1  0.501341  0.998420  0.888058  1
  O  O46  1  0.998420  0.501341  0.888058  1
  O  O47  1  0.499890  0.499890  0.906160  1
