# generated using pymatgen
data_TbY3Tm4(B6Os)4
_symmetry_space_group_name_H-M   'P 1'
_cell_length_a   3.63528700
_cell_length_b   9.10798217
_cell_length_c   11.49675682
_cell_angle_alpha   90.00322404
_cell_angle_beta   90.00000000
_cell_angle_gamma   90.00000000
_symmetry_Int_Tables_number   1
_chemical_formula_structural   TbY3Tm4(B6Os)4
_chemical_formula_sum   'Tb1 Y3 Tm4 B24 Os4'
_cell_volume   380.65910265
_cell_formula_units_Z   1
loop_
 _symmetry_equiv_pos_site_id
 _symmetry_equiv_pos_as_xyz
  1  'x, y, z'
loop_
 _atom_site_type_symbol
 _atom_site_label
 _atom_site_symmetry_multiplicity
 _atom_site_fract_x
 _atom_site_fract_y
 _atom_site_fract_z
 _atom_site_occupancy
  Tb  Tb0  1  0.000000  0.321401  0.413991  1
  Y  Y1  1  0.000000  0.678521  0.585607  1
  Y  Y2  1  0.000000  0.821093  0.086085  1
  Y  Y3  1  0.000000  0.179013  0.914187  1
  Tm  Tm4  1  0.000000  0.943873  0.372802  1
  Tm  Tm5  1  0.000000  0.056157  0.627074  1
  Tm  Tm6  1  0.000000  0.443828  0.127318  1
  Tm  Tm7  1  0.000000  0.556201  0.873144  1
  B  B8  1  0.500000  0.554340  0.432703  1
  B  B9  1  0.500000  0.445711  0.567227  1
  B  B10  1  0.500000  0.054152  0.067044  1
  B  B11  1  0.500000  0.945746  0.932622  1
  B  B12  1  0.500000  0.749275  0.419227  1
  B  B13  1  0.500000  0.250887  0.580689  1
  B  B14  1  0.500000  0.248884  0.080766  1
  B  B15  1  0.500000  0.750958  0.919344  1
  B  B16  1  0.500000  0.791358  0.266243  1
  B  B17  1  0.500000  0.208890  0.733812  1
  B  B18  1  0.500000  0.291026  0.233770  1
  B  B19  1  0.500000  0.708766  0.766124  1
  B  B20  1  0.500000  0.630700  0.185081  1
  B  B21  1  0.500000  0.369423  0.815338  1
  B  B22  1  0.500000  0.130466  0.315029  1
  B  B23  1  0.500000  0.869378  0.684660  1
  B  B24  1  0.500000  0.982591  0.213267  1
  B  B25  1  0.500000  0.017393  0.786367  1
  B  B26  1  0.500000  0.482710  0.286625  1
  B  B27  1  0.500000  0.517331  0.713590  1
  B  B28  1  0.500000  0.605086  0.029256  1
  B  B29  1  0.500000  0.394904  0.971264  1
  B  B30  1  0.500000  0.104511  0.471083  1
  B  B31  1  0.500000  0.895296  0.528725  1
  Os  Os32  1  0.000000  0.637894  0.320612  1
  Os  Os33  1  0.000000  0.362383  0.679462  1
  Os  Os34  1  0.000000  0.137615  0.179337  1
  Os  Os35  1  0.000000  0.862238  0.820528  1
