# generated using pymatgen
data_HfZr5Ti4Ga5Se
_symmetry_space_group_name_H-M   'P 1'
_cell_length_a   7.94453864
_cell_length_b   7.92616156
_cell_length_c   5.43570500
_cell_angle_alpha   90.00000000
_cell_angle_beta   90.00000000
_cell_angle_gamma   119.92851030
_symmetry_Int_Tables_number   1
_chemical_formula_structural   HfZr5Ti4Ga5Se
_chemical_formula_sum   'Hf1 Zr5 Ti4 Ga5 Se1'
_cell_volume   296.64055075
_cell_formula_units_Z   1
loop_
 _symmetry_equiv_pos_site_id
 _symmetry_equiv_pos_as_xyz
  1  'x, y, z'
loop_
 _atom_site_type_symbol
 _atom_site_label
 _atom_site_symmetry_multiplicity
 _atom_site_fract_x
 _atom_site_fract_y
 _atom_site_fract_z
 _atom_site_occupancy
  Hf  Hf0  1  0.243060  0.247051  0.750000  1
  Zr  Zr1  1  0.246028  0.000324  0.250000  1
  Zr  Zr2  1  0.749354  0.000011  0.750000  1
  Zr  Zr3  1  0.003388  0.245082  0.250000  1
  Zr  Zr4  1  0.996577  0.754824  0.750000  1
  Zr  Zr5  1  0.756273  0.753741  0.250000  1
  Ti  Ti6  1  0.334748  0.666775  0.997452  1
  Ti  Ti7  1  0.667723  0.332998  0.997513  1
  Ti  Ti8  1  0.667723  0.332998  0.502487  1
  Ti  Ti9  1  0.334748  0.666775  0.502548  1
  Ga  Ga10  1  0.392044  0.000345  0.750000  1
  Ga  Ga11  1  0.001405  0.600050  0.250000  1
  Ga  Ga12  1  0.001728  0.401386  0.750000  1
  Ga  Ga13  1  0.400780  0.400045  0.250000  1
  Ga  Ga14  1  0.598328  0.597672  0.750000  1
  Se  Se15  1  0.606092  0.999925  0.250000  1
