# generated using pymatgen
data_Ho12GaCo2Ni2Os
_symmetry_space_group_name_H-M   'P 1'
_cell_length_a   8.20473126
_cell_length_b   8.20439672
_cell_length_c   8.20473143
_cell_angle_alpha   111.85257309
_cell_angle_beta   110.04620655
_cell_angle_gamma   106.56058976
_symmetry_Int_Tables_number   1
_chemical_formula_structural   Ho12GaCo2Ni2Os
_chemical_formula_sum   'Ho12 Ga1 Co2 Ni2 Os1'
_cell_volume   424.22329654
_cell_formula_units_Z   1
loop_
 _symmetry_equiv_pos_site_id
 _symmetry_equiv_pos_as_xyz
  1  'x, y, z'
loop_
 _atom_site_type_symbol
 _atom_site_label
 _atom_site_symmetry_multiplicity
 _atom_site_fract_x
 _atom_site_fract_y
 _atom_site_fract_z
 _atom_site_occupancy
  Ho  Ho0  1  0.957383  0.268939  0.688420  1
  Ho  Ho1  1  0.042617  0.731061  0.311580  1
  Ho  Ho2  1  0.670767  0.861542  0.190776  1
  Ho  Ho3  1  0.329289  0.520013  0.190723  1
  Ho  Ho4  1  0.329233  0.138458  0.809224  1
  Ho  Ho5  1  0.670711  0.479987  0.809277  1
  Ho  Ho6  1  0.580518  0.268939  0.311556  1
  Ho  Ho7  1  0.419482  0.731061  0.688444  1
  Ho  Ho8  1  0.177890  0.772544  0.950423  1
  Ho  Ho9  1  0.822121  0.772544  0.594654  1
  Ho  Ho10  1  0.177879  0.227456  0.405346  1
  Ho  Ho11  1  0.822110  0.227456  0.049577  1
  Ga  Ga12  1  0.500000  0.000000  0.500000  1
  Co  Co13  1  0.655895  0.500000  0.155895  1
  Co  Co14  1  0.344105  0.500000  0.844105  1
  Ni  Ni15  1  0.118159  0.118172  0.000013  1
  Ni  Ni16  1  0.881841  0.881828  0.999987  1
  Os  Os17  1  0.000000  0.500000  0.500000  1
