# generated using pymatgen
data_NaErSiO4
_symmetry_space_group_name_H-M   'P 1'
_cell_length_a   5.15504700
_cell_length_b   6.41457100
_cell_length_c   11.16324800
_cell_angle_alpha   90.00000000
_cell_angle_beta   90.00000000
_cell_angle_gamma   90.00000000
_symmetry_Int_Tables_number   1
_chemical_formula_structural   NaErSiO4
_chemical_formula_sum   'Na4 Er4 Si4 O16'
_cell_volume   369.13975425
_cell_formula_units_Z   4
loop_
 _symmetry_equiv_pos_site_id
 _symmetry_equiv_pos_as_xyz
  1  'x, y, z'
loop_
 _atom_site_type_symbol
 _atom_site_label
 _atom_site_symmetry_multiplicity
 _atom_site_fract_x
 _atom_site_fract_y
 _atom_site_fract_z
 _atom_site_occupancy
  Na  Na0  1  0.500000  0.500000  0.000000  1
  Na  Na1  1  0.500000  0.000000  0.000000  1
  Na  Na2  1  0.000000  0.000000  0.500000  1
  Na  Na3  1  0.000000  0.500000  0.500000  1
  Er  Er4  1  0.498181  0.250000  0.279705  1
  Er  Er5  1  0.501819  0.750000  0.720295  1
  Er  Er6  1  0.001819  0.250000  0.779705  1
  Er  Er7  1  0.998181  0.750000  0.220295  1
  Si  Si8  1  0.560615  0.750000  0.399926  1
  Si  Si9  1  0.939385  0.750000  0.899926  1
  Si  Si10  1  0.439385  0.250000  0.600074  1
  Si  Si11  1  0.060615  0.250000  0.100074  1
  O  O12  1  0.746690  0.250000  0.113734  1
  O  O13  1  0.253310  0.750000  0.886266  1
  O  O14  1  0.753310  0.250000  0.613734  1
  O  O15  1  0.246690  0.750000  0.386266  1
  O  O16  1  0.833984  0.750000  0.038417  1
  O  O17  1  0.166016  0.250000  0.961583  1
  O  O18  1  0.666016  0.750000  0.538417  1
  O  O19  1  0.333984  0.250000  0.461583  1
  O  O20  1  0.701991  0.550679  0.327625  1
  O  O21  1  0.298009  0.050679  0.672375  1
  O  O22  1  0.798009  0.550679  0.827625  1
  O  O23  1  0.201991  0.050679  0.172375  1
  O  O24  1  0.201991  0.449321  0.172375  1
  O  O25  1  0.798009  0.949321  0.827625  1
  O  O26  1  0.298009  0.449321  0.672375  1
  O  O27  1  0.701991  0.949321  0.327625  1
