# generated using pymatgen
data_Hf2Ti2NbGe4
_symmetry_space_group_name_H-M   'P 1'
_cell_length_a   6.80955800
_cell_length_b   6.92995200
_cell_length_c   13.12759900
_cell_angle_alpha   90.00000000
_cell_angle_beta   90.00000000
_cell_angle_gamma   90.00000000
_symmetry_Int_Tables_number   1
_chemical_formula_structural   Hf2Ti2NbGe4
_chemical_formula_sum   'Hf8 Ti8 Nb4 Ge16'
_cell_volume   619.49021639
_cell_formula_units_Z   4
loop_
 _symmetry_equiv_pos_site_id
 _symmetry_equiv_pos_as_xyz
  1  'x, y, z'
loop_
 _atom_site_type_symbol
 _atom_site_label
 _atom_site_symmetry_multiplicity
 _atom_site_fract_x
 _atom_site_fract_y
 _atom_site_fract_z
 _atom_site_occupancy
  Hf  Hf0  1  0.490723  0.675601  0.593489  1
  Hf  Hf1  1  0.990723  0.824399  0.906511  1
  Hf  Hf2  1  0.509277  0.324399  0.093489  1
  Hf  Hf3  1  0.009277  0.175601  0.406511  1
  Hf  Hf4  1  0.509277  0.324399  0.406511  1
  Hf  Hf5  1  0.009277  0.175601  0.093489  1
  Hf  Hf6  1  0.490723  0.675601  0.906511  1
  Hf  Hf7  1  0.990723  0.824399  0.593489  1
  Ti  Ti8  1  0.658511  0.167366  0.624661  1
  Ti  Ti9  1  0.158511  0.332634  0.875339  1
  Ti  Ti10  1  0.341489  0.832634  0.124661  1
  Ti  Ti11  1  0.841489  0.667366  0.375339  1
  Ti  Ti12  1  0.341489  0.832634  0.375339  1
  Ti  Ti13  1  0.841489  0.667366  0.124661  1
  Ti  Ti14  1  0.658511  0.167366  0.875339  1
  Ti  Ti15  1  0.158511  0.332634  0.624661  1
  Nb  Nb16  1  0.830308  0.493814  0.750000  1
  Nb  Nb17  1  0.330308  0.006186  0.750000  1
  Nb  Nb18  1  0.169692  0.506186  0.250000  1
  Nb  Nb19  1  0.669692  0.993814  0.250000  1
  Ge  Ge20  1  0.684106  0.958891  0.461391  1
  Ge  Ge21  1  0.184106  0.541109  0.038609  1
  Ge  Ge22  1  0.315894  0.041109  0.961391  1
  Ge  Ge23  1  0.815894  0.458891  0.538609  1
  Ge  Ge24  1  0.315894  0.041109  0.538609  1
  Ge  Ge25  1  0.815894  0.458891  0.961391  1
  Ge  Ge26  1  0.684106  0.958891  0.038609  1
  Ge  Ge27  1  0.184106  0.541109  0.461391  1
  Ge  Ge28  1  0.457794  0.380401  0.750000  1
  Ge  Ge29  1  0.957794  0.119599  0.750000  1
  Ge  Ge30  1  0.542206  0.619599  0.250000  1
  Ge  Ge31  1  0.042206  0.880401  0.250000  1
  Ge  Ge32  1  0.692782  0.856994  0.750000  1
  Ge  Ge33  1  0.192782  0.643006  0.750000  1
  Ge  Ge34  1  0.307218  0.143006  0.250000  1
  Ge  Ge35  1  0.807218  0.356994  0.250000  1
