# generated using pymatgen
data_Nd16MgCd3(OsPt)2
_symmetry_space_group_name_H-M   'P 1'
_cell_length_a   9.98408208
_cell_length_b   9.98408094
_cell_length_c   10.06762892
_cell_angle_alpha   59.81598684
_cell_angle_beta   59.81598635
_cell_angle_gamma   59.78836508
_symmetry_Int_Tables_number   1
_chemical_formula_structural   Nd16MgCd3(OsPt)2
_chemical_formula_sum   'Nd16 Mg1 Cd3 Os2 Pt2'
_cell_volume   706.51164794
_cell_formula_units_Z   1
loop_
 _symmetry_equiv_pos_site_id
 _symmetry_equiv_pos_as_xyz
  1  'x, y, z'
loop_
 _atom_site_type_symbol
 _atom_site_label
 _atom_site_symmetry_multiplicity
 _atom_site_fract_x
 _atom_site_fract_y
 _atom_site_fract_z
 _atom_site_occupancy
  Nd  Nd0  1  0.348398  0.348398  0.354069  1
  Nd  Nd1  1  0.348578  0.348578  0.949799  1
  Nd  Nd2  1  0.343785  0.959122  0.347898  1
  Nd  Nd3  1  0.959122  0.343785  0.347898  1
  Nd  Nd4  1  0.813921  0.190247  0.192077  1
  Nd  Nd5  1  0.187230  0.815107  0.805401  1
  Nd  Nd6  1  0.190247  0.813921  0.192077  1
  Nd  Nd7  1  0.815107  0.187230  0.805401  1
  Nd  Nd8  1  0.190074  0.190074  0.810005  1
  Nd  Nd9  1  0.807796  0.807796  0.191839  1
  Nd  Nd10  1  0.938564  0.556366  0.566504  1
  Nd  Nd11  1  0.555374  0.938966  0.941335  1
  Nd  Nd12  1  0.556366  0.938564  0.566504  1
  Nd  Nd13  1  0.938966  0.555374  0.941335  1
  Nd  Nd14  1  0.562104  0.562104  0.939302  1
  Nd  Nd15  1  0.938906  0.938906  0.560285  1
  Mg  Mg16  1  0.574979  0.574979  0.574149  1
  Cd  Cd17  1  0.580916  0.580916  0.257938  1
  Cd  Cd18  1  0.581690  0.256605  0.580652  1
  Cd  Cd19  1  0.256605  0.581690  0.580652  1
  Os  Os20  1  0.144508  0.144508  0.136882  1
  Os  Os21  1  0.144848  0.144848  0.576738  1
  Pt  Pt22  1  0.147186  0.574736  0.140632  1
  Pt  Pt23  1  0.574736  0.147186  0.140632  1
