# generated using pymatgen
data_Sm9YB2Br15
_symmetry_space_group_name_H-M   'P 1'
_cell_length_a   9.24367820
_cell_length_b   10.04888393
_cell_length_c   10.89327166
_cell_angle_alpha   91.23374161
_cell_angle_beta   114.47755287
_cell_angle_gamma   110.79453204
_symmetry_Int_Tables_number   1
_chemical_formula_structural   Sm9YB2Br15
_chemical_formula_sum   'Sm9 Y1 B2 Br15'
_cell_volume   843.85200941
_cell_formula_units_Z   1
loop_
 _symmetry_equiv_pos_site_id
 _symmetry_equiv_pos_as_xyz
  1  'x, y, z'
loop_
 _atom_site_type_symbol
 _atom_site_label
 _atom_site_symmetry_multiplicity
 _atom_site_fract_x
 _atom_site_fract_y
 _atom_site_fract_z
 _atom_site_occupancy
  Sm  Sm0  1  0.799656  0.408277  0.275432  1
  Sm  Sm1  1  0.198211  0.591206  0.723564  1
  Sm  Sm2  1  0.673578  0.746277  0.820610  1
  Sm  Sm3  1  0.324647  0.252728  0.179218  1
  Sm  Sm4  1  0.525254  0.705178  0.095347  1
  Sm  Sm5  1  0.473722  0.294362  0.904306  1
  Sm  Sm6  1  0.585236  0.038663  0.323437  1
  Sm  Sm7  1  0.412304  0.960142  0.675598  1
  Sm  Sm8  1  0.725698  0.075052  0.048163  1
  Y  Y9  1  0.283710  0.927513  0.953416  1
  B  B10  1  0.465715  0.819182  0.876136  1
  B  B11  1  0.531918  0.179337  0.122755  1
  Br  Br12  1  0.004015  0.997655  0.998667  1
  Br  Br13  1  0.636332  0.882216  0.583159  1
  Br  Br14  1  0.361670  0.116768  0.416348  1
  Br  Br15  1  0.883195  0.298765  0.527863  1
  Br  Br16  1  0.115117  0.700323  0.471139  1
  Br  Br17  1  0.284165  0.764392  0.173414  1
  Br  Br18  1  0.710447  0.237926  0.819273  1
  Br  Br19  1  0.057600  0.344240  0.227137  1
  Br  Br20  1  0.160774  0.052754  0.708455  1
  Br  Br21  1  0.837607  0.942607  0.297295  1
  Br  Br22  1  0.230076  0.409937  0.943679  1
  Br  Br23  1  0.768282  0.589379  0.055824  1
  Br  Br24  1  0.407339  0.462385  0.659261  1
  Br  Br25  1  0.591055  0.536876  0.340520  1
  Br  Br26  1  0.952680  0.665858  0.779982  1
