# generated using pymatgen
data_Ho3Lu6ThGa8
_symmetry_space_group_name_H-M   'P 1'
_cell_length_a   7.48514069
_cell_length_b   7.77891135
_cell_length_c   14.85648300
_cell_angle_alpha   90.02387904
_cell_angle_beta   90.07065966
_cell_angle_gamma   90.07501787
_symmetry_Int_Tables_number   1
_chemical_formula_structural   Ho3Lu6ThGa8
_chemical_formula_sum   'Ho6 Lu12 Th2 Ga16'
_cell_volume   865.03575700
_cell_formula_units_Z   2
loop_
 _symmetry_equiv_pos_site_id
 _symmetry_equiv_pos_as_xyz
  1  'x, y, z'
loop_
 _atom_site_type_symbol
 _atom_site_label
 _atom_site_symmetry_multiplicity
 _atom_site_fract_x
 _atom_site_fract_y
 _atom_site_fract_z
 _atom_site_occupancy
  Ho  Ho0  1  0.488067  0.680329  0.904980  1
  Ho  Ho1  1  0.987394  0.819312  0.594594  1
  Ho  Ho2  1  0.511933  0.319671  0.095020  1
  Ho  Ho3  1  0.012606  0.180688  0.405406  1
  Ho  Ho4  1  0.513674  0.318611  0.406491  1
  Ho  Ho5  1  0.486326  0.681389  0.593509  1
  Lu  Lu6  1  0.165984  0.506076  0.748658  1
  Lu  Lu7  1  0.834016  0.493924  0.251342  1
  Lu  Lu8  1  0.337418  0.006982  0.251345  1
  Lu  Lu9  1  0.662582  0.993018  0.748655  1
  Lu  Lu10  1  0.328243  0.171200  0.622520  1
  Lu  Lu11  1  0.671757  0.828800  0.377480  1
  Lu  Lu12  1  0.172431  0.672035  0.377559  1
  Lu  Lu13  1  0.670122  0.827802  0.123306  1
  Lu  Lu14  1  0.827569  0.327965  0.622441  1
  Lu  Lu15  1  0.329878  0.172198  0.876694  1
  Lu  Lu16  1  0.827540  0.328129  0.876501  1
  Lu  Lu17  1  0.172460  0.671871  0.123499  1
  Th  Th18  1  0.011939  0.179575  0.094951  1
  Th  Th19  1  0.988061  0.820425  0.905049  1
  Ga  Ga20  1  0.031925  0.112241  0.749456  1
  Ga  Ga21  1  0.968075  0.887759  0.250544  1
  Ga  Ga22  1  0.466890  0.611665  0.250115  1
  Ga  Ga23  1  0.533110  0.388335  0.749885  1
  Ga  Ga24  1  0.282323  0.870187  0.749134  1
  Ga  Ga25  1  0.717677  0.129813  0.250866  1
  Ga  Ga26  1  0.220301  0.370743  0.249861  1
  Ga  Ga27  1  0.779699  0.629257  0.750139  1
  Ga  Ga28  1  0.160359  0.468335  0.540297  1
  Ga  Ga29  1  0.839641  0.531665  0.459703  1
  Ga  Ga30  1  0.338926  0.967466  0.459483  1
  Ga  Ga31  1  0.836104  0.533952  0.040069  1
  Ga  Ga32  1  0.661074  0.032534  0.540517  1
  Ga  Ga33  1  0.163896  0.466048  0.959931  1
  Ga  Ga34  1  0.657518  0.034384  0.960127  1
  Ga  Ga35  1  0.342482  0.965616  0.039873  1
