# generated using pymatgen
data_Tm3In3NiHg2
_symmetry_space_group_name_H-M   'P 1'
_cell_length_a   3.99768300
_cell_length_b   7.68578178
_cell_length_c   7.68401022
_cell_angle_alpha   120.00763460
_cell_angle_beta   90.00000000
_cell_angle_gamma   90.00000000
_symmetry_Int_Tables_number   1
_chemical_formula_structural   Tm3In3NiHg2
_chemical_formula_sum   'Tm3 In3 Ni1 Hg2'
_cell_volume   204.44738149
_cell_formula_units_Z   1
loop_
 _symmetry_equiv_pos_site_id
 _symmetry_equiv_pos_as_xyz
  1  'x, y, z'
loop_
 _atom_site_type_symbol
 _atom_site_label
 _atom_site_symmetry_multiplicity
 _atom_site_fract_x
 _atom_site_fract_y
 _atom_site_fract_z
 _atom_site_occupancy
  Tm  Tm0  1  0.500000  0.390593  0.000000  1
  Tm  Tm1  1  0.500000  0.608539  0.607727  1
  Tm  Tm2  1  0.500000  0.000811  0.392273  1
  In  In3  1  0.000000  0.759302  0.000000  1
  In  In4  1  0.000000  0.240742  0.240920  1
  In  In5  1  0.000000  0.999822  0.759080  1
  Ni  Ni6  1  0.500000  0.999334  0.000000  1
  Hg  Hg7  1  0.000000  0.666834  0.332709  1
  Hg  Hg8  1  0.000000  0.334125  0.667291  1
