# generated using pymatgen
data_Pm2PtSe3
_symmetry_space_group_name_H-M   'P 1'
_cell_length_a   3.99719500
_cell_length_b   8.12925217
_cell_length_c   8.78353958
_cell_angle_alpha   90.99683839
_cell_angle_beta   90.00000000
_cell_angle_gamma   90.00000000
_symmetry_Int_Tables_number   1
_chemical_formula_structural   Pm2PtSe3
_chemical_formula_sum   'Pm4 Pt2 Se6'
_cell_volume   285.37095012
_cell_formula_units_Z   2
loop_
 _symmetry_equiv_pos_site_id
 _symmetry_equiv_pos_as_xyz
  1  'x, y, z'
loop_
 _atom_site_type_symbol
 _atom_site_label
 _atom_site_symmetry_multiplicity
 _atom_site_fract_x
 _atom_site_fract_y
 _atom_site_fract_z
 _atom_site_occupancy
  Pm  Pm0  1  0.250272  0.129014  0.218291  1
  Pm  Pm1  1  0.750272  0.370986  0.781709  1
  Pm  Pm2  1  0.750115  0.867158  0.761902  1
  Pm  Pm3  1  0.250115  0.632842  0.238098  1
  Pt  Pt4  1  0.749517  0.138217  0.500652  1
  Pt  Pt5  1  0.249517  0.361783  0.499348  1
  Se  Se6  1  0.249515  0.926515  0.496369  1
  Se  Se7  1  0.749515  0.573485  0.503631  1
  Se  Se8  1  0.250355  0.118764  0.868311  1
  Se  Se9  1  0.750355  0.381236  0.131689  1
  Se  Se10  1  0.750226  0.874021  0.126826  1
  Se  Se11  1  0.250226  0.625979  0.873174  1
