# generated using pymatgen
data_PaFeMo(PIr)3
_symmetry_space_group_name_H-M   'P 1'
_cell_length_a   3.95245800
_cell_length_b   10.78359800
_cell_length_c   12.36313200
_cell_angle_alpha   90.00000000
_cell_angle_beta   90.00000000
_cell_angle_gamma   90.00000000
_symmetry_Int_Tables_number   1
_chemical_formula_structural   PaFeMo(PIr)3
_chemical_formula_sum   'Pa4 Fe4 Mo4 P12 Ir12'
_cell_volume   526.93792797
_cell_formula_units_Z   4
loop_
 _symmetry_equiv_pos_site_id
 _symmetry_equiv_pos_as_xyz
  1  'x, y, z'
loop_
 _atom_site_type_symbol
 _atom_site_label
 _atom_site_symmetry_multiplicity
 _atom_site_fract_x
 _atom_site_fract_y
 _atom_site_fract_z
 _atom_site_occupancy
  Pa  Pa0  1  0.250000  0.583805  0.711352  1
  Pa  Pa1  1  0.250000  0.916195  0.211352  1
  Pa  Pa2  1  0.750000  0.416195  0.288648  1
  Pa  Pa3  1  0.750000  0.083805  0.788648  1
  Fe  Fe4  1  0.250000  0.460421  0.930724  1
  Fe  Fe5  1  0.250000  0.039579  0.430724  1
  Fe  Fe6  1  0.750000  0.539579  0.069276  1
  Fe  Fe7  1  0.750000  0.960421  0.569276  1
  Mo  Mo8  1  0.250000  0.708938  0.985697  1
  Mo  Mo9  1  0.250000  0.791062  0.485697  1
  Mo  Mo10  1  0.750000  0.291062  0.014303  1
  Mo  Mo11  1  0.750000  0.208938  0.514303  1
  P  P12  1  0.250000  0.428998  0.101904  1
  P  P13  1  0.250000  0.071002  0.601904  1
  P  P14  1  0.750000  0.571002  0.898096  1
  P  P15  1  0.750000  0.928998  0.398096  1
  P  P16  1  0.250000  0.271044  0.871912  1
  P  P17  1  0.250000  0.228956  0.371912  1
  P  P18  1  0.750000  0.728956  0.128088  1
  P  P19  1  0.750000  0.771044  0.628088  1
  P  P20  1  0.250000  0.600049  0.391599  1
  P  P21  1  0.250000  0.899951  0.891599  1
  P  P22  1  0.750000  0.399951  0.608401  1
  P  P23  1  0.750000  0.100049  0.108401  1
  Ir  Ir24  1  0.250000  0.406056  0.481486  1
  Ir  Ir25  1  0.250000  0.093944  0.981486  1
  Ir  Ir26  1  0.750000  0.593944  0.518514  1
  Ir  Ir27  1  0.750000  0.906056  0.018514  1
  Ir  Ir28  1  0.250000  0.235967  0.180184  1
  Ir  Ir29  1  0.250000  0.264033  0.680184  1
  Ir  Ir30  1  0.750000  0.764033  0.819816  1
  Ir  Ir31  1  0.750000  0.735967  0.319816  1
  Ir  Ir32  1  0.250000  0.888579  0.704010  1
  Ir  Ir33  1  0.250000  0.611421  0.204010  1
  Ir  Ir34  1  0.750000  0.111421  0.295990  1
  Ir  Ir35  1  0.750000  0.388579  0.795990  1
