# generated using pymatgen
data_Rb3Ti2AlO7
_symmetry_space_group_name_H-M   'P 1'
_cell_length_a   9.79317431
_cell_length_b   9.79317483
_cell_length_c   8.04096204
_cell_angle_alpha   71.58891602
_cell_angle_beta   71.58891522
_cell_angle_gamma   120.37678249
_symmetry_Int_Tables_number   1
_chemical_formula_structural   Rb3Ti2AlO7
_chemical_formula_sum   'Rb6 Ti4 Al2 O14'
_cell_volume   513.80340759
_cell_formula_units_Z   2
loop_
 _symmetry_equiv_pos_site_id
 _symmetry_equiv_pos_as_xyz
  1  'x, y, z'
loop_
 _atom_site_type_symbol
 _atom_site_label
 _atom_site_symmetry_multiplicity
 _atom_site_fract_x
 _atom_site_fract_y
 _atom_site_fract_z
 _atom_site_occupancy
  Rb  Rb0  1  0.581729  0.971161  0.746888  1
  Rb  Rb1  1  0.009640  0.990360  0.750000  1
  Rb  Rb2  1  0.971161  0.581729  0.246888  1
  Rb  Rb3  1  0.990360  0.009640  0.250000  1
  Rb  Rb4  1  0.028839  0.418271  0.753112  1
  Rb  Rb5  1  0.418271  0.028839  0.253112  1
  Ti  Ti6  1  0.768326  0.565199  0.758634  1
  Ti  Ti7  1  0.434801  0.231674  0.741366  1
  Ti  Ti8  1  0.565199  0.768326  0.258634  1
  Ti  Ti9  1  0.231674  0.434801  0.241366  1
  Al  Al10  1  0.436076  0.563924  0.750000  1
  Al  Al11  1  0.563924  0.436076  0.250000  1
  O  O12  1  0.660841  0.673007  0.720398  1
  O  O13  1  0.673007  0.660841  0.220398  1
  O  O14  1  0.515850  0.263308  0.478873  1
  O  O15  1  0.326993  0.339159  0.779602  1
  O  O16  1  0.984428  0.257822  0.452883  1
  O  O17  1  0.484150  0.736692  0.521127  1
  O  O18  1  0.257822  0.984428  0.952883  1
  O  O19  1  0.263308  0.515850  0.978873  1
  O  O20  1  0.346765  0.653235  0.250000  1
  O  O21  1  0.339159  0.326993  0.279602  1
  O  O22  1  0.742178  0.015572  0.047117  1
  O  O23  1  0.653235  0.346765  0.750000  1
  O  O24  1  0.015572  0.742178  0.547117  1
  O  O25  1  0.736692  0.484150  0.021127  1
