# generated using pymatgen
data_Sr3Ga4NiIr3
_symmetry_space_group_name_H-M   'P 1'
_cell_length_a   6.76999131
_cell_length_b   6.76999156
_cell_length_c   6.76999127
_cell_angle_alpha   109.86257709
_cell_angle_beta   109.86257731
_cell_angle_gamma   109.86258167
_symmetry_Int_Tables_number   1
_chemical_formula_structural   Sr3Ga4NiIr3
_chemical_formula_sum   'Sr3 Ga4 Ni1 Ir3'
_cell_volume   235.33488121
_cell_formula_units_Z   1
loop_
 _symmetry_equiv_pos_site_id
 _symmetry_equiv_pos_as_xyz
  1  'x, y, z'
loop_
 _atom_site_type_symbol
 _atom_site_label
 _atom_site_symmetry_multiplicity
 _atom_site_fract_x
 _atom_site_fract_y
 _atom_site_fract_z
 _atom_site_occupancy
  Sr  Sr0  1  0.003318  0.501226  0.501226  1
  Sr  Sr1  1  0.501226  0.003318  0.501226  1
  Sr  Sr2  1  0.501226  0.501226  0.003318  1
  Ga  Ga3  1  0.605325  0.605325  0.605325  1
  Ga  Ga4  1  0.003908  0.003908  0.387421  1
  Ga  Ga5  1  0.003908  0.387421  0.003908  1
  Ga  Ga6  1  0.387421  0.003908  0.003908  1
  Ni  Ni7  1  0.244216  0.244216  0.244216  1
  Ir  Ir8  1  0.001017  0.001017  0.747417  1
  Ir  Ir9  1  0.001017  0.747417  0.001017  1
  Ir  Ir10  1  0.747417  0.001017  0.001017  1
