# generated using pymatgen
data_Zr8Tl3InCuNi7
_symmetry_space_group_name_H-M   'P 1'
_cell_length_a   7.27628420
_cell_length_b   7.27780205
_cell_length_c   6.75009213
_cell_angle_alpha   89.99142023
_cell_angle_beta   89.99865203
_cell_angle_gamma   89.80388053
_symmetry_Int_Tables_number   1
_chemical_formula_structural   Zr8Tl3InCuNi7
_chemical_formula_sum   'Zr8 Tl3 In1 Cu1 Ni7'
_cell_volume   357.45143408
_cell_formula_units_Z   1
loop_
 _symmetry_equiv_pos_site_id
 _symmetry_equiv_pos_as_xyz
  1  'x, y, z'
loop_
 _atom_site_type_symbol
 _atom_site_label
 _atom_site_symmetry_multiplicity
 _atom_site_fract_x
 _atom_site_fract_y
 _atom_site_fract_z
 _atom_site_occupancy
  Zr  Zr0  1  0.660262  0.343501  0.994851  1
  Zr  Zr1  1  0.345300  0.661783  0.994974  1
  Zr  Zr2  1  0.839697  0.841556  0.499884  1
  Zr  Zr3  1  0.153526  0.151866  0.505362  1
  Zr  Zr4  1  0.174655  0.173376  0.996854  1
  Zr  Zr5  1  0.821171  0.822444  0.999885  1
  Zr  Zr6  1  0.323187  0.684299  0.504241  1
  Zr  Zr7  1  0.683120  0.321908  0.504221  1
  Tl  Tl8  1  0.500215  0.000277  0.249527  1
  Tl  Tl9  1  0.000030  0.500260  0.249746  1
  Tl  Tl10  1  0.002914  0.500849  0.750597  1
  In  In11  1  0.500710  0.002912  0.750456  1
  Cu  Cu12  1  0.375348  0.376053  0.281849  1
  Ni  Ni13  1  0.621145  0.620903  0.274689  1
  Ni  Ni14  1  0.123432  0.875137  0.223219  1
  Ni  Ni15  1  0.875674  0.123910  0.223092  1
  Ni  Ni16  1  0.623020  0.626744  0.723614  1
  Ni  Ni17  1  0.378198  0.374047  0.723580  1
  Ni  Ni18  1  0.125303  0.876799  0.774744  1
  Ni  Ni19  1  0.873091  0.121374  0.774611  1
