# generated using pymatgen
data_Er10Tl3Pt
_symmetry_space_group_name_H-M   'P 1'
_cell_length_a   9.70451900
_cell_length_b   9.70451790
_cell_length_c   9.70839000
_cell_angle_alpha   90.00000000
_cell_angle_beta   90.00000000
_cell_angle_gamma   120.00000035
_symmetry_Int_Tables_number   1
_chemical_formula_structural   Er10Tl3Pt
_chemical_formula_sum   'Er20 Tl6 Pt2'
_cell_volume   791.81882810
_cell_formula_units_Z   2
loop_
 _symmetry_equiv_pos_site_id
 _symmetry_equiv_pos_as_xyz
  1  'x, y, z'
loop_
 _atom_site_type_symbol
 _atom_site_label
 _atom_site_symmetry_multiplicity
 _atom_site_fract_x
 _atom_site_fract_y
 _atom_site_fract_z
 _atom_site_occupancy
  Er  Er0  1  0.209415  0.790585  0.942249  1
  Er  Er1  1  0.209415  0.418829  0.942249  1
  Er  Er2  1  0.581171  0.790585  0.942249  1
  Er  Er3  1  0.790585  0.209415  0.057751  1
  Er  Er4  1  0.790585  0.581171  0.057751  1
  Er  Er5  1  0.418829  0.209415  0.057751  1
  Er  Er6  1  0.790585  0.209415  0.442249  1
  Er  Er7  1  0.790585  0.581171  0.442249  1
  Er  Er8  1  0.418829  0.209415  0.442249  1
  Er  Er9  1  0.209415  0.790585  0.557751  1
  Er  Er10  1  0.209415  0.418829  0.557751  1
  Er  Er11  1  0.581171  0.790585  0.557751  1
  Er  Er12  1  0.540605  0.459395  0.750000  1
  Er  Er13  1  0.540605  0.081208  0.750000  1
  Er  Er14  1  0.918792  0.459395  0.750000  1
  Er  Er15  1  0.459395  0.540605  0.250000  1
  Er  Er16  1  0.459395  0.918792  0.250000  1
  Er  Er17  1  0.081208  0.540605  0.250000  1
  Er  Er18  1  0.000000  0.000000  0.000000  1
  Er  Er19  1  0.000000  0.000000  0.500000  1
  Tl  Tl20  1  0.881065  0.118935  0.750000  1
  Tl  Tl21  1  0.881065  0.762130  0.750000  1
  Tl  Tl22  1  0.237870  0.118935  0.750000  1
  Tl  Tl23  1  0.118935  0.881065  0.250000  1
  Tl  Tl24  1  0.118935  0.237870  0.250000  1
  Tl  Tl25  1  0.762130  0.881065  0.250000  1
  Pt  Pt26  1  0.333333  0.666667  0.750000  1
  Pt  Pt27  1  0.666667  0.333333  0.250000  1
