# generated using pymatgen
data_TmPa3ZnCo13B6
_symmetry_space_group_name_H-M   'P 1'
_cell_length_a   4.96622400
_cell_length_b   4.96622387
_cell_length_c   12.93299900
_cell_angle_alpha   90.00000000
_cell_angle_beta   90.00000000
_cell_angle_gamma   120.00000084
_symmetry_Int_Tables_number   1
_chemical_formula_structural   TmPa3ZnCo13B6
_chemical_formula_sum   'Tm1 Pa3 Zn1 Co13 B6'
_cell_volume   276.23739499
_cell_formula_units_Z   1
loop_
 _symmetry_equiv_pos_site_id
 _symmetry_equiv_pos_as_xyz
  1  'x, y, z'
loop_
 _atom_site_type_symbol
 _atom_site_label
 _atom_site_symmetry_multiplicity
 _atom_site_fract_x
 _atom_site_fract_y
 _atom_site_fract_z
 _atom_site_occupancy
  Tm  Tm0  1  0.000000  0.000000  0.500000  1
  Pa  Pa1  1  0.000000  0.000000  0.000000  1
  Pa  Pa2  1  0.000000  0.000000  0.742211  1
  Pa  Pa3  1  0.000000  0.000000  0.257789  1
  Zn  Zn4  1  0.666667  0.333333  0.000000  1
  Co  Co5  1  0.333333  0.666667  0.000000  1
  Co  Co6  1  0.498193  0.501807  0.843853  1
  Co  Co7  1  0.498193  0.996386  0.843853  1
  Co  Co8  1  0.003614  0.501807  0.843853  1
  Co  Co9  1  0.498193  0.501807  0.156147  1
  Co  Co10  1  0.498193  0.996386  0.156147  1
  Co  Co11  1  0.003614  0.501807  0.156147  1
  Co  Co12  1  0.500130  0.499870  0.616400  1
  Co  Co13  1  0.500130  0.000259  0.616400  1
  Co  Co14  1  0.999741  0.499870  0.616400  1
  Co  Co15  1  0.500130  0.499870  0.383600  1
  Co  Co16  1  0.500130  0.000259  0.383600  1
  Co  Co17  1  0.999741  0.499870  0.383600  1
  B  B18  1  0.666667  0.333333  0.500000  1
  B  B19  1  0.333333  0.666667  0.500000  1
  B  B20  1  0.666667  0.333333  0.732052  1
  B  B21  1  0.333333  0.666667  0.731915  1
  B  B22  1  0.333333  0.666667  0.268085  1
  B  B23  1  0.666667  0.333333  0.267948  1
