# generated using pymatgen
data_HoEr5(MoO6)2
_symmetry_space_group_name_H-M   'P 1'
_cell_length_a   6.58578499
_cell_length_b   6.58825307
_cell_length_c   6.58636010
_cell_angle_alpha   92.10971640
_cell_angle_beta   92.08212079
_cell_angle_gamma   92.07580546
_symmetry_Int_Tables_number   1
_chemical_formula_structural   HoEr5(MoO6)2
_chemical_formula_sum   'Ho1 Er5 Mo2 O12'
_cell_volume   285.19021512
_cell_formula_units_Z   1
loop_
 _symmetry_equiv_pos_site_id
 _symmetry_equiv_pos_as_xyz
  1  'x, y, z'
loop_
 _atom_site_type_symbol
 _atom_site_label
 _atom_site_symmetry_multiplicity
 _atom_site_fract_x
 _atom_site_fract_y
 _atom_site_fract_z
 _atom_site_occupancy
  Ho  Ho0  1  0.560407  0.253121  0.069007  1
  Er  Er1  1  0.746975  0.930681  0.439746  1
  Er  Er2  1  0.931129  0.439695  0.746792  1
  Er  Er3  1  0.439430  0.746933  0.930782  1
  Er  Er4  1  0.252931  0.068949  0.560394  1
  Er  Er5  1  0.069130  0.560669  0.253131  1
  Mo  Mo6  1  0.499890  0.500282  0.499931  1
  Mo  Mo7  1  0.999991  0.999705  0.999942  1
  O  O8  1  0.597398  0.466879  0.811958  1
  O  O9  1  0.466170  0.812513  0.597209  1
  O  O10  1  0.812514  0.597215  0.466123  1
  O  O11  1  0.402344  0.534697  0.187806  1
  O  O12  1  0.533830  0.187325  0.403833  1
  O  O13  1  0.187484  0.402746  0.533868  1
  O  O14  1  0.069924  0.909275  0.311846  1
  O  O15  1  0.910157  0.311931  0.069772  1
  O  O16  1  0.688382  0.929263  0.090930  1
  O  O17  1  0.090723  0.688100  0.930083  1
  O  O18  1  0.930010  0.090806  0.688186  1
  O  O19  1  0.311178  0.069216  0.908660  1
