# generated using pymatgen
data_EuNi2(Sb6Os)2
_symmetry_space_group_name_H-M   'P 1'
_cell_length_a   8.13241588
_cell_length_b   8.13597049
_cell_length_c   8.13241539
_cell_angle_alpha   109.56508244
_cell_angle_beta   109.34826091
_cell_angle_gamma   109.48262937
_symmetry_Int_Tables_number   1
_chemical_formula_structural   EuNi2(Sb6Os)2
_chemical_formula_sum   'Eu1 Ni2 Sb12 Os2'
_cell_volume   414.30501673
_cell_formula_units_Z   1
loop_
 _symmetry_equiv_pos_site_id
 _symmetry_equiv_pos_as_xyz
  1  'x, y, z'
loop_
 _atom_site_type_symbol
 _atom_site_label
 _atom_site_symmetry_multiplicity
 _atom_site_fract_x
 _atom_site_fract_y
 _atom_site_fract_z
 _atom_site_occupancy
  Eu  Eu0  1  0.000000  0.000000  0.000000  1
  Ni  Ni1  1  0.500000  0.500000  0.500000  1
  Ni  Ni2  1  0.000000  0.500000  0.000000  1
  Sb  Sb3  1  0.341192  0.161626  0.496802  1
  Sb  Sb4  1  0.335175  0.838374  0.179567  1
  Sb  Sb5  1  0.664825  0.161626  0.820433  1
  Sb  Sb6  1  0.820555  0.659036  0.154779  1
  Sb  Sb7  1  0.158741  0.494399  0.335659  1
  Sb  Sb8  1  0.504257  0.659036  0.838480  1
  Sb  Sb9  1  0.844208  0.183952  0.339743  1
  Sb  Sb10  1  0.658808  0.838374  0.503198  1
  Sb  Sb11  1  0.179445  0.340964  0.845221  1
  Sb  Sb12  1  0.155792  0.816048  0.660257  1
  Sb  Sb13  1  0.495743  0.340964  0.161520  1
  Sb  Sb14  1  0.841259  0.505601  0.664341  1
  Os  Os15  1  0.500000  0.000000  0.000000  1
  Os  Os16  1  0.000000  0.000000  0.500000  1
