# generated using pymatgen
data_Y3Er17(FeHg3)2
_symmetry_space_group_name_H-M   'P 1'
_cell_length_a   9.51036500
_cell_length_b   9.51036539
_cell_length_c   9.53923600
_cell_angle_alpha   90.00000000
_cell_angle_beta   90.00000000
_cell_angle_gamma   119.99998823
_symmetry_Int_Tables_number   1
_chemical_formula_structural   Y3Er17(FeHg3)2
_chemical_formula_sum   'Y3 Er17 Fe2 Hg6'
_cell_volume   747.20309890
_cell_formula_units_Z   1
loop_
 _symmetry_equiv_pos_site_id
 _symmetry_equiv_pos_as_xyz
  1  'x, y, z'
loop_
 _atom_site_type_symbol
 _atom_site_label
 _atom_site_symmetry_multiplicity
 _atom_site_fract_x
 _atom_site_fract_y
 _atom_site_fract_z
 _atom_site_occupancy
  Y  Y0  1  0.458900  0.541100  0.750000  1
  Y  Y1  1  0.458900  0.917801  0.750000  1
  Y  Y2  1  0.082199  0.541100  0.750000  1
  Er  Er3  1  0.000000  0.000000  0.499651  1
  Er  Er4  1  0.000000  0.000000  0.000349  1
  Er  Er5  1  0.541669  0.458331  0.250000  1
  Er  Er6  1  0.541669  0.083338  0.250000  1
  Er  Er7  1  0.916662  0.458331  0.250000  1
  Er  Er8  1  0.211927  0.788073  0.435199  1
  Er  Er9  1  0.211927  0.423853  0.435199  1
  Er  Er10  1  0.576147  0.788073  0.435199  1
  Er  Er11  1  0.787766  0.212234  0.563367  1
  Er  Er12  1  0.787766  0.575531  0.563367  1
  Er  Er13  1  0.424469  0.212234  0.563367  1
  Er  Er14  1  0.787766  0.212234  0.936633  1
  Er  Er15  1  0.787766  0.575531  0.936633  1
  Er  Er16  1  0.424469  0.212234  0.936633  1
  Er  Er17  1  0.211927  0.788073  0.064801  1
  Er  Er18  1  0.211927  0.423853  0.064801  1
  Er  Er19  1  0.576147  0.788073  0.064801  1
  Fe  Fe20  1  0.333333  0.666667  0.250000  1
  Fe  Fe21  1  0.666667  0.333333  0.750000  1
  Hg  Hg22  1  0.881913  0.118087  0.250000  1
  Hg  Hg23  1  0.881913  0.763828  0.250000  1
  Hg  Hg24  1  0.236172  0.118087  0.250000  1
  Hg  Hg25  1  0.117141  0.882859  0.750000  1
  Hg  Hg26  1  0.117141  0.234283  0.750000  1
  Hg  Hg27  1  0.765717  0.882859  0.750000  1
