# generated using pymatgen
data_Tb8Er7Sc5Si15Ir
_symmetry_space_group_name_H-M   'P 1'
_cell_length_a   7.21553164
_cell_length_b   7.64977754
_cell_length_c   14.30675870
_cell_angle_alpha   90.11748928
_cell_angle_beta   90.04361542
_cell_angle_gamma   90.16810019
_symmetry_Int_Tables_number   1
_chemical_formula_structural   Tb8Er7Sc5Si15Ir
_chemical_formula_sum   'Tb8 Er7 Sc5 Si15 Ir1'
_cell_volume   789.68790010
_cell_formula_units_Z   1
loop_
 _symmetry_equiv_pos_site_id
 _symmetry_equiv_pos_as_xyz
  1  'x, y, z'
loop_
 _atom_site_type_symbol
 _atom_site_label
 _atom_site_symmetry_multiplicity
 _atom_site_fract_x
 _atom_site_fract_y
 _atom_site_fract_z
 _atom_site_occupancy
  Tb  Tb0  1  0.017900  0.182241  0.097180  1
  Tb  Tb1  1  0.986434  0.823126  0.905867  1
  Tb  Tb2  1  0.482905  0.681362  0.904938  1
  Tb  Tb3  1  0.984895  0.823946  0.596391  1
  Tb  Tb4  1  0.516592  0.319855  0.096225  1
  Tb  Tb5  1  0.018153  0.183785  0.400985  1
  Tb  Tb6  1  0.517365  0.320095  0.401794  1
  Tb  Tb7  1  0.483678  0.680841  0.595285  1
  Er  Er8  1  0.311118  0.172740  0.628304  1
  Er  Er9  1  0.678624  0.825598  0.372466  1
  Er  Er10  1  0.177425  0.678518  0.373109  1
  Er  Er11  1  0.677668  0.824930  0.125614  1
  Er  Er12  1  0.830222  0.317241  0.628506  1
  Er  Er13  1  0.311592  0.173346  0.873235  1
  Er  Er14  1  0.830296  0.319368  0.873531  1
  Sc  Sc15  1  0.155244  0.517000  0.750451  1
  Sc  Sc16  1  0.844580  0.489475  0.248430  1
  Sc  Sc17  1  0.343726  0.012483  0.248174  1
  Sc  Sc18  1  0.663714  0.986437  0.750633  1
  Sc  Sc19  1  0.177560  0.678075  0.127287  1
  Si  Si20  1  0.982755  0.896084  0.247149  1
  Si  Si21  1  0.476762  0.601321  0.246963  1
  Si  Si22  1  0.519214  0.402024  0.750733  1
  Si  Si23  1  0.282560  0.861293  0.750652  1
  Si  Si24  1  0.718301  0.136665  0.248888  1
  Si  Si25  1  0.219301  0.368876  0.248079  1
  Si  Si26  1  0.774030  0.629676  0.750555  1
  Si  Si27  1  0.154550  0.472124  0.538814  1
  Si  Si28  1  0.845860  0.531454  0.460418  1
  Si  Si29  1  0.347807  0.970796  0.459202  1
  Si  Si30  1  0.854218  0.532117  0.042329  1
  Si  Si31  1  0.650182  0.031245  0.539264  1
  Si  Si32  1  0.158269  0.474374  0.965583  1
  Si  Si33  1  0.649859  0.030385  0.960569  1
  Si  Si34  1  0.342482  0.964330  0.041335  1
  Ir  Ir35  1  0.014158  0.086775  0.751063  1
