# generated using pymatgen
data_Nd6AlSi5Rh12
_symmetry_space_group_name_H-M   'P 1'
_cell_length_a   5.68481200
_cell_length_b   5.68482040
_cell_length_c   15.22306500
_cell_angle_alpha   89.99931116
_cell_angle_beta   90.00153003
_cell_angle_gamma   120.00006821
_symmetry_Int_Tables_number   1
_chemical_formula_structural   Nd6AlSi5Rh12
_chemical_formula_sum   'Nd6 Al1 Si5 Rh12'
_cell_volume   426.05463127
_cell_formula_units_Z   1
loop_
 _symmetry_equiv_pos_site_id
 _symmetry_equiv_pos_as_xyz
  1  'x, y, z'
loop_
 _atom_site_type_symbol
 _atom_site_label
 _atom_site_symmetry_multiplicity
 _atom_site_fract_x
 _atom_site_fract_y
 _atom_site_fract_z
 _atom_site_occupancy
  Nd  Nd0  1  0.666664  0.333334  0.962232  1
  Nd  Nd1  1  0.666665  0.333331  0.537045  1
  Nd  Nd2  1  0.333336  0.666666  0.037768  1
  Nd  Nd3  1  0.666605  0.333321  0.749630  1
  Nd  Nd4  1  0.333335  0.666669  0.462955  1
  Nd  Nd5  1  0.333395  0.666679  0.250370  1
  Al  Al6  1  0.000000  0.000000  0.500000  1
  Si  Si7  1  0.666670  0.333333  0.248274  1
  Si  Si8  1  0.000003  0.999997  0.249516  1
  Si  Si9  1  0.999997  0.000003  0.750484  1
  Si  Si10  1  0.333330  0.666667  0.751726  1
  Si  Si11  1  0.000000  0.000000  0.000000  1
  Rh  Rh12  1  0.165390  0.330785  0.866587  1
  Rh  Rh13  1  0.166752  0.333517  0.635912  1
  Rh  Rh14  1  0.669216  0.834617  0.866583  1
  Rh  Rh15  1  0.333512  0.166762  0.364090  1
  Rh  Rh16  1  0.833248  0.666483  0.364088  1
  Rh  Rh17  1  0.833238  0.166746  0.364086  1
  Rh  Rh18  1  0.834617  0.165391  0.133414  1
  Rh  Rh19  1  0.330784  0.165383  0.133417  1
  Rh  Rh20  1  0.666488  0.833238  0.635910  1
  Rh  Rh21  1  0.166762  0.833254  0.635914  1
  Rh  Rh22  1  0.834610  0.669215  0.133413  1
  Rh  Rh23  1  0.165383  0.834609  0.866586  1
