# generated using pymatgen
data_Nd8DyYPb6
_symmetry_space_group_name_H-M   'P 1'
_cell_length_a   9.32855900
_cell_length_b   9.32855819
_cell_length_c   6.86191900
_cell_angle_alpha   90.00000000
_cell_angle_beta   90.00000000
_cell_angle_gamma   119.99999225
_symmetry_Int_Tables_number   1
_chemical_formula_structural   Nd8DyYPb6
_chemical_formula_sum   'Nd8 Dy1 Y1 Pb6'
_cell_volume   517.13667671
_cell_formula_units_Z   1
loop_
 _symmetry_equiv_pos_site_id
 _symmetry_equiv_pos_as_xyz
  1  'x, y, z'
loop_
 _atom_site_type_symbol
 _atom_site_label
 _atom_site_symmetry_multiplicity
 _atom_site_fract_x
 _atom_site_fract_y
 _atom_site_fract_z
 _atom_site_occupancy
  Nd  Nd0  1  0.666667  0.333333  0.000000  1
  Nd  Nd1  1  0.333333  0.666667  0.000000  1
  Nd  Nd2  1  0.760810  0.760830  0.748367  1
  Nd  Nd3  1  0.239170  0.999980  0.748367  1
  Nd  Nd4  1  0.000020  0.239190  0.748367  1
  Nd  Nd5  1  0.239170  0.239190  0.251633  1
  Nd  Nd6  1  0.760810  0.999980  0.251633  1
  Nd  Nd7  1  0.000020  0.760830  0.251633  1
  Dy  Dy8  1  0.333333  0.666667  0.500000  1
  Y  Y9  1  0.666667  0.333333  0.500000  1
  Pb  Pb10  1  0.396388  0.396470  0.743322  1
  Pb  Pb11  1  0.603530  0.999917  0.743322  1
  Pb  Pb12  1  0.000083  0.603612  0.743322  1
  Pb  Pb13  1  0.603530  0.603612  0.256678  1
  Pb  Pb14  1  0.396388  0.999917  0.256678  1
  Pb  Pb15  1  0.000083  0.396470  0.256678  1
