# generated using pymatgen
data_CrNi2Sb12Pt
_symmetry_space_group_name_H-M   'P 1'
_cell_length_a   8.07565897
_cell_length_b   8.12461586
_cell_length_c   8.11075330
_cell_angle_alpha   109.55851133
_cell_angle_beta   109.21392497
_cell_angle_gamma   109.36235186
_symmetry_Int_Tables_number   1
_chemical_formula_structural   CrNi2Sb12Pt
_chemical_formula_sum   'Cr1 Ni2 Sb12 Pt1'
_cell_volume   411.05779496
_cell_formula_units_Z   1
loop_
 _symmetry_equiv_pos_site_id
 _symmetry_equiv_pos_as_xyz
  1  'x, y, z'
loop_
 _atom_site_type_symbol
 _atom_site_label
 _atom_site_symmetry_multiplicity
 _atom_site_fract_x
 _atom_site_fract_y
 _atom_site_fract_z
 _atom_site_occupancy
  Cr  Cr0  1  0.500000  0.000000  0.000000  1
  Ni  Ni1  1  0.000000  0.500000  0.000000  1
  Ni  Ni2  1  0.500000  0.500000  0.500000  1
  Sb  Sb3  1  0.157468  0.810841  0.660779  1
  Sb  Sb4  1  0.842532  0.189159  0.339221  1
  Sb  Sb5  1  0.841556  0.504410  0.664668  1
  Sb  Sb6  1  0.158444  0.495590  0.335332  1
  Sb  Sb7  1  0.814679  0.653109  0.149016  1
  Sb  Sb8  1  0.185321  0.346891  0.850984  1
  Sb  Sb9  1  0.504395  0.659171  0.838844  1
  Sb  Sb10  1  0.495605  0.340829  0.161156  1
  Sb  Sb11  1  0.665236  0.161170  0.820444  1
  Sb  Sb12  1  0.334764  0.838830  0.179556  1
  Sb  Sb13  1  0.651299  0.837056  0.504285  1
  Sb  Sb14  1  0.348701  0.162944  0.495715  1
  Pt  Pt15  1  0.000000  0.000000  0.500000  1
