# generated using pymatgen
data_CaSmB2(Ru2C)2
_symmetry_space_group_name_H-M   'P 1'
_cell_length_a   6.69501098
_cell_length_b   5.89545434
_cell_length_c   5.52052330
_cell_angle_alpha   71.72688323
_cell_angle_beta   56.73779876
_cell_angle_gamma   51.53532587
_symmetry_Int_Tables_number   1
_chemical_formula_structural   CaSmB2(Ru2C)2
_chemical_formula_sum   'Ca1 Sm1 B2 Ru4 C2'
_cell_volume   142.53237179
_cell_formula_units_Z   1
loop_
 _symmetry_equiv_pos_site_id
 _symmetry_equiv_pos_as_xyz
  1  'x, y, z'
loop_
 _atom_site_type_symbol
 _atom_site_label
 _atom_site_symmetry_multiplicity
 _atom_site_fract_x
 _atom_site_fract_y
 _atom_site_fract_z
 _atom_site_occupancy
  Ca  Ca0  1  0.000000  0.000000  0.000000  1
  Sm  Sm1  1  0.250000  0.250000  0.250000  1
  B  B2  1  0.931877  0.568123  0.931877  1
  B  B3  1  0.568123  0.931877  0.568123  1
  Ru  Ru4  1  0.608046  0.608046  0.891954  1
  Ru  Ru5  1  0.631385  0.631385  0.368615  1
  Ru  Ru6  1  0.368615  0.368615  0.631385  1
  Ru  Ru7  1  0.891954  0.891954  0.608046  1
  C  C8  1  0.684355  0.315645  0.684355  1
  C  C9  1  0.315645  0.684355  0.315645  1
