# generated using pymatgen
data_LaTb2Dy2(CoB3)2
_symmetry_space_group_name_H-M   'P 1'
_cell_length_a   5.43683857
_cell_length_b   5.43683872
_cell_length_c   8.40762975
_cell_angle_alpha   71.13571642
_cell_angle_beta   71.13571544
_cell_angle_gamma   59.99998936
_symmetry_Int_Tables_number   1
_chemical_formula_structural   LaTb2Dy2(CoB3)2
_chemical_formula_sum   'La1 Tb2 Dy2 Co2 B6'
_cell_volume   199.66449406
_cell_formula_units_Z   1
loop_
 _symmetry_equiv_pos_site_id
 _symmetry_equiv_pos_as_xyz
  1  'x, y, z'
loop_
 _atom_site_type_symbol
 _atom_site_label
 _atom_site_symmetry_multiplicity
 _atom_site_fract_x
 _atom_site_fract_y
 _atom_site_fract_z
 _atom_site_occupancy
  La  La0  1  0.000000  0.000000  0.000000  1
  Tb  Tb1  1  0.251026  0.251026  0.246922  1
  Tb  Tb2  1  0.748974  0.748974  0.753078  1
  Dy  Dy3  1  0.417404  0.417404  0.747789  1
  Dy  Dy4  1  0.582596  0.582596  0.252211  1
  Co  Co5  1  0.119349  0.119349  0.641954  1
  Co  Co6  1  0.880651  0.880651  0.358046  1
  B  B7  1  0.168442  0.831558  0.500000  1
  B  B8  1  0.831558  0.500000  0.500000  1
  B  B9  1  0.500000  0.168442  0.500000  1
  B  B10  1  0.168442  0.500000  0.500000  1
  B  B11  1  0.500000  0.831558  0.500000  1
  B  B12  1  0.831558  0.168442  0.500000  1
