# generated using pymatgen
data_YbY2Si6(Pd3Pt)5
_symmetry_space_group_name_H-M   'P 1'
_cell_length_a   8.71297897
_cell_length_b   8.72230755
_cell_length_c   8.73395500
_cell_angle_alpha   59.95588121
_cell_angle_beta   59.92039489
_cell_angle_gamma   59.82113560
_symmetry_Int_Tables_number   1
_chemical_formula_structural   YbY2Si6(Pd3Pt)5
_chemical_formula_sum   'Yb1 Y2 Si6 Pd15 Pt5'
_cell_volume   468.27158298
_cell_formula_units_Z   1
loop_
 _symmetry_equiv_pos_site_id
 _symmetry_equiv_pos_as_xyz
  1  'x, y, z'
loop_
 _atom_site_type_symbol
 _atom_site_label
 _atom_site_symmetry_multiplicity
 _atom_site_fract_x
 _atom_site_fract_y
 _atom_site_fract_z
 _atom_site_occupancy
  Yb  Yb0  1  0.999968  0.000067  0.999982  1
  Y  Y1  1  0.250947  0.250198  0.249427  1
  Y  Y2  1  0.748769  0.749960  0.750635  1
  Si  Si3  1  0.731713  0.267803  0.266941  1
  Si  Si4  1  0.269074  0.731219  0.732129  1
  Si  Si5  1  0.269074  0.731219  0.267577  1
  Si  Si6  1  0.731714  0.267802  0.733544  1
  Si  Si7  1  0.267930  0.267184  0.732443  1
  Si  Si8  1  0.731322  0.732148  0.268265  1
  Pd  Pd9  1  0.619531  0.148709  0.615881  1
  Pd  Pd10  1  0.851357  0.380661  0.383991  1
  Pd  Pd11  1  0.147085  0.617874  0.617521  1
  Pd  Pd12  1  0.344541  0.000347  0.999716  1
  Pd  Pd13  1  0.654922  0.000834  0.000236  1
  Pd  Pd14  1  0.999472  0.345656  0.655492  1
  Pd  Pd15  1  0.999728  0.656062  0.344562  1
  Pd  Pd16  1  0.999472  0.345655  0.999381  1
  Pd  Pd17  1  0.654922  0.000834  0.344009  1
  Pd  Pd18  1  0.999728  0.656062  0.999647  1
  Pd  Pd19  1  0.344541  0.000348  0.655396  1
  Pd  Pd20  1  0.000038  0.000858  0.344548  1
  Pd  Pd21  1  0.000038  0.000857  0.654557  1
  Pd  Pd22  1  0.655606  0.345331  0.999532  1
  Pd  Pd23  1  0.344710  0.656988  0.999151  1
  Pt  Pt24  1  0.382653  0.382962  0.386434  1
  Pt  Pt25  1  0.618715  0.615324  0.614699  1
  Pt  Pt26  1  0.382653  0.382962  0.847952  1
  Pt  Pt27  1  0.381061  0.848756  0.385092  1
  Pt  Pt28  1  0.618716  0.615324  0.151261  1
