# generated using pymatgen
data_CuNi2Sn10Ir9
_symmetry_space_group_name_H-M   'P 1'
_cell_length_a   6.95453075
_cell_length_b   6.94210489
_cell_length_c   9.91048683
_cell_angle_alpha   78.43639654
_cell_angle_beta   78.36552325
_cell_angle_gamma   62.06039630
_symmetry_Int_Tables_number   1
_chemical_formula_structural   CuNi2Sn10Ir9
_chemical_formula_sum   'Cu1 Ni2 Sn10 Ir9'
_cell_volume   410.89875605
_cell_formula_units_Z   1
loop_
 _symmetry_equiv_pos_site_id
 _symmetry_equiv_pos_as_xyz
  1  'x, y, z'
loop_
 _atom_site_type_symbol
 _atom_site_label
 _atom_site_symmetry_multiplicity
 _atom_site_fract_x
 _atom_site_fract_y
 _atom_site_fract_z
 _atom_site_occupancy
  Cu  Cu0  1  0.000000  0.000000  0.000000  1
  Ni  Ni1  1  0.161872  0.849225  0.755350  1
  Ni  Ni2  1  0.838128  0.150775  0.244650  1
  Sn  Sn3  1  0.764581  0.457335  0.036897  1
  Sn  Sn4  1  0.553931  0.230308  0.465437  1
  Sn  Sn5  1  0.235419  0.542665  0.963103  1
  Sn  Sn6  1  0.446069  0.769692  0.534563  1
  Sn  Sn7  1  0.372307  0.046329  0.851034  1
  Sn  Sn8  1  0.952900  0.636578  0.646195  1
  Sn  Sn9  1  0.627693  0.953671  0.148966  1
  Sn  Sn10  1  0.047100  0.363422  0.353805  1
  Sn  Sn11  1  0.799867  0.199481  0.743120  1
  Sn  Sn12  1  0.200133  0.800519  0.256880  1
  Ir  Ir13  1  0.378378  0.425966  0.699475  1
  Ir  Ir14  1  0.587607  0.617245  0.801264  1
  Ir  Ir15  1  0.621622  0.574034  0.300525  1
  Ir  Ir16  1  0.412393  0.382755  0.198736  1
  Ir  Ir17  1  0.190697  0.184558  0.101406  1
  Ir  Ir18  1  0.804288  0.801599  0.394883  1
  Ir  Ir19  1  0.809303  0.815442  0.898594  1
  Ir  Ir20  1  0.195712  0.198401  0.605117  1
  Ir  Ir21  1  0.000000  0.000000  0.500000  1
