# generated using pymatgen
data_Hg3Bi2(SeCl4)2
_symmetry_space_group_name_H-M   'P 1'
_cell_length_a   7.75012757
_cell_length_b   7.75012754
_cell_length_c   9.61880312
_cell_angle_alpha   67.10469514
_cell_angle_beta   67.10469608
_cell_angle_gamma   59.39244608
_symmetry_Int_Tables_number   1
_chemical_formula_structural   Hg3Bi2(SeCl4)2
_chemical_formula_sum   'Hg3 Bi2 Se2 Cl8'
_cell_volume   444.59378011
_cell_formula_units_Z   1
loop_
 _symmetry_equiv_pos_site_id
 _symmetry_equiv_pos_as_xyz
  1  'x, y, z'
loop_
 _atom_site_type_symbol
 _atom_site_label
 _atom_site_symmetry_multiplicity
 _atom_site_fract_x
 _atom_site_fract_y
 _atom_site_fract_z
 _atom_site_occupancy
  Hg  Hg0  1  0.000000  0.500000  0.000000  1
  Hg  Hg1  1  0.500000  0.000000  0.000000  1
  Hg  Hg2  1  0.500000  0.500000  0.000000  1
  Bi  Bi3  1  0.126296  0.126296  0.576370  1
  Bi  Bi4  1  0.873704  0.873704  0.423630  1
  Se  Se5  1  0.619288  0.619288  0.143905  1
  Se  Se6  1  0.380712  0.380712  0.856095  1
  Cl  Cl7  1  0.232714  0.767286  0.500000  1
  Cl  Cl8  1  0.767286  0.232714  0.500000  1
  Cl  Cl9  1  0.930074  0.456712  0.706256  1
  Cl  Cl10  1  0.456712  0.930074  0.706256  1
  Cl  Cl11  1  0.069926  0.543288  0.293744  1
  Cl  Cl12  1  0.543288  0.069926  0.293744  1
  Cl  Cl13  1  0.953038  0.953038  0.847609  1
  Cl  Cl14  1  0.046962  0.046962  0.152391  1
