# generated using pymatgen
data_Tm2Lu13Th(CdNi)4
_symmetry_space_group_name_H-M   'P 1'
_cell_length_a   9.39269543
_cell_length_b   9.39561158
_cell_length_c   9.39561103
_cell_angle_alpha   59.96880643
_cell_angle_beta   59.96112921
_cell_angle_gamma   59.96113547
_symmetry_Int_Tables_number   1
_chemical_formula_structural   Tm2Lu13Th(CdNi)4
_chemical_formula_sum   'Tm2 Lu13 Th1 Cd4 Ni4'
_cell_volume   585.82455015
_cell_formula_units_Z   1
loop_
 _symmetry_equiv_pos_site_id
 _symmetry_equiv_pos_as_xyz
  1  'x, y, z'
loop_
 _atom_site_type_symbol
 _atom_site_label
 _atom_site_symmetry_multiplicity
 _atom_site_fract_x
 _atom_site_fract_y
 _atom_site_fract_z
 _atom_site_occupancy
  Tm  Tm0  1  0.348951  0.349277  0.950660  1
  Tm  Tm1  1  0.348951  0.950660  0.349277  1
  Lu  Lu2  1  0.950949  0.349169  0.349169  1
  Lu  Lu3  1  0.813570  0.187026  0.187026  1
  Lu  Lu4  1  0.188802  0.811828  0.811828  1
  Lu  Lu5  1  0.186887  0.813573  0.186812  1
  Lu  Lu6  1  0.811798  0.188851  0.811519  1
  Lu  Lu7  1  0.186887  0.186812  0.813573  1
  Lu  Lu8  1  0.811798  0.811519  0.188851  1
  Lu  Lu9  1  0.935278  0.565295  0.565295  1
  Lu  Lu10  1  0.564592  0.936088  0.936088  1
  Lu  Lu11  1  0.565235  0.935372  0.565356  1
  Lu  Lu12  1  0.936091  0.564521  0.936299  1
  Lu  Lu13  1  0.565235  0.565356  0.935372  1
  Lu  Lu14  1  0.936091  0.936299  0.564521  1
  Th  Th15  1  0.346696  0.347206  0.347206  1
  Cd  Cd16  1  0.582371  0.581716  0.581716  1
  Cd  Cd17  1  0.583989  0.583451  0.252474  1
  Cd  Cd18  1  0.583989  0.252474  0.583451  1
  Cd  Cd19  1  0.252352  0.583651  0.583651  1
  Ni  Ni20  1  0.142172  0.142464  0.142464  1
  Ni  Ni21  1  0.142160  0.142274  0.572886  1
  Ni  Ni22  1  0.142160  0.572886  0.142274  1
  Ni  Ni23  1  0.572999  0.142232  0.142232  1
