# generated using pymatgen
data_La3Nd7Bi6AsBr
_symmetry_space_group_name_H-M   'P 1'
_cell_length_a   9.66112605
_cell_length_b   9.66210553
_cell_length_c   6.88271903
_cell_angle_alpha   89.99424105
_cell_angle_beta   90.01152500
_cell_angle_gamma   119.99665349
_symmetry_Int_Tables_number   1
_chemical_formula_structural   La3Nd7Bi6AsBr
_chemical_formula_sum   'La3 Nd7 Bi6 As1 Br1'
_cell_volume   556.42269228
_cell_formula_units_Z   1
loop_
 _symmetry_equiv_pos_site_id
 _symmetry_equiv_pos_as_xyz
  1  'x, y, z'
loop_
 _atom_site_type_symbol
 _atom_site_label
 _atom_site_symmetry_multiplicity
 _atom_site_fract_x
 _atom_site_fract_y
 _atom_site_fract_z
 _atom_site_occupancy
  La  La0  1  0.258075  0.000000  0.261265  1
  La  La1  1  0.256980  0.257719  0.738441  1
  La  La2  1  0.999261  0.742281  0.738441  1
  Nd  Nd3  1  0.743223  0.000000  0.736975  1
  Nd  Nd4  1  0.999159  0.257199  0.262614  1
  Nd  Nd5  1  0.741960  0.742801  0.262614  1
  Nd  Nd6  1  0.334107  0.666698  0.499569  1
  Nd  Nd7  1  0.333839  0.666691  0.000375  1
  Nd  Nd8  1  0.667410  0.333302  0.499569  1
  Nd  Nd9  1  0.667149  0.333309  0.000375  1
  Bi  Bi10  1  0.394375  0.000000  0.751421  1
  Bi  Bi11  1  0.611031  0.000000  0.248975  1
  Bi  Bi12  1  0.998521  0.606434  0.248439  1
  Bi  Bi13  1  0.608764  0.610308  0.750969  1
  Bi  Bi14  1  0.998456  0.389692  0.750969  1
  Bi  Bi15  1  0.392088  0.393566  0.248439  1
  As  As16  1  0.998433  0.000000  0.499228  1
  Br  Br17  1  0.997167  0.000000  0.001321  1
