# generated using pymatgen
data_Ba5Tm2MnAl2O13
_symmetry_space_group_name_H-M   'P 1'
_cell_length_a   5.90024800
_cell_length_b   5.90024693
_cell_length_c   24.67873000
_cell_angle_alpha   90.00000000
_cell_angle_beta   90.00000000
_cell_angle_gamma   119.99999478
_symmetry_Int_Tables_number   1
_chemical_formula_structural   Ba5Tm2MnAl2O13
_chemical_formula_sum   'Ba10 Tm4 Mn2 Al4 O26'
_cell_volume   744.03594152
_cell_formula_units_Z   2
loop_
 _symmetry_equiv_pos_site_id
 _symmetry_equiv_pos_as_xyz
  1  'x, y, z'
loop_
 _atom_site_type_symbol
 _atom_site_label
 _atom_site_symmetry_multiplicity
 _atom_site_fract_x
 _atom_site_fract_y
 _atom_site_fract_z
 _atom_site_occupancy
  Ba  Ba0  1  0.333333  0.666667  0.541071  1
  Ba  Ba1  1  0.666667  0.333333  0.458929  1
  Ba  Ba2  1  0.666667  0.333333  0.041071  1
  Ba  Ba3  1  0.333333  0.666667  0.958929  1
  Ba  Ba4  1  0.000000  0.000000  0.135401  1
  Ba  Ba5  1  0.000000  0.000000  0.864599  1
  Ba  Ba6  1  0.000000  0.000000  0.635401  1
  Ba  Ba7  1  0.000000  0.000000  0.364599  1
  Ba  Ba8  1  0.333333  0.666667  0.250000  1
  Ba  Ba9  1  0.666667  0.333333  0.750000  1
  Tm  Tm10  1  0.333333  0.666667  0.099854  1
  Tm  Tm11  1  0.666667  0.333333  0.900146  1
  Tm  Tm12  1  0.666667  0.333333  0.599854  1
  Tm  Tm13  1  0.333333  0.666667  0.400146  1
  Mn  Mn14  1  0.000000  0.000000  0.000000  1
  Mn  Mn15  1  0.000000  0.000000  0.500000  1
  Al  Al16  1  0.333333  0.666667  0.679415  1
  Al  Al17  1  0.666667  0.333333  0.320585  1
  Al  Al18  1  0.666667  0.333333  0.179415  1
  Al  Al19  1  0.333333  0.666667  0.820585  1
  O  O20  1  0.503197  0.006394  0.155857  1
  O  O21  1  0.496803  0.993606  0.844143  1
  O  O22  1  0.993606  0.496803  0.155857  1
  O  O23  1  0.496803  0.993606  0.655857  1
  O  O24  1  0.006394  0.503197  0.844143  1
  O  O25  1  0.503197  0.006394  0.344143  1
  O  O26  1  0.503197  0.496803  0.155857  1
  O  O27  1  0.006394  0.503197  0.655857  1
  O  O28  1  0.496803  0.503197  0.844143  1
  O  O29  1  0.993606  0.496803  0.344143  1
  O  O30  1  0.496803  0.503197  0.655857  1
  O  O31  1  0.503197  0.496803  0.344143  1
  O  O32  1  0.156546  0.313093  0.046998  1
  O  O33  1  0.843454  0.686907  0.953002  1
  O  O34  1  0.686907  0.843454  0.046998  1
  O  O35  1  0.843454  0.686907  0.546998  1
  O  O36  1  0.313093  0.156546  0.953002  1
  O  O37  1  0.156546  0.313093  0.453002  1
  O  O38  1  0.156546  0.843454  0.046998  1
  O  O39  1  0.313093  0.156546  0.546998  1
  O  O40  1  0.843454  0.156546  0.953002  1
  O  O41  1  0.686907  0.843454  0.453002  1
  O  O42  1  0.843454  0.156546  0.546998  1
  O  O43  1  0.156546  0.843454  0.453002  1
  O  O44  1  0.333333  0.666667  0.750000  1
  O  O45  1  0.666667  0.333333  0.250000  1
