# generated using pymatgen
data_UNb(PO5)2
_symmetry_space_group_name_H-M   'P 1'
_cell_length_a   5.54726143
_cell_length_b   7.00303852
_cell_length_c   11.83633600
_cell_angle_alpha   90.00000000
_cell_angle_beta   90.00000000
_cell_angle_gamma   90.04481245
_symmetry_Int_Tables_number   1
_chemical_formula_structural   UNb(PO5)2
_chemical_formula_sum   'U2 Nb2 P4 O20'
_cell_volume   459.81411800
_cell_formula_units_Z   2
loop_
 _symmetry_equiv_pos_site_id
 _symmetry_equiv_pos_as_xyz
  1  'x, y, z'
loop_
 _atom_site_type_symbol
 _atom_site_label
 _atom_site_symmetry_multiplicity
 _atom_site_fract_x
 _atom_site_fract_y
 _atom_site_fract_z
 _atom_site_occupancy
  U  U0  1  0.487944  0.330707  0.940129  1
  U  U1  1  0.987944  0.830707  0.559871  1
  Nb  Nb2  1  0.489974  0.174950  0.429635  1
  Nb  Nb3  1  0.989974  0.674950  0.070365  1
  P  P4  1  0.479818  0.519808  0.646986  1
  P  P5  1  0.483684  0.966583  0.160359  1
  P  P6  1  0.983684  0.466583  0.339641  1
  P  P7  1  0.979818  0.019808  0.853014  1
  O  O8  1  0.243718  0.862847  0.138643  1
  O  O9  1  0.204242  0.342074  0.367317  1
  O  O10  1  0.237307  0.623862  0.628314  1
  O  O11  1  0.998658  0.965385  0.727452  1
  O  O12  1  0.750853  0.030098  0.490920  1
  O  O13  1  0.264661  0.004090  0.499218  1
  O  O14  1  0.704242  0.842074  0.132683  1
  O  O15  1  0.989657  0.842495  0.929120  1
  O  O16  1  0.492521  0.025996  0.286978  1
  O  O17  1  0.743718  0.362847  0.361357  1
  O  O18  1  0.992521  0.525996  0.213022  1
  O  O19  1  0.189635  0.156348  0.882605  1
  O  O20  1  0.992127  0.654756  0.408755  1
  O  O21  1  0.737307  0.123862  0.871686  1
  O  O22  1  0.250853  0.530098  0.009080  1
  O  O23  1  0.689635  0.656348  0.617395  1
  O  O24  1  0.492127  0.154756  0.091245  1
  O  O25  1  0.498658  0.465385  0.772548  1
  O  O26  1  0.489657  0.342495  0.570880  1
  O  O27  1  0.764661  0.504090  0.000782  1
