# generated using pymatgen
data_Li15Zn4Si6Ni
_symmetry_space_group_name_H-M   'P 1'
_cell_length_a   9.12012911
_cell_length_b   9.12012881
_cell_length_c   9.12012877
_cell_angle_alpha   47.20758416
_cell_angle_beta   47.20758339
_cell_angle_gamma   47.20757584
_symmetry_Int_Tables_number   1
_chemical_formula_structural   Li15Zn4Si6Ni
_chemical_formula_sum   'Li15 Zn4 Si6 Ni1'
_cell_volume   373.57456311
_cell_formula_units_Z   1
loop_
 _symmetry_equiv_pos_site_id
 _symmetry_equiv_pos_as_xyz
  1  'x, y, z'
loop_
 _atom_site_type_symbol
 _atom_site_label
 _atom_site_symmetry_multiplicity
 _atom_site_fract_x
 _atom_site_fract_y
 _atom_site_fract_z
 _atom_site_occupancy
  Li  Li0  1  0.299553  0.614772  0.956477  1
  Li  Li1  1  0.563713  0.563713  0.563713  1
  Li  Li2  1  0.219903  0.918192  0.540344  1
  Li  Li3  1  0.614772  0.956477  0.299553  1
  Li  Li4  1  0.060868  0.402329  0.728635  1
  Li  Li5  1  0.918192  0.540344  0.219903  1
  Li  Li6  1  0.809755  0.431413  0.109055  1
  Li  Li7  1  0.956477  0.299553  0.614772  1
  Li  Li8  1  0.540344  0.219903  0.918192  1
  Li  Li9  1  0.431413  0.109055  0.809755  1
  Li  Li10  1  0.728635  0.060868  0.402329  1
  Li  Li11  1  0.109055  0.809755  0.431413  1
  Li  Li12  1  0.461577  0.461577  0.461577  1
  Li  Li13  1  0.921233  0.921233  0.921233  1
  Li  Li14  1  0.402329  0.728635  0.060868  1
  Zn  Zn15  1  0.680734  0.680734  0.680734  1
  Zn  Zn16  1  0.341830  0.341830  0.341830  1
  Zn  Zn17  1  0.818770  0.818770  0.818770  1
  Zn  Zn18  1  0.170935  0.170935  0.170935  1
  Si  Si19  1  0.179413  0.517148  0.831730  1
  Si  Si20  1  0.692460  0.320958  0.006895  1
  Si  Si21  1  0.831730  0.179413  0.517148  1
  Si  Si22  1  0.320958  0.006895  0.692460  1
  Si  Si23  1  0.006895  0.692460  0.320958  1
  Si  Si24  1  0.517148  0.831730  0.179413  1
  Ni  Ni25  1  0.018047  0.018047  0.018047  1
