# generated using pymatgen
data_Er8InNi2Hg
_symmetry_space_group_name_H-M   'P 1'
_cell_length_a   9.44803025
_cell_length_b   9.44802953
_cell_length_c   9.42672200
_cell_angle_alpha   60.07457458
_cell_angle_beta   60.07457710
_cell_angle_gamma   60.09893511
_symmetry_Int_Tables_number   1
_chemical_formula_structural   Er8InNi2Hg
_chemical_formula_sum   'Er16 In2 Ni4 Hg2'
_cell_volume   596.13036657
_cell_formula_units_Z   2
loop_
 _symmetry_equiv_pos_site_id
 _symmetry_equiv_pos_as_xyz
  1  'x, y, z'
loop_
 _atom_site_type_symbol
 _atom_site_label
 _atom_site_symmetry_multiplicity
 _atom_site_fract_x
 _atom_site_fract_y
 _atom_site_fract_z
 _atom_site_occupancy
  Er  Er0  1  0.348857  0.348857  0.348060  1
  Er  Er1  1  0.348857  0.348857  0.954227  1
  Er  Er2  1  0.349817  0.950042  0.350071  1
  Er  Er3  1  0.950042  0.349817  0.350071  1
  Er  Er4  1  0.811262  0.188756  0.189000  1
  Er  Er5  1  0.188756  0.811262  0.810983  1
  Er  Er6  1  0.188756  0.811262  0.189000  1
  Er  Er7  1  0.811262  0.188756  0.810983  1
  Er  Er8  1  0.189480  0.189480  0.810520  1
  Er  Er9  1  0.811648  0.811648  0.188352  1
  Er  Er10  1  0.934385  0.562275  0.563770  1
  Er  Er11  1  0.562275  0.934385  0.939570  1
  Er  Er12  1  0.562275  0.934385  0.563770  1
  Er  Er13  1  0.934385  0.562275  0.939570  1
  Er  Er14  1  0.563262  0.563262  0.936738  1
  Er  Er15  1  0.936439  0.936439  0.563561  1
  In  In16  1  0.582960  0.254526  0.581256  1
  In  In17  1  0.254526  0.582960  0.581256  1
  Ni  Ni18  1  0.142454  0.142454  0.143309  1
  Ni  Ni19  1  0.142454  0.142454  0.571782  1
  Ni  Ni20  1  0.142107  0.572751  0.142571  1
  Ni  Ni21  1  0.572751  0.142107  0.142571  1
  Hg  Hg22  1  0.585495  0.585495  0.585628  1
  Hg  Hg23  1  0.585495  0.585495  0.243381  1
