# generated using pymatgen
data_ErTi4Re23Tc
_symmetry_space_group_name_H-M   'P 1'
_cell_length_a   8.40604349
_cell_length_b   8.40244179
_cell_length_c   8.40540534
_cell_angle_alpha   109.45317984
_cell_angle_beta   109.47079404
_cell_angle_gamma   109.48324208
_symmetry_Int_Tables_number   1
_chemical_formula_structural   ErTi4Re23Tc
_chemical_formula_sum   'Er1 Ti4 Re23 Tc1'
_cell_volume   457.05497135
_cell_formula_units_Z   1
loop_
 _symmetry_equiv_pos_site_id
 _symmetry_equiv_pos_as_xyz
  1  'x, y, z'
loop_
 _atom_site_type_symbol
 _atom_site_label
 _atom_site_symmetry_multiplicity
 _atom_site_fract_x
 _atom_site_fract_y
 _atom_site_fract_z
 _atom_site_occupancy
  Er  Er0  1  0.000006  0.000107  0.999991  1
  Ti  Ti1  1  0.628260  0.999218  0.999991  1
  Ti  Ti2  1  0.000161  0.629112  0.000016  1
  Ti  Ti3  1  0.999887  0.000086  0.628789  1
  Ti  Ti4  1  0.371094  0.371290  0.371206  1
  Re  Re5  1  0.718805  0.318168  0.318224  1
  Re  Re6  1  0.400560  0.999948  0.681779  1
  Re  Re7  1  0.681197  0.400446  0.999998  1
  Re  Re8  1  0.000252  0.400605  0.681585  1
  Re  Re9  1  0.318668  0.719022  0.318421  1
  Re  Re10  1  0.318406  0.318220  0.718793  1
  Re  Re11  1  0.000257  0.681682  0.400571  1
  Re  Re12  1  0.681258  0.999384  0.399921  1
  Re  Re13  1  0.599609  0.599410  0.281215  1
  Re  Re14  1  0.281329  0.599433  0.600063  1
  Re  Re15  1  0.599677  0.281111  0.599418  1
  Re  Re16  1  0.377728  0.194844  0.000006  1
  Re  Re17  1  0.183381  0.805339  0.805666  1
  Re  Re18  1  0.377709  0.999687  0.194341  1
  Re  Re19  1  0.194653  0.378856  0.999995  1
  Re  Re20  1  0.000001  0.377988  0.194306  1
  Re  Re21  1  0.805683  0.183687  0.805681  1
  Re  Re22  1  0.805723  0.805378  0.183566  1
  Re  Re23  1  0.999839  0.194391  0.377807  1
  Re  Re24  1  0.194451  0.999976  0.377824  1
  Re  Re25  1  0.622169  0.621822  0.816450  1
  Re  Re26  1  0.816635  0.622150  0.622182  1
  Re  Re27  1  0.622026  0.816586  0.622193  1
  Tc  Tc28  1  0.400574  0.682054  0.000004  1
