# generated using pymatgen
data_Th8Si16(Mo3W)3
_symmetry_space_group_name_H-M   'P 1'
_cell_length_a   7.02406106
_cell_length_b   7.05996251
_cell_length_c   13.17577000
_cell_angle_alpha   90.00000000
_cell_angle_beta   90.00000000
_cell_angle_gamma   89.97101497
_symmetry_Int_Tables_number   1
_chemical_formula_structural   Th8Si16(Mo3W)3
_chemical_formula_sum   'Th8 Si16 Mo9 W3'
_cell_volume   653.38118207
_cell_formula_units_Z   1
loop_
 _symmetry_equiv_pos_site_id
 _symmetry_equiv_pos_as_xyz
  1  'x, y, z'
loop_
 _atom_site_type_symbol
 _atom_site_label
 _atom_site_symmetry_multiplicity
 _atom_site_fract_x
 _atom_site_fract_y
 _atom_site_fract_z
 _atom_site_occupancy
  Th  Th0  1  0.492349  0.335878  0.095047  1
  Th  Th1  1  0.991927  0.163672  0.404743  1
  Th  Th2  1  0.508261  0.663644  0.594577  1
  Th  Th3  1  0.007921  0.836097  0.905252  1
  Th  Th4  1  0.508261  0.663644  0.905423  1
  Th  Th5  1  0.007921  0.836097  0.594748  1
  Th  Th6  1  0.492349  0.335878  0.404953  1
  Th  Th7  1  0.991927  0.163672  0.095257  1
  Si  Si8  1  0.654599  0.049221  0.548870  1
  Si  Si9  1  0.155190  0.451273  0.951084  1
  Si  Si10  1  0.344641  0.951251  0.048948  1
  Si  Si11  1  0.845648  0.550105  0.450571  1
  Si  Si12  1  0.344641  0.951251  0.451052  1
  Si  Si13  1  0.845648  0.550105  0.049429  1
  Si  Si14  1  0.654599  0.049221  0.951130  1
  Si  Si15  1  0.155190  0.451273  0.548916  1
  Si  Si16  1  0.536610  0.353955  0.750000  1
  Si  Si17  1  0.036414  0.146471  0.750000  1
  Si  Si18  1  0.462954  0.646187  0.250000  1
  Si  Si19  1  0.962443  0.851820  0.250000  1
  Si  Si20  1  0.812847  0.619591  0.750000  1
  Si  Si21  1  0.313707  0.879967  0.750000  1
  Si  Si22  1  0.188136  0.381351  0.250000  1
  Si  Si23  1  0.687214  0.117283  0.250000  1
  Mo  Mo24  1  0.830900  0.336761  0.626357  1
  Mo  Mo25  1  0.329341  0.163384  0.873643  1
  Mo  Mo26  1  0.171676  0.664207  0.126018  1
  Mo  Mo27  1  0.667460  0.836997  0.374129  1
  Mo  Mo28  1  0.171676  0.664207  0.373982  1
  Mo  Mo29  1  0.667460  0.836997  0.125871  1
  Mo  Mo30  1  0.830900  0.336761  0.873643  1
  Mo  Mo31  1  0.329341  0.163384  0.626357  1
  Mo  Mo32  1  0.831667  0.495706  0.250000  1
  W  W33  1  0.669129  0.997406  0.750000  1
  W  W34  1  0.168748  0.502922  0.750000  1
  W  W35  1  0.330305  0.002362  0.250000  1
