# generated using pymatgen
data_Pr15Sm5(Ir2Ru)4
_symmetry_space_group_name_H-M   'P 1'
_cell_length_a   11.27655918
_cell_length_b   11.27662611
_cell_length_c   6.65395900
_cell_angle_alpha   90.00758583
_cell_angle_beta   89.98986856
_cell_angle_gamma   90.00249100
_symmetry_Int_Tables_number   1
_chemical_formula_structural   Pr15Sm5(Ir2Ru)4
_chemical_formula_sum   'Pr15 Sm5 Ir8 Ru4'
_cell_volume   846.12766296
_cell_formula_units_Z   1
loop_
 _symmetry_equiv_pos_site_id
 _symmetry_equiv_pos_as_xyz
  1  'x, y, z'
loop_
 _atom_site_type_symbol
 _atom_site_label
 _atom_site_symmetry_multiplicity
 _atom_site_fract_x
 _atom_site_fract_y
 _atom_site_fract_z
 _atom_site_occupancy
  Pr  Pr0  1  0.292499  0.912426  0.882822  1
  Pr  Pr1  1  0.707469  0.088131  0.883017  1
  Pr  Pr2  1  0.707242  0.912018  0.382869  1
  Pr  Pr3  1  0.587927  0.792563  0.882872  1
  Pr  Pr4  1  0.587235  0.207157  0.382900  1
  Pr  Pr5  1  0.411549  0.793201  0.382846  1
  Pr  Pr6  1  0.411500  0.207088  0.882838  1
  Pr  Pr7  1  0.207510  0.411664  0.616898  1
  Pr  Pr8  1  0.207497  0.588119  0.117185  1
  Pr  Pr9  1  0.792524  0.411896  0.117128  1
  Pr  Pr10  1  0.792571  0.588072  0.617158  1
  Pr  Pr11  1  0.911912  0.707487  0.117177  1
  Pr  Pr12  1  0.911976  0.292538  0.617157  1
  Pr  Pr13  1  0.088074  0.707523  0.616930  1
  Pr  Pr14  1  0.088515  0.292075  0.117520  1
  Sm  Sm15  1  0.293694  0.087757  0.384388  1
  Sm  Sm16  1  0.000769  0.000360  0.499609  1
  Sm  Sm17  1  0.000171  0.000101  0.999764  1
  Sm  Sm18  1  0.499939  0.499884  0.000177  1
  Sm  Sm19  1  0.499833  0.499970  0.499819  1
  Ir  Ir20  1  0.850275  0.149836  0.249817  1
  Ir  Ir21  1  0.849876  0.849998  0.750014  1
  Ir  Ir22  1  0.151063  0.149669  0.747074  1
  Ir  Ir23  1  0.150705  0.851419  0.250895  1
  Ir  Ir24  1  0.649947  0.350051  0.749924  1
  Ir  Ir25  1  0.650070  0.649939  0.250015  1
  Ir  Ir26  1  0.349739  0.348286  0.250925  1
  Ir  Ir27  1  0.349968  0.649857  0.750051  1
  Ru  Ru28  1  0.499137  0.000482  0.119605  1
  Ru  Ru29  1  0.498569  0.000576  0.617153  1
  Ru  Ru30  1  0.000146  0.499989  0.881830  1
  Ru  Ru31  1  0.000094  0.499865  0.381624  1
