# generated using pymatgen
data_Tb5Dy3Hf10(ZrSi8)2
_symmetry_space_group_name_H-M   'P 1'
_cell_length_a   7.29755405
_cell_length_b   7.29713944
_cell_length_c   13.41364604
_cell_angle_alpha   90.00014055
_cell_angle_beta   89.99131412
_cell_angle_gamma   89.96946399
_symmetry_Int_Tables_number   1
_chemical_formula_structural   Tb5Dy3Hf10(ZrSi8)2
_chemical_formula_sum   'Tb5 Dy3 Hf10 Zr2 Si16'
_cell_volume   714.29357062
_cell_formula_units_Z   1
loop_
 _symmetry_equiv_pos_site_id
 _symmetry_equiv_pos_as_xyz
  1  'x, y, z'
loop_
 _atom_site_type_symbol
 _atom_site_label
 _atom_site_symmetry_multiplicity
 _atom_site_fract_x
 _atom_site_fract_y
 _atom_site_fract_z
 _atom_site_occupancy
  Tb  Tb0  1  0.503641  0.843841  0.034993  1
  Tb  Tb1  1  0.843926  0.503636  0.965022  1
  Tb  Tb2  1  0.496310  0.156197  0.534956  1
  Tb  Tb3  1  0.343716  0.996279  0.784916  1
  Tb  Tb4  1  0.656265  0.003723  0.284936  1
  Dy  Dy5  1  0.996525  0.343916  0.215078  1
  Dy  Dy6  1  0.003533  0.656047  0.714982  1
  Dy  Dy7  1  0.155975  0.496526  0.464963  1
  Hf  Hf8  1  0.325290  0.674493  0.250040  1
  Hf  Hf9  1  0.674692  0.325506  0.749985  1
  Hf  Hf10  1  0.149190  0.995425  0.374456  1
  Hf  Hf11  1  0.850827  0.004646  0.874411  1
  Hf  Hf12  1  0.504334  0.649596  0.624318  1
  Hf  Hf13  1  0.350257  0.495683  0.875643  1
  Hf  Hf14  1  0.495614  0.350352  0.124375  1
  Hf  Hf15  1  0.649637  0.504317  0.375668  1
  Hf  Hf16  1  0.995476  0.149213  0.625513  1
  Hf  Hf17  1  0.004656  0.850802  0.125594  1
  Zr  Zr18  1  0.174299  0.174395  0.000022  1
  Zr  Zr19  1  0.825753  0.825516  0.500025  1
  Si  Si20  1  0.363074  0.295257  0.317060  1
  Si  Si21  1  0.636762  0.704875  0.816927  1
  Si  Si22  1  0.205918  0.863090  0.567185  1
  Si  Si23  1  0.136540  0.793842  0.932840  1
  Si  Si24  1  0.794031  0.136730  0.067243  1
  Si  Si25  1  0.863597  0.206283  0.432825  1
  Si  Si26  1  0.294895  0.363566  0.682962  1
  Si  Si27  1  0.705032  0.636424  0.183017  1
  Si  Si28  1  0.295412  0.048339  0.186397  1
  Si  Si29  1  0.704567  0.951666  0.686401  1
  Si  Si30  1  0.450118  0.794655  0.435479  1
  Si  Si31  1  0.205086  0.549625  0.064594  1
  Si  Si32  1  0.549783  0.205235  0.935495  1
  Si  Si33  1  0.795120  0.450427  0.564527  1
  Si  Si34  1  0.048176  0.295755  0.813526  1
  Si  Si35  1  0.951973  0.704124  0.313626  1
