# generated using pymatgen
data_Y19Ho5Ru14
_symmetry_space_group_name_H-M   'P 1'
_cell_length_a   11.34552366
_cell_length_b   8.40513637
_cell_length_c   11.26843348
_cell_angle_alpha   56.45756875
_cell_angle_beta   89.96235417
_cell_angle_gamma   90.00159585
_symmetry_Int_Tables_number   1
_chemical_formula_structural   Y19Ho5Ru14
_chemical_formula_sum   'Y19 Ho5 Ru14'
_cell_volume   895.62509620
_cell_formula_units_Z   1
loop_
 _symmetry_equiv_pos_site_id
 _symmetry_equiv_pos_as_xyz
  1  'x, y, z'
loop_
 _atom_site_type_symbol
 _atom_site_label
 _atom_site_symmetry_multiplicity
 _atom_site_fract_x
 _atom_site_fract_y
 _atom_site_fract_z
 _atom_site_occupancy
  Y  Y0  1  0.705229  0.242240  0.532055  1
  Y  Y1  1  0.205195  0.757639  0.967984  1
  Y  Y2  1  0.844574  0.507597  0.655749  1
  Y  Y3  1  0.344012  0.492253  0.844561  1
  Y  Y4  1  0.155712  0.492482  0.343810  1
  Y  Y5  1  0.655473  0.507657  0.155746  1
  Y  Y6  1  0.006567  0.854145  0.359954  1
  Y  Y7  1  0.505790  0.146180  0.139805  1
  Y  Y8  1  0.993851  0.146523  0.639331  1
  Y  Y9  1  0.493542  0.853351  0.860576  1
  Y  Y10  1  0.794631  0.242003  0.032221  1
  Y  Y11  1  0.294737  0.758426  0.467497  1
  Y  Y12  1  0.931393  0.777119  0.089863  1
  Y  Y13  1  0.431039  0.222578  0.410266  1
  Y  Y14  1  0.068837  0.223105  0.910510  1
  Y  Y15  1  0.568577  0.776848  0.590088  1
  Y  Y16  1  0.301467  0.241588  0.675378  1
  Y  Y17  1  0.801655  0.758334  0.824681  1
  Y  Y18  1  0.698631  0.758589  0.324542  1
  Ho  Ho19  1  0.198325  0.241918  0.175938  1
  Ho  Ho20  1  0.926062  0.280564  0.293442  1
  Ho  Ho21  1  0.425798  0.719522  0.206213  1
  Ho  Ho22  1  0.074469  0.720031  0.706038  1
  Ho  Ho23  1  0.574226  0.280268  0.793813  1
  Ru  Ru24  1  0.500033  0.500051  0.499894  1
  Ru  Ru25  1  0.001131  0.498965  0.000643  1
  Ru  Ru26  1  0.647538  0.925875  0.031937  1
  Ru  Ru27  1  0.147696  0.074842  0.466387  1
  Ru  Ru28  1  0.352558  0.074016  0.968113  1
  Ru  Ru29  1  0.852281  0.926020  0.531406  1
  Ru  Ru30  1  0.397040  0.484244  0.104380  1
  Ru  Ru31  1  0.898579  0.514260  0.396392  1
  Ru  Ru32  1  0.601580  0.513819  0.896933  1
  Ru  Ru33  1  0.101554  0.485998  0.603288  1
  Ru  Ru34  1  0.817338  0.097160  0.850134  1
  Ru  Ru35  1  0.316959  0.902842  0.649839  1
  Ru  Ru36  1  0.183124  0.904015  0.150225  1
  Ru  Ru37  1  0.682795  0.096934  0.350363  1
