# generated using pymatgen
data_Y2Co5Ni5P6
_symmetry_space_group_name_H-M   'P 1'
_cell_length_a   3.68956000
_cell_length_b   10.29232387
_cell_length_c   11.83321914
_cell_angle_alpha   89.95125743
_cell_angle_beta   90.00000000
_cell_angle_gamma   90.00000000
_symmetry_Int_Tables_number   1
_chemical_formula_structural   Y2Co5Ni5P6
_chemical_formula_sum   'Y4 Co10 Ni10 P12'
_cell_volume   449.35623420
_cell_formula_units_Z   2
loop_
 _symmetry_equiv_pos_site_id
 _symmetry_equiv_pos_as_xyz
  1  'x, y, z'
loop_
 _atom_site_type_symbol
 _atom_site_label
 _atom_site_symmetry_multiplicity
 _atom_site_fract_x
 _atom_site_fract_y
 _atom_site_fract_z
 _atom_site_occupancy
  Y  Y0  1  0.250000  0.917908  0.203527  1
  Y  Y1  1  0.750000  0.082092  0.796473  1
  Y  Y2  1  0.750000  0.418478  0.296353  1
  Y  Y3  1  0.250000  0.581522  0.703647  1
  Co  Co4  1  0.750000  0.777166  0.824360  1
  Co  Co5  1  0.250000  0.222834  0.175640  1
  Co  Co6  1  0.250000  0.619863  0.197434  1
  Co  Co7  1  0.750000  0.380137  0.802566  1
  Co  Co8  1  0.750000  0.119877  0.301792  1
  Co  Co9  1  0.250000  0.880123  0.698208  1
  Co  Co10  1  0.250000  0.033233  0.432819  1
  Co  Co11  1  0.750000  0.966767  0.567181  1
  Co  Co12  1  0.750000  0.532375  0.067087  1
  Co  Co13  1  0.250000  0.467625  0.932913  1
  Ni  Ni14  1  0.250000  0.786288  0.490304  1
  Ni  Ni15  1  0.750000  0.213712  0.509696  1
  Ni  Ni16  1  0.750000  0.287781  0.011157  1
  Ni  Ni17  1  0.250000  0.712219  0.988843  1
  Ni  Ni18  1  0.250000  0.091389  0.985562  1
  Ni  Ni19  1  0.750000  0.908611  0.014438  1
  Ni  Ni20  1  0.750000  0.592632  0.513037  1
  Ni  Ni21  1  0.250000  0.407368  0.486963  1
  Ni  Ni22  1  0.250000  0.276801  0.676295  1
  Ni  Ni23  1  0.750000  0.723199  0.323705  1
  P  P24  1  0.250000  0.076039  0.613119  1
  P  P25  1  0.750000  0.923961  0.386881  1
  P  P26  1  0.750000  0.578753  0.886963  1
  P  P27  1  0.250000  0.421247  0.113037  1
  P  P28  1  0.250000  0.228355  0.365006  1
  P  P29  1  0.750000  0.771645  0.634994  1
  P  P30  1  0.750000  0.727450  0.131764  1
  P  P31  1  0.250000  0.272550  0.868236  1
  P  P32  1  0.250000  0.893850  0.888004  1
  P  P33  1  0.750000  0.106150  0.111996  1
  P  P34  1  0.750000  0.396969  0.610794  1
  P  P35  1  0.250000  0.603031  0.389206  1
