# generated using pymatgen
data_Al2(VMo)3
_symmetry_space_group_name_H-M   'P 1'
_cell_length_a   4.89005420
_cell_length_b   4.89005403
_cell_length_c   4.89005340
_cell_angle_alpha   90.10033925
_cell_angle_beta   89.89966172
_cell_angle_gamma   89.89966935
_symmetry_Int_Tables_number   1
_chemical_formula_structural   Al2(VMo)3
_chemical_formula_sum   'Al2 V3 Mo3'
_cell_volume   116.93349531
_cell_formula_units_Z   1
loop_
 _symmetry_equiv_pos_site_id
 _symmetry_equiv_pos_as_xyz
  1  'x, y, z'
loop_
 _atom_site_type_symbol
 _atom_site_label
 _atom_site_symmetry_multiplicity
 _atom_site_fract_x
 _atom_site_fract_y
 _atom_site_fract_z
 _atom_site_occupancy
  Al  Al0  1  0.503597  0.496403  0.496403  1
  Al  Al1  1  0.996403  0.003597  0.003597  1
  V  V2  1  0.495913  0.250000  0.995913  1
  V  V3  1  0.750000  0.995913  0.504087  1
  V  V4  1  0.004087  0.504087  0.250000  1
  Mo  Mo5  1  0.499867  0.750000  0.999867  1
  Mo  Mo6  1  0.250000  0.999867  0.500133  1
  Mo  Mo7  1  0.000133  0.500133  0.750000  1
