# generated using pymatgen
data_TbNd16Ho3Pb16
_symmetry_space_group_name_H-M   'P 1'
_cell_length_a   8.36415200
_cell_length_b   8.47558304
_cell_length_c   16.15788700
_cell_angle_alpha   90.00000000
_cell_angle_beta   90.00000000
_cell_angle_gamma   89.99457164
_symmetry_Int_Tables_number   1
_chemical_formula_structural   TbNd16Ho3Pb16
_chemical_formula_sum   'Tb1 Nd16 Ho3 Pb16'
_cell_volume   1145.44980951
_cell_formula_units_Z   1
loop_
 _symmetry_equiv_pos_site_id
 _symmetry_equiv_pos_as_xyz
  1  'x, y, z'
loop_
 _atom_site_type_symbol
 _atom_site_label
 _atom_site_symmetry_multiplicity
 _atom_site_fract_x
 _atom_site_fract_y
 _atom_site_fract_z
 _atom_site_occupancy
  Tb  Tb0  1  0.705582  0.995764  0.250000  1
  Nd  Nd1  1  0.626251  0.158244  0.619734  1
  Nd  Nd2  1  0.126183  0.341853  0.880157  1
  Nd  Nd3  1  0.374094  0.841960  0.120046  1
  Nd  Nd4  1  0.873586  0.658332  0.379985  1
  Nd  Nd5  1  0.374094  0.841960  0.379954  1
  Nd  Nd6  1  0.873586  0.658332  0.120015  1
  Nd  Nd7  1  0.626251  0.158244  0.880266  1
  Nd  Nd8  1  0.126183  0.341853  0.619843  1
  Nd  Nd9  1  0.469795  0.678350  0.599678  1
  Nd  Nd10  1  0.969901  0.821558  0.900502  1
  Nd  Nd11  1  0.530298  0.321247  0.099645  1
  Nd  Nd12  1  0.029986  0.178227  0.400300  1
  Nd  Nd13  1  0.530298  0.321247  0.400355  1
  Nd  Nd14  1  0.029986  0.178227  0.099700  1
  Nd  Nd15  1  0.469795  0.678350  0.900322  1
  Nd  Nd16  1  0.969901  0.821558  0.599498  1
  Ho  Ho17  1  0.794568  0.496108  0.750000  1
  Ho  Ho18  1  0.294643  0.003968  0.750000  1
  Ho  Ho19  1  0.205262  0.503855  0.250000  1
  Pb  Pb20  1  0.716219  0.967855  0.454403  1
  Pb  Pb21  1  0.216245  0.532595  0.045569  1
  Pb  Pb22  1  0.283691  0.032494  0.954653  1
  Pb  Pb23  1  0.783638  0.467749  0.545346  1
  Pb  Pb24  1  0.283691  0.032494  0.545347  1
  Pb  Pb25  1  0.783638  0.467749  0.954654  1
  Pb  Pb26  1  0.716219  0.967855  0.045597  1
  Pb  Pb27  1  0.216245  0.532595  0.454431  1
  Pb  Pb28  1  0.431796  0.375701  0.750000  1
  Pb  Pb29  1  0.931629  0.124046  0.750000  1
  Pb  Pb30  1  0.568085  0.623712  0.250000  1
  Pb  Pb31  1  0.068626  0.875819  0.250000  1
  Pb  Pb32  1  0.660173  0.846790  0.750000  1
  Pb  Pb33  1  0.160163  0.653270  0.750000  1
  Pb  Pb34  1  0.339809  0.153447  0.250000  1
  Pb  Pb35  1  0.839891  0.346592  0.250000  1
