# generated using pymatgen
data_Er8Si16Tc11Mo
_symmetry_space_group_name_H-M   'P 1'
_cell_length_a   6.78313106
_cell_length_b   6.79327386
_cell_length_c   12.60902354
_cell_angle_alpha   89.90760185
_cell_angle_beta   90.31864761
_cell_angle_gamma   90.10495513
_symmetry_Int_Tables_number   1
_chemical_formula_structural   Er8Si16Tc11Mo
_chemical_formula_sum   'Er8 Si16 Tc11 Mo1'
_cell_volume   581.00889864
_cell_formula_units_Z   1
loop_
 _symmetry_equiv_pos_site_id
 _symmetry_equiv_pos_as_xyz
  1  'x, y, z'
loop_
 _atom_site_type_symbol
 _atom_site_label
 _atom_site_symmetry_multiplicity
 _atom_site_fract_x
 _atom_site_fract_y
 _atom_site_fract_z
 _atom_site_occupancy
  Er  Er0  1  0.338278  0.996164  0.468758  1
  Er  Er1  1  0.502572  0.835691  0.719550  1
  Er  Er2  1  0.494493  0.159100  0.218827  1
  Er  Er3  1  0.836983  0.500916  0.279409  1
  Er  Er4  1  0.160556  0.493722  0.781863  1
  Er  Er5  1  0.660492  0.001292  0.970907  1
  Er  Er6  1  0.997380  0.340827  0.530261  1
  Er  Er7  1  0.002235  0.658767  0.030675  1
  Si  Si8  1  0.197607  0.121371  0.685699  1
  Si  Si9  1  0.383966  0.690528  0.937504  1
  Si  Si10  1  0.617243  0.309902  0.437837  1
  Si  Si11  1  0.690773  0.384606  0.063698  1
  Si  Si12  1  0.306330  0.618488  0.562100  1
  Si  Si13  1  0.808561  0.884002  0.187945  1
  Si  Si14  1  0.118338  0.195109  0.313948  1
  Si  Si15  1  0.882915  0.803301  0.814551  1
  Si  Si16  1  0.267704  0.978838  0.061887  1
  Si  Si17  1  0.526598  0.776556  0.314228  1
  Si  Si18  1  0.476217  0.219082  0.814163  1
  Si  Si19  1  0.780889  0.526476  0.686077  1
  Si  Si20  1  0.225867  0.478103  0.186366  1
  Si  Si21  1  0.713842  0.035342  0.565405  1
  Si  Si22  1  0.978706  0.266582  0.937515  1
  Si  Si23  1  0.029766  0.719216  0.430985  1
  Tc  Tc24  1  0.329972  0.330880  0.000793  1
  Tc  Tc25  1  0.167463  0.832357  0.249076  1
  Tc  Tc26  1  0.834965  0.166130  0.751062  1
  Tc  Tc27  1  0.668130  0.666603  0.498973  1
  Tc  Tc28  1  0.187279  0.972508  0.867525  1
  Tc  Tc29  1  0.521678  0.683587  0.122168  1
  Tc  Tc30  1  0.485573  0.324143  0.624214  1
  Tc  Tc31  1  0.677984  0.513864  0.877266  1
  Tc  Tc32  1  0.319625  0.479358  0.376831  1
  Tc  Tc33  1  0.826614  0.020936  0.376140  1
  Tc  Tc34  1  0.973719  0.186950  0.132137  1
  Mo  Mo35  1  0.008690  0.828703  0.623655  1
