# generated using pymatgen
data_Na4OsO6
_symmetry_space_group_name_H-M   'P 1'
_cell_length_a   6.65425831
_cell_length_b   6.65425938
_cell_length_c   6.65425877
_cell_angle_alpha   89.91108066
_cell_angle_beta   89.91107939
_cell_angle_gamma   89.91108510
_symmetry_Int_Tables_number   1
_chemical_formula_structural   Na4OsO6
_chemical_formula_sum   'Na8 Os2 O12'
_cell_volume   294.64393038
_cell_formula_units_Z   2
loop_
 _symmetry_equiv_pos_site_id
 _symmetry_equiv_pos_as_xyz
  1  'x, y, z'
loop_
 _atom_site_type_symbol
 _atom_site_label
 _atom_site_symmetry_multiplicity
 _atom_site_fract_x
 _atom_site_fract_y
 _atom_site_fract_z
 _atom_site_occupancy
  Na  Na0  1  0.250000  0.250000  0.250000  1
  Na  Na1  1  0.750000  0.750000  0.750000  1
  Na  Na2  1  0.401473  0.750000  0.098528  1
  Na  Na3  1  0.901473  0.598527  0.250000  1
  Na  Na4  1  0.750000  0.098528  0.401473  1
  Na  Na5  1  0.250000  0.901472  0.598528  1
  Na  Na6  1  0.098528  0.401474  0.749999  1
  Na  Na7  1  0.598527  0.250001  0.901473  1
  Os  Os8  1  0.000000  0.000000  0.000000  1
  Os  Os9  1  0.500000  0.500000  0.500000  1
  O  O10  1  0.730476  0.932313  0.053479  1
  O  O11  1  0.946522  0.269525  0.067688  1
  O  O12  1  0.553478  0.432312  0.230475  1
  O  O13  1  0.067688  0.946522  0.269525  1
  O  O14  1  0.230475  0.553479  0.432311  1
  O  O15  1  0.567688  0.769525  0.446521  1
  O  O16  1  0.432312  0.230475  0.553478  1
  O  O17  1  0.769525  0.446521  0.567688  1
  O  O18  1  0.932312  0.053478  0.730476  1
  O  O19  1  0.446521  0.567688  0.769524  1
  O  O20  1  0.053479  0.730476  0.932312  1
  O  O21  1  0.269525  0.067688  0.946522  1
