# generated using pymatgen
data_Tb8Tm9Mg3Sn16
_symmetry_space_group_name_H-M   'P 1'
_cell_length_a   7.77092151
_cell_length_b   8.10460754
_cell_length_c   15.37412400
_cell_angle_alpha   90.00000000
_cell_angle_beta   90.00000000
_cell_angle_gamma   90.27304112
_symmetry_Int_Tables_number   1
_chemical_formula_structural   Tb8Tm9Mg3Sn16
_chemical_formula_sum   'Tb8 Tm9 Mg3 Sn16'
_cell_volume   968.25547181
_cell_formula_units_Z   1
loop_
 _symmetry_equiv_pos_site_id
 _symmetry_equiv_pos_as_xyz
  1  'x, y, z'
loop_
 _atom_site_type_symbol
 _atom_site_label
 _atom_site_symmetry_multiplicity
 _atom_site_fract_x
 _atom_site_fract_y
 _atom_site_fract_z
 _atom_site_occupancy
  Tb  Tb0  1  0.509122  0.316930  0.906153  1
  Tb  Tb1  1  0.013063  0.179423  0.595346  1
  Tb  Tb2  1  0.492967  0.677068  0.406520  1
  Tb  Tb3  1  0.986980  0.818849  0.094726  1
  Tb  Tb4  1  0.492967  0.677068  0.093480  1
  Tb  Tb5  1  0.986980  0.818849  0.405274  1
  Tb  Tb6  1  0.509122  0.316930  0.593847  1
  Tb  Tb7  1  0.013063  0.179423  0.904654  1
  Tm  Tm8  1  0.353957  0.835350  0.874990  1
  Tm  Tm9  1  0.852453  0.669729  0.627018  1
  Tm  Tm10  1  0.650471  0.169264  0.376524  1
  Tm  Tm11  1  0.143624  0.333672  0.126133  1
  Tm  Tm12  1  0.650471  0.169264  0.123476  1
  Tm  Tm13  1  0.143624  0.333672  0.373867  1
  Tm  Tm14  1  0.353957  0.835350  0.625010  1
  Tm  Tm15  1  0.852453  0.669729  0.872982  1
  Tm  Tm16  1  0.318536  0.002655  0.250000  1
  Mg  Mg17  1  0.178087  0.500885  0.750000  1
  Mg  Mg18  1  0.681150  0.000260  0.750000  1
  Mg  Mg19  1  0.817560  0.501933  0.250000  1
  Sn  Sn20  1  0.306287  0.037050  0.041396  1
  Sn  Sn21  1  0.812958  0.460643  0.463527  1
  Sn  Sn22  1  0.695374  0.960879  0.539293  1
  Sn  Sn23  1  0.189936  0.540278  0.961368  1
  Sn  Sn24  1  0.695374  0.960879  0.960707  1
  Sn  Sn25  1  0.189936  0.540278  0.538632  1
  Sn  Sn26  1  0.306287  0.037050  0.458604  1
  Sn  Sn27  1  0.812958  0.460643  0.036473  1
  Sn  Sn28  1  0.541331  0.605585  0.750000  1
  Sn  Sn29  1  0.045908  0.894328  0.750000  1
  Sn  Sn30  1  0.455591  0.386565  0.250000  1
  Sn  Sn31  1  0.949297  0.108706  0.250000  1
  Sn  Sn32  1  0.318269  0.149510  0.750000  1
  Sn  Sn33  1  0.814513  0.351687  0.750000  1
  Sn  Sn34  1  0.679836  0.852866  0.250000  1
  Sn  Sn35  1  0.185536  0.646749  0.250000  1
