# generated using pymatgen
data_SmZrNb3Si4
_symmetry_space_group_name_H-M   'P 1'
_cell_length_a   7.01333932
_cell_length_b   7.00536084
_cell_length_c   12.99152743
_cell_angle_alpha   89.91706733
_cell_angle_beta   89.87271557
_cell_angle_gamma   90.00179313
_symmetry_Int_Tables_number   1
_chemical_formula_structural   SmZrNb3Si4
_chemical_formula_sum   'Sm4 Zr4 Nb12 Si16'
_cell_volume   638.28413417
_cell_formula_units_Z   4
loop_
 _symmetry_equiv_pos_site_id
 _symmetry_equiv_pos_as_xyz
  1  'x, y, z'
loop_
 _atom_site_type_symbol
 _atom_site_label
 _atom_site_symmetry_multiplicity
 _atom_site_fract_x
 _atom_site_fract_y
 _atom_site_fract_z
 _atom_site_occupancy
  Sm  Sm0  1  0.838834  0.504470  0.969269  1
  Sm  Sm1  1  0.495693  0.161297  0.531928  1
  Sm  Sm2  1  0.339341  0.995616  0.780874  1
  Sm  Sm3  1  0.661174  0.004541  0.282398  1
  Zr  Zr4  1  0.005165  0.345162  0.216555  1
  Zr  Zr5  1  0.995397  0.653681  0.716272  1
  Zr  Zr6  1  0.153925  0.504401  0.467242  1
  Zr  Zr7  1  0.494920  0.846016  0.034458  1
  Nb  Nb8  1  0.171157  0.168847  0.000480  1
  Nb  Nb9  1  0.833754  0.825996  0.499981  1
  Nb  Nb10  1  0.327863  0.668177  0.249961  1
  Nb  Nb11  1  0.671884  0.332165  0.750000  1
  Nb  Nb12  1  0.152156  0.991206  0.374417  1
  Nb  Nb13  1  0.848347  0.005213  0.875894  1
  Nb  Nb14  1  0.507834  0.651438  0.624600  1
  Nb  Nb15  1  0.347671  0.496112  0.874960  1
  Nb  Nb16  1  0.492281  0.345966  0.126107  1
  Nb  Nb17  1  0.655408  0.503933  0.373568  1
  Nb  Nb18  1  0.997219  0.154794  0.623319  1
  Nb  Nb19  1  0.006528  0.845128  0.125175  1
  Si  Si20  1  0.291146  0.045947  0.186209  1
  Si  Si21  1  0.712253  0.952719  0.686580  1
  Si  Si22  1  0.451692  0.788113  0.436995  1
  Si  Si23  1  0.208320  0.545521  0.064432  1
  Si  Si24  1  0.544646  0.202106  0.938016  1
  Si  Si25  1  0.800126  0.456620  0.563836  1
  Si  Si26  1  0.044539  0.298009  0.812548  1
  Si  Si27  1  0.956433  0.699326  0.313315  1
  Si  Si28  1  0.358975  0.299227  0.318931  1
  Si  Si29  1  0.635655  0.706283  0.817494  1
  Si  Si30  1  0.200679  0.858775  0.569046  1
  Si  Si31  1  0.135805  0.794098  0.933127  1
  Si  Si32  1  0.794698  0.130778  0.070465  1
  Si  Si33  1  0.875335  0.212090  0.430595  1
  Si  Si34  1  0.288307  0.375161  0.680692  1
  Si  Si35  1  0.704839  0.631066  0.180260  1
