# generated using pymatgen
data_Sc20Zn3Cd3Ru2
_symmetry_space_group_name_H-M   'P 1'
_cell_length_a   8.88937500
_cell_length_b   8.88937425
_cell_length_c   9.01220700
_cell_angle_alpha   90.00000000
_cell_angle_beta   90.00000000
_cell_angle_gamma   119.99999906
_symmetry_Int_Tables_number   1
_chemical_formula_structural   Sc20Zn3Cd3Ru2
_chemical_formula_sum   'Sc20 Zn3 Cd3 Ru2'
_cell_volume   616.74297661
_cell_formula_units_Z   1
loop_
 _symmetry_equiv_pos_site_id
 _symmetry_equiv_pos_as_xyz
  1  'x, y, z'
loop_
 _atom_site_type_symbol
 _atom_site_label
 _atom_site_symmetry_multiplicity
 _atom_site_fract_x
 _atom_site_fract_y
 _atom_site_fract_z
 _atom_site_occupancy
  Sc  Sc0  1  0.000000  0.000000  0.476295  1
  Sc  Sc1  1  0.000000  0.000000  0.023705  1
  Sc  Sc2  1  0.207777  0.792223  0.440455  1
  Sc  Sc3  1  0.207777  0.415553  0.440455  1
  Sc  Sc4  1  0.584447  0.792223  0.440455  1
  Sc  Sc5  1  0.790827  0.209173  0.553668  1
  Sc  Sc6  1  0.790827  0.581654  0.553668  1
  Sc  Sc7  1  0.418346  0.209173  0.553668  1
  Sc  Sc8  1  0.790827  0.209173  0.946332  1
  Sc  Sc9  1  0.790827  0.581654  0.946332  1
  Sc  Sc10  1  0.418346  0.209173  0.946332  1
  Sc  Sc11  1  0.207777  0.792223  0.059545  1
  Sc  Sc12  1  0.207777  0.415553  0.059545  1
  Sc  Sc13  1  0.584447  0.792223  0.059545  1
  Sc  Sc14  1  0.541026  0.458974  0.250000  1
  Sc  Sc15  1  0.541026  0.082052  0.250000  1
  Sc  Sc16  1  0.917948  0.458974  0.250000  1
  Sc  Sc17  1  0.459429  0.540571  0.750000  1
  Sc  Sc18  1  0.459429  0.918859  0.750000  1
  Sc  Sc19  1  0.081141  0.540571  0.750000  1
  Zn  Zn20  1  0.879090  0.120910  0.250000  1
  Zn  Zn21  1  0.879090  0.758183  0.250000  1
  Zn  Zn22  1  0.241817  0.120910  0.250000  1
  Cd  Cd23  1  0.112663  0.887337  0.750000  1
  Cd  Cd24  1  0.112663  0.225325  0.750000  1
  Cd  Cd25  1  0.774675  0.887337  0.750000  1
  Ru  Ru26  1  0.333333  0.666667  0.250000  1
  Ru  Ru27  1  0.666667  0.333333  0.750000  1
