# generated using pymatgen
data_ZrSc(Al3Rh)3
_symmetry_space_group_name_H-M   'P 1'
_cell_length_a   7.46716367
_cell_length_b   7.46285818
_cell_length_c   9.27495900
_cell_angle_alpha   90.00000000
_cell_angle_beta   90.00000000
_cell_angle_gamma   119.73222304
_symmetry_Int_Tables_number   1
_chemical_formula_structural   ZrSc(Al3Rh)3
_chemical_formula_sum   'Zr2 Sc2 Al18 Rh6'
_cell_volume   448.81672513
_cell_formula_units_Z   2
loop_
 _symmetry_equiv_pos_site_id
 _symmetry_equiv_pos_as_xyz
  1  'x, y, z'
loop_
 _atom_site_type_symbol
 _atom_site_label
 _atom_site_symmetry_multiplicity
 _atom_site_fract_x
 _atom_site_fract_y
 _atom_site_fract_z
 _atom_site_occupancy
  Zr  Zr0  1  0.994969  0.672042  0.250000  1
  Zr  Zr1  1  0.005031  0.327958  0.750000  1
  Sc  Sc2  1  0.671184  0.993687  0.250000  1
  Sc  Sc3  1  0.328816  0.006313  0.750000  1
  Al  Al4  1  0.122363  0.122120  0.250000  1
  Al  Al5  1  0.877637  0.877880  0.750000  1
  Al  Al6  1  0.996437  0.334385  0.077353  1
  Al  Al7  1  0.003563  0.665615  0.922647  1
  Al  Al8  1  0.003563  0.665615  0.577353  1
  Al  Al9  1  0.335285  0.998086  0.421830  1
  Al  Al10  1  0.996437  0.334385  0.422647  1
  Al  Al11  1  0.664715  0.001914  0.578170  1
  Al  Al12  1  0.664715  0.001914  0.921830  1
  Al  Al13  1  0.335285  0.998086  0.078170  1
  Al  Al14  1  0.330944  0.330930  0.557382  1
  Al  Al15  1  0.669056  0.669070  0.442618  1
  Al  Al16  1  0.669056  0.669070  0.057382  1
  Al  Al17  1  0.330944  0.330930  0.942618  1
  Al  Al18  1  0.337420  0.553252  0.250000  1
  Al  Al19  1  0.662580  0.446748  0.750000  1
  Al  Al20  1  0.556950  0.341799  0.250000  1
  Al  Al21  1  0.443050  0.658201  0.750000  1
  Rh  Rh22  1  0.672393  0.327307  0.999229  1
  Rh  Rh23  1  0.327607  0.672693  0.000771  1
  Rh  Rh24  1  0.327607  0.672693  0.499229  1
  Rh  Rh25  1  0.672393  0.327307  0.500771  1
  Rh  Rh26  1  0.000000  0.000000  0.000000  1
  Rh  Rh27  1  0.000000  0.000000  0.500000  1
