# generated using pymatgen
data_Tb12Ir2PdPt
_symmetry_space_group_name_H-M   'P 1'
_cell_length_a   6.41097436
_cell_length_b   7.16729174
_cell_length_c   9.56540300
_cell_angle_alpha   90.00000000
_cell_angle_beta   90.00000000
_cell_angle_gamma   90.21715484
_symmetry_Int_Tables_number   1
_chemical_formula_structural   Tb12Ir2PdPt
_chemical_formula_sum   'Tb12 Ir2 Pd1 Pt1'
_cell_volume   439.52064121
_cell_formula_units_Z   1
loop_
 _symmetry_equiv_pos_site_id
 _symmetry_equiv_pos_as_xyz
  1  'x, y, z'
loop_
 _atom_site_type_symbol
 _atom_site_label
 _atom_site_symmetry_multiplicity
 _atom_site_fract_x
 _atom_site_fract_y
 _atom_site_fract_z
 _atom_site_occupancy
  Tb  Tb0  1  0.331194  0.676029  0.060537  1
  Tb  Tb1  1  0.174294  0.183440  0.438145  1
  Tb  Tb2  1  0.671802  0.321832  0.561879  1
  Tb  Tb3  1  0.825080  0.818481  0.936856  1
  Tb  Tb4  1  0.671802  0.321832  0.938121  1
  Tb  Tb5  1  0.825080  0.818481  0.563144  1
  Tb  Tb6  1  0.331194  0.676029  0.439463  1
  Tb  Tb7  1  0.174294  0.183440  0.061855  1
  Tb  Tb8  1  0.863359  0.524708  0.250000  1
  Tb  Tb9  1  0.626252  0.036630  0.250000  1
  Tb  Tb10  1  0.134412  0.473087  0.750000  1
  Tb  Tb11  1  0.369664  0.963955  0.750000  1
  Ir  Ir12  1  0.444014  0.385554  0.250000  1
  Ir  Ir13  1  0.554676  0.614758  0.750000  1
  Pd  Pd14  1  0.054734  0.885950  0.250000  1
  Pt  Pt15  1  0.948151  0.115794  0.750000  1
