# generated using pymatgen
data_PaTc3F20
_symmetry_space_group_name_H-M   'P 1'
_cell_length_a   10.32704933
_cell_length_b   6.01505985
_cell_length_c   7.73412140
_cell_angle_alpha   89.98896770
_cell_angle_beta   92.34797304
_cell_angle_gamma   90.10912494
_symmetry_Int_Tables_number   1
_chemical_formula_structural   PaTc3F20
_chemical_formula_sum   'Pa1 Tc3 F20'
_cell_volume   480.02253994
_cell_formula_units_Z   1
loop_
 _symmetry_equiv_pos_site_id
 _symmetry_equiv_pos_as_xyz
  1  'x, y, z'
loop_
 _atom_site_type_symbol
 _atom_site_label
 _atom_site_symmetry_multiplicity
 _atom_site_fract_x
 _atom_site_fract_y
 _atom_site_fract_z
 _atom_site_occupancy
  Pa  Pa0  1  0.391538  0.984666  0.572457  1
  Tc  Tc1  1  0.781584  0.514764  0.118258  1
  Tc  Tc2  1  0.273526  0.484614  0.894432  1
  Tc  Tc3  1  0.887977  0.015278  0.417844  1
  F  F4  1  0.252770  0.989845  0.375446  1
  F  F5  1  0.501092  0.976321  0.799517  1
  F  F6  1  0.775539  0.772719  0.295755  1
  F  F7  1  0.496984  0.741815  0.457395  1
  F  F8  1  0.987068  0.793395  0.523438  1
  F  F9  1  0.783168  0.722331  0.941754  1
  F  F10  1  0.288144  0.711187  0.056015  1
  F  F11  1  0.265031  0.718253  0.698906  1
  F  F12  1  0.956663  0.521867  0.182421  1
  F  F13  1  0.606290  0.511906  0.154727  1
  F  F14  1  0.096071  0.486780  0.855542  1
  F  F15  1  0.445474  0.477425  0.831641  1
  F  F16  1  0.779629  0.271898  0.308447  1
  F  F17  1  0.785814  0.292097  0.953421  1
  F  F18  1  0.285325  0.278538  0.071751  1
  F  F19  1  0.490966  0.245299  0.469686  1
  F  F20  1  0.991505  0.223733  0.533343  1
  F  F21  1  0.261700  0.230110  0.715624  1
  F  F22  1  0.965133  0.022772  0.206037  1
  F  F23  1  0.751820  0.012383  0.566140  1
