# generated using pymatgen
data_Rb3Gd(SiO3)3
_symmetry_space_group_name_H-M   'P 1'
_cell_length_a   5.85864200
_cell_length_b   13.00904300
_cell_length_c   14.07386800
_cell_angle_alpha   90.00000000
_cell_angle_beta   90.00000000
_cell_angle_gamma   90.00000000
_symmetry_Int_Tables_number   1
_chemical_formula_structural   Rb3Gd(SiO3)3
_chemical_formula_sum   'Rb12 Gd4 Si12 O36'
_cell_volume   1072.64443347
_cell_formula_units_Z   4
loop_
 _symmetry_equiv_pos_site_id
 _symmetry_equiv_pos_as_xyz
  1  'x, y, z'
loop_
 _atom_site_type_symbol
 _atom_site_label
 _atom_site_symmetry_multiplicity
 _atom_site_fract_x
 _atom_site_fract_y
 _atom_site_fract_z
 _atom_site_occupancy
  Rb  Rb0  1  0.819039  0.293892  0.500000  1
  Rb  Rb1  1  0.834240  0.338143  0.000000  1
  Rb  Rb2  1  0.340993  0.624663  0.711860  1
  Rb  Rb3  1  0.165760  0.838143  0.500000  1
  Rb  Rb4  1  0.232922  0.100829  0.500000  1
  Rb  Rb5  1  0.659007  0.124663  0.211860  1
  Rb  Rb6  1  0.340993  0.624663  0.288140  1
  Rb  Rb7  1  0.190169  0.070495  0.000000  1
  Rb  Rb8  1  0.659007  0.124663  0.788140  1
  Rb  Rb9  1  0.767078  0.600829  0.000000  1
  Rb  Rb10  1  0.809831  0.570495  0.500000  1
  Rb  Rb11  1  0.180961  0.793892  0.000000  1
  Gd  Gd12  1  0.166670  0.961928  0.240159  1
  Gd  Gd13  1  0.833330  0.461928  0.259841  1
  Gd  Gd14  1  0.166670  0.961928  0.759841  1
  Gd  Gd15  1  0.833330  0.461928  0.740159  1
  Si  Si16  1  0.329372  0.438291  0.114923  1
  Si  Si17  1  0.836069  0.749545  0.721422  1
  Si  Si18  1  0.670628  0.938291  0.385077  1
  Si  Si19  1  0.836069  0.749545  0.278578  1
  Si  Si20  1  0.163931  0.249545  0.221422  1
  Si  Si21  1  0.677763  0.870310  0.108613  1
  Si  Si22  1  0.670628  0.938291  0.614923  1
  Si  Si23  1  0.163931  0.249545  0.778578  1
  Si  Si24  1  0.322238  0.370310  0.391387  1
  Si  Si25  1  0.322238  0.370310  0.608613  1
  Si  Si26  1  0.677763  0.870310  0.891387  1
  Si  Si27  1  0.329372  0.438291  0.885077  1
  O  O28  1  0.558299  0.493102  0.153169  1
  O  O29  1  0.567062  0.424077  0.374498  1
  O  O30  1  0.170111  0.130290  0.808639  1
  O  O31  1  0.094525  0.497038  0.140720  1
  O  O32  1  0.327370  0.313875  0.144748  1
  O  O33  1  0.558299  0.493102  0.846831  1
  O  O34  1  0.678635  0.816975  0.000000  1
  O  O35  1  0.567062  0.424077  0.625502  1
  O  O36  1  0.094525  0.497038  0.859280  1
  O  O37  1  0.105034  0.445191  0.378653  1
  O  O38  1  0.432938  0.924077  0.874498  1
  O  O39  1  0.672630  0.813875  0.644748  1
  O  O40  1  0.289834  0.262854  0.672751  1
  O  O41  1  0.170111  0.130290  0.191361  1
  O  O42  1  0.327370  0.313875  0.855252  1
  O  O43  1  0.441701  0.993102  0.653169  1
  O  O44  1  0.894966  0.945191  0.121347  1
  O  O45  1  0.829889  0.630290  0.691361  1
  O  O46  1  0.637321  0.930450  0.500000  1
  O  O47  1  0.909679  0.297443  0.779641  1
  O  O48  1  0.672630  0.813875  0.355252  1
  O  O49  1  0.909679  0.297443  0.220359  1
  O  O50  1  0.894966  0.945191  0.878653  1
  O  O51  1  0.362679  0.430450  0.000000  1
  O  O52  1  0.432938  0.924077  0.125502  1
  O  O53  1  0.710166  0.762854  0.827249  1
  O  O54  1  0.090321  0.797443  0.720359  1
  O  O55  1  0.105034  0.445191  0.621347  1
  O  O56  1  0.710166  0.762854  0.172751  1
  O  O57  1  0.441701  0.993102  0.346831  1
  O  O58  1  0.905475  0.997038  0.359280  1
  O  O59  1  0.090321  0.797443  0.279641  1
  O  O60  1  0.905475  0.997038  0.640720  1
  O  O61  1  0.321365  0.316975  0.500000  1
  O  O62  1  0.829889  0.630290  0.308639  1
  O  O63  1  0.289834  0.262854  0.327249  1
