# generated using pymatgen
data_Zr10Tl3ZnGePb3
_symmetry_space_group_name_H-M   'P 1'
_cell_length_a   8.83153200
_cell_length_b   8.82645925
_cell_length_c   5.95617600
_cell_angle_alpha   89.99959015
_cell_angle_beta   90.00081274
_cell_angle_gamma   120.01901343
_symmetry_Int_Tables_number   1
_chemical_formula_structural   Zr10Tl3ZnGePb3
_chemical_formula_sum   'Zr10 Tl3 Zn1 Ge1 Pb3'
_cell_volume   402.01057943
_cell_formula_units_Z   1
loop_
 _symmetry_equiv_pos_site_id
 _symmetry_equiv_pos_as_xyz
  1  'x, y, z'
loop_
 _atom_site_type_symbol
 _atom_site_label
 _atom_site_symmetry_multiplicity
 _atom_site_fract_x
 _atom_site_fract_y
 _atom_site_fract_z
 _atom_site_occupancy
  Zr  Zr0  1  0.333690  0.666714  0.999522  1
  Zr  Zr1  1  0.667473  0.333270  0.500489  1
  Zr  Zr2  1  0.666978  0.333286  0.999522  1
  Zr  Zr3  1  0.334202  0.666730  0.500489  1
  Zr  Zr4  1  0.259992  0.000000  0.246302  1
  Zr  Zr5  1  0.259661  0.260298  0.753463  1
  Zr  Zr6  1  0.999363  0.739702  0.753463  1
  Zr  Zr7  1  0.999090  0.259896  0.246918  1
  Zr  Zr8  1  0.739195  0.740104  0.246918  1
  Zr  Zr9  1  0.739560  0.000000  0.753029  1
  Tl  Tl10  1  0.613531  0.000000  0.251080  1
  Tl  Tl11  1  0.613469  0.613226  0.748823  1
  Tl  Tl12  1  0.000243  0.386774  0.748823  1
  Zn  Zn13  1  0.998687  0.000000  0.500460  1
  Ge  Ge14  1  0.998822  0.000000  0.999656  1
  Pb  Pb15  1  0.999932  0.612058  0.251130  1
  Pb  Pb16  1  0.387874  0.387942  0.251130  1
  Pb  Pb17  1  0.388237  0.000000  0.748786  1
