# generated using pymatgen
data_Tm4Ge5PRh7
_symmetry_space_group_name_H-M   'P 1'
_cell_length_a   7.20206956
_cell_length_b   7.20207022
_cell_length_c   7.20207039
_cell_angle_alpha   109.39497623
_cell_angle_beta   109.62382901
_cell_angle_gamma   109.39496597
_symmetry_Int_Tables_number   1
_chemical_formula_structural   Tm4Ge5PRh7
_chemical_formula_sum   'Tm4 Ge5 P1 Rh7'
_cell_volume   287.57280573
_cell_formula_units_Z   1
loop_
 _symmetry_equiv_pos_site_id
 _symmetry_equiv_pos_as_xyz
  1  'x, y, z'
loop_
 _atom_site_type_symbol
 _atom_site_label
 _atom_site_symmetry_multiplicity
 _atom_site_fract_x
 _atom_site_fract_y
 _atom_site_fract_z
 _atom_site_occupancy
  Tm  Tm0  1  0.513959  0.516557  0.513959  1
  Tm  Tm1  1  0.997402  0.483443  0.997402  1
  Tm  Tm2  1  0.513959  0.000000  0.997402  1
  Tm  Tm3  1  0.997402  0.000000  0.513959  1
  Ge  Ge4  1  0.685986  0.680547  0.005439  1
  Ge  Ge5  1  0.324892  0.319453  0.005439  1
  Ge  Ge6  1  0.005439  0.680547  0.685986  1
  Ge  Ge7  1  0.005439  0.319453  0.324892  1
  Ge  Ge8  1  0.305713  0.000000  0.305713  1
  P  P9  1  0.664244  0.000000  0.664244  1
  Rh  Rh10  1  0.753368  0.500000  0.253368  1
  Rh  Rh11  1  0.498950  0.246248  0.745198  1
  Rh  Rh12  1  0.745198  0.246248  0.498950  1
  Rh  Rh13  1  0.252702  0.753752  0.498950  1
  Rh  Rh14  1  0.253368  0.500000  0.753368  1
  Rh  Rh15  1  0.498950  0.753752  0.252702  1
  Rh  Rh16  1  0.983026  0.000000  0.983026  1
