# generated using pymatgen
data_LiTb6Co16ReP12
_symmetry_space_group_name_H-M   'P 1'
_cell_length_a   3.72203100
_cell_length_b   10.56008500
_cell_length_c   12.24717000
_cell_angle_alpha   90.00000000
_cell_angle_beta   90.00000000
_cell_angle_gamma   90.00000000
_symmetry_Int_Tables_number   1
_chemical_formula_structural   LiTb6Co16ReP12
_chemical_formula_sum   'Li1 Tb6 Co16 Re1 P12'
_cell_volume   481.37457268
_cell_formula_units_Z   1
loop_
 _symmetry_equiv_pos_site_id
 _symmetry_equiv_pos_as_xyz
  1  'x, y, z'
loop_
 _atom_site_type_symbol
 _atom_site_label
 _atom_site_symmetry_multiplicity
 _atom_site_fract_x
 _atom_site_fract_y
 _atom_site_fract_z
 _atom_site_occupancy
  Li  Li0  1  0.000000  0.000000  0.848185  1
  Tb  Tb1  1  0.000000  0.500000  0.523704  1
  Tb  Tb2  1  0.500000  0.000000  0.478356  1
  Tb  Tb3  1  0.500000  0.818114  0.206081  1
  Tb  Tb4  1  0.500000  0.181886  0.206081  1
  Tb  Tb5  1  0.000000  0.681245  0.794585  1
  Tb  Tb6  1  0.000000  0.318755  0.794585  1
  Co  Co7  1  0.500000  0.500000  0.702588  1
  Co  Co8  1  0.000000  0.000000  0.295362  1
  Co  Co9  1  0.000000  0.500000  0.989539  1
  Co  Co10  1  0.500000  0.000000  0.013930  1
  Co  Co11  1  0.500000  0.334440  0.993671  1
  Co  Co12  1  0.500000  0.665560  0.993671  1
  Co  Co13  1  0.000000  0.169073  0.004909  1
  Co  Co14  1  0.000000  0.830927  0.004909  1
  Co  Co15  1  0.500000  0.297016  0.429303  1
  Co  Co16  1  0.500000  0.702984  0.429303  1
  Co  Co17  1  0.000000  0.204384  0.567721  1
  Co  Co18  1  0.000000  0.795616  0.567721  1
  Co  Co19  1  0.500000  0.877675  0.706800  1
  Co  Co20  1  0.500000  0.122325  0.706800  1
  Co  Co21  1  0.000000  0.619956  0.291313  1
  Co  Co22  1  0.000000  0.380044  0.291313  1
  Re  Re23  1  0.500000  0.500000  0.157482  1
  P  P24  1  0.500000  0.500000  0.881829  1
  P  P25  1  0.000000  0.000000  0.114803  1
  P  P26  1  0.500000  0.500000  0.349550  1
  P  P27  1  0.000000  0.000000  0.655391  1
  P  P28  1  0.500000  0.309793  0.614936  1
  P  P29  1  0.500000  0.690207  0.614936  1
  P  P30  1  0.000000  0.189647  0.383911  1
  P  P31  1  0.000000  0.810353  0.383911  1
  P  P32  1  0.500000  0.844598  0.893801  1
  P  P33  1  0.500000  0.155402  0.893801  1
  P  P34  1  0.000000  0.655212  0.107611  1
  P  P35  1  0.000000  0.344788  0.107611  1
