# generated using pymatgen
data_Nd3Th(Al8Pd3)3
_symmetry_space_group_name_H-M   'P 1'
_cell_length_a   7.59407405
_cell_length_b   7.61453579
_cell_length_c   13.34524525
_cell_angle_alpha   84.77095033
_cell_angle_beta   100.70263483
_cell_angle_gamma   119.69308787
_symmetry_Int_Tables_number   1
_chemical_formula_structural   Nd3Th(Al8Pd3)3
_chemical_formula_sum   'Nd3 Th1 Al24 Pd9'
_cell_volume   658.70157857
_cell_formula_units_Z   1
loop_
 _symmetry_equiv_pos_site_id
 _symmetry_equiv_pos_as_xyz
  1  'x, y, z'
loop_
 _atom_site_type_symbol
 _atom_site_label
 _atom_site_symmetry_multiplicity
 _atom_site_fract_x
 _atom_site_fract_y
 _atom_site_fract_z
 _atom_site_occupancy
  Nd  Nd0  1  0.562619  0.168801  0.191806  1
  Nd  Nd1  1  0.769169  0.502762  0.808839  1
  Nd  Nd2  1  0.231170  0.497508  0.191739  1
  Th  Th3  1  0.437334  0.831155  0.807173  1
  Al  Al4  1  0.479141  0.167301  0.947444  1
  Al  Al5  1  0.520965  0.833705  0.054684  1
  Al  Al6  1  0.020755  0.165677  0.558833  1
  Al  Al7  1  0.978463  0.834094  0.439650  1
  Al  Al8  1  0.353759  0.833157  0.556890  1
  Al  Al9  1  0.646431  0.167614  0.441452  1
  Al  Al10  1  0.619731  0.834797  0.332719  1
  Al  Al11  1  0.379500  0.167369  0.665656  1
  Al  Al12  1  0.053512  0.489688  0.665567  1
  Al  Al13  1  0.943336  0.507528  0.332861  1
  Al  Al14  1  0.734516  0.841717  0.664029  1
  Al  Al15  1  0.267659  0.158892  0.334136  1
  Al  Al16  1  0.147193  0.495743  0.947787  1
  Al  Al17  1  0.852222  0.502595  0.053574  1
  Al  Al18  1  0.821250  0.835173  0.958866  1
  Al  Al19  1  0.180742  0.165181  0.044656  1
  Al  Al20  1  0.312267  0.499312  0.440799  1
  Al  Al21  1  0.687766  0.500448  0.558596  1
  Al  Al22  1  0.101334  0.836034  0.184286  1
  Al  Al23  1  0.900136  0.164113  0.815971  1
  Al  Al24  1  0.304024  0.365790  0.814396  1
  Al  Al25  1  0.695176  0.632693  0.186040  1
  Al  Al26  1  0.102083  0.962130  0.815804  1
  Al  Al27  1  0.897919  0.038998  0.184965  1
  Pd  Pd28  1  0.385722  0.506883  0.636742  1
  Pd  Pd29  1  0.614708  0.495010  0.364000  1
  Pd  Pd30  1  0.172019  0.829124  0.999138  1
  Pd  Pd31  1  0.827489  0.170096  0.000126  1
  Pd  Pd32  1  0.293170  0.833631  0.363330  1
  Pd  Pd33  1  0.705652  0.165081  0.637017  1
  Pd  Pd34  1  0.049150  0.827400  0.636761  1
  Pd  Pd35  1  0.952174  0.172240  0.363941  1
  Pd  Pd36  1  0.499745  0.500561  0.999726  1
