# generated using pymatgen
data_Tm5(Tl2Pd)2
_symmetry_space_group_name_H-M   'P 1'
_cell_length_a   3.59264600
_cell_length_b   8.18478800
_cell_length_c   18.23673900
_cell_angle_alpha   90.00000000
_cell_angle_beta   90.00000000
_cell_angle_gamma   90.00000000
_symmetry_Int_Tables_number   1
_chemical_formula_structural   Tm5(Tl2Pd)2
_chemical_formula_sum   'Tm10 Tl8 Pd4'
_cell_volume   536.25214680
_cell_formula_units_Z   2
loop_
 _symmetry_equiv_pos_site_id
 _symmetry_equiv_pos_as_xyz
  1  'x, y, z'
loop_
 _atom_site_type_symbol
 _atom_site_label
 _atom_site_symmetry_multiplicity
 _atom_site_fract_x
 _atom_site_fract_y
 _atom_site_fract_z
 _atom_site_occupancy
  Tm  Tm0  1  0.000000  0.500000  0.500000  1
  Tm  Tm1  1  0.000000  0.000000  0.000000  1
  Tm  Tm2  1  0.000000  0.738533  0.281819  1
  Tm  Tm3  1  0.000000  0.261467  0.718182  1
  Tm  Tm4  1  0.000000  0.761467  0.781818  1
  Tm  Tm5  1  0.000000  0.238533  0.218181  1
  Tm  Tm6  1  0.000000  0.613009  0.086269  1
  Tm  Tm7  1  0.000000  0.386991  0.913731  1
  Tm  Tm8  1  0.000000  0.886991  0.586269  1
  Tm  Tm9  1  0.000000  0.113009  0.413731  1
  Tl  Tl10  1  0.500000  0.708377  0.935626  1
  Tl  Tl11  1  0.500000  0.291623  0.064374  1
  Tl  Tl12  1  0.500000  0.791623  0.435626  1
  Tl  Tl13  1  0.500000  0.208377  0.564374  1
  Tl  Tl14  1  0.500000  0.586577  0.648871  1
  Tl  Tl15  1  0.500000  0.413423  0.351129  1
  Tl  Tl16  1  0.500000  0.913423  0.148871  1
  Tl  Tl17  1  0.500000  0.086577  0.851129  1
  Pd  Pd18  1  0.500000  0.523978  0.196676  1
  Pd  Pd19  1  0.500000  0.476022  0.803324  1
  Pd  Pd20  1  0.500000  0.976022  0.696676  1
  Pd  Pd21  1  0.500000  0.023978  0.303324  1
