# generated using pymatgen
data_Dy4Ta3Fe16P12Ru
_symmetry_space_group_name_H-M   'P 1'
_cell_length_a   3.68515500
_cell_length_b   10.39803511
_cell_length_c   12.31055852
_cell_angle_alpha   89.92685722
_cell_angle_beta   90.00000000
_cell_angle_gamma   90.00000000
_symmetry_Int_Tables_number   1
_chemical_formula_structural   Dy4Ta3Fe16P12Ru
_chemical_formula_sum   'Dy4 Ta3 Fe16 P12 Ru1'
_cell_volume   471.72016505
_cell_formula_units_Z   1
loop_
 _symmetry_equiv_pos_site_id
 _symmetry_equiv_pos_as_xyz
  1  'x, y, z'
loop_
 _atom_site_type_symbol
 _atom_site_label
 _atom_site_symmetry_multiplicity
 _atom_site_fract_x
 _atom_site_fract_y
 _atom_site_fract_z
 _atom_site_occupancy
  Dy  Dy0  1  0.250000  0.583394  0.713045  1
  Dy  Dy1  1  0.250000  0.914605  0.211691  1
  Dy  Dy2  1  0.750000  0.416723  0.286936  1
  Dy  Dy3  1  0.750000  0.082382  0.788273  1
  Ta  Ta4  1  0.250000  0.796117  0.493962  1
  Ta  Ta5  1  0.750000  0.296141  0.007794  1
  Ta  Ta6  1  0.750000  0.203231  0.507650  1
  Fe  Fe7  1  0.250000  0.418145  0.490036  1
  Fe  Fe8  1  0.250000  0.081438  0.992143  1
  Fe  Fe9  1  0.750000  0.583046  0.507305  1
  Fe  Fe10  1  0.750000  0.913516  0.008863  1
  Fe  Fe11  1  0.250000  0.216649  0.169181  1
  Fe  Fe12  1  0.250000  0.285349  0.670391  1
  Fe  Fe13  1  0.750000  0.778705  0.831590  1
  Fe  Fe14  1  0.750000  0.716468  0.326455  1
  Fe  Fe15  1  0.250000  0.879626  0.700423  1
  Fe  Fe16  1  0.250000  0.618380  0.195297  1
  Fe  Fe17  1  0.750000  0.120689  0.301632  1
  Fe  Fe18  1  0.750000  0.380571  0.802876  1
  Fe  Fe19  1  0.250000  0.466902  0.935580  1
  Fe  Fe20  1  0.250000  0.035235  0.434185  1
  Fe  Fe21  1  0.750000  0.539220  0.063891  1
  Fe  Fe22  1  0.750000  0.963956  0.566505  1
  P  P23  1  0.250000  0.425283  0.112975  1
  P  P24  1  0.250000  0.075338  0.614286  1
  P  P25  1  0.750000  0.577213  0.889082  1
  P  P26  1  0.750000  0.924046  0.386637  1
  P  P27  1  0.250000  0.276097  0.854154  1
  P  P28  1  0.250000  0.225750  0.354225  1
  P  P29  1  0.750000  0.728060  0.140227  1
  P  P30  1  0.750000  0.774557  0.648011  1
  P  P31  1  0.250000  0.599735  0.373659  1
  P  P32  1  0.250000  0.894563  0.881594  1
  P  P33  1  0.750000  0.403328  0.623859  1
  P  P34  1  0.750000  0.094536  0.123360  1
  Ru  Ru35  1  0.250000  0.711005  0.992229  1
