# generated using pymatgen
data_NaPr2Y4CoBr12
_symmetry_space_group_name_H-M   'P 1'
_cell_length_a   9.29041146
_cell_length_b   9.32826888
_cell_length_c   9.37036909
_cell_angle_alpha   106.54406001
_cell_angle_beta   107.30535651
_cell_angle_gamma   106.92231667
_symmetry_Int_Tables_number   1
_chemical_formula_structural   NaPr2Y4CoBr12
_chemical_formula_sum   'Na1 Pr2 Y4 Co1 Br12'
_cell_volume   677.67414818
_cell_formula_units_Z   1
loop_
 _symmetry_equiv_pos_site_id
 _symmetry_equiv_pos_as_xyz
  1  'x, y, z'
loop_
 _atom_site_type_symbol
 _atom_site_label
 _atom_site_symmetry_multiplicity
 _atom_site_fract_x
 _atom_site_fract_y
 _atom_site_fract_z
 _atom_site_occupancy
  Na  Na0  1  0.500774  0.499562  0.498490  1
  Pr  Pr1  1  0.685315  0.970219  0.893142  1
  Pr  Pr2  1  0.896539  0.689536  0.974238  1
  Y  Y3  1  0.105646  0.301999  0.027741  1
  Y  Y4  1  0.304660  0.028015  0.105644  1
  Y  Y5  1  0.029731  0.111894  0.319966  1
  Y  Y6  1  0.969900  0.893764  0.682238  1
  Co  Co7  1  0.998170  0.999514  0.001407  1
  Br  Br8  1  0.231897  0.688764  0.078052  1
  Br  Br9  1  0.446025  0.362889  0.145495  1
  Br  Br10  1  0.684211  0.076917  0.227949  1
  Br  Br11  1  0.932171  0.792057  0.328839  1
  Br  Br12  1  0.145943  0.445860  0.362966  1
  Br  Br13  1  0.366246  0.146887  0.446201  1
  Br  Br14  1  0.632187  0.848598  0.542331  1
  Br  Br15  1  0.856036  0.556189  0.624994  1
  Br  Br16  1  0.074229  0.218728  0.684672  1
  Br  Br17  1  0.310775  0.928591  0.784619  1
  Br  Br18  1  0.540510  0.620692  0.844410  1
  Br  Br19  1  0.789040  0.319327  0.926610  1
