# generated using pymatgen
data_Hf4Zr2MnI12
_symmetry_space_group_name_H-M   'P 1'
_cell_length_a   9.39954093
_cell_length_b   9.46053727
_cell_length_c   9.49203228
_cell_angle_alpha   106.86059554
_cell_angle_beta   106.51967436
_cell_angle_gamma   106.71360837
_symmetry_Int_Tables_number   1
_chemical_formula_structural   Hf4Zr2MnI12
_chemical_formula_sum   'Hf4 Zr2 Mn1 I12'
_cell_volume   708.66193666
_cell_formula_units_Z   1
loop_
 _symmetry_equiv_pos_site_id
 _symmetry_equiv_pos_as_xyz
  1  'x, y, z'
loop_
 _atom_site_type_symbol
 _atom_site_label
 _atom_site_symmetry_multiplicity
 _atom_site_fract_x
 _atom_site_fract_y
 _atom_site_fract_z
 _atom_site_occupancy
  Hf  Hf0  1  0.972576  0.727440  0.910162  1
  Hf  Hf1  1  0.275786  0.090903  0.027789  1
  Hf  Hf2  1  0.090296  0.028155  0.274678  1
  Hf  Hf3  1  0.910045  0.973036  0.724537  1
  Zr  Zr4  1  0.718192  0.907575  0.971668  1
  Zr  Zr5  1  0.026619  0.279598  0.091259  1
  Mn  Mn6  1  0.997808  0.002028  0.000298  1
  I  I7  1  0.922219  0.304439  0.775356  1
  I  I8  1  0.686174  0.220821  0.077101  1
  I  I9  1  0.436912  0.137554  0.361949  1
  I  I10  1  0.864194  0.638011  0.565575  1
  I  I11  1  0.222901  0.076592  0.694897  1
  I  I12  1  0.637957  0.559310  0.859948  1
  I  I13  1  0.367795  0.436068  0.138477  1
  I  I14  1  0.782687  0.923053  0.311877  1
  I  I15  1  0.138998  0.361181  0.439019  1
  I  I16  1  0.563181  0.861185  0.633155  1
  I  I17  1  0.308345  0.779661  0.923763  1
  I  I18  1  0.077316  0.693390  0.218494  1
