# generated using pymatgen
data_Ba4MnWO8
_symmetry_space_group_name_H-M   'P 1'
_cell_length_a   7.36202955
_cell_length_b   7.36202927
_cell_length_c   5.93654100
_cell_angle_alpha   90.00000000
_cell_angle_beta   90.00000000
_cell_angle_gamma   132.66217453
_symmetry_Int_Tables_number   1
_chemical_formula_structural   Ba4MnWO8
_chemical_formula_sum   'Ba4 Mn1 W1 O8'
_cell_volume   236.60822372
_cell_formula_units_Z   1
loop_
 _symmetry_equiv_pos_site_id
 _symmetry_equiv_pos_as_xyz
  1  'x, y, z'
loop_
 _atom_site_type_symbol
 _atom_site_label
 _atom_site_symmetry_multiplicity
 _atom_site_fract_x
 _atom_site_fract_y
 _atom_site_fract_z
 _atom_site_occupancy
  Ba  Ba0  1  0.352910  0.647090  0.000000  1
  Ba  Ba1  1  0.856042  0.143958  0.500000  1
  Ba  Ba2  1  0.143958  0.856042  0.500000  1
  Ba  Ba3  1  0.647090  0.352910  0.000000  1
  Mn  Mn4  1  0.000000  0.000000  0.000000  1
  W  W5  1  0.500000  0.500000  0.500000  1
  O  O6  1  0.265737  0.265737  0.729744  1
  O  O7  1  0.734263  0.734263  0.270256  1
  O  O8  1  0.734263  0.734263  0.729744  1
  O  O9  1  0.265737  0.265737  0.270256  1
  O  O10  1  0.161913  0.838087  0.000000  1
  O  O11  1  0.648808  0.351192  0.500000  1
  O  O12  1  0.351192  0.648808  0.500000  1
  O  O13  1  0.838087  0.161913  0.000000  1
