# generated using pymatgen
data_Sr15Pr3(NdPt8)2
_symmetry_space_group_name_H-M   'P 1'
_cell_length_a   7.92353656
_cell_length_b   8.08969232
_cell_length_c   15.57818320
_cell_angle_alpha   90.08835694
_cell_angle_beta   90.12917419
_cell_angle_gamma   90.08546194
_symmetry_Int_Tables_number   1
_chemical_formula_structural   Sr15Pr3(NdPt8)2
_chemical_formula_sum   'Sr15 Pr3 Nd2 Pt16'
_cell_volume   998.54070030
_cell_formula_units_Z   1
loop_
 _symmetry_equiv_pos_site_id
 _symmetry_equiv_pos_as_xyz
  1  'x, y, z'
loop_
 _atom_site_type_symbol
 _atom_site_label
 _atom_site_symmetry_multiplicity
 _atom_site_fract_x
 _atom_site_fract_y
 _atom_site_fract_z
 _atom_site_occupancy
  Sr  Sr0  1  0.164309  0.328421  0.379789  1
  Sr  Sr1  1  0.337086  0.828102  0.619439  1
  Sr  Sr2  1  0.837842  0.671599  0.882149  1
  Sr  Sr3  1  0.492115  0.323273  0.903955  1
  Sr  Sr4  1  0.990761  0.178602  0.597597  1
  Sr  Sr5  1  0.508604  0.679705  0.402104  1
  Sr  Sr6  1  0.008916  0.821099  0.096025  1
  Sr  Sr7  1  0.505396  0.678724  0.095258  1
  Sr  Sr8  1  0.005644  0.819460  0.407041  1
  Sr  Sr9  1  0.494982  0.319611  0.593943  1
  Sr  Sr10  1  0.994035  0.180253  0.905769  1
  Sr  Sr11  1  0.174963  0.487207  0.749925  1
  Sr  Sr12  1  0.675803  0.013882  0.751259  1
  Sr  Sr13  1  0.827585  0.516252  0.249808  1
  Sr  Sr14  1  0.321085  0.985273  0.250296  1
  Pr  Pr15  1  0.336277  0.832665  0.878171  1
  Pr  Pr16  1  0.834309  0.670489  0.624066  1
  Pr  Pr17  1  0.665038  0.170232  0.374993  1
  Nd  Nd18  1  0.163544  0.329254  0.122263  1
  Nd  Nd19  1  0.662199  0.170888  0.121331  1
  Pt  Pt20  1  0.329955  0.043785  0.039484  1
  Pt  Pt21  1  0.819157  0.459457  0.463611  1
  Pt  Pt22  1  0.680720  0.958823  0.534922  1
  Pt  Pt23  1  0.175954  0.541723  0.965303  1
  Pt  Pt24  1  0.651303  0.974195  0.961688  1
  Pt  Pt25  1  0.139939  0.531119  0.543633  1
  Pt  Pt26  1  0.358719  0.031208  0.455248  1
  Pt  Pt27  1  0.845907  0.453350  0.044763  1
  Pt  Pt28  1  0.543966  0.625370  0.754330  1
  Pt  Pt29  1  0.045329  0.877498  0.749123  1
  Pt  Pt30  1  0.460629  0.370876  0.244531  1
  Pt  Pt31  1  0.950470  0.126321  0.243048  1
  Pt  Pt32  1  0.287938  0.120259  0.755986  1
  Pt  Pt33  1  0.785407  0.381340  0.744889  1
  Pt  Pt34  1  0.707231  0.884339  0.249477  1
  Pt  Pt35  1  0.216881  0.615345  0.244787  1
