# generated using pymatgen
data_Zr4In2Pt3Rh7
_symmetry_space_group_name_H-M   'P 1'
_cell_length_a   5.66476213
_cell_length_b   5.67671497
_cell_length_c   8.39908100
_cell_angle_alpha   90.00000000
_cell_angle_beta   90.00000000
_cell_angle_gamma   97.39428365
_symmetry_Int_Tables_number   1
_chemical_formula_structural   Zr4In2Pt3Rh7
_chemical_formula_sum   'Zr4 In2 Pt3 Rh7'
_cell_volume   267.84518623
_cell_formula_units_Z   1
loop_
 _symmetry_equiv_pos_site_id
 _symmetry_equiv_pos_as_xyz
  1  'x, y, z'
loop_
 _atom_site_type_symbol
 _atom_site_label
 _atom_site_symmetry_multiplicity
 _atom_site_fract_x
 _atom_site_fract_y
 _atom_site_fract_z
 _atom_site_occupancy
  Zr  Zr0  1  0.779580  0.227200  0.497001  1
  Zr  Zr1  1  0.220432  0.772791  0.002992  1
  Zr  Zr2  1  0.220432  0.772791  0.497008  1
  Zr  Zr3  1  0.779580  0.227200  0.002999  1
  In  In4  1  0.500809  0.500918  0.750000  1
  In  In5  1  0.499218  0.499051  0.250000  1
  Pt  Pt6  1  0.499849  0.000508  0.750000  1
  Pt  Pt7  1  0.000208  0.000240  0.250000  1
  Pt  Pt8  1  0.999753  0.999811  0.750000  1
  Rh  Rh9  1  0.733089  0.734713  0.000394  1
  Rh  Rh10  1  0.733089  0.734713  0.499606  1
  Rh  Rh11  1  0.266912  0.265253  0.999643  1
  Rh  Rh12  1  0.266912  0.265253  0.500357  1
  Rh  Rh13  1  0.500080  0.999553  0.250000  1
  Rh  Rh14  1  0.000429  0.499913  0.750000  1
  Rh  Rh15  1  0.999630  0.500093  0.250000  1
