# generated using pymatgen
data_Zr10In5BiP2
_symmetry_space_group_name_H-M   'P 1'
_cell_length_a   8.68461100
_cell_length_b   8.68461240
_cell_length_c   6.02001100
_cell_angle_alpha   90.00000000
_cell_angle_beta   90.00000000
_cell_angle_gamma   120.00384569
_symmetry_Int_Tables_number   1
_chemical_formula_structural   Zr10In5BiP2
_chemical_formula_sum   'Zr10 In5 Bi1 P2'
_cell_volume   393.19853991
_cell_formula_units_Z   1
loop_
 _symmetry_equiv_pos_site_id
 _symmetry_equiv_pos_as_xyz
  1  'x, y, z'
loop_
 _atom_site_type_symbol
 _atom_site_label
 _atom_site_symmetry_multiplicity
 _atom_site_fract_x
 _atom_site_fract_y
 _atom_site_fract_z
 _atom_site_occupancy
  Zr  Zr0  1  0.669674  0.331524  0.002392  1
  Zr  Zr1  1  0.331524  0.669674  0.002392  1
  Zr  Zr2  1  0.331524  0.669674  0.497608  1
  Zr  Zr3  1  0.669674  0.331524  0.497608  1
  Zr  Zr4  1  0.755515  0.755515  0.750000  1
  Zr  Zr5  1  0.243512  0.999025  0.750000  1
  Zr  Zr6  1  0.999025  0.243512  0.750000  1
  Zr  Zr7  1  0.246437  0.246437  0.250000  1
  Zr  Zr8  1  0.752284  0.998041  0.250000  1
  Zr  Zr9  1  0.998041  0.752284  0.250000  1
  In  In10  1  0.602463  0.999337  0.750000  1
  In  In11  1  0.999337  0.602463  0.750000  1
  In  In12  1  0.602443  0.602443  0.250000  1
  In  In13  1  0.396707  0.001283  0.250000  1
  In  In14  1  0.001283  0.396707  0.250000  1
  Bi  Bi15  1  0.402196  0.402196  0.750000  1
  P  P16  1  0.999180  0.999180  0.001796  1
  P  P17  1  0.999180  0.999180  0.498204  1
