# generated using pymatgen
data_Ho4Al4IrPd3
_symmetry_space_group_name_H-M   'P 1'
_cell_length_a   4.41040300
_cell_length_b   6.83425939
_cell_length_c   7.81243731
_cell_angle_alpha   90.24221077
_cell_angle_beta   90.00000000
_cell_angle_gamma   90.00000000
_symmetry_Int_Tables_number   1
_chemical_formula_structural   Ho4Al4IrPd3
_chemical_formula_sum   'Ho4 Al4 Ir1 Pd3'
_cell_volume   235.47911663
_cell_formula_units_Z   1
loop_
 _symmetry_equiv_pos_site_id
 _symmetry_equiv_pos_as_xyz
  1  'x, y, z'
loop_
 _atom_site_type_symbol
 _atom_site_label
 _atom_site_symmetry_multiplicity
 _atom_site_fract_x
 _atom_site_fract_y
 _atom_site_fract_z
 _atom_site_occupancy
  Ho  Ho0  1  0.250000  0.036044  0.678422  1
  Ho  Ho1  1  0.250000  0.532649  0.819266  1
  Ho  Ho2  1  0.750000  0.977122  0.319986  1
  Ho  Ho3  1  0.750000  0.463323  0.183874  1
  Al  Al4  1  0.250000  0.146459  0.064269  1
  Al  Al5  1  0.250000  0.638351  0.437383  1
  Al  Al6  1  0.750000  0.855820  0.939723  1
  Al  Al7  1  0.750000  0.354381  0.559593  1
  Ir  Ir8  1  0.250000  0.266867  0.380764  1
  Pd  Pd9  1  0.250000  0.771806  0.117685  1
  Pd  Pd10  1  0.750000  0.728823  0.618506  1
  Pd  Pd11  1  0.750000  0.228353  0.880530  1
