# generated using pymatgen
data_La4Ga10IrPt5
_symmetry_space_group_name_H-M   'P 1'
_cell_length_a   8.77089987
_cell_length_b   8.77022919
_cell_length_c   8.76931996
_cell_angle_alpha   140.52110444
_cell_angle_beta   107.09652615
_cell_angle_gamma   86.22966942
_symmetry_Int_Tables_number   1
_chemical_formula_structural   La4Ga10IrPt5
_chemical_formula_sum   'La4 Ga10 Ir1 Pt5'
_cell_volume   395.25261454
_cell_formula_units_Z   1
loop_
 _symmetry_equiv_pos_site_id
 _symmetry_equiv_pos_as_xyz
  1  'x, y, z'
loop_
 _atom_site_type_symbol
 _atom_site_label
 _atom_site_symmetry_multiplicity
 _atom_site_fract_x
 _atom_site_fract_y
 _atom_site_fract_z
 _atom_site_occupancy
  La  La0  1  0.087624  0.862523  0.223615  1
  La  La1  1  0.638879  0.363904  0.276292  1
  La  La2  1  0.912301  0.136051  0.775004  1
  La  La3  1  0.361093  0.637404  0.725038  1
  Ga  Ga4  1  0.289820  0.039766  0.749969  1
  Ga  Ga5  1  0.287405  0.537495  0.250099  1
  Ga  Ga6  1  0.000099  0.250050  0.250049  1
  Ga  Ga7  1  0.242978  0.399347  0.835268  1
  Ga  Ga8  1  0.757022  0.592353  0.156495  1
  Ga  Ga9  1  0.710250  0.460163  0.749946  1
  Ga  Ga10  1  0.564198  0.907669  0.664763  1
  Ga  Ga11  1  0.712510  0.962589  0.250021  1
  Ga  Ga12  1  0.435883  0.100639  0.343490  1
  Ga  Ga13  1  0.999974  0.749957  0.749991  1
  Ir  Ir14  1  0.499994  0.250022  0.749978  1
  Pt  Pt15  1  0.041611  0.646546  0.398871  1
  Pt  Pt16  1  0.752427  0.853562  0.895310  1
  Pt  Pt17  1  0.958343  0.357199  0.604855  1
  Pt  Pt18  1  0.247634  0.142722  0.100987  1
  Pt  Pt19  1  0.499955  0.750037  0.249960  1
