# generated using pymatgen
data_Ca3Yb3(DySb3)2
_symmetry_space_group_name_H-M   'P 1'
_cell_length_a   8.12522251
_cell_length_b   8.13166783
_cell_length_c   8.18138328
_cell_angle_alpha   70.51386322
_cell_angle_beta   70.54871397
_cell_angle_gamma   109.11240128
_symmetry_Int_Tables_number   1
_chemical_formula_structural   Ca3Yb3(DySb3)2
_chemical_formula_sum   'Ca3 Yb3 Dy2 Sb6'
_cell_volume   417.97507491
_cell_formula_units_Z   1
loop_
 _symmetry_equiv_pos_site_id
 _symmetry_equiv_pos_as_xyz
  1  'x, y, z'
loop_
 _atom_site_type_symbol
 _atom_site_label
 _atom_site_symmetry_multiplicity
 _atom_site_fract_x
 _atom_site_fract_y
 _atom_site_fract_z
 _atom_site_occupancy
  Ca  Ca0  1  0.001021  0.359418  0.495967  1
  Ca  Ca1  1  0.496318  0.496352  0.147346  1
  Ca  Ca2  1  0.644200  0.147350  0.357349  1
  Yb  Yb3  1  0.359407  0.001249  0.995218  1
  Yb  Yb4  1  0.495653  0.496021  0.648169  1
  Yb  Yb5  1  0.148131  0.644486  0.857075  1
  Dy  Dy6  1  0.855316  0.000470  0.999426  1
  Dy  Dy7  1  0.000351  0.855209  0.499593  1
  Sb  Sb8  1  0.633661  0.873135  0.750300  1
  Sb  Sb9  1  0.874198  0.635095  0.249530  1
  Sb  Sb10  1  0.238399  0.117142  0.630278  1
  Sb  Sb11  1  0.756960  0.378089  0.870450  1
  Sb  Sb12  1  0.378085  0.757257  0.371063  1
  Sb  Sb13  1  0.118300  0.238725  0.128233  1
