# generated using pymatgen
data_Tb5HoAl20(SiRu2)4
_symmetry_space_group_name_H-M   'P 1'
_cell_length_a   8.68252702
_cell_length_b   8.68252658
_cell_length_c   9.62839500
_cell_angle_alpha   90.00000000
_cell_angle_beta   90.00000000
_cell_angle_gamma   120.00702887
_symmetry_Int_Tables_number   1
_chemical_formula_structural   Tb5HoAl20(SiRu2)4
_chemical_formula_sum   'Tb5 Ho1 Al20 Si4 Ru8'
_cell_volume   628.55897338
_cell_formula_units_Z   1
loop_
 _symmetry_equiv_pos_site_id
 _symmetry_equiv_pos_as_xyz
  1  'x, y, z'
loop_
 _atom_site_type_symbol
 _atom_site_label
 _atom_site_symmetry_multiplicity
 _atom_site_fract_x
 _atom_site_fract_y
 _atom_site_fract_z
 _atom_site_occupancy
  Tb  Tb0  1  0.194830  0.389684  0.250000  1
  Tb  Tb1  1  0.805182  0.610127  0.750000  1
  Tb  Tb2  1  0.610316  0.805170  0.250000  1
  Tb  Tb3  1  0.389873  0.194818  0.750000  1
  Tb  Tb4  1  0.194857  0.805143  0.250000  1
  Ho  Ho5  1  0.804689  0.195311  0.750000  1
  Al  Al6  1  0.164783  0.329873  0.577173  1
  Al  Al7  1  0.835045  0.670057  0.422924  1
  Al  Al8  1  0.670127  0.835217  0.577173  1
  Al  Al9  1  0.835045  0.670057  0.077076  1
  Al  Al10  1  0.329943  0.164955  0.422924  1
  Al  Al11  1  0.164783  0.329873  0.922827  1
  Al  Al12  1  0.164976  0.835024  0.577095  1
  Al  Al13  1  0.329943  0.164955  0.077076  1
  Al  Al14  1  0.835007  0.164993  0.423072  1
  Al  Al15  1  0.670127  0.835217  0.922827  1
  Al  Al16  1  0.835007  0.164993  0.076928  1
  Al  Al17  1  0.164976  0.835024  0.922905  1
  Al  Al18  1  0.563674  0.127327  0.250000  1
  Al  Al19  1  0.436662  0.872965  0.750000  1
  Al  Al20  1  0.872673  0.436326  0.250000  1
  Al  Al21  1  0.127035  0.563338  0.750000  1
  Al  Al22  1  0.563677  0.436323  0.250000  1
  Al  Al23  1  0.436298  0.563702  0.750000  1
  Al  Al24  1  0.000006  0.999994  0.250000  1
  Al  Al25  1  0.999817  0.000183  0.750000  1
  Si  Si26  1  0.333342  0.666658  0.036502  1
  Si  Si27  1  0.666879  0.333121  0.963202  1
  Si  Si28  1  0.666879  0.333121  0.536798  1
  Si  Si29  1  0.333342  0.666658  0.463498  1
  Ru  Ru30  1  0.500219  0.000122  0.999847  1
  Ru  Ru31  1  0.999878  0.499781  0.999847  1
  Ru  Ru32  1  0.500219  0.000122  0.500153  1
  Ru  Ru33  1  0.500041  0.499959  0.999980  1
  Ru  Ru34  1  0.999878  0.499781  0.500153  1
  Ru  Ru35  1  0.500041  0.499959  0.500020  1
  Ru  Ru36  1  0.999965  0.000035  0.999955  1
  Ru  Ru37  1  0.999965  0.000035  0.500045  1
