# generated using pymatgen
data_SrAl8Fe2Si
_symmetry_space_group_name_H-M   'P 1'
_cell_length_a   7.87169169
_cell_length_b   7.96856018
_cell_length_c   3.88902000
_cell_angle_alpha   90.00000000
_cell_angle_beta   90.00000000
_cell_angle_gamma   120.40791415
_symmetry_Int_Tables_number   1
_chemical_formula_structural   SrAl8Fe2Si
_chemical_formula_sum   'Sr1 Al8 Fe2 Si1'
_cell_volume   210.38699707
_cell_formula_units_Z   1
loop_
 _symmetry_equiv_pos_site_id
 _symmetry_equiv_pos_as_xyz
  1  'x, y, z'
loop_
 _atom_site_type_symbol
 _atom_site_label
 _atom_site_symmetry_multiplicity
 _atom_site_fract_x
 _atom_site_fract_y
 _atom_site_fract_z
 _atom_site_occupancy
  Sr  Sr0  1  0.000000  0.000000  0.000000  1
  Al  Al1  1  0.500000  0.000000  0.000000  1
  Al  Al2  1  0.500000  0.500000  0.000000  1
  Al  Al3  1  0.209029  0.423441  0.500000  1
  Al  Al4  1  0.790971  0.214415  0.500000  1
  Al  Al5  1  0.434582  0.217291  0.500000  1
  Al  Al6  1  0.565418  0.782709  0.500000  1
  Al  Al7  1  0.209029  0.785585  0.500000  1
  Al  Al8  1  0.790971  0.576559  0.500000  1
  Fe  Fe9  1  0.679350  0.339675  0.000000  1
  Fe  Fe10  1  0.320650  0.660325  0.000000  1
  Si  Si11  1  0.000000  0.500000  0.000000  1
