# generated using pymatgen
data_Dy3Ho(ErAl)4
_symmetry_space_group_name_H-M   'P 1'
_cell_length_a   5.08430700
_cell_length_b   6.55670549
_cell_length_c   9.40285400
_cell_angle_alpha   90.03861544
_cell_angle_beta   90.00000000
_cell_angle_gamma   90.00000000
_symmetry_Int_Tables_number   1
_chemical_formula_structural   Dy3Ho(ErAl)4
_chemical_formula_sum   'Dy3 Ho1 Er4 Al4'
_cell_volume   313.45632460
_cell_formula_units_Z   1
loop_
 _symmetry_equiv_pos_site_id
 _symmetry_equiv_pos_as_xyz
  1  'x, y, z'
loop_
 _atom_site_type_symbol
 _atom_site_label
 _atom_site_symmetry_multiplicity
 _atom_site_fract_x
 _atom_site_fract_y
 _atom_site_fract_z
 _atom_site_occupancy
  Dy  Dy0  1  0.250000  0.812012  0.928479  1
  Dy  Dy1  1  0.250000  0.312862  0.571771  1
  Dy  Dy2  1  0.750000  0.187645  0.071366  1
  Ho  Ho3  1  0.750000  0.687339  0.428480  1
  Er  Er4  1  0.250000  0.969797  0.288300  1
  Er  Er5  1  0.250000  0.469539  0.211187  1
  Er  Er6  1  0.750000  0.030103  0.711548  1
  Er  Er7  1  0.750000  0.530155  0.788983  1
  Al  Al8  1  0.250000  0.290980  0.896098  1
  Al  Al9  1  0.250000  0.791222  0.603224  1
  Al  Al10  1  0.750000  0.709011  0.104356  1
  Al  Al11  1  0.750000  0.209335  0.396209  1
