# generated using pymatgen
data_Y12Tm4Cd4Ir3Rh
_symmetry_space_group_name_H-M   'P 1'
_cell_length_a   9.62250340
_cell_length_b   9.62250252
_cell_length_c   9.62250414
_cell_angle_alpha   59.98424130
_cell_angle_beta   59.98424712
_cell_angle_gamma   59.98424637
_symmetry_Int_Tables_number   1
_chemical_formula_structural   Y12Tm4Cd4Ir3Rh
_chemical_formula_sum   'Y12 Tm4 Cd4 Ir3 Rh1'
_cell_volume   629.78750450
_cell_formula_units_Z   1
loop_
 _symmetry_equiv_pos_site_id
 _symmetry_equiv_pos_as_xyz
  1  'x, y, z'
loop_
 _atom_site_type_symbol
 _atom_site_label
 _atom_site_symmetry_multiplicity
 _atom_site_fract_x
 _atom_site_fract_y
 _atom_site_fract_z
 _atom_site_occupancy
  Y  Y0  1  0.808031  0.190412  0.190412  1
  Y  Y1  1  0.189611  0.809624  0.809624  1
  Y  Y2  1  0.190412  0.808031  0.190412  1
  Y  Y3  1  0.809624  0.189611  0.809624  1
  Y  Y4  1  0.190412  0.190412  0.808031  1
  Y  Y5  1  0.809624  0.809624  0.189611  1
  Y  Y6  1  0.939644  0.561211  0.561211  1
  Y  Y7  1  0.562384  0.938246  0.938246  1
  Y  Y8  1  0.561211  0.939644  0.561211  1
  Y  Y9  1  0.938246  0.562384  0.938246  1
  Y  Y10  1  0.561211  0.561211  0.939644  1
  Y  Y11  1  0.938246  0.938246  0.562384  1
  Tm  Tm12  1  0.347580  0.347580  0.347580  1
  Tm  Tm13  1  0.348775  0.348775  0.955644  1
  Tm  Tm14  1  0.348775  0.955644  0.348775  1
  Tm  Tm15  1  0.955644  0.348775  0.348775  1
  Cd  Cd16  1  0.580190  0.580190  0.580190  1
  Cd  Cd17  1  0.580655  0.580655  0.257746  1
  Cd  Cd18  1  0.580655  0.257746  0.580655  1
  Cd  Cd19  1  0.257746  0.580655  0.580655  1
  Ir  Ir20  1  0.143497  0.143497  0.571019  1
  Ir  Ir21  1  0.143497  0.571019  0.143497  1
  Ir  Ir22  1  0.571019  0.143497  0.143497  1
  Rh  Rh23  1  0.143312  0.143312  0.143312  1
