# generated using pymatgen
data_ZrCo5P3
_symmetry_space_group_name_H-M   'P 1'
_cell_length_a   3.60557800
_cell_length_b   10.15540600
_cell_length_c   11.63956700
_cell_angle_alpha   90.00000000
_cell_angle_beta   90.00000000
_cell_angle_gamma   90.00000000
_symmetry_Int_Tables_number   1
_chemical_formula_structural   ZrCo5P3
_chemical_formula_sum   'Zr4 Co20 P12'
_cell_volume   426.19564764
_cell_formula_units_Z   4
loop_
 _symmetry_equiv_pos_site_id
 _symmetry_equiv_pos_as_xyz
  1  'x, y, z'
loop_
 _atom_site_type_symbol
 _atom_site_label
 _atom_site_symmetry_multiplicity
 _atom_site_fract_x
 _atom_site_fract_y
 _atom_site_fract_z
 _atom_site_occupancy
  Zr  Zr0  1  0.250000  0.581244  0.702864  1
  Zr  Zr1  1  0.250000  0.918756  0.202864  1
  Zr  Zr2  1  0.750000  0.418756  0.297136  1
  Zr  Zr3  1  0.750000  0.081244  0.797136  1
  Co  Co4  1  0.250000  0.719304  0.993363  1
  Co  Co5  1  0.250000  0.780696  0.493363  1
  Co  Co6  1  0.750000  0.280696  0.006637  1
  Co  Co7  1  0.750000  0.219304  0.506637  1
  Co  Co8  1  0.250000  0.409222  0.486578  1
  Co  Co9  1  0.250000  0.090778  0.986578  1
  Co  Co10  1  0.750000  0.590778  0.513422  1
  Co  Co11  1  0.750000  0.909222  0.013422  1
  Co  Co12  1  0.250000  0.223949  0.178197  1
  Co  Co13  1  0.250000  0.276052  0.678197  1
  Co  Co14  1  0.750000  0.776052  0.821803  1
  Co  Co15  1  0.750000  0.723948  0.321803  1
  Co  Co16  1  0.250000  0.883154  0.700544  1
  Co  Co17  1  0.250000  0.616846  0.200544  1
  Co  Co18  1  0.750000  0.116846  0.299456  1
  Co  Co19  1  0.750000  0.383154  0.799456  1
  Co  Co20  1  0.250000  0.466768  0.930623  1
  Co  Co21  1  0.250000  0.033232  0.430623  1
  Co  Co22  1  0.750000  0.533232  0.069377  1
  Co  Co23  1  0.750000  0.966768  0.569377  1
  P  P24  1  0.250000  0.419918  0.114136  1
  P  P25  1  0.250000  0.080082  0.614136  1
  P  P26  1  0.750000  0.580082  0.885864  1
  P  P27  1  0.750000  0.919918  0.385864  1
  P  P28  1  0.250000  0.266499  0.869773  1
  P  P29  1  0.250000  0.233501  0.369773  1
  P  P30  1  0.750000  0.733501  0.130227  1
  P  P31  1  0.750000  0.766499  0.630227  1
  P  P32  1  0.250000  0.600354  0.389648  1
  P  P33  1  0.250000  0.899646  0.889648  1
  P  P34  1  0.750000  0.399646  0.610352  1
  P  P35  1  0.750000  0.100354  0.110352  1
