# generated using pymatgen
data_CdIr4Pb3O13
_symmetry_space_group_name_H-M   'P 1'
_cell_length_a   7.31964800
_cell_length_b   7.31964819
_cell_length_c   7.29239950
_cell_angle_alpha   120.12368315
_cell_angle_beta   90.00000000
_cell_angle_gamma   119.99999916
_symmetry_Int_Tables_number   1
_chemical_formula_structural   CdIr4Pb3O13
_chemical_formula_sum   'Cd1 Ir4 Pb3 O13'
_cell_volume   275.75375121
_cell_formula_units_Z   1
loop_
 _symmetry_equiv_pos_site_id
 _symmetry_equiv_pos_as_xyz
  1  'x, y, z'
loop_
 _atom_site_type_symbol
 _atom_site_label
 _atom_site_symmetry_multiplicity
 _atom_site_fract_x
 _atom_site_fract_y
 _atom_site_fract_z
 _atom_site_occupancy
  Cd  Cd0  1  0.127221  0.254441  0.381662  1
  Ir  Ir1  1  0.625957  0.251914  0.373906  1
  Ir  Ir2  1  0.121992  0.747948  0.373906  1
  Ir  Ir3  1  0.625957  0.747948  0.373906  1
  Ir  Ir4  1  0.624502  0.249002  0.873505  1
  Pb  Pb5  1  0.124820  0.249637  0.879682  1
  Pb  Pb6  1  0.124820  0.754863  0.879682  1
  Pb  Pb7  1  0.630044  0.754863  0.879682  1
  O  O8  1  0.546021  0.092043  0.045092  1
  O  O9  1  0.546021  0.499072  0.045092  1
  O  O10  1  0.953051  0.499072  0.045093  1
  O  O11  1  0.293998  0.003766  0.297765  1
  O  O12  1  0.709768  0.003766  0.297765  1
  O  O13  1  0.293998  0.587996  0.297765  1
  O  O14  1  0.953288  0.495207  0.448492  1
  O  O15  1  0.953288  0.906572  0.448492  1
  O  O16  1  0.541919  0.495207  0.448493  1
  O  O17  1  0.298108  0.998308  0.698508  1
  O  O18  1  0.700200  0.998308  0.698508  1
  O  O19  1  0.700200  0.400400  0.698508  1
  O  O20  1  0.254832  0.509665  0.764497  1
