# generated using pymatgen
data_Lu12MnTc2Ni2Sn
_symmetry_space_group_name_H-M   'P 1'
_cell_length_a   8.23006692
_cell_length_b   8.23006782
_cell_length_c   8.23006742
_cell_angle_alpha   113.27600646
_cell_angle_beta   111.44251272
_cell_angle_gamma   103.84355123
_symmetry_Int_Tables_number   1
_chemical_formula_structural   Lu12MnTc2Ni2Sn
_chemical_formula_sum   'Lu12 Mn1 Tc2 Ni2 Sn1'
_cell_volume   425.94414180
_cell_formula_units_Z   1
loop_
 _symmetry_equiv_pos_site_id
 _symmetry_equiv_pos_as_xyz
  1  'x, y, z'
loop_
 _atom_site_type_symbol
 _atom_site_label
 _atom_site_symmetry_multiplicity
 _atom_site_fract_x
 _atom_site_fract_y
 _atom_site_fract_z
 _atom_site_occupancy
  Lu  Lu0  1  0.670323  0.854667  0.184344  1
  Lu  Lu1  1  0.329677  0.514022  0.184344  1
  Lu  Lu2  1  0.818579  0.780931  0.599510  1
  Lu  Lu3  1  0.181421  0.780931  0.962352  1
  Lu  Lu4  1  0.818579  0.219069  0.037648  1
  Lu  Lu5  1  0.181421  0.219069  0.400490  1
  Lu  Lu6  1  0.670323  0.485978  0.815656  1
  Lu  Lu7  1  0.329677  0.145333  0.815656  1
  Lu  Lu8  1  0.571397  0.263097  0.308299  1
  Lu  Lu9  1  0.428603  0.736903  0.691701  1
  Lu  Lu10  1  0.045202  0.736903  0.308299  1
  Lu  Lu11  1  0.954798  0.263097  0.691701  1
  Mn  Mn12  1  0.000000  0.500000  0.500000  1
  Tc  Tc13  1  0.319290  0.500000  0.819290  1
  Tc  Tc14  1  0.680710  0.500000  0.180710  1
  Ni  Ni15  1  0.880007  0.880007  0.000000  1
  Ni  Ni16  1  0.119993  0.119993  0.000000  1
  Sn  Sn17  1  0.500000  0.000000  0.500000  1
