# generated using pymatgen
data_Tb4YNb3(Ni4As3)4
_symmetry_space_group_name_H-M   'P 1'
_cell_length_a   12.65694102
_cell_length_b   12.65560265
_cell_length_c   3.88659400
_cell_angle_alpha   90.00000000
_cell_angle_beta   90.00000000
_cell_angle_gamma   119.99650430
_symmetry_Int_Tables_number   1
_chemical_formula_structural   Tb4YNb3(Ni4As3)4
_chemical_formula_sum   'Tb4 Y1 Nb3 Ni16 As12'
_cell_volume   539.17120670
_cell_formula_units_Z   1
loop_
 _symmetry_equiv_pos_site_id
 _symmetry_equiv_pos_as_xyz
  1  'x, y, z'
loop_
 _atom_site_type_symbol
 _atom_site_label
 _atom_site_symmetry_multiplicity
 _atom_site_fract_x
 _atom_site_fract_y
 _atom_site_fract_z
 _atom_site_occupancy
  Tb  Tb0  1  0.185402  0.185426  0.500000  1
  Tb  Tb1  1  0.814598  0.000024  0.500000  1
  Tb  Tb2  1  0.333343  0.666637  0.000000  1
  Tb  Tb3  1  0.666657  0.333293  0.000000  1
  Y  Y4  1  0.000000  0.814567  0.500000  1
  Nb  Nb5  1  0.562340  0.562374  0.000000  1
  Nb  Nb6  1  0.437660  0.000035  0.000000  1
  Nb  Nb7  1  0.000000  0.437679  0.000000  1
  Ni  Ni8  1  0.721071  0.721058  0.500000  1
  Ni  Ni9  1  0.278929  0.999987  0.500000  1
  Ni  Ni10  1  0.000000  0.278883  0.500000  1
  Ni  Ni11  1  0.182158  0.375412  0.000000  1
  Ni  Ni12  1  0.624591  0.806773  0.000000  1
  Ni  Ni13  1  0.193211  0.817811  0.000000  1
  Ni  Ni14  1  0.806789  0.624600  0.000000  1
  Ni  Ni15  1  0.817842  0.193254  0.000000  1
  Ni  Ni16  1  0.375409  0.182182  0.000000  1
  Ni  Ni17  1  0.361201  0.483118  0.500000  1
  Ni  Ni18  1  0.516859  0.878068  0.500000  1
  Ni  Ni19  1  0.121956  0.638806  0.500000  1
  Ni  Ni20  1  0.878044  0.516849  0.500000  1
  Ni  Ni21  1  0.638799  0.121916  0.500000  1
  Ni  Ni22  1  0.483141  0.361208  0.500000  1
  Ni  Ni23  1  0.000000  0.999979  0.000000  1
  As  As24  1  0.821965  0.821896  0.000000  1
  As  As25  1  0.178035  0.999932  0.000000  1
  As  As26  1  0.000000  0.178145  0.000000  1
  As  As27  1  0.169083  0.479853  0.500000  1
  As  As28  1  0.520142  0.689266  0.500000  1
  As  As29  1  0.310755  0.830889  0.500000  1
  As  As30  1  0.689245  0.520134  0.500000  1
  As  As31  1  0.830917  0.310771  0.500000  1
  As  As32  1  0.479858  0.169124  0.500000  1
  As  As33  1  0.361148  0.361152  0.000000  1
  As  As34  1  0.638852  0.000004  0.000000  1
  As  As35  1  0.000000  0.638896  0.000000  1
