# generated using pymatgen
data_Ba4H9Pt2F3
_symmetry_space_group_name_H-M   'P 1'
_cell_length_a   7.93521974
_cell_length_b   7.93521987
_cell_length_c   6.05694859
_cell_angle_alpha   90.04639886
_cell_angle_beta   89.95359712
_cell_angle_gamma   135.11091691
_symmetry_Int_Tables_number   1
_chemical_formula_structural   Ba4H9Pt2F3
_chemical_formula_sum   'Ba4 H9 Pt2 F3'
_cell_volume   269.16233048
_cell_formula_units_Z   1
loop_
 _symmetry_equiv_pos_site_id
 _symmetry_equiv_pos_as_xyz
  1  'x, y, z'
loop_
 _atom_site_type_symbol
 _atom_site_label
 _atom_site_symmetry_multiplicity
 _atom_site_fract_x
 _atom_site_fract_y
 _atom_site_fract_z
 _atom_site_occupancy
  Ba  Ba0  1  0.357558  0.643012  0.999992  1
  Ba  Ba1  1  0.857012  0.142523  0.499630  1
  Ba  Ba2  1  0.642523  0.357012  0.000370  1
  Ba  Ba3  1  0.143012  0.857558  0.500008  1
  H  H4  1  0.501662  0.001662  0.250000  1
  H  H5  1  0.114478  0.887941  0.000930  1
  H  H6  1  0.612019  0.385552  0.499201  1
  H  H7  1  0.885552  0.112019  0.000799  1
  H  H8  1  0.387941  0.614478  0.499070  1
  H  H9  1  0.801885  0.801718  0.195118  1
  H  H10  1  0.197942  0.197862  0.805300  1
  H  H11  1  0.697862  0.697942  0.694700  1
  H  H12  1  0.301718  0.301885  0.304882  1
  Pt  Pt13  1  0.000086  0.000019  0.000481  1
  Pt  Pt14  1  0.500019  0.500086  0.499519  1
  F  F15  1  0.001086  0.501086  0.250000  1
  F  F16  1  0.498855  0.998855  0.750000  1
  F  F17  1  0.998789  0.498789  0.750000  1
