# generated using pymatgen
data_Sc4ReOs7
_symmetry_space_group_name_H-M   'P 1'
_cell_length_a   5.28378000
_cell_length_b   5.17618701
_cell_length_c   8.64912100
_cell_angle_alpha   90.00000000
_cell_angle_beta   90.00000000
_cell_angle_gamma   120.69002864
_symmetry_Int_Tables_number   1
_chemical_formula_structural   Sc4ReOs7
_chemical_formula_sum   'Sc4 Re1 Os7'
_cell_volume   203.42080514
_cell_formula_units_Z   1
loop_
 _symmetry_equiv_pos_site_id
 _symmetry_equiv_pos_as_xyz
  1  'x, y, z'
loop_
 _atom_site_type_symbol
 _atom_site_label
 _atom_site_symmetry_multiplicity
 _atom_site_fract_x
 _atom_site_fract_y
 _atom_site_fract_z
 _atom_site_occupancy
  Sc  Sc0  1  0.333658  0.667318  0.433700  1
  Sc  Sc1  1  0.669147  0.338292  0.566161  1
  Sc  Sc2  1  0.669147  0.338292  0.933839  1
  Sc  Sc3  1  0.333658  0.667318  0.066300  1
  Re  Re4  1  0.167326  0.334650  0.750000  1
  Os  Os5  1  0.170239  0.820486  0.750000  1
  Os  Os6  1  0.340263  0.166335  0.250000  1
  Os  Os7  1  0.823505  0.647010  0.250000  1
  Os  Os8  1  0.650248  0.820486  0.750000  1
  Os  Os9  1  0.008369  0.016739  0.000871  1
  Os  Os10  1  0.826071  0.166335  0.250000  1
  Os  Os11  1  0.008369  0.016739  0.499129  1
