# generated using pymatgen
data_Ho2MoRu3
_symmetry_space_group_name_H-M   'P 1'
_cell_length_a   5.57780699
_cell_length_b   5.19963000
_cell_length_c   5.57780682
_cell_angle_alpha   122.53294118
_cell_angle_beta   120.09141022
_cell_angle_gamma   89.83383000
_symmetry_Int_Tables_number   1
_chemical_formula_structural   Ho2MoRu3
_chemical_formula_sum   'Ho2 Mo1 Ru3'
_cell_volume   109.83260462
_cell_formula_units_Z   1
loop_
 _symmetry_equiv_pos_site_id
 _symmetry_equiv_pos_as_xyz
  1  'x, y, z'
loop_
 _atom_site_type_symbol
 _atom_site_label
 _atom_site_symmetry_multiplicity
 _atom_site_fract_x
 _atom_site_fract_y
 _atom_site_fract_z
 _atom_site_occupancy
  Ho  Ho0  1  0.371946  0.116979  0.245033  1
  Ho  Ho1  1  0.628054  0.883021  0.754967  1
  Mo  Mo2  1  0.000000  0.000000  0.500000  1
  Ru  Ru3  1  0.000000  0.500000  0.000000  1
  Ru  Ru4  1  0.000000  0.500000  0.500000  1
  Ru  Ru5  1  0.500000  0.500000  0.000000  1
