# generated using pymatgen
data_Rb4Sr2ZrP4
_symmetry_space_group_name_H-M   'P 1'
_cell_length_a   10.54459465
_cell_length_b   10.54459327
_cell_length_c   7.75688434
_cell_angle_alpha   87.79291191
_cell_angle_beta   87.79291177
_cell_angle_gamma   119.42668449
_symmetry_Int_Tables_number   1
_chemical_formula_structural   Rb4Sr2ZrP4
_chemical_formula_sum   'Rb8 Sr4 Zr2 P8'
_cell_volume   749.01036680
_cell_formula_units_Z   2
loop_
 _symmetry_equiv_pos_site_id
 _symmetry_equiv_pos_as_xyz
  1  'x, y, z'
loop_
 _atom_site_type_symbol
 _atom_site_label
 _atom_site_symmetry_multiplicity
 _atom_site_fract_x
 _atom_site_fract_y
 _atom_site_fract_z
 _atom_site_occupancy
  Rb  Rb0  1  0.475506  0.942105  0.387708  1
  Rb  Rb1  1  0.942105  0.475506  0.887708  1
  Rb  Rb2  1  0.866650  0.720502  0.163533  1
  Rb  Rb3  1  0.264802  0.126363  0.233172  1
  Rb  Rb4  1  0.856771  0.140517  0.191234  1
  Rb  Rb5  1  0.126363  0.264802  0.733172  1
  Rb  Rb6  1  0.720502  0.866650  0.663533  1
  Rb  Rb7  1  0.140517  0.856771  0.691234  1
  Sr  Sr8  1  0.078541  0.533503  0.395088  1
  Sr  Sr9  1  0.472524  0.531421  0.377398  1
  Sr  Sr10  1  0.533503  0.078541  0.895088  1
  Sr  Sr11  1  0.531421  0.472524  0.877398  1
  Zr  Zr12  1  0.664240  0.337036  0.488974  1
  Zr  Zr13  1  0.337036  0.664240  0.988974  1
  P  P14  1  0.634655  0.327601  0.159497  1
  P  P15  1  0.327601  0.634655  0.659497  1
  P  P16  1  0.215011  0.409205  0.140873  1
  P  P17  1  0.598624  0.789339  0.076818  1
  P  P18  1  0.213582  0.801620  0.099735  1
  P  P19  1  0.789339  0.598624  0.576818  1
  P  P20  1  0.409205  0.215011  0.640873  1
  P  P21  1  0.801620  0.213582  0.599735  1
