# generated using pymatgen
data_Ac6MgCd22P
_symmetry_space_group_name_H-M   'P 1'
_cell_length_a   10.34227125
_cell_length_b   10.34227150
_cell_length_c   10.34227200
_cell_angle_alpha   60.00000481
_cell_angle_beta   60.00000401
_cell_angle_gamma   60.00000716
_symmetry_Int_Tables_number   1
_chemical_formula_structural   Ac6MgCd22P
_chemical_formula_sum   'Ac6 Mg1 Cd22 P1'
_cell_volume   782.22711964
_cell_formula_units_Z   1
loop_
 _symmetry_equiv_pos_site_id
 _symmetry_equiv_pos_as_xyz
  1  'x, y, z'
loop_
 _atom_site_type_symbol
 _atom_site_label
 _atom_site_symmetry_multiplicity
 _atom_site_fract_x
 _atom_site_fract_y
 _atom_site_fract_z
 _atom_site_occupancy
  Ac  Ac0  1  0.790768  0.790768  0.209232  1
  Ac  Ac1  1  0.209232  0.790768  0.209232  1
  Ac  Ac2  1  0.790768  0.209232  0.209232  1
  Ac  Ac3  1  0.209232  0.209232  0.790768  1
  Ac  Ac4  1  0.790768  0.209232  0.790768  1
  Ac  Ac5  1  0.209232  0.790768  0.790768  1
  Mg  Mg6  1  0.500000  0.500000  0.500000  1
  Cd  Cd7  1  0.828874  0.828874  0.513378  1
  Cd  Cd8  1  0.828874  0.513378  0.828874  1
  Cd  Cd9  1  0.513378  0.828874  0.828874  1
  Cd  Cd10  1  0.828874  0.828874  0.828874  1
  Cd  Cd11  1  0.171126  0.171126  0.486622  1
  Cd  Cd12  1  0.171126  0.486622  0.171126  1
  Cd  Cd13  1  0.486622  0.171126  0.171126  1
  Cd  Cd14  1  0.171126  0.171126  0.171126  1
  Cd  Cd15  1  0.621189  0.621189  0.136433  1
  Cd  Cd16  1  0.621189  0.136433  0.621189  1
  Cd  Cd17  1  0.136433  0.621189  0.621189  1
  Cd  Cd18  1  0.621189  0.621189  0.621189  1
  Cd  Cd19  1  0.378811  0.378811  0.863567  1
  Cd  Cd20  1  0.378811  0.863567  0.378811  1
  Cd  Cd21  1  0.863567  0.378811  0.378811  1
  Cd  Cd22  1  0.378811  0.378811  0.378811  1
  Cd  Cd23  1  0.000000  0.000000  0.500000  1
  Cd  Cd24  1  0.500000  0.000000  0.500000  1
  Cd  Cd25  1  0.000000  0.500000  0.500000  1
  Cd  Cd26  1  0.500000  0.500000  0.000000  1
  Cd  Cd27  1  0.000000  0.500000  0.000000  1
  Cd  Cd28  1  0.500000  0.000000  0.000000  1
  P  P29  1  0.000000  0.000000  0.000000  1
