# generated using pymatgen
data_Dy5Ho11(NiAg)4
_symmetry_space_group_name_H-M   'P 1'
_cell_length_a   9.44152655
_cell_length_b   9.44484309
_cell_length_c   9.44484344
_cell_angle_alpha   59.98302074
_cell_angle_beta   60.01161379
_cell_angle_gamma   60.01161652
_symmetry_Int_Tables_number   1
_chemical_formula_structural   Dy5Ho11(NiAg)4
_chemical_formula_sum   'Dy5 Ho11 Ni4 Ag4'
_cell_volume   595.57598229
_cell_formula_units_Z   1
loop_
 _symmetry_equiv_pos_site_id
 _symmetry_equiv_pos_as_xyz
  1  'x, y, z'
loop_
 _atom_site_type_symbol
 _atom_site_label
 _atom_site_symmetry_multiplicity
 _atom_site_fract_x
 _atom_site_fract_y
 _atom_site_fract_z
 _atom_site_occupancy
  Dy  Dy0  1  0.349676  0.350676  0.350676  1
  Dy  Dy1  1  0.350447  0.350458  0.948646  1
  Dy  Dy2  1  0.350447  0.948646  0.350458  1
  Dy  Dy3  1  0.948970  0.350676  0.350676  1
  Dy  Dy4  1  0.811448  0.188552  0.188552  1
  Ho  Ho5  1  0.188480  0.811520  0.811520  1
  Ho  Ho6  1  0.188764  0.811257  0.188381  1
  Ho  Ho7  1  0.811598  0.188381  0.811257  1
  Ho  Ho8  1  0.188764  0.188381  0.811257  1
  Ho  Ho9  1  0.811598  0.811257  0.188381  1
  Ho  Ho10  1  0.935612  0.564388  0.564388  1
  Ho  Ho11  1  0.564226  0.935774  0.935774  1
  Ho  Ho12  1  0.564048  0.935717  0.564313  1
  Ho  Ho13  1  0.935922  0.564313  0.935717  1
  Ho  Ho14  1  0.564048  0.564313  0.935717  1
  Ho  Ho15  1  0.935922  0.935717  0.564313  1
  Ni  Ni16  1  0.142975  0.142913  0.142913  1
  Ni  Ni17  1  0.143078  0.142215  0.571630  1
  Ni  Ni18  1  0.143078  0.571630  0.142215  1
  Ni  Ni19  1  0.571199  0.142913  0.142913  1
  Ag  Ag20  1  0.582214  0.582288  0.582288  1
  Ag  Ag21  1  0.582136  0.582540  0.253190  1
  Ag  Ag22  1  0.582136  0.253190  0.582540  1
  Ag  Ag23  1  0.253211  0.582288  0.582288  1
