# generated using pymatgen
data_TbLu3Ru4F28
_symmetry_space_group_name_H-M   'P 1'
_cell_length_a   5.50209540
_cell_length_b   8.79378761
_cell_length_c   11.82298900
_cell_angle_alpha   63.70094444
_cell_angle_beta   90.06374072
_cell_angle_gamma   90.09415136
_symmetry_Int_Tables_number   1
_chemical_formula_structural   TbLu3Ru4F28
_chemical_formula_sum   'Tb1 Lu3 Ru4 F28'
_cell_volume   512.83541240
_cell_formula_units_Z   1
loop_
 _symmetry_equiv_pos_site_id
 _symmetry_equiv_pos_as_xyz
  1  'x, y, z'
loop_
 _atom_site_type_symbol
 _atom_site_label
 _atom_site_symmetry_multiplicity
 _atom_site_fract_x
 _atom_site_fract_y
 _atom_site_fract_z
 _atom_site_occupancy
  Tb  Tb0  1  0.242039  0.812734  0.769893  1
  Lu  Lu1  1  0.257413  0.812814  0.269989  1
  Lu  Lu2  1  0.741356  0.194526  0.727832  1
  Lu  Lu3  1  0.757981  0.188557  0.229609  1
  Ru  Ru4  1  0.754731  0.726631  0.049007  1
  Ru  Ru5  1  0.245006  0.269982  0.955285  1
  Ru  Ru6  1  0.255935  0.273798  0.452904  1
  Ru  Ru7  1  0.746310  0.727278  0.542721  1
  F  F8  1  0.953960  0.703928  0.416573  1
  F  F9  1  0.046076  0.296755  0.578912  1
  F  F10  1  0.455190  0.294995  0.080603  1
  F  F11  1  0.549719  0.702885  0.921936  1
  F  F12  1  0.467400  0.731389  0.146736  1
  F  F13  1  0.532112  0.269172  0.855928  1
  F  F14  1  0.970462  0.267401  0.354196  1
  F  F15  1  0.034606  0.729664  0.639422  1
  F  F16  1  0.960184  0.750816  0.177119  1
  F  F17  1  0.037785  0.246658  0.826645  1
  F  F18  1  0.462982  0.248757  0.325497  1
  F  F19  1  0.546967  0.748246  0.673108  1
  F  F20  1  0.766149  0.484407  0.143997  1
  F  F21  1  0.230102  0.511062  0.858906  1
  F  F22  1  0.267608  0.515030  0.357004  1
  F  F23  1  0.732194  0.485006  0.640313  1
  F  F24  1  0.950687  0.279812  0.048725  1
  F  F25  1  0.048271  0.716121  0.957383  1
  F  F26  1  0.448540  0.718645  0.450896  1
  F  F27  1  0.549674  0.283390  0.546559  1
  F  F28  1  0.747791  0.967450  0.450559  1
  F  F29  1  0.254481  0.033558  0.546634  1
  F  F30  1  0.246599  0.030133  0.048582  1
  F  F31  1  0.753786  0.965564  0.956142  1
  F  F32  1  0.566915  0.976899  0.234949  1
  F  F33  1  0.431924  0.032673  0.766400  1
  F  F34  1  0.066971  0.024027  0.264893  1
  F  F35  1  0.920093  0.979239  0.734145  1
