# generated using pymatgen
data_Ca6In2Ag14N
_symmetry_space_group_name_H-M   'P 1'
_cell_length_a   8.66062564
_cell_length_b   8.61078456
_cell_length_c   8.66062441
_cell_angle_alpha   109.22481230
_cell_angle_beta   110.19637493
_cell_angle_gamma   109.22480538
_symmetry_Int_Tables_number   1
_chemical_formula_structural   Ca6In2Ag14N
_chemical_formula_sum   'Ca6 In2 Ag14 N1'
_cell_volume   495.72008121
_cell_formula_units_Z   1
loop_
 _symmetry_equiv_pos_site_id
 _symmetry_equiv_pos_as_xyz
  1  'x, y, z'
loop_
 _atom_site_type_symbol
 _atom_site_label
 _atom_site_symmetry_multiplicity
 _atom_site_fract_x
 _atom_site_fract_y
 _atom_site_fract_z
 _atom_site_occupancy
  Ca  Ca0  1  0.000412  0.251210  0.250798  1
  Ca  Ca1  1  0.251170  0.000000  0.251170  1
  Ca  Ca2  1  0.748830  0.000000  0.748830  1
  Ca  Ca3  1  0.749202  0.748790  0.999588  1
  Ca  Ca4  1  0.250798  0.251210  0.000412  1
  Ca  Ca5  1  0.999588  0.748790  0.749202  1
  In  In6  1  0.500000  0.000000  0.000000  1
  In  In7  1  0.000000  0.000000  0.500000  1
  Ag  Ag8  1  0.500000  0.500000  0.500000  1
  Ag  Ag9  1  0.000000  0.500000  0.000000  1
  Ag  Ag10  1  0.694404  0.349443  0.349399  1
  Ag  Ag11  1  0.348631  0.000000  0.651369  1
  Ag  Ag12  1  0.346166  0.692331  0.346166  1
  Ag  Ag13  1  0.349399  0.349443  0.694404  1
  Ag  Ag14  1  0.344962  0.650557  0.999956  1
  Ag  Ag15  1  0.000044  0.349443  0.655038  1
  Ag  Ag16  1  0.999956  0.650557  0.344962  1
  Ag  Ag17  1  0.650601  0.650557  0.305596  1
  Ag  Ag18  1  0.651369  0.000000  0.348631  1
  Ag  Ag19  1  0.655038  0.349443  0.000044  1
  Ag  Ag20  1  0.653834  0.307669  0.653834  1
  Ag  Ag21  1  0.305596  0.650557  0.650601  1
  N  N22  1  0.000000  0.000000  0.000000  1
