# generated using pymatgen
data_Be6Ga5SiRh12
_symmetry_space_group_name_H-M   'P 1'
_cell_length_a   4.12603000
_cell_length_b   5.82602800
_cell_length_c   12.37572801
_cell_angle_alpha   90.00000000
_cell_angle_beta   89.99600033
_cell_angle_gamma   90.00000000
_symmetry_Int_Tables_number   1
_chemical_formula_structural   Be6Ga5SiRh12
_chemical_formula_sum   'Be6 Ga5 Si1 Rh12'
_cell_volume   297.49228264
_cell_formula_units_Z   1
loop_
 _symmetry_equiv_pos_site_id
 _symmetry_equiv_pos_as_xyz
  1  'x, y, z'
loop_
 _atom_site_type_symbol
 _atom_site_label
 _atom_site_symmetry_multiplicity
 _atom_site_fract_x
 _atom_site_fract_y
 _atom_site_fract_z
 _atom_site_occupancy
  Be  Be0  1  0.999984  0.000000  0.001239  1
  Be  Be1  1  0.498926  0.500000  0.167558  1
  Be  Be2  1  0.998882  0.000000  0.333329  1
  Be  Be3  1  0.500001  0.500000  0.499108  1
  Be  Be4  1  0.001062  0.000000  0.665441  1
  Be  Be5  1  0.501143  0.500000  0.833331  1
  Ga  Ga6  1  0.000061  0.500000  0.999491  1
  Ga  Ga7  1  0.499077  0.000000  0.166082  1
  Ga  Ga8  1  0.999081  0.500000  0.333339  1
  Ga  Ga9  1  0.500000  0.000000  0.500580  1
  Ga  Ga10  1  0.000938  0.500000  0.667169  1
  Si  Si11  1  0.500875  0.000000  0.833336  1
  Rh  Rh12  1  0.500082  0.245726  0.995059  1
  Rh  Rh13  1  0.500082  0.754274  0.995059  1
  Rh  Rh14  1  0.999211  0.250080  0.165515  1
  Rh  Rh15  1  0.999211  0.749921  0.165515  1
  Rh  Rh16  1  0.499194  0.250036  0.333329  1
  Rh  Rh17  1  0.499194  0.749964  0.333329  1
  Rh  Rh18  1  0.999988  0.250074  0.501156  1
  Rh  Rh19  1  0.999988  0.749926  0.501156  1
  Rh  Rh20  1  0.500785  0.245723  0.671608  1
  Rh  Rh21  1  0.500785  0.754277  0.671608  1
  Rh  Rh22  1  0.000725  0.241875  0.833331  1
  Rh  Rh23  1  0.000725  0.758126  0.833331  1
