# generated using pymatgen
data_Cs2ZnGeO4
_symmetry_space_group_name_H-M   'P 1'
_cell_length_a   7.19267465
_cell_length_b   6.02314378
_cell_length_c   8.28494900
_cell_angle_alpha   90.00000000
_cell_angle_beta   90.00000000
_cell_angle_gamma   114.75253676
_symmetry_Int_Tables_number   1
_chemical_formula_structural   Cs2ZnGeO4
_chemical_formula_sum   'Cs4 Zn2 Ge2 O8'
_cell_volume   325.94846770
_cell_formula_units_Z   2
loop_
 _symmetry_equiv_pos_site_id
 _symmetry_equiv_pos_as_xyz
  1  'x, y, z'
loop_
 _atom_site_type_symbol
 _atom_site_label
 _atom_site_symmetry_multiplicity
 _atom_site_fract_x
 _atom_site_fract_y
 _atom_site_fract_z
 _atom_site_occupancy
  Cs  Cs0  1  0.178779  0.589389  0.084810  1
  Cs  Cs1  1  0.854791  0.927395  0.227291  1
  Cs  Cs2  1  0.821221  0.410610  0.584810  1
  Cs  Cs3  1  0.145209  0.072605  0.727290  1
  Zn  Zn4  1  0.413507  0.206753  0.307493  1
  Zn  Zn5  1  0.586493  0.793247  0.807494  1
  Ge  Ge6  1  0.607745  0.303873  0.017222  1
  Ge  Ge7  1  0.392256  0.696127  0.517223  1
  O  O8  1  0.337736  0.168868  0.060970  1
  O  O9  1  0.705841  0.352920  0.221905  1
  O  O10  1  0.297657  0.410535  0.413403  1
  O  O11  1  0.297657  0.887120  0.413403  1
  O  O12  1  0.662264  0.831132  0.560970  1
  O  O13  1  0.294158  0.647079  0.721906  1
  O  O14  1  0.702343  0.112879  0.913404  1
  O  O15  1  0.702343  0.589464  0.913404  1
