# generated using pymatgen
data_NdYV2F14
_symmetry_space_group_name_H-M   'P 1'
_cell_length_a   5.59794044
_cell_length_b   8.96897575
_cell_length_c   11.97198710
_cell_angle_alpha   63.24834872
_cell_angle_beta   89.91890137
_cell_angle_gamma   89.97479925
_symmetry_Int_Tables_number   1
_chemical_formula_structural   NdYV2F14
_chemical_formula_sum   'Nd2 Y2 V4 F28'
_cell_volume   536.74972066
_cell_formula_units_Z   2
loop_
 _symmetry_equiv_pos_site_id
 _symmetry_equiv_pos_as_xyz
  1  'x, y, z'
loop_
 _atom_site_type_symbol
 _atom_site_label
 _atom_site_symmetry_multiplicity
 _atom_site_fract_x
 _atom_site_fract_y
 _atom_site_fract_z
 _atom_site_occupancy
  Nd  Nd0  1  0.258217  0.809590  0.270072  1
  Nd  Nd1  1  0.741783  0.190410  0.729928  1
  Y  Y2  1  0.758741  0.197936  0.228223  1
  Y  Y3  1  0.241259  0.802064  0.771777  1
  V  V4  1  0.753909  0.724095  0.043280  1
  V  V5  1  0.246091  0.275905  0.956720  1
  V  V6  1  0.254034  0.271558  0.452380  1
  V  V7  1  0.745966  0.728442  0.547620  1
  F  F8  1  0.946851  0.706069  0.428382  1
  F  F9  1  0.053149  0.293931  0.571618  1
  F  F10  1  0.450001  0.294776  0.075935  1
  F  F11  1  0.549999  0.705224  0.924065  1
  F  F12  1  0.484051  0.730053  0.136826  1
  F  F13  1  0.515949  0.269947  0.863174  1
  F  F14  1  0.981900  0.267345  0.358240  1
  F  F15  1  0.018100  0.732655  0.641760  1
  F  F16  1  0.951907  0.744250  0.165625  1
  F  F17  1  0.048093  0.255750  0.834375  1
  F  F18  1  0.458610  0.250847  0.330971  1
  F  F19  1  0.541390  0.749153  0.669029  1
  F  F20  1  0.766118  0.494259  0.135646  1
  F  F21  1  0.233882  0.505741  0.864354  1
  F  F22  1  0.265233  0.501018  0.361028  1
  F  F23  1  0.734767  0.498982  0.638972  1
  F  F24  1  0.966364  0.286434  0.045858  1
  F  F25  1  0.033636  0.713566  0.954142  1
  F  F26  1  0.469531  0.713750  0.459359  1
  F  F27  1  0.530469  0.286250  0.540641  1
  F  F28  1  0.742721  0.954444  0.456626  1
  F  F29  1  0.257279  0.045556  0.543374  1
  F  F30  1  0.243230  0.048194  0.045281  1
  F  F31  1  0.756770  0.951806  0.954719  1
  F  F32  1  0.586882  0.979789  0.230770  1
  F  F33  1  0.413118  0.020211  0.769230  1
  F  F34  1  0.072488  0.034430  0.268743  1
  F  F35  1  0.927512  0.965570  0.731257  1
