# generated using pymatgen
data_Sm6Si(P3Rh5)4
_symmetry_space_group_name_H-M   'P 1'
_cell_length_a   13.44116800
_cell_length_b   13.44116668
_cell_length_c   3.94289900
_cell_angle_alpha   90.00000000
_cell_angle_beta   90.00000000
_cell_angle_gamma   119.99999832
_symmetry_Int_Tables_number   1
_chemical_formula_structural   Sm6Si(P3Rh5)4
_chemical_formula_sum   'Sm6 Si1 P12 Rh20'
_cell_volume   616.90780885
_cell_formula_units_Z   1
loop_
 _symmetry_equiv_pos_site_id
 _symmetry_equiv_pos_as_xyz
  1  'x, y, z'
loop_
 _atom_site_type_symbol
 _atom_site_label
 _atom_site_symmetry_multiplicity
 _atom_site_fract_x
 _atom_site_fract_y
 _atom_site_fract_z
 _atom_site_occupancy
  Sm  Sm0  1  0.530305  0.717792  0.248412  1
  Sm  Sm1  1  0.282208  0.812513  0.248412  1
  Sm  Sm2  1  0.187487  0.469695  0.248412  1
  Sm  Sm3  1  0.469695  0.282208  0.751588  1
  Sm  Sm4  1  0.717792  0.187487  0.751588  1
  Sm  Sm5  1  0.812513  0.530305  0.751588  1
  Si  Si6  1  0.000000  0.000000  0.000000  1
  P  P7  1  0.524060  0.137210  0.250455  1
  P  P8  1  0.862790  0.386850  0.250455  1
  P  P9  1  0.613150  0.475940  0.250455  1
  P  P10  1  0.946706  0.717448  0.253190  1
  P  P11  1  0.282552  0.229257  0.253190  1
  P  P12  1  0.770743  0.053294  0.253190  1
  P  P13  1  0.386850  0.524060  0.749545  1
  P  P14  1  0.475940  0.862790  0.749545  1
  P  P15  1  0.137210  0.613150  0.749545  1
  P  P16  1  0.717448  0.770743  0.746810  1
  P  P17  1  0.229257  0.946706  0.746810  1
  P  P18  1  0.053294  0.282552  0.746810  1
  Rh  Rh19  1  0.333333  0.666667  0.752448  1
  Rh  Rh20  1  0.922677  0.250446  0.254341  1
  Rh  Rh21  1  0.749554  0.672231  0.254341  1
  Rh  Rh22  1  0.327769  0.077323  0.254341  1
  Rh  Rh23  1  0.439756  0.024331  0.751453  1
  Rh  Rh24  1  0.975669  0.415427  0.751453  1
  Rh  Rh25  1  0.584573  0.560244  0.751453  1
  Rh  Rh26  1  0.666667  0.333333  0.247552  1
  Rh  Rh27  1  0.094738  0.189887  0.245789  1
  Rh  Rh28  1  0.810113  0.904850  0.245789  1
  Rh  Rh29  1  0.095150  0.905262  0.245789  1
  Rh  Rh30  1  0.024331  0.584573  0.248547  1
  Rh  Rh31  1  0.415427  0.439756  0.248547  1
  Rh  Rh32  1  0.560244  0.975669  0.248547  1
  Rh  Rh33  1  0.672231  0.922677  0.745659  1
  Rh  Rh34  1  0.077323  0.749554  0.745659  1
  Rh  Rh35  1  0.250446  0.327769  0.745659  1
  Rh  Rh36  1  0.905262  0.810113  0.754211  1
  Rh  Rh37  1  0.189887  0.095150  0.754211  1
  Rh  Rh38  1  0.904850  0.094738  0.754211  1
