# generated using pymatgen
data_Dy10Ho6MgCo4Hg3
_symmetry_space_group_name_H-M   'P 1'
_cell_length_a   9.46958368
_cell_length_b   9.46943863
_cell_length_c   9.46943800
_cell_angle_alpha   60.00000222
_cell_angle_beta   60.00050891
_cell_angle_gamma   60.00050055
_symmetry_Int_Tables_number   1
_chemical_formula_structural   Dy10Ho6MgCo4Hg3
_chemical_formula_sum   'Dy10 Ho6 Mg1 Co4 Hg3'
_cell_volume   600.43727854
_cell_formula_units_Z   1
loop_
 _symmetry_equiv_pos_site_id
 _symmetry_equiv_pos_as_xyz
  1  'x, y, z'
loop_
 _atom_site_type_symbol
 _atom_site_label
 _atom_site_symmetry_multiplicity
 _atom_site_fract_x
 _atom_site_fract_y
 _atom_site_fract_z
 _atom_site_occupancy
  Dy  Dy0  1  0.936761  0.562535  0.562535  1
  Dy  Dy1  1  0.561653  0.937596  0.937596  1
  Dy  Dy2  1  0.561653  0.937596  0.563155  1
  Dy  Dy3  1  0.936761  0.562535  0.938168  1
  Dy  Dy4  1  0.561653  0.563155  0.937596  1
  Dy  Dy5  1  0.936761  0.938168  0.562535  1
  Dy  Dy6  1  0.347497  0.345620  0.345620  1
  Dy  Dy7  1  0.347497  0.345620  0.961262  1
  Dy  Dy8  1  0.347497  0.961262  0.345620  1
  Dy  Dy9  1  0.952964  0.349011  0.349011  1
  Ho  Ho10  1  0.810792  0.188719  0.188719  1
  Ho  Ho11  1  0.184881  0.814178  0.814178  1
  Ho  Ho12  1  0.184881  0.814178  0.186763  1
  Ho  Ho13  1  0.810792  0.188719  0.811769  1
  Ho  Ho14  1  0.184881  0.186763  0.814178  1
  Ho  Ho15  1  0.810792  0.811769  0.188719  1
  Mg  Mg16  1  0.285308  0.571564  0.571564  1
  Co  Co17  1  0.138823  0.141962  0.141962  1
  Co  Co18  1  0.138823  0.141962  0.577254  1
  Co  Co19  1  0.138823  0.577254  0.141962  1
  Co  Co20  1  0.576237  0.141254  0.141254  1
  Hg  Hg21  1  0.581424  0.585287  0.585287  1
  Hg  Hg22  1  0.581424  0.585287  0.248002  1
  Hg  Hg23  1  0.581424  0.248002  0.585287  1
