# generated using pymatgen
data_Th8Sc12Si15Ge
_symmetry_space_group_name_H-M   'P 1'
_cell_length_a   7.24876555
_cell_length_b   7.48564221
_cell_length_c   14.19817177
_cell_angle_alpha   89.97557898
_cell_angle_beta   89.87287274
_cell_angle_gamma   90.00107787
_symmetry_Int_Tables_number   1
_chemical_formula_structural   Th8Sc12Si15Ge
_chemical_formula_sum   'Th8 Sc12 Si15 Ge1'
_cell_volume   770.41447910
_cell_formula_units_Z   1
loop_
 _symmetry_equiv_pos_site_id
 _symmetry_equiv_pos_as_xyz
  1  'x, y, z'
loop_
 _atom_site_type_symbol
 _atom_site_label
 _atom_site_symmetry_multiplicity
 _atom_site_fract_x
 _atom_site_fract_y
 _atom_site_fract_z
 _atom_site_occupancy
  Th  Th0  1  0.007209  0.172432  0.096608  1
  Th  Th1  1  0.992891  0.827862  0.903426  1
  Th  Th2  1  0.493282  0.672628  0.903328  1
  Th  Th3  1  0.992862  0.828745  0.597077  1
  Th  Th4  1  0.506991  0.327753  0.096722  1
  Th  Th5  1  0.005405  0.171518  0.402614  1
  Th  Th6  1  0.507571  0.326159  0.402220  1
  Th  Th7  1  0.496433  0.674505  0.597369  1
  Sc  Sc8  1  0.160558  0.502700  0.751507  1
  Sc  Sc9  1  0.839301  0.497473  0.249898  1
  Sc  Sc10  1  0.339648  0.002092  0.249810  1
  Sc  Sc11  1  0.660513  0.997605  0.750458  1
  Sc  Sc12  1  0.334513  0.171319  0.625900  1
  Sc  Sc13  1  0.666957  0.826354  0.374798  1
  Sc  Sc14  1  0.166280  0.674881  0.374590  1
  Sc  Sc15  1  0.668016  0.825706  0.124514  1
  Sc  Sc16  1  0.830626  0.325996  0.624940  1
  Sc  Sc17  1  0.331835  0.174205  0.875107  1
  Sc  Sc18  1  0.831846  0.325754  0.875140  1
  Sc  Sc19  1  0.168029  0.674191  0.124690  1
  Si  Si20  1  0.033220  0.123287  0.749917  1
  Si  Si21  1  0.966441  0.877712  0.249530  1
  Si  Si22  1  0.466086  0.622646  0.249819  1
  Si  Si23  1  0.532944  0.377583  0.750168  1
  Si  Si24  1  0.290435  0.875537  0.750345  1
  Si  Si25  1  0.709653  0.123058  0.249355  1
  Si  Si26  1  0.209383  0.376723  0.250017  1
  Si  Si27  1  0.791648  0.623571  0.750226  1
  Si  Si28  1  0.835882  0.536735  0.459097  1
  Si  Si29  1  0.340158  0.964132  0.460084  1
  Si  Si30  1  0.841667  0.535187  0.040035  1
  Si  Si31  1  0.660001  0.036571  0.539969  1
  Si  Si32  1  0.158391  0.464659  0.959781  1
  Si  Si33  1  0.658107  0.035494  0.959626  1
  Si  Si34  1  0.341958  0.964753  0.040117  1
  Ge  Ge35  1  0.163263  0.462473  0.541194  1
