# generated using pymatgen
data_Tb3In3SnIrPd
_symmetry_space_group_name_H-M   'P 1'
_cell_length_a   7.89976600
_cell_length_b   7.89976647
_cell_length_c   3.88935500
_cell_angle_alpha   90.00000000
_cell_angle_beta   90.00000000
_cell_angle_gamma   120.00000643
_symmetry_Int_Tables_number   1
_chemical_formula_structural   Tb3In3SnIrPd
_chemical_formula_sum   'Tb3 In3 Sn1 Ir1 Pd1'
_cell_volume   210.20191518
_cell_formula_units_Z   1
loop_
 _symmetry_equiv_pos_site_id
 _symmetry_equiv_pos_as_xyz
  1  'x, y, z'
loop_
 _atom_site_type_symbol
 _atom_site_label
 _atom_site_symmetry_multiplicity
 _atom_site_fract_x
 _atom_site_fract_y
 _atom_site_fract_z
 _atom_site_occupancy
  Tb  Tb0  1  0.423546  0.391057  0.000000  1
  Tb  Tb1  1  0.608943  0.032489  0.000000  1
  Tb  Tb2  1  0.967511  0.576454  0.000000  1
  In  In3  1  0.990910  0.249841  0.500000  1
  In  In4  1  0.750159  0.741069  0.500000  1
  In  In5  1  0.258931  0.009090  0.500000  1
  Sn  Sn6  1  0.333333  0.666667  0.500000  1
  Ir  Ir7  1  0.666667  0.333333  0.500000  1
  Pd  Pd8  1  0.000000  0.000000  0.000000  1
