# generated using pymatgen
data_TbHo9(TlSb)3
_symmetry_space_group_name_H-M   'P 1'
_cell_length_a   8.93765600
_cell_length_b   8.92598613
_cell_length_c   6.53123400
_cell_angle_alpha   90.00000000
_cell_angle_beta   90.00000000
_cell_angle_gamma   120.04325802
_symmetry_Int_Tables_number   1
_chemical_formula_structural   TbHo9(TlSb)3
_chemical_formula_sum   'Tb1 Ho9 Tl3 Sb3'
_cell_volume   451.04123295
_cell_formula_units_Z   1
loop_
 _symmetry_equiv_pos_site_id
 _symmetry_equiv_pos_as_xyz
  1  'x, y, z'
loop_
 _atom_site_type_symbol
 _atom_site_label
 _atom_site_symmetry_multiplicity
 _atom_site_fract_x
 _atom_site_fract_y
 _atom_site_fract_z
 _atom_site_occupancy
  Tb  Tb0  1  0.761671  0.000000  0.750000  1
  Ho  Ho1  1  0.330974  0.666245  0.000577  1
  Ho  Ho2  1  0.664730  0.333755  0.499423  1
  Ho  Ho3  1  0.664730  0.333755  0.000577  1
  Ho  Ho4  1  0.330974  0.666245  0.499423  1
  Ho  Ho5  1  0.763871  0.760242  0.250000  1
  Ho  Ho6  1  0.003629  0.239758  0.250000  1
  Ho  Ho7  1  0.002362  0.763183  0.750000  1
  Ho  Ho8  1  0.239180  0.236817  0.750000  1
  Ho  Ho9  1  0.237251  0.000000  0.250000  1
  Tl  Tl10  1  0.395692  0.000000  0.750000  1
  Tl  Tl11  1  0.395162  0.396793  0.250000  1
  Tl  Tl12  1  0.998367  0.603207  0.250000  1
  Sb  Sb13  1  0.998074  0.392615  0.750000  1
  Sb  Sb14  1  0.605459  0.607385  0.750000  1
  Sb  Sb15  1  0.607872  0.000000  0.250000  1
