# generated using pymatgen
data_Rb3HoI6
_symmetry_space_group_name_H-M   'P 1'
_cell_length_a   10.43744000
_cell_length_b   10.43744000
_cell_length_c   8.59956600
_cell_angle_alpha   90.00000000
_cell_angle_beta   90.00000000
_cell_angle_gamma   90.00000000
_symmetry_Int_Tables_number   1
_chemical_formula_structural   Rb3HoI6
_chemical_formula_sum   'Rb6 Ho2 I12'
_cell_volume   936.83804225
_cell_formula_units_Z   2
loop_
 _symmetry_equiv_pos_site_id
 _symmetry_equiv_pos_as_xyz
  1  'x, y, z'
loop_
 _atom_site_type_symbol
 _atom_site_label
 _atom_site_symmetry_multiplicity
 _atom_site_fract_x
 _atom_site_fract_y
 _atom_site_fract_z
 _atom_site_occupancy
  Rb  Rb0  1  0.000000  0.000000  0.500000  1
  Rb  Rb1  1  0.000000  0.000000  0.000000  1
  Rb  Rb2  1  0.233374  0.586280  0.500000  1
  Rb  Rb3  1  0.766626  0.413720  0.500000  1
  Rb  Rb4  1  0.413720  0.233374  0.000000  1
  Rb  Rb5  1  0.586280  0.766626  0.000000  1
  Ho  Ho6  1  0.500000  0.000000  0.500000  1
  Ho  Ho7  1  0.000000  0.500000  0.000000  1
  I  I8  1  0.699145  0.055172  0.748398  1
  I  I9  1  0.300855  0.944828  0.748398  1
  I  I10  1  0.944828  0.699145  0.248398  1
  I  I11  1  0.055172  0.300855  0.248398  1
  I  I12  1  0.300855  0.944828  0.251602  1
  I  I13  1  0.699145  0.055172  0.251602  1
  I  I14  1  0.055172  0.300855  0.751602  1
  I  I15  1  0.944828  0.699145  0.751602  1
  I  I16  1  0.566198  0.716937  0.500000  1
  I  I17  1  0.433802  0.283063  0.500000  1
  I  I18  1  0.283063  0.566198  0.000000  1
  I  I19  1  0.716937  0.433802  0.000000  1
