# generated using pymatgen
data_Pr6Tm2Sc12Si15Hg
_symmetry_space_group_name_H-M   'P 1'
_cell_length_a   7.24043287
_cell_length_b   7.49141976
_cell_length_c   14.29217960
_cell_angle_alpha   89.96736598
_cell_angle_beta   89.74527593
_cell_angle_gamma   90.18623620
_symmetry_Int_Tables_number   1
_chemical_formula_structural   Pr6Tm2Sc12Si15Hg
_chemical_formula_sum   'Pr6 Tm2 Sc12 Si15 Hg1'
_cell_volume   775.21196633
_cell_formula_units_Z   1
loop_
 _symmetry_equiv_pos_site_id
 _symmetry_equiv_pos_as_xyz
  1  'x, y, z'
loop_
 _atom_site_type_symbol
 _atom_site_label
 _atom_site_symmetry_multiplicity
 _atom_site_fract_x
 _atom_site_fract_y
 _atom_site_fract_z
 _atom_site_occupancy
  Pr  Pr0  1  0.488807  0.672263  0.903300  1
  Pr  Pr1  1  0.493879  0.678649  0.597827  1
  Pr  Pr2  1  0.987592  0.835121  0.595302  1
  Pr  Pr3  1  0.987720  0.828755  0.903671  1
  Pr  Pr4  1  0.511607  0.327711  0.098323  1
  Pr  Pr5  1  0.012477  0.172635  0.099090  1
  Tm  Tm6  1  0.007916  0.173404  0.394772  1
  Tm  Tm7  1  0.512571  0.322018  0.396212  1
  Sc  Sc8  1  0.343179  0.169119  0.627854  1
  Sc  Sc9  1  0.665912  0.824847  0.373499  1
  Sc  Sc10  1  0.663997  0.001326  0.751940  1
  Sc  Sc11  1  0.168389  0.677192  0.371809  1
  Sc  Sc12  1  0.830035  0.323212  0.876644  1
  Sc  Sc13  1  0.823496  0.323928  0.624310  1
  Sc  Sc14  1  0.837966  0.499656  0.252091  1
  Sc  Sc15  1  0.338946  0.999694  0.250902  1
  Sc  Sc16  1  0.328412  0.174285  0.876427  1
  Sc  Sc17  1  0.170010  0.675646  0.127067  1
  Sc  Sc18  1  0.670898  0.824549  0.126746  1
  Sc  Sc19  1  0.161568  0.498150  0.754395  1
  Si  Si20  1  0.285954  0.881692  0.751114  1
  Si  Si21  1  0.466040  0.620364  0.250763  1
  Si  Si22  1  0.036217  0.128810  0.750791  1
  Si  Si23  1  0.535779  0.376308  0.751650  1
  Si  Si24  1  0.965237  0.879137  0.250964  1
  Si  Si25  1  0.712069  0.123881  0.252961  1
  Si  Si26  1  0.849067  0.537542  0.040074  1
  Si  Si27  1  0.348624  0.961957  0.040580  1
  Si  Si28  1  0.150888  0.462876  0.962123  1
  Si  Si29  1  0.653335  0.045501  0.533227  1
  Si  Si30  1  0.341751  0.970009  0.456498  1
  Si  Si31  1  0.832852  0.531592  0.454831  1
  Si  Si32  1  0.790617  0.617794  0.751301  1
  Si  Si33  1  0.212741  0.375902  0.253152  1
  Si  Si34  1  0.650545  0.037175  0.961314  1
  Hg  Hg35  1  0.162909  0.447298  0.536478  1
