# generated using pymatgen
data_Ba3RuBr2O5
_symmetry_space_group_name_H-M   'P 1'
_cell_length_a   8.06450087
_cell_length_b   8.06450041
_cell_length_c   11.63727100
_cell_angle_alpha   90.00000000
_cell_angle_beta   90.00000000
_cell_angle_gamma   137.15105836
_symmetry_Int_Tables_number   1
_chemical_formula_structural   Ba3RuBr2O5
_chemical_formula_sum   'Ba6 Ru2 Br4 O10'
_cell_volume   514.70492469
_cell_formula_units_Z   2
loop_
 _symmetry_equiv_pos_site_id
 _symmetry_equiv_pos_as_xyz
  1  'x, y, z'
loop_
 _atom_site_type_symbol
 _atom_site_label
 _atom_site_symmetry_multiplicity
 _atom_site_fract_x
 _atom_site_fract_y
 _atom_site_fract_z
 _atom_site_occupancy
  Ba  Ba0  1  0.341377  0.658623  0.956105  1
  Ba  Ba1  1  0.658623  0.341377  0.456105  1
  Ba  Ba2  1  0.341377  0.658623  0.543895  1
  Ba  Ba3  1  0.109017  0.890983  0.750000  1
  Ba  Ba4  1  0.658623  0.341377  0.043895  1
  Ba  Ba5  1  0.890983  0.109017  0.250000  1
  Ru  Ru6  1  0.236104  0.763896  0.250000  1
  Ru  Ru7  1  0.763896  0.236104  0.750000  1
  Br  Br8  1  0.499576  0.500424  0.750000  1
  Br  Br9  1  0.000000  0.000000  0.000000  1
  Br  Br10  1  0.000000  0.000000  0.500000  1
  Br  Br11  1  0.500424  0.499576  0.250000  1
  O  O12  1  0.497482  0.942964  0.138033  1
  O  O13  1  0.877017  0.122983  0.750000  1
  O  O14  1  0.942964  0.497482  0.638033  1
  O  O15  1  0.502518  0.057036  0.861967  1
  O  O16  1  0.122983  0.877017  0.250000  1
  O  O17  1  0.502518  0.057036  0.638033  1
  O  O18  1  0.942964  0.497482  0.861967  1
  O  O19  1  0.057036  0.502518  0.138033  1
  O  O20  1  0.497482  0.942964  0.361967  1
  O  O21  1  0.057036  0.502518  0.361967  1
