# generated using pymatgen
data_LaTb2Ga8Ag3
_symmetry_space_group_name_H-M   'P 1'
_cell_length_a   4.40129005
_cell_length_b   8.42685246
_cell_length_c   8.42685251
_cell_angle_alpha   68.85432177
_cell_angle_beta   74.86188197
_cell_angle_gamma   74.86187696
_symmetry_Int_Tables_number   1
_chemical_formula_structural   LaTb2Ga8Ag3
_chemical_formula_sum   'La1 Tb2 Ga8 Ag3'
_cell_volume   276.50393198
_cell_formula_units_Z   1
loop_
 _symmetry_equiv_pos_site_id
 _symmetry_equiv_pos_as_xyz
  1  'x, y, z'
loop_
 _atom_site_type_symbol
 _atom_site_label
 _atom_site_symmetry_multiplicity
 _atom_site_fract_x
 _atom_site_fract_y
 _atom_site_fract_z
 _atom_site_occupancy
  La  La0  1  0.500000  0.500000  0.500000  1
  Tb  Tb1  1  0.200244  0.799756  0.799756  1
  Tb  Tb2  1  0.799756  0.200244  0.200244  1
  Ga  Ga3  1  0.355151  0.361654  0.928043  1
  Ga  Ga4  1  0.644849  0.638346  0.071957  1
  Ga  Ga5  1  0.355151  0.928043  0.361654  1
  Ga  Ga6  1  0.644849  0.071957  0.638346  1
  Ga  Ga7  1  0.161034  0.471833  0.206098  1
  Ga  Ga8  1  0.838966  0.528167  0.793902  1
  Ga  Ga9  1  0.161034  0.206098  0.471833  1
  Ga  Ga10  1  0.838966  0.793902  0.528167  1
  Ag  Ag11  1  0.500000  0.000000  0.000000  1
  Ag  Ag12  1  0.000000  0.807321  0.192679  1
  Ag  Ag13  1  0.000000  0.192679  0.807321  1
