# generated using pymatgen
data_Eu8Y12Si15Pt
_symmetry_space_group_name_H-M   'P 1'
_cell_length_a   7.56477700
_cell_length_b   7.94396521
_cell_length_c   14.98713500
_cell_angle_alpha   90.00000000
_cell_angle_beta   90.00000000
_cell_angle_gamma   90.11574614
_symmetry_Int_Tables_number   1
_chemical_formula_structural   Eu8Y12Si15Pt
_chemical_formula_sum   'Eu8 Y12 Si15 Pt1'
_cell_volume   900.63992835
_cell_formula_units_Z   1
loop_
 _symmetry_equiv_pos_site_id
 _symmetry_equiv_pos_as_xyz
  1  'x, y, z'
loop_
 _atom_site_type_symbol
 _atom_site_label
 _atom_site_symmetry_multiplicity
 _atom_site_fract_x
 _atom_site_fract_y
 _atom_site_fract_z
 _atom_site_occupancy
  Eu  Eu0  1  0.019736  0.179078  0.094542  1
  Eu  Eu1  1  0.980977  0.822717  0.905281  1
  Eu  Eu2  1  0.479539  0.677896  0.904915  1
  Eu  Eu3  1  0.980977  0.822717  0.594719  1
  Eu  Eu4  1  0.519096  0.322726  0.093741  1
  Eu  Eu5  1  0.019736  0.179078  0.405458  1
  Eu  Eu6  1  0.519096  0.322726  0.406259  1
  Eu  Eu7  1  0.479539  0.677896  0.595085  1
  Y  Y8  1  0.152018  0.523408  0.750000  1
  Y  Y9  1  0.845970  0.479136  0.250000  1
  Y  Y10  1  0.346488  0.023954  0.250000  1
  Y  Y11  1  0.660549  0.978580  0.750000  1
  Y  Y12  1  0.317154  0.176188  0.624451  1
  Y  Y13  1  0.680602  0.823244  0.378825  1
  Y  Y14  1  0.180204  0.679189  0.378017  1
  Y  Y15  1  0.680602  0.823244  0.121175  1
  Y  Y16  1  0.822220  0.320565  0.624855  1
  Y  Y17  1  0.317154  0.176188  0.875549  1
  Y  Y18  1  0.822220  0.320565  0.875145  1
  Y  Y19  1  0.180204  0.679189  0.121983  1
  Si  Si20  1  0.971476  0.887726  0.250000  1
  Si  Si21  1  0.472400  0.611655  0.250000  1
  Si  Si22  1  0.523830  0.391325  0.750000  1
  Si  Si23  1  0.272703  0.880589  0.750000  1
  Si  Si24  1  0.735343  0.110493  0.250000  1
  Si  Si25  1  0.234733  0.391721  0.250000  1
  Si  Si26  1  0.763230  0.609885  0.750000  1
  Si  Si27  1  0.142200  0.470230  0.539702  1
  Si  Si28  1  0.858519  0.530978  0.459389  1
  Si  Si29  1  0.357498  0.970461  0.459104  1
  Si  Si30  1  0.858519  0.530978  0.040611  1
  Si  Si31  1  0.641252  0.030224  0.540142  1
  Si  Si32  1  0.142200  0.470230  0.960298  1
  Si  Si33  1  0.641252  0.030224  0.959858  1
  Si  Si34  1  0.357498  0.970461  0.040896  1
  Pt  Pt35  1  0.023264  0.104530  0.750000  1
