# generated using pymatgen
data_Rb8Tb3DyF20
_symmetry_space_group_name_H-M   'P 1'
_cell_length_a   6.97240924
_cell_length_b   7.49037200
_cell_length_c   11.53490304
_cell_angle_alpha   90.00000000
_cell_angle_beta   90.06795972
_cell_angle_gamma   90.00000000
_symmetry_Int_Tables_number   1
_chemical_formula_structural   Rb8Tb3DyF20
_chemical_formula_sum   'Rb8 Tb3 Dy1 F20'
_cell_volume   602.42071774
_cell_formula_units_Z   1
loop_
 _symmetry_equiv_pos_site_id
 _symmetry_equiv_pos_as_xyz
  1  'x, y, z'
loop_
 _atom_site_type_symbol
 _atom_site_label
 _atom_site_symmetry_multiplicity
 _atom_site_fract_x
 _atom_site_fract_y
 _atom_site_fract_z
 _atom_site_occupancy
  Rb  Rb0  1  0.532986  0.498759  0.828930  1
  Rb  Rb1  1  0.467226  0.501701  0.171008  1
  Rb  Rb2  1  0.032823  0.501585  0.671576  1
  Rb  Rb3  1  0.467226  0.998299  0.171008  1
  Rb  Rb4  1  0.967178  0.498710  0.328478  1
  Rb  Rb5  1  0.532986  0.001241  0.828930  1
  Rb  Rb6  1  0.967178  0.001290  0.328478  1
  Rb  Rb7  1  0.032823  0.998415  0.671576  1
  Tb  Tb8  1  0.559280  0.750000  0.501796  1
  Tb  Tb9  1  0.440640  0.250000  0.498187  1
  Tb  Tb10  1  0.058897  0.250000  0.998209  1
  Dy  Dy11  1  0.940985  0.750000  0.001635  1
  F  F12  1  0.847954  0.750000  0.817914  1
  F  F13  1  0.152423  0.250000  0.182935  1
  F  F14  1  0.347490  0.250000  0.683071  1
  F  F15  1  0.652304  0.750000  0.317092  1
  F  F16  1  0.375310  0.750000  0.659112  1
  F  F17  1  0.624593  0.250000  0.340918  1
  F  F18  1  0.875150  0.250000  0.840685  1
  F  F19  1  0.123654  0.750000  0.158235  1
  F  F20  1  0.876389  0.750000  0.516151  1
  F  F21  1  0.123518  0.250000  0.484026  1
  F  F22  1  0.375819  0.250000  0.983663  1
  F  F23  1  0.625784  0.750000  0.016257  1
  F  F24  1  0.640559  0.033907  0.571997  1
  F  F25  1  0.359310  0.966041  0.428070  1
  F  F26  1  0.140233  0.964914  0.928730  1
  F  F27  1  0.359310  0.533959  0.428070  1
  F  F28  1  0.859590  0.033109  0.071267  1
  F  F29  1  0.640559  0.466093  0.571997  1
  F  F30  1  0.859590  0.466891  0.071267  1
  F  F31  1  0.140233  0.535086  0.928730  1
