# generated using pymatgen
data_La2(AlAg)5
_symmetry_space_group_name_H-M   'P 1'
_cell_length_a   4.48682500
_cell_length_b   5.56460900
_cell_length_c   9.79408100
_cell_angle_alpha   90.00000000
_cell_angle_beta   90.00000000
_cell_angle_gamma   90.00000000
_symmetry_Int_Tables_number   1
_chemical_formula_structural   La2(AlAg)5
_chemical_formula_sum   'La2 Al5 Ag5'
_cell_volume   244.53300021
_cell_formula_units_Z   1
loop_
 _symmetry_equiv_pos_site_id
 _symmetry_equiv_pos_as_xyz
  1  'x, y, z'
loop_
 _atom_site_type_symbol
 _atom_site_label
 _atom_site_symmetry_multiplicity
 _atom_site_fract_x
 _atom_site_fract_y
 _atom_site_fract_z
 _atom_site_occupancy
  La  La0  1  0.000000  0.500000  0.000000  1
  La  La1  1  0.000000  0.000000  0.500000  1
  Al  Al2  1  0.500000  0.000000  0.000000  1
  Al  Al3  1  0.500000  0.750457  0.252891  1
  Al  Al4  1  0.500000  0.249543  0.747109  1
  Al  Al5  1  0.500000  0.249543  0.252891  1
  Al  Al6  1  0.500000  0.750457  0.747109  1
  Ag  Ag7  1  0.000000  0.500000  0.321814  1
  Ag  Ag8  1  0.000000  0.000000  0.833969  1
  Ag  Ag9  1  0.000000  0.000000  0.166031  1
  Ag  Ag10  1  0.000000  0.500000  0.678186  1
  Ag  Ag11  1  0.500000  0.500000  0.500000  1
