# generated using pymatgen
data_SrHoEr5PtI12
_symmetry_space_group_name_H-M   'P 1'
_cell_length_a   9.76358399
_cell_length_b   9.76779390
_cell_length_c   9.76519278
_cell_angle_alpha   106.33511297
_cell_angle_beta   106.29474713
_cell_angle_gamma   106.29987433
_symmetry_Int_Tables_number   1
_chemical_formula_structural   SrHoEr5PtI12
_chemical_formula_sum   'Sr1 Ho1 Er5 Pt1 I12'
_cell_volume   789.73572275
_cell_formula_units_Z   1
loop_
 _symmetry_equiv_pos_site_id
 _symmetry_equiv_pos_as_xyz
  1  'x, y, z'
loop_
 _atom_site_type_symbol
 _atom_site_label
 _atom_site_symmetry_multiplicity
 _atom_site_fract_x
 _atom_site_fract_y
 _atom_site_fract_z
 _atom_site_occupancy
  Sr  Sr0  1  0.999838  0.999892  0.000026  1
  Ho  Ho1  1  0.521772  0.797498  0.594661  1
  Er  Er2  1  0.405711  0.477939  0.203666  1
  Er  Er3  1  0.203646  0.405384  0.478056  1
  Er  Er4  1  0.478145  0.203878  0.405604  1
  Er  Er5  1  0.594326  0.521898  0.796230  1
  Er  Er6  1  0.796267  0.594154  0.521805  1
  Pt  Pt7  1  0.499852  0.499974  0.500071  1
  I  I8  1  0.050659  0.365122  0.130250  1
  I  I9  1  0.130175  0.050489  0.365126  1
  I  I10  1  0.365139  0.130127  0.050538  1
  I  I11  1  0.949383  0.634808  0.869763  1
  I  I12  1  0.870658  0.949321  0.634900  1
  I  I13  1  0.635132  0.869630  0.950368  1
  I  I14  1  0.721662  0.573820  0.174631  1
  I  I15  1  0.173734  0.721050  0.573647  1
  I  I16  1  0.574114  0.175389  0.722005  1
  I  I17  1  0.278369  0.426131  0.825367  1
  I  I18  1  0.825543  0.278295  0.426150  1
  I  I19  1  0.425876  0.825200  0.277134  1
