# generated using pymatgen
data_Nd5Sc(CI5)2
_symmetry_space_group_name_H-M   'P 1'
_cell_length_a   7.82530683
_cell_length_b   9.69164388
_cell_length_c   9.74687455
_cell_angle_alpha   107.04171582
_cell_angle_beta   95.92256733
_cell_angle_gamma   104.23385531
_symmetry_Int_Tables_number   1
_chemical_formula_structural   Nd5Sc(CI5)2
_chemical_formula_sum   'Nd5 Sc1 C2 I10'
_cell_volume   672.69021769
_cell_formula_units_Z   1
loop_
 _symmetry_equiv_pos_site_id
 _symmetry_equiv_pos_as_xyz
  1  'x, y, z'
loop_
 _atom_site_type_symbol
 _atom_site_label
 _atom_site_symmetry_multiplicity
 _atom_site_fract_x
 _atom_site_fract_y
 _atom_site_fract_z
 _atom_site_occupancy
  Nd  Nd0  1  0.103809  0.037264  0.772861  1
  Nd  Nd1  1  0.372681  0.130515  0.175705  1
  Nd  Nd2  1  0.887100  0.958531  0.223988  1
  Nd  Nd3  1  0.027550  0.733461  0.920620  1
  Nd  Nd4  1  0.964943  0.264300  0.075901  1
  Sc  Sc5  1  0.648451  0.876324  0.833665  1
  C  C6  1  0.905476  0.969062  0.958254  1
  C  C7  1  0.082130  0.027177  0.038239  1
  I  I8  1  0.221251  0.742456  0.654880  1
  I  I9  1  0.088102  0.368954  0.817153  1
  I  I10  1  0.461433  0.807639  0.078730  1
  I  I11  1  0.250938  0.081105  0.459179  1
  I  I12  1  0.547471  0.174434  0.897315  1
  I  I13  1  0.804334  0.266657  0.359488  1
  I  I14  1  0.344548  0.454858  0.269076  1
  I  I15  1  0.910746  0.629805  0.181345  1
  I  I16  1  0.646327  0.565389  0.730087  1
  I  I17  1  0.732710  0.912069  0.553511  1
