# generated using pymatgen
data_NaTa6GaS12
_symmetry_space_group_name_H-M   'P 1'
_cell_length_a   5.80205200
_cell_length_b   5.80205250
_cell_length_c   15.04924700
_cell_angle_alpha   90.00000000
_cell_angle_beta   90.00000000
_cell_angle_gamma   119.99999717
_symmetry_Int_Tables_number   1
_chemical_formula_structural   NaTa6GaS12
_chemical_formula_sum   'Na1 Ta6 Ga1 S12'
_cell_volume   438.74146907
_cell_formula_units_Z   1
loop_
 _symmetry_equiv_pos_site_id
 _symmetry_equiv_pos_as_xyz
  1  'x, y, z'
loop_
 _atom_site_type_symbol
 _atom_site_label
 _atom_site_symmetry_multiplicity
 _atom_site_fract_x
 _atom_site_fract_y
 _atom_site_fract_z
 _atom_site_occupancy
  Na  Na0  1  0.000000  0.000000  0.000000  1
  Ta  Ta1  1  0.000000  0.000000  0.249421  1
  Ta  Ta2  1  0.000000  0.000000  0.750579  1
  Ta  Ta3  1  0.333333  0.666667  0.250697  1
  Ta  Ta4  1  0.666667  0.333333  0.749303  1
  Ta  Ta5  1  0.666667  0.333333  0.250697  1
  Ta  Ta6  1  0.333333  0.666667  0.749303  1
  Ga  Ga7  1  0.000000  0.000000  0.500000  1
  S  S8  1  0.334421  0.000000  0.146318  1
  S  S9  1  0.000000  0.334421  0.146318  1
  S  S10  1  0.665579  0.665579  0.146318  1
  S  S11  1  0.331222  0.331222  0.646331  1
  S  S12  1  0.668778  0.668778  0.353669  1
  S  S13  1  0.668778  0.000000  0.646331  1
  S  S14  1  0.000000  0.668778  0.646331  1
  S  S15  1  0.000000  0.665579  0.853682  1
  S  S16  1  0.334421  0.334421  0.853682  1
  S  S17  1  0.000000  0.331222  0.353669  1
  S  S18  1  0.331222  0.000000  0.353669  1
  S  S19  1  0.665579  0.000000  0.853682  1
