# generated using pymatgen
data_Dy8ScCd(SiB4)4
_symmetry_space_group_name_H-M   'P 1'
_cell_length_a   7.18219200
_cell_length_b   7.18219200
_cell_length_c   7.89019900
_cell_angle_alpha   90.00000000
_cell_angle_beta   90.00000000
_cell_angle_gamma   90.00000000
_symmetry_Int_Tables_number   1
_chemical_formula_structural   Dy8ScCd(SiB4)4
_chemical_formula_sum   'Dy8 Sc1 Cd1 Si4 B16'
_cell_volume   407.00709358
_cell_formula_units_Z   1
loop_
 _symmetry_equiv_pos_site_id
 _symmetry_equiv_pos_as_xyz
  1  'x, y, z'
loop_
 _atom_site_type_symbol
 _atom_site_label
 _atom_site_symmetry_multiplicity
 _atom_site_fract_x
 _atom_site_fract_y
 _atom_site_fract_z
 _atom_site_occupancy
  Dy  Dy0  1  0.681240  0.181417  0.230946  1
  Dy  Dy1  1  0.318760  0.818583  0.769054  1
  Dy  Dy2  1  0.318760  0.818583  0.230946  1
  Dy  Dy3  1  0.818583  0.681240  0.230946  1
  Dy  Dy4  1  0.818583  0.681240  0.769054  1
  Dy  Dy5  1  0.681240  0.181417  0.769054  1
  Dy  Dy6  1  0.181417  0.318760  0.769054  1
  Dy  Dy7  1  0.181417  0.318760  0.230946  1
  Sc  Sc8  1  0.500000  0.500000  0.500000  1
  Cd  Cd9  1  0.000000  0.000000  0.500000  1
  Si  Si10  1  0.124356  0.606856  0.500000  1
  Si  Si11  1  0.875644  0.393144  0.500000  1
  Si  Si12  1  0.393144  0.124356  0.500000  1
  Si  Si13  1  0.606856  0.875644  0.500000  1
  B  B14  1  0.175255  0.039224  0.000000  1
  B  B15  1  0.824745  0.960776  0.000000  1
  B  B16  1  0.960776  0.175255  0.000000  1
  B  B17  1  0.327310  0.539829  0.000000  1
  B  B18  1  0.039224  0.824745  0.000000  1
  B  B19  1  0.672690  0.460171  0.000000  1
  B  B20  1  0.539829  0.672690  0.000000  1
  B  B21  1  0.460171  0.327310  0.000000  1
  B  B22  1  0.089845  0.588144  0.000000  1
  B  B23  1  0.910155  0.411856  0.000000  1
  B  B24  1  0.411856  0.089845  0.000000  1
  B  B25  1  0.588144  0.910155  0.000000  1
  B  B26  1  0.000000  0.000000  0.157600  1
  B  B27  1  0.000000  0.000000  0.842400  1
  B  B28  1  0.500000  0.500000  0.833600  1
  B  B29  1  0.500000  0.500000  0.166400  1
