# generated using pymatgen
data_Sr4GaSiPd4
_symmetry_space_group_name_H-M   'P 1'
_cell_length_a   9.34337546
_cell_length_b   8.34751607
_cell_length_c   6.02270100
_cell_angle_alpha   80.36938835
_cell_angle_beta   61.39052698
_cell_angle_gamma   39.30173072
_symmetry_Int_Tables_number   1
_chemical_formula_structural   Sr4GaSiPd4
_chemical_formula_sum   'Sr4 Ga1 Si1 Pd4'
_cell_volume   243.13267391
_cell_formula_units_Z   1
loop_
 _symmetry_equiv_pos_site_id
 _symmetry_equiv_pos_as_xyz
  1  'x, y, z'
loop_
 _atom_site_type_symbol
 _atom_site_label
 _atom_site_symmetry_multiplicity
 _atom_site_fract_x
 _atom_site_fract_y
 _atom_site_fract_z
 _atom_site_occupancy
  Sr  Sr0  1  0.037993  0.058209  0.629704  1
  Sr  Sr1  1  0.274091  0.629704  0.058209  1
  Sr  Sr2  1  0.615138  0.980964  0.217821  1
  Sr  Sr3  1  0.186078  0.217821  0.980964  1
  Ga  Ga4  1  0.631437  0.368563  0.368563  1
  Si  Si5  1  0.870883  0.629117  0.629117  1
  Pd  Pd6  1  0.626144  0.625013  0.054226  1
  Pd  Pd7  1  0.694616  0.054226  0.625013  1
  Pd  Pd8  1  0.182958  0.554439  0.630225  1
  Pd  Pd9  1  0.632378  0.630225  0.554439  1
