# generated using pymatgen
data_Nd6In8HgSe
_symmetry_space_group_name_H-M   'P 1'
_cell_length_a   8.54572339
_cell_length_b   8.54571197
_cell_length_c   8.54573634
_cell_angle_alpha   119.60407650
_cell_angle_beta   119.60411357
_cell_angle_gamma   90.68680557
_symmetry_Int_Tables_number   1
_chemical_formula_structural   Nd6In8HgSe
_chemical_formula_sum   'Nd6 In8 Hg1 Se1'
_cell_volume   443.90499683
_cell_formula_units_Z   1
loop_
 _symmetry_equiv_pos_site_id
 _symmetry_equiv_pos_as_xyz
  1  'x, y, z'
loop_
 _atom_site_type_symbol
 _atom_site_label
 _atom_site_symmetry_multiplicity
 _atom_site_fract_x
 _atom_site_fract_y
 _atom_site_fract_z
 _atom_site_occupancy
  Nd  Nd0  1  0.763683  0.763683  0.000000  1
  Nd  Nd1  1  0.236317  0.236317  0.000000  1
  Nd  Nd2  1  0.674375  0.148977  0.823352  1
  Nd  Nd3  1  0.325625  0.851023  0.176648  1
  Nd  Nd4  1  0.148974  0.325626  0.474601  1
  Nd  Nd5  1  0.851026  0.674374  0.525399  1
  In  In6  1  0.337203  0.816910  0.788898  1
  In  In7  1  0.662797  0.183090  0.211102  1
  In  In8  1  0.028012  0.548305  0.211103  1
  In  In9  1  0.816909  0.028011  0.479706  1
  In  In10  1  0.451694  0.662796  0.479706  1
  In  In11  1  0.971988  0.451695  0.788897  1
  In  In12  1  0.183091  0.971989  0.520294  1
  In  In13  1  0.548306  0.337204  0.520294  1
  Hg  Hg14  1  0.500000  0.500000  0.000000  1
  Se  Se15  1  0.000000  0.000000  0.000000  1
