# generated using pymatgen
data_Cs9KRb2(FeSe3)4
_symmetry_space_group_name_H-M   'P 1'
_cell_length_a   11.02931047
_cell_length_b   11.02931037
_cell_length_c   14.01016966
_cell_angle_alpha   89.78680650
_cell_angle_beta   89.78680832
_cell_angle_gamma   140.39626374
_symmetry_Int_Tables_number   1
_chemical_formula_structural   Cs9KRb2(FeSe3)4
_chemical_formula_sum   'Cs9 K1 Rb2 Fe4 Se12'
_cell_volume   1086.36696836
_cell_formula_units_Z   1
loop_
 _symmetry_equiv_pos_site_id
 _symmetry_equiv_pos_as_xyz
  1  'x, y, z'
loop_
 _atom_site_type_symbol
 _atom_site_label
 _atom_site_symmetry_multiplicity
 _atom_site_fract_x
 _atom_site_fract_y
 _atom_site_fract_z
 _atom_site_occupancy
  Cs  Cs0  1  0.358457  0.358457  0.821833  1
  Cs  Cs1  1  0.165887  0.520876  0.129952  1
  Cs  Cs2  1  0.487230  0.834909  0.874378  1
  Cs  Cs3  1  0.976550  0.331183  0.631021  1
  Cs  Cs4  1  0.667146  0.016083  0.373969  1
  Cs  Cs5  1  0.834909  0.487230  0.874378  1
  Cs  Cs6  1  0.520876  0.165887  0.129952  1
  Cs  Cs7  1  0.016083  0.667146  0.373969  1
  Cs  Cs8  1  0.331183  0.976550  0.631021  1
  K  K9  1  0.839962  0.839962  0.655479  1
  Rb  Rb10  1  0.150547  0.150547  0.328626  1
  Rb  Rb11  1  0.651531  0.651531  0.165587  1
  Fe  Fe12  1  0.927531  0.087009  0.000644  1
  Fe  Fe13  1  0.413511  0.570912  0.500437  1
  Fe  Fe14  1  0.087009  0.927531  0.000644  1
  Fe  Fe15  1  0.570912  0.413511  0.500437  1
  Se  Se16  1  0.274083  0.274083  0.568866  1
  Se  Se17  1  0.698948  0.698948  0.422008  1
  Se  Se18  1  0.211004  0.211004  0.076538  1
  Se  Se19  1  0.818348  0.818348  0.915109  1
  Se  Se20  1  0.707403  0.993555  0.116707  1
  Se  Se21  1  0.006372  0.304725  0.889983  1
  Se  Se22  1  0.504918  0.785885  0.618153  1
  Se  Se23  1  0.201294  0.494143  0.387733  1
  Se  Se24  1  0.304725  0.006372  0.889983  1
  Se  Se25  1  0.993555  0.707403  0.116707  1
  Se  Se26  1  0.494143  0.201294  0.387733  1
  Se  Se27  1  0.785885  0.504918  0.618153  1
