# generated using pymatgen
data_Sr2LiInSn2
_symmetry_space_group_name_H-M   'P 1'
_cell_length_a   4.92983400
_cell_length_b   7.75561800
_cell_length_c   18.43588300
_cell_angle_alpha   90.00000000
_cell_angle_beta   90.00000000
_cell_angle_gamma   90.00000000
_symmetry_Int_Tables_number   1
_chemical_formula_structural   Sr2LiInSn2
_chemical_formula_sum   'Sr8 Li4 In4 Sn8'
_cell_volume   704.87587862
_cell_formula_units_Z   4
loop_
 _symmetry_equiv_pos_site_id
 _symmetry_equiv_pos_as_xyz
  1  'x, y, z'
loop_
 _atom_site_type_symbol
 _atom_site_label
 _atom_site_symmetry_multiplicity
 _atom_site_fract_x
 _atom_site_fract_y
 _atom_site_fract_z
 _atom_site_occupancy
  Sr  Sr0  1  0.750000  0.163359  0.439893  1
  Sr  Sr1  1  0.250000  0.993774  0.775513  1
  Sr  Sr2  1  0.250000  0.336641  0.939893  1
  Sr  Sr3  1  0.750000  0.663359  0.060107  1
  Sr  Sr4  1  0.250000  0.836641  0.560107  1
  Sr  Sr5  1  0.750000  0.006226  0.224487  1
  Sr  Sr6  1  0.750000  0.506226  0.275513  1
  Sr  Sr7  1  0.250000  0.493774  0.724487  1
  Li  Li8  1  0.250000  0.989920  0.070041  1
  Li  Li9  1  0.750000  0.510080  0.570041  1
  Li  Li10  1  0.250000  0.489920  0.429959  1
  Li  Li11  1  0.750000  0.010080  0.929959  1
  In  In12  1  0.250000  0.335610  0.153500  1
  In  In13  1  0.750000  0.164390  0.653500  1
  In  In14  1  0.250000  0.835610  0.346500  1
  In  In15  1  0.750000  0.664390  0.846500  1
  Sn  Sn16  1  0.250000  0.223163  0.314423  1
  Sn  Sn17  1  0.250000  0.282936  0.564943  1
  Sn  Sn18  1  0.750000  0.717064  0.435057  1
  Sn  Sn19  1  0.750000  0.276837  0.814423  1
  Sn  Sn20  1  0.750000  0.776837  0.685577  1
  Sn  Sn21  1  0.750000  0.217064  0.064943  1
  Sn  Sn22  1  0.250000  0.782936  0.935057  1
  Sn  Sn23  1  0.250000  0.723163  0.185577  1
