# generated using pymatgen
data_HoEr3Ti2O10
_symmetry_space_group_name_H-M   'P 1'
_cell_length_a   3.67837400
_cell_length_b   10.37194704
_cell_length_c   11.26947304
_cell_angle_alpha   89.99033846
_cell_angle_beta   90.00000000
_cell_angle_gamma   90.00000000
_symmetry_Int_Tables_number   1
_chemical_formula_structural   HoEr3Ti2O10
_chemical_formula_sum   'Ho2 Er6 Ti4 O20'
_cell_volume   429.95180586
_cell_formula_units_Z   2
loop_
 _symmetry_equiv_pos_site_id
 _symmetry_equiv_pos_as_xyz
  1  'x, y, z'
loop_
 _atom_site_type_symbol
 _atom_site_label
 _atom_site_symmetry_multiplicity
 _atom_site_fract_x
 _atom_site_fract_y
 _atom_site_fract_z
 _atom_site_occupancy
  Ho  Ho0  1  0.250000  0.116311  0.276296  1
  Ho  Ho1  1  0.250000  0.135332  0.943693  1
  Er  Er2  1  0.750000  0.364616  0.444283  1
  Er  Er3  1  0.750000  0.383714  0.775782  1
  Er  Er4  1  0.250000  0.616672  0.224076  1
  Er  Er5  1  0.250000  0.635618  0.555860  1
  Er  Er6  1  0.750000  0.863496  0.055721  1
  Er  Er7  1  0.750000  0.883109  0.723811  1
  Ti  Ti8  1  0.250000  0.173924  0.619254  1
  Ti  Ti9  1  0.750000  0.326693  0.119033  1
  Ti  Ti10  1  0.250000  0.673559  0.880660  1
  Ti  Ti11  1  0.750000  0.826009  0.381071  1
  O  O12  1  0.750000  0.005789  0.894753  1
  O  O13  1  0.250000  0.006106  0.655455  1
  O  O14  1  0.250000  0.224863  0.456455  1
  O  O15  1  0.750000  0.244788  0.271669  1
  O  O16  1  0.750000  0.239311  0.616451  1
  O  O17  1  0.250000  0.260880  0.116116  1
  O  O18  1  0.250000  0.256881  0.771085  1
  O  O19  1  0.750000  0.276800  0.955884  1
  O  O20  1  0.750000  0.494486  0.154883  1
  O  O21  1  0.250000  0.493579  0.395044  1
  O  O22  1  0.750000  0.506785  0.604935  1
  O  O23  1  0.250000  0.505968  0.844673  1
  O  O24  1  0.250000  0.723445  0.043847  1
  O  O25  1  0.750000  0.744009  0.228469  1
  O  O26  1  0.750000  0.738955  0.883449  1
  O  O27  1  0.250000  0.760495  0.383833  1
  O  O28  1  0.250000  0.756039  0.728255  1
  O  O29  1  0.750000  0.775629  0.543978  1
  O  O30  1  0.750000  0.993952  0.346283  1
  O  O31  1  0.250000  0.992188  0.104942  1
