# generated using pymatgen
data_Ho2Co3Si4Rh3
_symmetry_space_group_name_H-M   'P 1'
_cell_length_a   6.42455493
_cell_length_b   6.48195431
_cell_length_c   6.42455498
_cell_angle_alpha   131.36140875
_cell_angle_beta   114.04435285
_cell_angle_gamma   85.78509920
_symmetry_Int_Tables_number   1
_chemical_formula_structural   Ho2Co3Si4Rh3
_chemical_formula_sum   'Ho2 Co3 Si4 Rh3'
_cell_volume   175.74473274
_cell_formula_units_Z   1
loop_
 _symmetry_equiv_pos_site_id
 _symmetry_equiv_pos_as_xyz
  1  'x, y, z'
loop_
 _atom_site_type_symbol
 _atom_site_label
 _atom_site_symmetry_multiplicity
 _atom_site_fract_x
 _atom_site_fract_y
 _atom_site_fract_z
 _atom_site_occupancy
  Ho  Ho0  1  0.253938  0.535930  0.285889  1
  Ho  Ho1  1  0.749959  0.464070  0.718008  1
  Co  Co2  1  0.717796  0.000000  0.717796  1
  Co  Co3  1  0.218442  0.500000  0.718442  1
  Co  Co4  1  0.280046  0.000000  0.280046  1
  Si  Si5  1  0.077353  0.878730  0.810321  1
  Si  Si6  1  0.931591  0.121270  0.198623  1
  Si  Si7  1  0.565293  0.776577  0.199173  1
  Si  Si8  1  0.422596  0.223423  0.788717  1
  Rh  Rh9  1  0.783188  0.500000  0.283188  1
  Rh  Rh10  1  0.001055  0.010762  0.509503  1
  Rh  Rh11  1  0.498741  0.989238  0.990295  1
