# generated using pymatgen
data_TbPr2(GdSi2)2
_symmetry_space_group_name_H-M   'P 1'
_cell_length_a   7.86366400
_cell_length_b   7.86366400
_cell_length_c   14.95595700
_cell_angle_alpha   90.00000000
_cell_angle_beta   90.00000000
_cell_angle_gamma   90.00000000
_symmetry_Int_Tables_number   1
_chemical_formula_structural   TbPr2(GdSi2)2
_chemical_formula_sum   'Tb4 Pr8 Gd8 Si16'
_cell_volume   924.83467627
_cell_formula_units_Z   4
loop_
 _symmetry_equiv_pos_site_id
 _symmetry_equiv_pos_as_xyz
  1  'x, y, z'
loop_
 _atom_site_type_symbol
 _atom_site_label
 _atom_site_symmetry_multiplicity
 _atom_site_fract_x
 _atom_site_fract_y
 _atom_site_fract_z
 _atom_site_occupancy
  Tb  Tb0  1  0.687529  0.687529  0.500000  1
  Tb  Tb1  1  0.812471  0.187529  0.750000  1
  Tb  Tb2  1  0.187529  0.812471  0.250000  1
  Tb  Tb3  1  0.312471  0.312471  0.000000  1
  Pr  Pr4  1  0.988139  0.628614  0.048110  1
  Pr  Pr5  1  0.011861  0.371386  0.548110  1
  Pr  Pr6  1  0.628614  0.988139  0.951890  1
  Pr  Pr7  1  0.128614  0.511861  0.798110  1
  Pr  Pr8  1  0.871386  0.488139  0.298110  1
  Pr  Pr9  1  0.511861  0.128614  0.201890  1
  Pr  Pr10  1  0.488139  0.871386  0.701890  1
  Pr  Pr11  1  0.371386  0.011861  0.451890  1
  Gd  Gd12  1  0.368373  0.484255  0.374327  1
  Gd  Gd13  1  0.868373  0.015745  0.375673  1
  Gd  Gd14  1  0.984255  0.131627  0.124327  1
  Gd  Gd15  1  0.015745  0.868373  0.624327  1
  Gd  Gd16  1  0.631627  0.515745  0.874327  1
  Gd  Gd17  1  0.484255  0.368373  0.625673  1
  Gd  Gd18  1  0.515745  0.631627  0.125673  1
  Gd  Gd19  1  0.131627  0.984255  0.875673  1
  Si  Si20  1  0.074072  0.714139  0.438114  1
  Si  Si21  1  0.925928  0.285861  0.938114  1
  Si  Si22  1  0.714139  0.074072  0.561886  1
  Si  Si23  1  0.214140  0.425928  0.188114  1
  Si  Si24  1  0.785861  0.574072  0.688114  1
  Si  Si25  1  0.425928  0.214140  0.811886  1
  Si  Si26  1  0.574072  0.785861  0.311886  1
  Si  Si27  1  0.285861  0.925928  0.061886  1
  Si  Si28  1  0.835124  0.804775  0.800338  1
  Si  Si29  1  0.164876  0.195225  0.300338  1
  Si  Si30  1  0.804775  0.835124  0.199662  1
  Si  Si31  1  0.304775  0.664876  0.550338  1
  Si  Si32  1  0.695225  0.335124  0.050338  1
  Si  Si33  1  0.664876  0.304775  0.449662  1
  Si  Si34  1  0.335124  0.695225  0.949662  1
  Si  Si35  1  0.195225  0.164876  0.699662  1
