# generated using pymatgen
data_HoEr3PdPt3
_symmetry_space_group_name_H-M   'P 1'
_cell_length_a   4.49617600
_cell_length_b   5.57618515
_cell_length_c   6.96040381
_cell_angle_alpha   90.10547579
_cell_angle_beta   90.00166400
_cell_angle_gamma   90.00182482
_symmetry_Int_Tables_number   1
_chemical_formula_structural   HoEr3PdPt3
_chemical_formula_sum   'Ho1 Er3 Pd1 Pt3'
_cell_volume   174.50753691
_cell_formula_units_Z   1
loop_
 _symmetry_equiv_pos_site_id
 _symmetry_equiv_pos_as_xyz
  1  'x, y, z'
loop_
 _atom_site_type_symbol
 _atom_site_label
 _atom_site_symmetry_multiplicity
 _atom_site_fract_x
 _atom_site_fract_y
 _atom_site_fract_z
 _atom_site_occupancy
  Ho  Ho0  1  0.250022  0.642729  0.182007  1
  Er  Er1  1  0.749992  0.359811  0.815477  1
  Er  Er2  1  0.749978  0.139916  0.321703  1
  Er  Er3  1  0.250030  0.857053  0.680945  1
  Pd  Pd4  1  0.249990  0.155368  0.043708  1
  Pt  Pt5  1  0.749983  0.846751  0.956459  1
  Pt  Pt6  1  0.749996  0.656559  0.454926  1
  Pt  Pt7  1  0.250010  0.341813  0.544775  1
