# generated using pymatgen
data_Tb2Al9Ru2Au
_symmetry_space_group_name_H-M   'P 1'
_cell_length_a   7.62051691
_cell_length_b   7.62051613
_cell_length_c   9.56475600
_cell_angle_alpha   90.00000000
_cell_angle_beta   90.00000000
_cell_angle_gamma   119.32217204
_symmetry_Int_Tables_number   1
_chemical_formula_structural   Tb2Al9Ru2Au
_chemical_formula_sum   'Tb4 Al18 Ru4 Au2'
_cell_volume   484.28313344
_cell_formula_units_Z   2
loop_
 _symmetry_equiv_pos_site_id
 _symmetry_equiv_pos_as_xyz
  1  'x, y, z'
loop_
 _atom_site_type_symbol
 _atom_site_label
 _atom_site_symmetry_multiplicity
 _atom_site_fract_x
 _atom_site_fract_y
 _atom_site_fract_z
 _atom_site_occupancy
  Tb  Tb0  1  0.997675  0.677891  0.250000  1
  Tb  Tb1  1  0.002325  0.322109  0.750000  1
  Tb  Tb2  1  0.677891  0.997675  0.250000  1
  Tb  Tb3  1  0.322109  0.002325  0.750000  1
  Al  Al4  1  0.145588  0.145588  0.250000  1
  Al  Al5  1  0.854412  0.854412  0.750000  1
  Al  Al6  1  0.003129  0.347587  0.075730  1
  Al  Al7  1  0.996871  0.652413  0.924270  1
  Al  Al8  1  0.996871  0.652413  0.575730  1
  Al  Al9  1  0.347587  0.003129  0.424270  1
  Al  Al10  1  0.003129  0.347587  0.424270  1
  Al  Al11  1  0.652413  0.996871  0.575730  1
  Al  Al12  1  0.652413  0.996871  0.924270  1
  Al  Al13  1  0.347587  0.003129  0.075730  1
  Al  Al14  1  0.344053  0.344053  0.552463  1
  Al  Al15  1  0.655947  0.655947  0.447537  1
  Al  Al16  1  0.655947  0.655947  0.052463  1
  Al  Al17  1  0.344053  0.344053  0.947537  1
  Al  Al18  1  0.337862  0.555348  0.250000  1
  Al  Al19  1  0.662138  0.444652  0.750000  1
  Al  Al20  1  0.555348  0.337862  0.250000  1
  Al  Al21  1  0.444652  0.662138  0.750000  1
  Ru  Ru22  1  0.672503  0.327497  0.000000  1
  Ru  Ru23  1  0.327497  0.672503  0.000000  1
  Ru  Ru24  1  0.327497  0.672503  0.500000  1
  Ru  Ru25  1  0.672503  0.327497  0.500000  1
  Au  Au26  1  0.000000  0.000000  0.000000  1
  Au  Au27  1  0.000000  0.000000  0.500000  1
