# generated using pymatgen
data_Ho3Se2ClO8
_symmetry_space_group_name_H-M   'P 1'
_cell_length_a   5.48197200
_cell_length_b   14.54018500
_cell_length_c   11.03533000
_cell_angle_alpha   90.00000000
_cell_angle_beta   90.00000000
_cell_angle_gamma   90.00000000
_symmetry_Int_Tables_number   1
_chemical_formula_structural   Ho3Se2ClO8
_chemical_formula_sum   'Ho12 Se8 Cl4 O32'
_cell_volume   879.61387247
_cell_formula_units_Z   4
loop_
 _symmetry_equiv_pos_site_id
 _symmetry_equiv_pos_as_xyz
  1  'x, y, z'
loop_
 _atom_site_type_symbol
 _atom_site_label
 _atom_site_symmetry_multiplicity
 _atom_site_fract_x
 _atom_site_fract_y
 _atom_site_fract_z
 _atom_site_occupancy
  Ho  Ho0  1  0.068637  0.066115  0.143571  1
  Ho  Ho1  1  0.068637  0.433885  0.143571  1
  Ho  Ho2  1  0.558229  0.250000  0.147768  1
  Ho  Ho3  1  0.058230  0.250000  0.352232  1
  Ho  Ho4  1  0.568638  0.066115  0.356428  1
  Ho  Ho5  1  0.568638  0.433885  0.356428  1
  Ho  Ho6  1  0.431363  0.566116  0.643572  1
  Ho  Ho7  1  0.431363  0.933885  0.643572  1
  Ho  Ho8  1  0.941772  0.750000  0.647768  1
  Ho  Ho9  1  0.441771  0.750000  0.852232  1
  Ho  Ho10  1  0.931362  0.566116  0.856429  1
  Ho  Ho11  1  0.931362  0.933885  0.856429  1
  Se  Se12  1  0.585013  0.610784  0.123376  1
  Se  Se13  1  0.585013  0.889215  0.123376  1
  Se  Se14  1  0.085013  0.610784  0.376624  1
  Se  Se15  1  0.085013  0.889215  0.376624  1
  Se  Se16  1  0.914987  0.110784  0.623376  1
  Se  Se17  1  0.914987  0.389216  0.623376  1
  Se  Se18  1  0.414986  0.110784  0.876624  1
  Se  Se19  1  0.414986  0.389216  0.876624  1
  Cl  Cl20  1  0.083101  0.250000  0.022448  1
  Cl  Cl21  1  0.583102  0.250000  0.477553  1
  Cl  Cl22  1  0.416898  0.750000  0.522447  1
  Cl  Cl23  1  0.916898  0.750000  0.977552  1
  O  O24  1  0.408851  0.638686  0.002811  1
  O  O25  1  0.408851  0.861315  0.002811  1
  O  O26  1  0.815012  0.545240  0.054752  1
  O  O27  1  0.815012  0.954760  0.054752  1
  O  O28  1  0.412425  0.524316  0.193379  1
  O  O29  1  0.412425  0.975684  0.193379  1
  O  O30  1  0.810371  0.152505  0.244334  1
  O  O31  1  0.810371  0.347495  0.244334  1
  O  O32  1  0.310370  0.152505  0.255667  1
  O  O33  1  0.310370  0.347495  0.255667  1
  O  O34  1  0.912426  0.524316  0.306622  1
  O  O35  1  0.912426  0.975684  0.306622  1
  O  O36  1  0.315012  0.545240  0.445249  1
  O  O37  1  0.315012  0.954760  0.445249  1
  O  O38  1  0.908850  0.638686  0.497189  1
  O  O39  1  0.908850  0.861315  0.497189  1
  O  O40  1  0.091150  0.138685  0.502811  1
  O  O41  1  0.091150  0.361315  0.502811  1
  O  O42  1  0.684988  0.045240  0.554751  1
  O  O43  1  0.684988  0.454760  0.554751  1
  O  O44  1  0.087574  0.024316  0.693378  1
  O  O45  1  0.087574  0.475684  0.693378  1
  O  O46  1  0.689630  0.652505  0.744333  1
  O  O47  1  0.689630  0.847495  0.744333  1
  O  O48  1  0.189629  0.652505  0.755666  1
  O  O49  1  0.189629  0.847495  0.755666  1
  O  O50  1  0.587574  0.024316  0.806621  1
  O  O51  1  0.587574  0.475684  0.806621  1
  O  O52  1  0.184987  0.045240  0.945248  1
  O  O53  1  0.184987  0.454760  0.945248  1
  O  O54  1  0.591149  0.138685  0.997189  1
  O  O55  1  0.591149  0.361315  0.997189  1
