# generated using pymatgen
data_Dy5Er3Re(B8Os)3
_symmetry_space_group_name_H-M   'P 1'
_cell_length_a   3.65611900
_cell_length_b   9.13993515
_cell_length_c   11.52679806
_cell_angle_alpha   90.09534288
_cell_angle_beta   90.00000000
_cell_angle_gamma   90.00000000
_symmetry_Int_Tables_number   1
_chemical_formula_structural   Dy5Er3Re(B8Os)3
_chemical_formula_sum   'Dy5 Er3 Re1 B24 Os3'
_cell_volume   385.18691059
_cell_formula_units_Z   1
loop_
 _symmetry_equiv_pos_site_id
 _symmetry_equiv_pos_as_xyz
  1  'x, y, z'
loop_
 _atom_site_type_symbol
 _atom_site_label
 _atom_site_symmetry_multiplicity
 _atom_site_fract_x
 _atom_site_fract_y
 _atom_site_fract_z
 _atom_site_occupancy
  Dy  Dy0  1  0.000000  0.322476  0.414913  1
  Dy  Dy1  1  0.000000  0.679999  0.588213  1
  Dy  Dy2  1  0.000000  0.822331  0.083567  1
  Dy  Dy3  1  0.000000  0.176738  0.913124  1
  Dy  Dy4  1  0.000000  0.943320  0.372025  1
  Er  Er5  1  0.000000  0.056005  0.628049  1
  Er  Er6  1  0.000000  0.442999  0.127556  1
  Er  Er7  1  0.000000  0.556525  0.872794  1
  Re  Re8  1  0.000000  0.862279  0.821247  1
  B  B9  1  0.500000  0.553655  0.433085  1
  B  B10  1  0.500000  0.446109  0.567336  1
  B  B11  1  0.500000  0.053864  0.067309  1
  B  B12  1  0.500000  0.946986  0.932937  1
  B  B13  1  0.500000  0.748017  0.419293  1
  B  B14  1  0.500000  0.251424  0.580684  1
  B  B15  1  0.500000  0.248689  0.080812  1
  B  B16  1  0.500000  0.751115  0.919111  1
  B  B17  1  0.500000  0.789915  0.266022  1
  B  B18  1  0.500000  0.209072  0.733123  1
  B  B19  1  0.500000  0.291351  0.233733  1
  B  B20  1  0.500000  0.708341  0.766205  1
  B  B21  1  0.500000  0.630496  0.185218  1
  B  B22  1  0.500000  0.368877  0.814288  1
  B  B23  1  0.500000  0.131932  0.314539  1
  B  B24  1  0.500000  0.868950  0.685624  1
  B  B25  1  0.500000  0.983691  0.212474  1
  B  B26  1  0.500000  0.017760  0.786995  1
  B  B27  1  0.500000  0.482779  0.287427  1
  B  B28  1  0.500000  0.516992  0.713051  1
  B  B29  1  0.500000  0.604545  0.029638  1
  B  B30  1  0.500000  0.393896  0.970907  1
  B  B31  1  0.500000  0.106976  0.470671  1
  B  B32  1  0.500000  0.894110  0.529427  1
  Os  Os33  1  0.000000  0.636657  0.321137  1
  Os  Os34  1  0.000000  0.362573  0.678462  1
  Os  Os35  1  0.000000  0.138553  0.179006  1
