# generated using pymatgen
data_Na(Nb2Cl5)4
_symmetry_space_group_name_H-M   'P 1'
_cell_length_a   18.14294100
_cell_length_b   9.44018932
_cell_length_c   13.65813800
_cell_angle_alpha   89.93368631
_cell_angle_beta   90.00000000
_cell_angle_gamma   90.00000000
_symmetry_Int_Tables_number   1
_chemical_formula_structural   Na(Nb2Cl5)4
_chemical_formula_sum   'Na3 Nb24 Cl60'
_cell_volume   2339.26594275
_cell_formula_units_Z   3
loop_
 _symmetry_equiv_pos_site_id
 _symmetry_equiv_pos_as_xyz
  1  'x, y, z'
loop_
 _atom_site_type_symbol
 _atom_site_label
 _atom_site_symmetry_multiplicity
 _atom_site_fract_x
 _atom_site_fract_y
 _atom_site_fract_z
 _atom_site_occupancy
  Na  Na0  1  0.500000  0.320466  0.255658  1
  Na  Na1  1  0.500000  0.320520  0.744561  1
  Na  Na2  1  0.000000  0.679741  0.742804  1
  Nb  Nb3  1  0.220299  0.353577  0.391377  1
  Nb  Nb4  1  0.278448  0.647321  0.391219  1
  Nb  Nb5  1  0.779701  0.353577  0.391377  1
  Nb  Nb6  1  0.721552  0.647321  0.391219  1
  Nb  Nb7  1  0.278679  0.646502  0.608381  1
  Nb  Nb8  1  0.220710  0.353594  0.608434  1
  Nb  Nb9  1  0.721321  0.646502  0.608381  1
  Nb  Nb10  1  0.779290  0.353594  0.608434  1
  Nb  Nb11  1  0.000000  0.943410  0.001241  1
  Nb  Nb12  1  0.500000  0.053640  0.999933  1
  Nb  Nb13  1  0.082302  0.163194  0.109877  1
  Nb  Nb14  1  0.418290  0.836550  0.108886  1
  Nb  Nb15  1  0.917698  0.163194  0.109877  1
  Nb  Nb16  1  0.581710  0.836550  0.108886  1
  Nb  Nb17  1  0.418315  0.836627  0.891122  1
  Nb  Nb18  1  0.081879  0.163434  0.890882  1
  Nb  Nb19  1  0.581685  0.836627  0.891122  1
  Nb  Nb20  1  0.918121  0.163434  0.890882  1
  Nb  Nb21  1  0.355630  0.421130  0.499814  1
  Nb  Nb22  1  0.142756  0.579742  0.499343  1
  Nb  Nb23  1  0.644370  0.421130  0.499814  1
  Nb  Nb24  1  0.857244  0.579742  0.499343  1
  Nb  Nb25  1  0.000000  0.381272  0.000905  1
  Nb  Nb26  1  0.500000  0.621310  0.000066  1
  Cl  Cl27  1  0.000000  0.154334  0.252493  1
  Cl  Cl28  1  0.500000  0.847218  0.253133  1
  Cl  Cl29  1  0.500000  0.847412  0.746825  1
  Cl  Cl30  1  0.000000  0.152960  0.747171  1
  Cl  Cl31  1  0.249963  0.500095  0.247928  1
  Cl  Cl32  1  0.750037  0.500095  0.247928  1
  Cl  Cl33  1  0.249919  0.499761  0.752289  1
  Cl  Cl34  1  0.750081  0.499761  0.752289  1
  Cl  Cl35  1  0.342945  0.234544  0.373097  1
  Cl  Cl36  1  0.157471  0.764661  0.373558  1
  Cl  Cl37  1  0.657055  0.234544  0.373097  1
  Cl  Cl38  1  0.842529  0.764661  0.373558  1
  Cl  Cl39  1  0.156882  0.765593  0.626803  1
  Cl  Cl40  1  0.343065  0.234539  0.627033  1
  Cl  Cl41  1  0.843118  0.765593  0.626803  1
  Cl  Cl42  1  0.656935  0.234539  0.627033  1
  Cl  Cl43  1  0.000000  0.663153  0.992796  1
  Cl  Cl44  1  0.500000  0.336496  0.999989  1
  Cl  Cl45  1  0.090889  0.422530  0.375267  1
  Cl  Cl46  1  0.409371  0.578253  0.375350  1
  Cl  Cl47  1  0.909111  0.422530  0.375267  1
  Cl  Cl48  1  0.590629  0.578253  0.375350  1
  Cl  Cl49  1  0.409398  0.577748  0.624486  1
  Cl  Cl50  1  0.090385  0.421290  0.624561  1
  Cl  Cl51  1  0.590602  0.577748  0.624486  1
  Cl  Cl52  1  0.909615  0.421290  0.624561  1
  Cl  Cl53  1  0.181351  0.158367  0.500255  1
  Cl  Cl54  1  0.318571  0.841475  0.500010  1
  Cl  Cl55  1  0.818649  0.158367  0.500255  1
  Cl  Cl56  1  0.681429  0.841475  0.500010  1
  Cl  Cl57  1  0.190231  0.165586  0.999806  1
  Cl  Cl58  1  0.309508  0.833920  0.999967  1
  Cl  Cl59  1  0.809769  0.165586  0.999806  1
  Cl  Cl60  1  0.690492  0.833920  0.999967  1
  Cl  Cl61  1  0.094896  0.421389  0.124540  1
  Cl  Cl62  1  0.404672  0.576552  0.124598  1
  Cl  Cl63  1  0.905104  0.421389  0.124540  1
  Cl  Cl64  1  0.595328  0.576552  0.124598  1
  Cl  Cl65  1  0.404657  0.576696  0.875565  1
  Cl  Cl66  1  0.095157  0.422465  0.875416  1
  Cl  Cl67  1  0.595343  0.576696  0.875565  1
  Cl  Cl68  1  0.904843  0.422465  0.875416  1
  Cl  Cl69  1  0.000000  0.684251  0.508346  1
  Cl  Cl70  1  0.500000  0.314206  0.499936  1
  Cl  Cl71  1  0.096140  0.904642  0.125711  1
  Cl  Cl72  1  0.403464  0.097692  0.126288  1
  Cl  Cl73  1  0.903860  0.904642  0.125711  1
  Cl  Cl74  1  0.596536  0.097692  0.126288  1
  Cl  Cl75  1  0.403443  0.097817  0.873511  1
  Cl  Cl76  1  0.096641  0.903220  0.874151  1
  Cl  Cl77  1  0.596557  0.097817  0.873511  1
  Cl  Cl78  1  0.903359  0.903220  0.874151  1
  Cl  Cl79  1  0.185153  0.165765  0.250668  1
  Cl  Cl80  1  0.315057  0.834449  0.250075  1
  Cl  Cl81  1  0.814847  0.165765  0.250668  1
  Cl  Cl82  1  0.684943  0.834449  0.250075  1
  Cl  Cl83  1  0.315029  0.833808  0.749548  1
  Cl  Cl84  1  0.184848  0.165926  0.749746  1
  Cl  Cl85  1  0.684971  0.833808  0.749548  1
  Cl  Cl86  1  0.815152  0.165926  0.749746  1
