# generated using pymatgen
data_Ho12ZnNi4Sn
_symmetry_space_group_name_H-M   'P 1'
_cell_length_a   8.32985913
_cell_length_b   8.32985949
_cell_length_c   8.32985919
_cell_angle_alpha   113.15280878
_cell_angle_beta   109.61927858
_cell_angle_gamma   105.72656681
_symmetry_Int_Tables_number   1
_chemical_formula_structural   Ho12ZnNi4Sn
_chemical_formula_sum   'Ho12 Zn1 Ni4 Sn1'
_cell_volume   443.06330924
_cell_formula_units_Z   1
loop_
 _symmetry_equiv_pos_site_id
 _symmetry_equiv_pos_as_xyz
  1  'x, y, z'
loop_
 _atom_site_type_symbol
 _atom_site_label
 _atom_site_symmetry_multiplicity
 _atom_site_fract_x
 _atom_site_fract_y
 _atom_site_fract_z
 _atom_site_occupancy
  Ho  Ho0  1  0.424870  0.227551  0.197318  1
  Ho  Ho1  1  0.575130  0.772449  0.802682  1
  Ho  Ho2  1  0.030233  0.227551  0.802682  1
  Ho  Ho3  1  0.969767  0.772449  0.197318  1
  Ho  Ho4  1  0.180709  0.289717  0.470426  1
  Ho  Ho5  1  0.819291  0.710283  0.529574  1
  Ho  Ho6  1  0.180709  0.710283  0.890993  1
  Ho  Ho7  1  0.819291  0.289717  0.109007  1
  Ho  Ho8  1  0.323473  0.632373  0.308900  1
  Ho  Ho9  1  0.676527  0.367627  0.691100  1
  Ho  Ho10  1  0.323473  0.014573  0.691100  1
  Ho  Ho11  1  0.676527  0.985427  0.308900  1
  Zn  Zn12  1  0.000000  0.000000  0.000000  1
  Ni  Ni13  1  0.350985  0.000000  0.350985  1
  Ni  Ni14  1  0.649015  0.000000  0.649015  1
  Ni  Ni15  1  0.123525  0.623525  0.500000  1
  Ni  Ni16  1  0.876475  0.376475  0.500000  1
  Sn  Sn17  1  0.500000  0.500000  0.000000  1
