# generated using pymatgen
data_Y2PdPtF14
_symmetry_space_group_name_H-M   'P 1'
_cell_length_a   5.54657553
_cell_length_b   8.89298660
_cell_length_c   11.98574509
_cell_angle_alpha   62.42632789
_cell_angle_beta   89.97195086
_cell_angle_gamma   90.05850754
_symmetry_Int_Tables_number   1
_chemical_formula_structural   Y2PdPtF14
_chemical_formula_sum   'Y4 Pd2 Pt2 F28'
_cell_volume   524.05261619
_cell_formula_units_Z   2
loop_
 _symmetry_equiv_pos_site_id
 _symmetry_equiv_pos_as_xyz
  1  'x, y, z'
loop_
 _atom_site_type_symbol
 _atom_site_label
 _atom_site_symmetry_multiplicity
 _atom_site_fract_x
 _atom_site_fract_y
 _atom_site_fract_z
 _atom_site_occupancy
  Y  Y0  1  0.261353  0.814631  0.262821  1
  Y  Y1  1  0.738647  0.185369  0.737179  1
  Y  Y2  1  0.762489  0.186707  0.234967  1
  Y  Y3  1  0.237511  0.813293  0.765033  1
  Pd  Pd4  1  0.759061  0.726923  0.042911  1
  Pd  Pd5  1  0.240939  0.273077  0.957089  1
  Pt  Pt6  1  0.259546  0.273252  0.456760  1
  Pt  Pt7  1  0.740454  0.726748  0.543240  1
  F  F8  1  0.934843  0.703984  0.414773  1
  F  F9  1  0.065157  0.296016  0.585227  1
  F  F10  1  0.433448  0.296162  0.083823  1
  F  F11  1  0.566552  0.703838  0.916177  1
  F  F12  1  0.467066  0.726623  0.133239  1
  F  F13  1  0.532934  0.273377  0.866761  1
  F  F14  1  0.965865  0.274440  0.364484  1
  F  F15  1  0.034135  0.725560  0.635516  1
  F  F16  1  0.947274  0.743181  0.174665  1
  F  F17  1  0.052726  0.256819  0.825335  1
  F  F18  1  0.448887  0.256835  0.323570  1
  F  F19  1  0.551113  0.743165  0.676430  1
  F  F20  1  0.771077  0.480315  0.140521  1
  F  F21  1  0.228923  0.519685  0.859479  1
  F  F22  1  0.271904  0.522161  0.357545  1
  F  F23  1  0.728096  0.477839  0.642455  1
  F  F24  1  0.942572  0.281088  0.040866  1
  F  F25  1  0.057428  0.718912  0.959134  1
  F  F26  1  0.440252  0.719970  0.457579  1
  F  F27  1  0.559748  0.280030  0.542421  1
  F  F28  1  0.742194  0.975488  0.449784  1
  F  F29  1  0.257806  0.024512  0.550216  1
  F  F30  1  0.242336  0.026926  0.048628  1
  F  F31  1  0.757664  0.973074  0.951372  1
  F  F32  1  0.588143  0.969441  0.231239  1
  F  F33  1  0.411857  0.030559  0.768761  1
  F  F34  1  0.088186  0.031083  0.268079  1
  F  F35  1  0.911814  0.968917  0.731921  1
