# generated using pymatgen
data_Hf6Zn22AuS
_symmetry_space_group_name_H-M   'P 1'
_cell_length_a   8.76263294
_cell_length_b   8.76263359
_cell_length_c   8.76263400
_cell_angle_alpha   60.00000599
_cell_angle_beta   60.00000354
_cell_angle_gamma   60.00000698
_symmetry_Int_Tables_number   1
_chemical_formula_structural   Hf6Zn22AuS
_chemical_formula_sum   'Hf6 Zn22 Au1 S1'
_cell_volume   475.76117740
_cell_formula_units_Z   1
loop_
 _symmetry_equiv_pos_site_id
 _symmetry_equiv_pos_as_xyz
  1  'x, y, z'
loop_
 _atom_site_type_symbol
 _atom_site_label
 _atom_site_symmetry_multiplicity
 _atom_site_fract_x
 _atom_site_fract_y
 _atom_site_fract_z
 _atom_site_occupancy
  Hf  Hf0  1  0.703183  0.296817  0.296814  1
  Hf  Hf1  1  0.296817  0.703183  0.703186  1
  Hf  Hf2  1  0.296789  0.703211  0.296785  1
  Hf  Hf3  1  0.703211  0.296789  0.703215  1
  Hf  Hf4  1  0.296817  0.296812  0.703187  1
  Hf  Hf5  1  0.703183  0.703188  0.296813  1
  Zn  Zn6  1  0.123374  0.123490  0.123386  1
  Zn  Zn7  1  0.876626  0.876510  0.876614  1
  Zn  Zn8  1  0.123489  0.123374  0.629750  1
  Zn  Zn9  1  0.123393  0.629753  0.123369  1
  Zn  Zn10  1  0.876511  0.876626  0.370250  1
  Zn  Zn11  1  0.876607  0.370247  0.876631  1
  Zn  Zn12  1  0.629752  0.123394  0.123486  1
  Zn  Zn13  1  0.370248  0.876606  0.876514  1
  Zn  Zn14  1  0.500000  0.000000  0.000000  1
  Zn  Zn15  1  0.000000  0.500000  0.500000  1
  Zn  Zn16  1  0.000000  0.500000  0.000000  1
  Zn  Zn17  1  0.500000  0.000000  0.500000  1
  Zn  Zn18  1  0.000000  0.000000  0.500000  1
  Zn  Zn19  1  0.500000  0.500000  0.000000  1
  Zn  Zn20  1  0.335087  0.335074  0.335089  1
  Zn  Zn21  1  0.664913  0.664926  0.664911  1
  Zn  Zn22  1  0.335074  0.335088  0.994750  1
  Zn  Zn23  1  0.335085  0.994758  0.335088  1
  Zn  Zn24  1  0.664926  0.664912  0.005250  1
  Zn  Zn25  1  0.664915  0.005242  0.664912  1
  Zn  Zn26  1  0.994758  0.335086  0.335069  1
  Zn  Zn27  1  0.005242  0.664914  0.664931  1
  Au  Au28  1  0.000000  0.000000  0.000000  1
  S  S29  1  0.500000  0.500000  0.500000  1
