# generated using pymatgen
data_Fe3CoH4
_symmetry_space_group_name_H-M   'P 1'
_cell_length_a   2.64574005
_cell_length_b   4.58592740
_cell_length_c   5.06371378
_cell_angle_alpha   90.17981930
_cell_angle_beta   121.53089353
_cell_angle_gamma   89.85168518
_symmetry_Int_Tables_number   1
_chemical_formula_structural   Fe3CoH4
_chemical_formula_sum   'Fe3 Co1 H4'
_cell_volume   52.36767477
_cell_formula_units_Z   1
loop_
 _symmetry_equiv_pos_site_id
 _symmetry_equiv_pos_as_xyz
  1  'x, y, z'
loop_
 _atom_site_type_symbol
 _atom_site_label
 _atom_site_symmetry_multiplicity
 _atom_site_fract_x
 _atom_site_fract_y
 _atom_site_fract_z
 _atom_site_occupancy
  Fe  Fe0  1  0.466116  0.872528  0.501171  1
  Fe  Fe1  1  0.465992  0.706267  0.001432  1
  Fe  Fe2  1  0.966995  0.205968  0.000598  1
  Co  Co3  1  0.965868  0.370559  0.500988  1
  H  H4  1  0.721528  0.038424  0.258313  1
  H  H5  1  0.214286  0.037055  0.747714  1
  H  H6  1  0.216541  0.540296  0.252917  1
  H  H7  1  0.714039  0.542981  0.748443  1
