# generated using pymatgen
data_Sm7Sn23Ir6
_symmetry_space_group_name_H-M   'P 1'
_cell_length_a   9.94498100
_cell_length_b   9.94498109
_cell_length_c   10.18493800
_cell_angle_alpha   90.00000000
_cell_angle_beta   90.00000000
_cell_angle_gamma   120.00000303
_symmetry_Int_Tables_number   1
_chemical_formula_structural   Sm7Sn23Ir6
_chemical_formula_sum   'Sm7 Sn23 Ir6'
_cell_volume   872.36237743
_cell_formula_units_Z   1
loop_
 _symmetry_equiv_pos_site_id
 _symmetry_equiv_pos_as_xyz
  1  'x, y, z'
loop_
 _atom_site_type_symbol
 _atom_site_label
 _atom_site_symmetry_multiplicity
 _atom_site_fract_x
 _atom_site_fract_y
 _atom_site_fract_z
 _atom_site_occupancy
  Sm  Sm0  1  0.000000  0.000000  0.000000  1
  Sm  Sm1  1  0.478888  0.521112  0.306574  1
  Sm  Sm2  1  0.521112  0.478888  0.693426  1
  Sm  Sm3  1  0.478888  0.957775  0.306574  1
  Sm  Sm4  1  0.521112  0.042225  0.693426  1
  Sm  Sm5  1  0.042225  0.521112  0.306574  1
  Sm  Sm6  1  0.957775  0.478888  0.693426  1
  Sn  Sn7  1  0.352097  0.000000  0.000000  1
  Sn  Sn8  1  0.647903  0.000000  0.000000  1
  Sn  Sn9  1  0.000000  0.352097  0.000000  1
  Sn  Sn10  1  0.000000  0.647903  0.000000  1
  Sn  Sn11  1  0.647903  0.647903  0.000000  1
  Sn  Sn12  1  0.352097  0.352097  0.000000  1
  Sn  Sn13  1  0.333333  0.666667  0.824633  1
  Sn  Sn14  1  0.666667  0.333333  0.175367  1
  Sn  Sn15  1  0.000000  0.000000  0.500000  1
  Sn  Sn16  1  0.778406  0.221594  0.454777  1
  Sn  Sn17  1  0.221594  0.778406  0.545223  1
  Sn  Sn18  1  0.778406  0.556811  0.454777  1
  Sn  Sn19  1  0.221594  0.443189  0.545223  1
  Sn  Sn20  1  0.443189  0.221594  0.454777  1
  Sn  Sn21  1  0.556811  0.778406  0.545223  1
  Sn  Sn22  1  0.333333  0.666667  0.117614  1
  Sn  Sn23  1  0.666667  0.333333  0.882386  1
  Sn  Sn24  1  0.117745  0.882255  0.283118  1
  Sn  Sn25  1  0.882255  0.117745  0.716882  1
  Sn  Sn26  1  0.117745  0.235492  0.283118  1
  Sn  Sn27  1  0.882255  0.764508  0.716882  1
  Sn  Sn28  1  0.764508  0.882255  0.283118  1
  Sn  Sn29  1  0.235492  0.117745  0.716882  1
  Ir  Ir30  1  0.831712  0.168288  0.197771  1
  Ir  Ir31  1  0.168288  0.831712  0.802229  1
  Ir  Ir32  1  0.831712  0.663423  0.197771  1
  Ir  Ir33  1  0.168288  0.336577  0.802229  1
  Ir  Ir34  1  0.336577  0.168288  0.197771  1
  Ir  Ir35  1  0.663423  0.831712  0.802229  1
