# generated using pymatgen
data_Dy5Pa(Ni3As2)6
_symmetry_space_group_name_H-M   'P 1'
_cell_length_a   3.90736700
_cell_length_b   10.84080500
_cell_length_c   12.74466500
_cell_angle_alpha   90.00000000
_cell_angle_beta   90.00000000
_cell_angle_gamma   90.00000000
_symmetry_Int_Tables_number   1
_chemical_formula_structural   Dy5Pa(Ni3As2)6
_chemical_formula_sum   'Dy5 Pa1 Ni18 As12'
_cell_volume   539.85131202
_cell_formula_units_Z   1
loop_
 _symmetry_equiv_pos_site_id
 _symmetry_equiv_pos_as_xyz
  1  'x, y, z'
loop_
 _atom_site_type_symbol
 _atom_site_label
 _atom_site_symmetry_multiplicity
 _atom_site_fract_x
 _atom_site_fract_y
 _atom_site_fract_z
 _atom_site_occupancy
  Dy  Dy0  1  0.500000  0.000000  0.477549  1
  Dy  Dy1  1  0.500000  0.815607  0.206924  1
  Dy  Dy2  1  0.500000  0.184393  0.206924  1
  Dy  Dy3  1  0.000000  0.684090  0.793413  1
  Dy  Dy4  1  0.000000  0.315910  0.793413  1
  Pa  Pa5  1  0.000000  0.500000  0.523938  1
  Ni  Ni6  1  0.500000  0.500000  0.153072  1
  Ni  Ni7  1  0.000000  0.000000  0.844799  1
  Ni  Ni8  1  0.500000  0.500000  0.694017  1
  Ni  Ni9  1  0.000000  0.000000  0.301385  1
  Ni  Ni10  1  0.000000  0.500000  0.981366  1
  Ni  Ni11  1  0.500000  0.000000  0.018829  1
  Ni  Ni12  1  0.500000  0.332675  0.996585  1
  Ni  Ni13  1  0.500000  0.667325  0.996585  1
  Ni  Ni14  1  0.000000  0.167568  0.003051  1
  Ni  Ni15  1  0.000000  0.832432  0.003051  1
  Ni  Ni16  1  0.500000  0.303709  0.428506  1
  Ni  Ni17  1  0.500000  0.696291  0.428506  1
  Ni  Ni18  1  0.000000  0.198114  0.571907  1
  Ni  Ni19  1  0.000000  0.801886  0.571907  1
  Ni  Ni20  1  0.500000  0.881042  0.709486  1
  Ni  Ni21  1  0.500000  0.118958  0.709486  1
  Ni  Ni22  1  0.000000  0.620084  0.293863  1
  Ni  Ni23  1  0.000000  0.379916  0.293863  1
  As  As24  1  0.500000  0.500000  0.874445  1
  As  As25  1  0.000000  0.000000  0.124124  1
  As  As26  1  0.500000  0.500000  0.341679  1
  As  As27  1  0.000000  0.000000  0.655284  1
  As  As28  1  0.500000  0.309789  0.613995  1
  As  As29  1  0.500000  0.690211  0.613995  1
  As  As30  1  0.000000  0.186191  0.386289  1
  As  As31  1  0.000000  0.813809  0.386289  1
  As  As32  1  0.500000  0.848259  0.891194  1
  As  As33  1  0.500000  0.151741  0.891194  1
  As  As34  1  0.000000  0.651892  0.109544  1
  As  As35  1  0.000000  0.348108  0.109544  1
