# generated using pymatgen
data_Ti10Al2Sn5Sb
_symmetry_space_group_name_H-M   'P 1'
_cell_length_a   8.28474900
_cell_length_b   8.26750740
_cell_length_c   5.55840100
_cell_angle_alpha   90.00000000
_cell_angle_beta   90.00000000
_cell_angle_gamma   120.06901465
_symmetry_Int_Tables_number   1
_chemical_formula_structural   Ti10Al2Sn5Sb
_chemical_formula_sum   'Ti10 Al2 Sn5 Sb1'
_cell_volume   329.48223959
_cell_formula_units_Z   1
loop_
 _symmetry_equiv_pos_site_id
 _symmetry_equiv_pos_as_xyz
  1  'x, y, z'
loop_
 _atom_site_type_symbol
 _atom_site_label
 _atom_site_symmetry_multiplicity
 _atom_site_fract_x
 _atom_site_fract_y
 _atom_site_fract_z
 _atom_site_occupancy
  Ti  Ti0  1  0.273455  0.000000  0.750000  1
  Ti  Ti1  1  0.727120  0.000000  0.250000  1
  Ti  Ti2  1  0.997286  0.269645  0.750000  1
  Ti  Ti3  1  0.000247  0.727559  0.250000  1
  Ti  Ti4  1  0.727641  0.730355  0.750000  1
  Ti  Ti5  1  0.272689  0.272441  0.250000  1
  Ti  Ti6  1  0.334563  0.668261  0.499933  1
  Ti  Ti7  1  0.666303  0.331739  0.499933  1
  Ti  Ti8  1  0.666303  0.331739  0.000067  1
  Ti  Ti9  1  0.334563  0.668261  0.000067  1
  Al  Al10  1  0.001612  0.000000  0.499121  1
  Al  Al11  1  0.001612  0.000000  0.000879  1
  Sn  Sn12  1  0.383493  0.000000  0.250000  1
  Sn  Sn13  1  0.999380  0.614710  0.750000  1
  Sn  Sn14  1  0.001058  0.385795  0.250000  1
  Sn  Sn15  1  0.384668  0.385290  0.750000  1
  Sn  Sn16  1  0.615264  0.614205  0.250000  1
  Sb  Sb17  1  0.612745  0.000000  0.750000  1
