# generated using pymatgen
data_Nd2Lu3Ga3Si
_symmetry_space_group_name_H-M   'P 1'
_cell_length_a   7.50648200
_cell_length_b   15.16782800
_cell_length_c   7.92646200
_cell_angle_alpha   90.00000000
_cell_angle_beta   90.00000000
_cell_angle_gamma   90.00000000
_symmetry_Int_Tables_number   1
_chemical_formula_structural   Nd2Lu3Ga3Si
_chemical_formula_sum   'Nd8 Lu12 Ga12 Si4'
_cell_volume   902.48340477
_cell_formula_units_Z   4
loop_
 _symmetry_equiv_pos_site_id
 _symmetry_equiv_pos_as_xyz
  1  'x, y, z'
loop_
 _atom_site_type_symbol
 _atom_site_label
 _atom_site_symmetry_multiplicity
 _atom_site_fract_x
 _atom_site_fract_y
 _atom_site_fract_z
 _atom_site_occupancy
  Nd  Nd0  1  0.016615  0.094667  0.175698  1
  Nd  Nd1  1  0.016615  0.405333  0.175698  1
  Nd  Nd2  1  0.516615  0.094667  0.324302  1
  Nd  Nd3  1  0.516615  0.405333  0.324302  1
  Nd  Nd4  1  0.480611  0.598130  0.681015  1
  Nd  Nd5  1  0.480611  0.901870  0.681015  1
  Nd  Nd6  1  0.980612  0.598130  0.818985  1
  Nd  Nd7  1  0.980612  0.901870  0.818985  1
  Lu  Lu8  1  0.339659  0.250000  0.007829  1
  Lu  Lu9  1  0.323611  0.621805  0.173429  1
  Lu  Lu10  1  0.323611  0.878194  0.173429  1
  Lu  Lu11  1  0.823610  0.621805  0.326571  1
  Lu  Lu12  1  0.823610  0.878194  0.326571  1
  Lu  Lu13  1  0.839659  0.250000  0.492171  1
  Lu  Lu14  1  0.155700  0.750000  0.510880  1
  Lu  Lu15  1  0.176677  0.123141  0.677590  1
  Lu  Lu16  1  0.176677  0.376858  0.677590  1
  Lu  Lu17  1  0.676677  0.123141  0.822410  1
  Lu  Lu18  1  0.676677  0.376858  0.822410  1
  Lu  Lu19  1  0.655700  0.750000  0.989120  1
  Ga  Ga20  1  0.654703  0.541119  0.031222  1
  Ga  Ga21  1  0.654703  0.958881  0.031222  1
  Ga  Ga22  1  0.028244  0.750000  0.110168  1
  Ga  Ga23  1  0.731404  0.250000  0.120294  1
  Ga  Ga24  1  0.231403  0.250000  0.379706  1
  Ga  Ga25  1  0.528244  0.750000  0.389832  1
  Ga  Ga26  1  0.154703  0.541119  0.468779  1
  Ga  Ga27  1  0.154703  0.958881  0.468779  1
  Ga  Ga28  1  0.847697  0.040880  0.533451  1
  Ga  Ga29  1  0.847697  0.459119  0.533451  1
  Ga  Ga30  1  0.347696  0.040880  0.966548  1
  Ga  Ga31  1  0.347696  0.459119  0.966548  1
  Si  Si32  1  0.470796  0.250000  0.618253  1
  Si  Si33  1  0.774375  0.750000  0.619128  1
  Si  Si34  1  0.274375  0.750000  0.880872  1
  Si  Si35  1  0.970795  0.250000  0.881747  1
