# generated using pymatgen
data_NaB9PbO15
_symmetry_space_group_name_H-M   'P 1'
_cell_length_a   8.58019862
_cell_length_b   8.58019810
_cell_length_c   8.58019800
_cell_angle_alpha   79.42582160
_cell_angle_beta   79.42582225
_cell_angle_gamma   79.42582233
_symmetry_Int_Tables_number   1
_chemical_formula_structural   NaB9PbO15
_chemical_formula_sum   'Na2 B18 Pb2 O30'
_cell_volume   603.01848512
_cell_formula_units_Z   2
loop_
 _symmetry_equiv_pos_site_id
 _symmetry_equiv_pos_as_xyz
  1  'x, y, z'
loop_
 _atom_site_type_symbol
 _atom_site_label
 _atom_site_symmetry_multiplicity
 _atom_site_fract_x
 _atom_site_fract_y
 _atom_site_fract_z
 _atom_site_occupancy
  Na  Na0  1  0.290361  0.290361  0.290361  1
  Na  Na1  1  0.790361  0.790361  0.790361  1
  B  B2  1  0.567607  0.710435  0.056542  1
  B  B3  1  0.556542  0.210435  0.067606  1
  B  B4  1  0.281789  0.718331  0.157008  1
  B  B5  1  0.067607  0.556541  0.210435  1
  B  B6  1  0.781790  0.657008  0.218331  1
  B  B7  1  0.887646  0.369171  0.219543  1
  B  B8  1  0.718331  0.157008  0.281789  1
  B  B9  1  0.219543  0.887646  0.369170  1
  B  B10  1  0.719543  0.869171  0.387646  1
  B  B11  1  0.210435  0.067607  0.556542  1
  B  B12  1  0.710435  0.056542  0.567606  1
  B  B13  1  0.218331  0.781790  0.657008  1
  B  B14  1  0.056542  0.567607  0.710435  1
  B  B15  1  0.157008  0.281789  0.718331  1
  B  B16  1  0.869171  0.387646  0.719543  1
  B  B17  1  0.657008  0.218331  0.781790  1
  B  B18  1  0.387646  0.719543  0.869171  1
  B  B19  1  0.369170  0.219543  0.887646  1
  Pb  Pb20  1  0.512560  0.512560  0.512560  1
  Pb  Pb21  1  0.012560  0.012560  0.012560  1
  O  O22  1  0.399841  0.209135  0.042926  1
  O  O23  1  0.717076  0.731680  0.071201  1
  O  O24  1  0.448414  0.692487  0.183026  1
  O  O25  1  0.948414  0.683027  0.192486  1
  O  O26  1  0.867746  0.220628  0.197492  1
  O  O27  1  0.042927  0.399841  0.209134  1
  O  O28  1  0.571201  0.231680  0.217075  1
  O  O29  1  0.197492  0.867746  0.220627  1
  O  O30  1  0.217076  0.571200  0.231681  1
  O  O31  1  0.760775  0.486183  0.252200  1
  O  O32  1  0.752200  0.986183  0.260775  1
  O  O33  1  0.697493  0.720628  0.367746  1
  O  O34  1  0.209135  0.042927  0.399841  1
  O  O35  1  0.692486  0.183026  0.448414  1
  O  O36  1  0.252200  0.760775  0.486183  1
  O  O37  1  0.709135  0.899841  0.542926  1
  O  O38  1  0.231680  0.217076  0.571201  1
  O  O39  1  0.192487  0.948414  0.683026  1
  O  O40  1  0.183026  0.448414  0.692486  1
  O  O41  1  0.720627  0.367746  0.697492  1
  O  O42  1  0.899841  0.542927  0.709134  1
  O  O43  1  0.731680  0.071201  0.717076  1
  O  O44  1  0.367746  0.697492  0.720628  1
  O  O45  1  0.071201  0.717076  0.731680  1
  O  O46  1  0.986183  0.260775  0.752200  1
  O  O47  1  0.486183  0.252200  0.760775  1
  O  O48  1  0.220627  0.197492  0.867746  1
  O  O49  1  0.542927  0.709135  0.899841  1
  O  O50  1  0.683026  0.192487  0.948414  1
  O  O51  1  0.260775  0.752200  0.986183  1
