# generated using pymatgen
data_Hf5BPb3
_symmetry_space_group_name_H-M   'P 1'
_cell_length_a   8.62400145
_cell_length_b   8.61680346
_cell_length_c   5.83142600
_cell_angle_alpha   90.00000000
_cell_angle_beta   90.00000000
_cell_angle_gamma   119.97238705
_symmetry_Int_Tables_number   1
_chemical_formula_structural   Hf5BPb3
_chemical_formula_sum   'Hf10 B2 Pb6'
_cell_volume   375.38868853
_cell_formula_units_Z   2
loop_
 _symmetry_equiv_pos_site_id
 _symmetry_equiv_pos_as_xyz
  1  'x, y, z'
loop_
 _atom_site_type_symbol
 _atom_site_label
 _atom_site_symmetry_multiplicity
 _atom_site_fract_x
 _atom_site_fract_y
 _atom_site_fract_z
 _atom_site_occupancy
  Hf  Hf0  1  0.666974  0.333338  0.000123  1
  Hf  Hf1  1  0.333026  0.666365  0.000123  1
  Hf  Hf2  1  0.333026  0.666365  0.499877  1
  Hf  Hf3  1  0.666974  0.333338  0.499877  1
  Hf  Hf4  1  0.779323  0.779129  0.750000  1
  Hf  Hf5  1  0.220677  0.999805  0.750000  1
  Hf  Hf6  1  0.000000  0.221174  0.750000  1
  Hf  Hf7  1  0.220733  0.221113  0.250000  1
  Hf  Hf8  1  0.779267  0.000380  0.250000  1
  Hf  Hf9  1  0.000000  0.778863  0.250000  1
  B  B10  1  0.000000  0.000068  0.000052  1
  B  B11  1  0.000000  0.000068  0.499948  1
  Pb  Pb12  1  0.000000  0.398780  0.250000  1
  Pb  Pb13  1  0.398804  0.398463  0.750000  1
  Pb  Pb14  1  0.601196  0.999659  0.750000  1
  Pb  Pb15  1  0.000000  0.601294  0.750000  1
  Pb  Pb16  1  0.601595  0.601696  0.250000  1
  Pb  Pb17  1  0.398405  0.000101  0.250000  1
