# generated using pymatgen
data_Nd3BeCo2Si7
_symmetry_space_group_name_H-M   'P 1'
_cell_length_a   13.13729474
_cell_length_b   13.13729415
_cell_length_c   4.04349900
_cell_angle_alpha   90.00000000
_cell_angle_beta   90.00000000
_cell_angle_gamma   161.61212469
_symmetry_Int_Tables_number   1
_chemical_formula_structural   Nd3BeCo2Si7
_chemical_formula_sum   'Nd3 Be1 Co2 Si7'
_cell_volume   220.13916075
_cell_formula_units_Z   1
loop_
 _symmetry_equiv_pos_site_id
 _symmetry_equiv_pos_as_xyz
  1  'x, y, z'
loop_
 _atom_site_type_symbol
 _atom_site_label
 _atom_site_symmetry_multiplicity
 _atom_site_fract_x
 _atom_site_fract_y
 _atom_site_fract_z
 _atom_site_occupancy
  Nd  Nd0  1  0.004605  0.995395  0.000000  1
  Nd  Nd1  1  0.686360  0.313640  0.500000  1
  Nd  Nd2  1  0.321493  0.678507  0.500000  1
  Be  Be3  1  0.860418  0.139582  0.000000  1
  Co  Co4  1  0.133986  0.866014  0.000000  1
  Co  Co5  1  0.450237  0.549763  0.500000  1
  Si  Si6  1  0.595394  0.404606  0.000000  1
  Si  Si7  1  0.408057  0.591943  0.000000  1
  Si  Si8  1  0.772027  0.227973  0.000000  1
  Si  Si9  1  0.225774  0.774226  0.000000  1
  Si  Si10  1  0.910656  0.089344  0.500000  1
  Si  Si11  1  0.093719  0.906281  0.500000  1
  Si  Si12  1  0.537276  0.462724  0.500000  1
