# generated using pymatgen
data_Sr4PrNp5O18
_symmetry_space_group_name_H-M   'P 1'
_cell_length_a   6.97175216
_cell_length_b   7.73369937
_cell_length_c   8.71137747
_cell_angle_alpha   100.63532033
_cell_angle_beta   97.79707253
_cell_angle_gamma   107.41126292
_symmetry_Int_Tables_number   1
_chemical_formula_structural   Sr4PrNp5O18
_chemical_formula_sum   'Sr4 Pr1 Np5 O18'
_cell_volume   431.25377557
_cell_formula_units_Z   1
loop_
 _symmetry_equiv_pos_site_id
 _symmetry_equiv_pos_as_xyz
  1  'x, y, z'
loop_
 _atom_site_type_symbol
 _atom_site_label
 _atom_site_symmetry_multiplicity
 _atom_site_fract_x
 _atom_site_fract_y
 _atom_site_fract_z
 _atom_site_occupancy
  Sr  Sr0  1  0.597646  0.694405  0.193825  1
  Sr  Sr1  1  0.403046  0.304544  0.806334  1
  Sr  Sr2  1  0.198793  0.896509  0.416668  1
  Sr  Sr3  1  0.000587  0.501092  0.000385  1
  Pr  Pr4  1  0.806046  0.112190  0.579771  1
  Np  Np5  1  0.997887  0.998761  0.999029  1
  Np  Np6  1  0.787784  0.580449  0.585090  1
  Np  Np7  1  0.621360  0.196395  0.193546  1
  Np  Np8  1  0.380888  0.802805  0.804345  1
  Np  Np9  1  0.213099  0.423688  0.415966  1
  O  O10  1  0.824716  0.797488  0.473470  1
  O  O11  1  0.017071  0.229325  0.176070  1
  O  O12  1  0.665537  0.395285  0.070191  1
  O  O13  1  0.468278  0.999274  0.679160  1
  O  O14  1  0.861103  0.341295  0.421419  1
  O  O15  1  0.500359  0.391152  0.350544  1
  O  O16  1  0.249553  0.608328  0.281408  1
  O  O17  1  0.977616  0.825881  0.147794  1
  O  O18  1  0.667677  0.943442  0.992003  1
  O  O19  1  0.329071  0.055572  0.007327  1
  O  O20  1  0.013336  0.169722  0.842989  1
  O  O21  1  0.751514  0.385450  0.717038  1
  O  O22  1  0.502193  0.606755  0.651923  1
  O  O23  1  0.136057  0.650978  0.583034  1
  O  O24  1  0.552074  0.002568  0.323540  1
  O  O25  1  0.334250  0.604457  0.928934  1
  O  O26  1  0.977204  0.768531  0.822306  1
  O  O27  1  0.165259  0.213659  0.535889  1
