# generated using pymatgen
data_Hf4AlFe6Ge
_symmetry_space_group_name_H-M   'P 1'
_cell_length_a   5.00363876
_cell_length_b   5.00268350
_cell_length_c   8.12570949
_cell_angle_alpha   89.99620140
_cell_angle_beta   89.90512642
_cell_angle_gamma   59.99750143
_symmetry_Int_Tables_number   1
_chemical_formula_structural   Hf4AlFe6Ge
_chemical_formula_sum   'Hf4 Al1 Fe6 Ge1'
_cell_volume   176.14454614
_cell_formula_units_Z   1
loop_
 _symmetry_equiv_pos_site_id
 _symmetry_equiv_pos_as_xyz
  1  'x, y, z'
loop_
 _atom_site_type_symbol
 _atom_site_label
 _atom_site_symmetry_multiplicity
 _atom_site_fract_x
 _atom_site_fract_y
 _atom_site_fract_z
 _atom_site_occupancy
  Hf  Hf0  1  0.333295  0.333377  0.565529  1
  Hf  Hf1  1  0.666705  0.666623  0.434471  1
  Hf  Hf2  1  0.666661  0.666664  0.064236  1
  Hf  Hf3  1  0.333339  0.333336  0.935764  1
  Al  Al4  1  0.000000  0.000000  0.000000  1
  Fe  Fe5  1  0.827325  0.345304  0.749713  1
  Fe  Fe6  1  0.345292  0.827339  0.749753  1
  Fe  Fe7  1  0.827341  0.827330  0.749685  1
  Fe  Fe8  1  0.172675  0.654696  0.250287  1
  Fe  Fe9  1  0.654708  0.172661  0.250247  1
  Fe  Fe10  1  0.172659  0.172670  0.250315  1
  Ge  Ge11  1  0.000000  0.000000  0.500000  1
