# generated using pymatgen
data_V9Ni7P6
_symmetry_space_group_name_H-M   'P 1'
_cell_length_a   6.90495157
_cell_length_b   6.88729921
_cell_length_c   6.87059430
_cell_angle_alpha   69.47408801
_cell_angle_beta   74.08999134
_cell_angle_gamma   59.76718812
_symmetry_Int_Tables_number   1
_chemical_formula_structural   V9Ni7P6
_chemical_formula_sum   'V9 Ni7 P6'
_cell_volume   262.44828124
_cell_formula_units_Z   1
loop_
 _symmetry_equiv_pos_site_id
 _symmetry_equiv_pos_as_xyz
  1  'x, y, z'
loop_
 _atom_site_type_symbol
 _atom_site_label
 _atom_site_symmetry_multiplicity
 _atom_site_fract_x
 _atom_site_fract_y
 _atom_site_fract_z
 _atom_site_occupancy
  V  V0  1  0.059092  0.123788  0.574593  1
  V  V1  1  0.940908  0.876212  0.425407  1
  V  V2  1  0.301882  0.051814  0.155643  1
  V  V3  1  0.698118  0.948186  0.844357  1
  V  V4  1  0.066663  0.547223  0.143024  1
  V  V5  1  0.933337  0.452777  0.856976  1
  V  V6  1  0.570841  0.283151  0.140550  1
  V  V7  1  0.429159  0.716849  0.859450  1
  V  V8  1  0.000000  0.000000  0.000000  1
  Ni  Ni9  1  0.645802  0.620462  0.160223  1
  Ni  Ni10  1  0.354198  0.379538  0.839777  1
  Ni  Ni11  1  0.209870  0.421868  0.494383  1
  Ni  Ni12  1  0.790130  0.578132  0.505617  1
  Ni  Ni13  1  0.500000  0.000000  0.500000  1
  Ni  Ni14  1  0.637688  0.279438  0.499842  1
  Ni  Ni15  1  0.362312  0.720562  0.500158  1
  P  P16  1  0.296744  0.122420  0.782428  1
  P  P17  1  0.703256  0.877580  0.217572  1
  P  P18  1  0.297896  0.669558  0.225374  1
  P  P19  1  0.702104  0.330442  0.774626  1
  P  P20  1  0.909499  0.261361  0.234598  1
  P  P21  1  0.090501  0.738639  0.765402  1
