# generated using pymatgen
data_Lu2GaB2Ru2Rh3
_symmetry_space_group_name_H-M   'P 1'
_cell_length_a   9.52588426
_cell_length_b   9.51519026
_cell_length_c   3.08382400
_cell_angle_alpha   90.00000000
_cell_angle_beta   90.00000000
_cell_angle_gamma   90.02663624
_symmetry_Int_Tables_number   1
_chemical_formula_structural   Lu2GaB2Ru2Rh3
_chemical_formula_sum   'Lu4 Ga2 B4 Ru4 Rh6'
_cell_volume   279.51963077
_cell_formula_units_Z   2
loop_
 _symmetry_equiv_pos_site_id
 _symmetry_equiv_pos_as_xyz
  1  'x, y, z'
loop_
 _atom_site_type_symbol
 _atom_site_label
 _atom_site_symmetry_multiplicity
 _atom_site_fract_x
 _atom_site_fract_y
 _atom_site_fract_z
 _atom_site_occupancy
  Lu  Lu0  1  0.829720  0.322997  0.000000  1
  Lu  Lu1  1  0.321385  0.174050  0.000000  1
  Lu  Lu2  1  0.672773  0.823677  0.000000  1
  Lu  Lu3  1  0.176076  0.677454  0.000000  1
  Ga  Ga4  1  0.003441  0.001999  0.000000  1
  Ga  Ga5  1  0.499116  0.499483  0.000000  1
  B  B6  1  0.621602  0.119340  0.000000  1
  B  B7  1  0.117800  0.374033  0.000000  1
  B  B8  1  0.879309  0.621594  0.000000  1
  B  B9  1  0.374045  0.882487  0.000000  1
  Ru  Ru10  1  0.069773  0.217506  0.500000  1
  Ru  Ru11  1  0.217678  0.929610  0.500000  1
  Ru  Ru12  1  0.500935  0.000602  0.500000  1
  Ru  Ru13  1  0.000559  0.502971  0.500000  1
  Rh  Rh14  1  0.784145  0.068351  0.500000  1
  Rh  Rh15  1  0.928582  0.784467  0.500000  1
  Rh  Rh16  1  0.431080  0.715699  0.500000  1
  Rh  Rh17  1  0.572225  0.283090  0.500000  1
  Rh  Rh18  1  0.716943  0.568938  0.500000  1
  Rh  Rh19  1  0.282812  0.431652  0.500000  1
