# generated using pymatgen
data_Zr9Re3NiMo
_symmetry_space_group_name_H-M   'P 1'
_cell_length_a   8.73812500
_cell_length_b   8.73812505
_cell_length_c   8.49709000
_cell_angle_alpha   90.00000000
_cell_angle_beta   90.00000000
_cell_angle_gamma   120.00000360
_symmetry_Int_Tables_number   1
_chemical_formula_structural   Zr9Re3NiMo
_chemical_formula_sum   'Zr18 Re6 Ni2 Mo2'
_cell_volume   561.87193859
_cell_formula_units_Z   2
loop_
 _symmetry_equiv_pos_site_id
 _symmetry_equiv_pos_as_xyz
  1  'x, y, z'
loop_
 _atom_site_type_symbol
 _atom_site_label
 _atom_site_symmetry_multiplicity
 _atom_site_fract_x
 _atom_site_fract_y
 _atom_site_fract_z
 _atom_site_occupancy
  Zr  Zr0  1  0.198291  0.801709  0.443414  1
  Zr  Zr1  1  0.198291  0.396581  0.443414  1
  Zr  Zr2  1  0.603419  0.801709  0.443414  1
  Zr  Zr3  1  0.801709  0.198291  0.556586  1
  Zr  Zr4  1  0.801709  0.603419  0.556586  1
  Zr  Zr5  1  0.396581  0.198291  0.556586  1
  Zr  Zr6  1  0.801709  0.198291  0.943414  1
  Zr  Zr7  1  0.801709  0.603419  0.943414  1
  Zr  Zr8  1  0.396581  0.198291  0.943414  1
  Zr  Zr9  1  0.198291  0.801709  0.056586  1
  Zr  Zr10  1  0.198291  0.396581  0.056586  1
  Zr  Zr11  1  0.603419  0.801709  0.056586  1
  Zr  Zr12  1  0.541804  0.458196  0.250000  1
  Zr  Zr13  1  0.541804  0.083610  0.250000  1
  Zr  Zr14  1  0.916390  0.458196  0.250000  1
  Zr  Zr15  1  0.458196  0.541804  0.750000  1
  Zr  Zr16  1  0.458196  0.916390  0.750000  1
  Zr  Zr17  1  0.083610  0.541804  0.750000  1
  Re  Re18  1  0.890962  0.109038  0.250000  1
  Re  Re19  1  0.890962  0.781923  0.250000  1
  Re  Re20  1  0.218077  0.109038  0.250000  1
  Re  Re21  1  0.109038  0.890962  0.750000  1
  Re  Re22  1  0.109038  0.218077  0.750000  1
  Re  Re23  1  0.781923  0.890962  0.750000  1
  Ni  Ni24  1  0.333333  0.666667  0.250000  1
  Ni  Ni25  1  0.666667  0.333333  0.750000  1
  Mo  Mo26  1  0.000000  0.000000  0.500000  1
  Mo  Mo27  1  0.000000  0.000000  0.000000  1
