# generated using pymatgen
data_HoTm3Al18NiIr5
_symmetry_space_group_name_H-M   'P 1'
_cell_length_a   7.52887591
_cell_length_b   7.52841356
_cell_length_c   9.39527104
_cell_angle_alpha   90.18418971
_cell_angle_beta   90.17790975
_cell_angle_gamma   119.86964952
_symmetry_Int_Tables_number   1
_chemical_formula_structural   HoTm3Al18NiIr5
_chemical_formula_sum   'Ho1 Tm3 Al18 Ni1 Ir5'
_cell_volume   461.77866168
_cell_formula_units_Z   1
loop_
 _symmetry_equiv_pos_site_id
 _symmetry_equiv_pos_as_xyz
  1  'x, y, z'
loop_
 _atom_site_type_symbol
 _atom_site_label
 _atom_site_symmetry_multiplicity
 _atom_site_fract_x
 _atom_site_fract_y
 _atom_site_fract_z
 _atom_site_occupancy
  Ho  Ho0  1  0.331949  0.004839  0.749950  1
  Tm  Tm1  1  0.995147  0.667992  0.250125  1
  Tm  Tm2  1  0.004786  0.331977  0.749890  1
  Tm  Tm3  1  0.668011  0.995180  0.250111  1
  Al  Al4  1  0.122664  0.122689  0.246400  1
  Al  Al5  1  0.877075  0.877241  0.753593  1
  Al  Al6  1  0.999779  0.331833  0.074942  1
  Al  Al7  1  0.000004  0.667936  0.925135  1
  Al  Al8  1  0.999617  0.666407  0.575132  1
  Al  Al9  1  0.333364  0.000171  0.424590  1
  Al  Al10  1  0.000167  0.333361  0.424783  1
  Al  Al11  1  0.666848  0.999833  0.575118  1
  Al  Al12  1  0.668367  0.000221  0.925151  1
  Al  Al13  1  0.331853  0.999797  0.075143  1
  Al  Al14  1  0.333314  0.333493  0.552641  1
  Al  Al15  1  0.666685  0.666689  0.447241  1
  Al  Al16  1  0.669525  0.669527  0.052094  1
  Al  Al17  1  0.330464  0.330662  0.948028  1
  Al  Al18  1  0.338719  0.546906  0.249621  1
  Al  Al19  1  0.661462  0.453336  0.750380  1
  Al  Al20  1  0.546924  0.338731  0.249627  1
  Al  Al21  1  0.453133  0.661120  0.750377  1
  Ni  Ni22  1  0.999949  0.999996  0.000049  1
  Ir  Ir23  1  0.672388  0.327929  0.000139  1
  Ir  Ir24  1  0.327796  0.672139  0.000125  1
  Ir  Ir25  1  0.327750  0.672176  0.499869  1
  Ir  Ir26  1  0.672406  0.327865  0.499867  1
  Ir  Ir27  1  0.999854  0.999957  0.499882  1
