# generated using pymatgen
data_Sm3Ho(B4Ru)4
_symmetry_space_group_name_H-M   'P 1'
_cell_length_a   3.59077900
_cell_length_b   6.00286685
_cell_length_c   11.61034958
_cell_angle_alpha   90.09000962
_cell_angle_beta   90.00000000
_cell_angle_gamma   90.00000000
_symmetry_Int_Tables_number   1
_chemical_formula_structural   Sm3Ho(B4Ru)4
_chemical_formula_sum   'Sm3 Ho1 B16 Ru4'
_cell_volume   250.26040758
_cell_formula_units_Z   1
loop_
 _symmetry_equiv_pos_site_id
 _symmetry_equiv_pos_as_xyz
  1  'x, y, z'
loop_
 _atom_site_type_symbol
 _atom_site_label
 _atom_site_symmetry_multiplicity
 _atom_site_fract_x
 _atom_site_fract_y
 _atom_site_fract_z
 _atom_site_occupancy
  Sm  Sm0  1  0.000000  0.628224  0.650259  1
  Sm  Sm1  1  0.000000  0.371870  0.349281  1
  Sm  Sm2  1  0.000000  0.128089  0.850120  1
  Ho  Ho3  1  0.000000  0.871688  0.150072  1
  B  B4  1  0.500000  0.976245  0.690571  1
  B  B5  1  0.500000  0.022806  0.307630  1
  B  B6  1  0.500000  0.476375  0.809986  1
  B  B7  1  0.500000  0.525676  0.190684  1
  B  B8  1  0.500000  0.786460  0.815867  1
  B  B9  1  0.500000  0.210236  0.184418  1
  B  B10  1  0.500000  0.286671  0.684653  1
  B  B11  1  0.500000  0.713628  0.313852  1
  B  B12  1  0.500000  0.863033  0.970776  1
  B  B13  1  0.500000  0.136612  0.031646  1
  B  B14  1  0.500000  0.362226  0.530444  1
  B  B15  1  0.500000  0.637992  0.468702  1
  B  B16  1  0.500000  0.889011  0.545614  1
  B  B17  1  0.500000  0.110597  0.453220  1
  B  B18  1  0.500000  0.389406  0.954861  1
  B  B19  1  0.500000  0.613190  0.047289  1
  Ru  Ru20  1  0.000000  0.639599  0.909700  1
  Ru  Ru21  1  0.000000  0.360638  0.092204  1
  Ru  Ru22  1  0.000000  0.138291  0.591365  1
  Ru  Ru23  1  0.000000  0.861436  0.406785  1
