# generated using pymatgen
data_Ce6DyTm(AlRu)8
_symmetry_space_group_name_H-M   'P 1'
_cell_length_a   4.00473900
_cell_length_b   7.29093400
_cell_length_c   15.93697441
_cell_angle_alpha   89.92923838
_cell_angle_beta   90.00000000
_cell_angle_gamma   90.00000000
_symmetry_Int_Tables_number   1
_chemical_formula_structural   Ce6DyTm(AlRu)8
_chemical_formula_sum   'Ce6 Dy1 Tm1 Al8 Ru8'
_cell_volume   465.33200960
_cell_formula_units_Z   1
loop_
 _symmetry_equiv_pos_site_id
 _symmetry_equiv_pos_as_xyz
  1  'x, y, z'
loop_
 _atom_site_type_symbol
 _atom_site_label
 _atom_site_symmetry_multiplicity
 _atom_site_fract_x
 _atom_site_fract_y
 _atom_site_fract_z
 _atom_site_occupancy
  Ce  Ce0  1  0.750000  0.824261  0.438038  1
  Ce  Ce1  1  0.750000  0.455017  0.282711  1
  Ce  Ce2  1  0.750000  0.329059  0.063098  1
  Ce  Ce3  1  0.250000  0.674993  0.938770  1
  Ce  Ce4  1  0.250000  0.047934  0.778900  1
  Ce  Ce5  1  0.250000  0.542262  0.717902  1
  Dy  Dy6  1  0.750000  0.957180  0.218622  1
  Tm  Tm7  1  0.250000  0.159151  0.559466  1
  Al  Al8  1  0.750000  0.488290  0.562403  1
  Al  Al9  1  0.750000  0.371231  0.850402  1
  Al  Al10  1  0.750000  0.006328  0.936890  1
  Al  Al11  1  0.750000  0.872586  0.647928  1
  Al  Al12  1  0.250000  0.486748  0.438382  1
  Al  Al13  1  0.250000  0.996798  0.066549  1
  Al  Al14  1  0.250000  0.637748  0.153299  1
  Al  Al15  1  0.250000  0.124623  0.344987  1
  Ru  Ru16  1  0.750000  0.750788  0.816099  1
  Ru  Ru17  1  0.250000  0.240161  0.938405  1
  Ru  Ru18  1  0.750000  0.263048  0.428025  1
  Ru  Ru19  1  0.250000  0.753443  0.324423  1
  Ru  Ru20  1  0.750000  0.763599  0.062776  1
  Ru  Ru21  1  0.750000  0.248910  0.688713  1
  Ru  Ru22  1  0.250000  0.271313  0.179503  1
  Ru  Ru23  1  0.250000  0.734529  0.563708  1
