# generated using pymatgen
data_Tb4Pr4Dy12Si15Au
_symmetry_space_group_name_H-M   'P 1'
_cell_length_a   7.47606954
_cell_length_b   7.82672313
_cell_length_c   14.79212877
_cell_angle_alpha   89.99279606
_cell_angle_beta   90.21390954
_cell_angle_gamma   90.24557970
_symmetry_Int_Tables_number   1
_chemical_formula_structural   Tb4Pr4Dy12Si15Au
_chemical_formula_sum   'Tb4 Pr4 Dy12 Si15 Au1'
_cell_volume   865.51971261
_cell_formula_units_Z   1
loop_
 _symmetry_equiv_pos_site_id
 _symmetry_equiv_pos_as_xyz
  1  'x, y, z'
loop_
 _atom_site_type_symbol
 _atom_site_label
 _atom_site_symmetry_multiplicity
 _atom_site_fract_x
 _atom_site_fract_y
 _atom_site_fract_z
 _atom_site_occupancy
  Tb  Tb0  1  0.519598  0.318944  0.100014  1
  Tb  Tb1  1  0.024572  0.185446  0.399399  1
  Tb  Tb2  1  0.521357  0.318595  0.402484  1
  Tb  Tb3  1  0.477411  0.681039  0.594780  1
  Pr  Pr4  1  0.019703  0.181604  0.098969  1
  Pr  Pr5  1  0.980692  0.817420  0.907804  1
  Pr  Pr6  1  0.483014  0.677295  0.906762  1
  Pr  Pr7  1  0.980299  0.816652  0.589842  1
  Dy  Dy8  1  0.151472  0.517159  0.749489  1
  Dy  Dy9  1  0.845818  0.488534  0.249945  1
  Dy  Dy10  1  0.344735  0.013831  0.250722  1
  Dy  Dy11  1  0.657848  0.988897  0.749333  1
  Dy  Dy12  1  0.321986  0.178060  0.620466  1
  Dy  Dy13  1  0.676732  0.821191  0.375705  1
  Dy  Dy14  1  0.180927  0.677647  0.376367  1
  Dy  Dy15  1  0.677210  0.822798  0.127169  1
  Dy  Dy16  1  0.818771  0.323928  0.618971  1
  Dy  Dy17  1  0.324018  0.178740  0.878023  1
  Dy  Dy18  1  0.817015  0.326627  0.878235  1
  Dy  Dy19  1  0.179524  0.677767  0.124930  1
  Si  Si20  1  0.974204  0.891095  0.252364  1
  Si  Si21  1  0.473622  0.603930  0.251624  1
  Si  Si22  1  0.525896  0.392972  0.747308  1
  Si  Si23  1  0.280803  0.872175  0.747820  1
  Si  Si24  1  0.723615  0.128175  0.253435  1
  Si  Si25  1  0.229276  0.373943  0.252116  1
  Si  Si26  1  0.764957  0.620918  0.746566  1
  Si  Si27  1  0.151931  0.466906  0.536715  1
  Si  Si28  1  0.851061  0.525059  0.456641  1
  Si  Si29  1  0.351609  0.970561  0.459473  1
  Si  Si30  1  0.845021  0.530329  0.041654  1
  Si  Si31  1  0.646144  0.029742  0.538049  1
  Si  Si32  1  0.148313  0.468423  0.962177  1
  Si  Si33  1  0.650375  0.035802  0.964477  1
  Si  Si34  1  0.354951  0.971671  0.040828  1
  Au  Au35  1  0.025524  0.106125  0.749346  1
