# generated using pymatgen
data_CeNd9(Sn5Rh2)4
_symmetry_space_group_name_H-M   'P 1'
_cell_length_a   14.22000100
_cell_length_b   14.22000100
_cell_length_c   4.63536600
_cell_angle_alpha   90.00000000
_cell_angle_beta   90.00000000
_cell_angle_gamma   90.00000000
_symmetry_Int_Tables_number   1
_chemical_formula_structural   CeNd9(Sn5Rh2)4
_chemical_formula_sum   'Ce1 Nd9 Sn20 Rh8'
_cell_volume   937.31007410
_cell_formula_units_Z   1
loop_
 _symmetry_equiv_pos_site_id
 _symmetry_equiv_pos_as_xyz
  1  'x, y, z'
loop_
 _atom_site_type_symbol
 _atom_site_label
 _atom_site_symmetry_multiplicity
 _atom_site_fract_x
 _atom_site_fract_y
 _atom_site_fract_z
 _atom_site_occupancy
  Ce  Ce0  1  0.000000  0.000000  0.000000  1
  Nd  Nd1  1  0.500000  0.500000  0.000000  1
  Nd  Nd2  1  0.678432  0.178376  0.500000  1
  Nd  Nd3  1  0.321568  0.821624  0.500000  1
  Nd  Nd4  1  0.178376  0.321568  0.500000  1
  Nd  Nd5  1  0.821624  0.678432  0.500000  1
  Nd  Nd6  1  0.888749  0.388706  0.500000  1
  Nd  Nd7  1  0.111251  0.611294  0.500000  1
  Nd  Nd8  1  0.388706  0.111251  0.500000  1
  Nd  Nd9  1  0.611294  0.888749  0.500000  1
  Sn  Sn10  1  0.569497  0.069648  0.000000  1
  Sn  Sn11  1  0.430503  0.930352  0.000000  1
  Sn  Sn12  1  0.069648  0.430503  0.000000  1
  Sn  Sn13  1  0.930352  0.569497  0.000000  1
  Sn  Sn14  1  0.652887  0.698693  0.000000  1
  Sn  Sn15  1  0.347113  0.301307  0.000000  1
  Sn  Sn16  1  0.152481  0.801333  0.000000  1
  Sn  Sn17  1  0.847519  0.198667  0.000000  1
  Sn  Sn18  1  0.301307  0.652887  0.000000  1
  Sn  Sn19  1  0.698693  0.347113  0.000000  1
  Sn  Sn20  1  0.198667  0.152481  0.000000  1
  Sn  Sn21  1  0.801333  0.847519  0.000000  1
  Sn  Sn22  1  0.663227  0.504084  0.500000  1
  Sn  Sn23  1  0.336773  0.495916  0.500000  1
  Sn  Sn24  1  0.162042  0.995633  0.500000  1
  Sn  Sn25  1  0.837958  0.004367  0.500000  1
  Sn  Sn26  1  0.495916  0.663227  0.500000  1
  Sn  Sn27  1  0.504084  0.336773  0.500000  1
  Sn  Sn28  1  0.004367  0.162042  0.500000  1
  Sn  Sn29  1  0.995633  0.837958  0.500000  1
  Rh  Rh30  1  0.745951  0.529228  0.000000  1
  Rh  Rh31  1  0.254049  0.470772  0.000000  1
  Rh  Rh32  1  0.245472  0.970410  0.000000  1
  Rh  Rh33  1  0.754528  0.029590  0.000000  1
  Rh  Rh34  1  0.470772  0.745951  0.000000  1
  Rh  Rh35  1  0.529228  0.254049  0.000000  1
  Rh  Rh36  1  0.029590  0.245472  0.000000  1
  Rh  Rh37  1  0.970410  0.754528  0.000000  1
