# generated using pymatgen
data_Ce3(CrC3)2
_symmetry_space_group_name_H-M   'P 1'
_cell_length_a   8.25664000
_cell_length_b   8.25663901
_cell_length_c   5.10335800
_cell_angle_alpha   90.00000000
_cell_angle_beta   90.00000000
_cell_angle_gamma   119.99998795
_symmetry_Int_Tables_number   1
_chemical_formula_structural   Ce3(CrC3)2
_chemical_formula_sum   'Ce6 Cr4 C12'
_cell_volume   301.29599988
_cell_formula_units_Z   2
loop_
 _symmetry_equiv_pos_site_id
 _symmetry_equiv_pos_as_xyz
  1  'x, y, z'
loop_
 _atom_site_type_symbol
 _atom_site_label
 _atom_site_symmetry_multiplicity
 _atom_site_fract_x
 _atom_site_fract_y
 _atom_site_fract_z
 _atom_site_occupancy
  Ce  Ce0  1  0.624667  0.691831  0.750000  1
  Ce  Ce1  1  0.932836  0.624667  0.250000  1
  Ce  Ce2  1  0.691831  0.067164  0.250000  1
  Ce  Ce3  1  0.308169  0.932836  0.750000  1
  Ce  Ce4  1  0.067164  0.375333  0.750000  1
  Ce  Ce5  1  0.375333  0.308169  0.250000  1
  Cr  Cr6  1  0.000000  0.000000  0.500000  1
  Cr  Cr7  1  0.000000  0.000000  0.000000  1
  Cr  Cr8  1  0.666667  0.333333  0.750000  1
  Cr  Cr9  1  0.333333  0.666667  0.250000  1
  C  C10  1  0.959873  0.773814  0.750000  1
  C  C11  1  0.186060  0.959873  0.250000  1
  C  C12  1  0.773814  0.813940  0.250000  1
  C  C13  1  0.226186  0.186060  0.750000  1
  C  C14  1  0.813940  0.040127  0.750000  1
  C  C15  1  0.040127  0.226186  0.250000  1
  C  C16  1  0.862226  0.579199  0.750000  1
  C  C17  1  0.283025  0.862226  0.250000  1
  C  C18  1  0.579199  0.716975  0.250000  1
  C  C19  1  0.420801  0.283025  0.750000  1
  C  C20  1  0.137774  0.420801  0.250000  1
  C  C21  1  0.716975  0.137774  0.750000  1
