# generated using pymatgen
data_Sc8Al9Tc7
_symmetry_space_group_name_H-M   'P 1'
_cell_length_a   5.32344819
_cell_length_b   5.32009320
_cell_length_c   17.06485900
_cell_angle_alpha   90.00000000
_cell_angle_beta   90.00000000
_cell_angle_gamma   119.86761850
_symmetry_Int_Tables_number   1
_chemical_formula_structural   Sc8Al9Tc7
_chemical_formula_sum   'Sc8 Al9 Tc7'
_cell_volume   419.10553610
_cell_formula_units_Z   1
loop_
 _symmetry_equiv_pos_site_id
 _symmetry_equiv_pos_as_xyz
  1  'x, y, z'
loop_
 _atom_site_type_symbol
 _atom_site_label
 _atom_site_symmetry_multiplicity
 _atom_site_fract_x
 _atom_site_fract_y
 _atom_site_fract_z
 _atom_site_occupancy
  Sc  Sc0  1  0.000305  0.997441  0.097022  1
  Sc  Sc1  1  0.664011  0.333934  0.151380  1
  Sc  Sc2  1  0.664011  0.333934  0.348619  1
  Sc  Sc3  1  0.000305  0.997441  0.402978  1
  Sc  Sc4  1  0.000257  0.001623  0.595742  1
  Sc  Sc5  1  0.336605  0.667172  0.654183  1
  Sc  Sc6  1  0.336605  0.667172  0.845816  1
  Sc  Sc7  1  0.000257  0.001623  0.904258  1
  Al  Al8  1  0.501343  0.006150  0.998201  1
  Al  Al9  1  0.001160  0.501469  0.999367  1
  Al  Al10  1  0.167076  0.332989  0.250000  1
  Al  Al11  1  0.167110  0.830027  0.250000  1
  Al  Al12  1  0.665130  0.830392  0.250000  1
  Al  Al13  1  0.501343  0.006150  0.501799  1
  Al  Al14  1  0.001160  0.501469  0.500633  1
  Al  Al15  1  0.317765  0.140705  0.750000  1
  Al  Al16  1  0.825316  0.148854  0.750000  1
  Tc  Tc17  1  0.501710  0.504628  0.999294  1
  Tc  Tc18  1  0.340199  0.661064  0.121777  1
  Tc  Tc19  1  0.340199  0.661064  0.378222  1
  Tc  Tc20  1  0.501710  0.504628  0.500706  1
  Tc  Tc21  1  0.671073  0.358000  0.626575  1
  Tc  Tc22  1  0.824280  0.654067  0.750000  1
  Tc  Tc23  1  0.671073  0.358000  0.873424  1
