# generated using pymatgen
data_Tb4(Zn3Hg)3
_symmetry_space_group_name_H-M   'P 1'
_cell_length_a   4.45916400
_cell_length_b   7.05147672
_cell_length_c   10.13786022
_cell_angle_alpha   90.05393447
_cell_angle_beta   90.00000000
_cell_angle_gamma   90.00000000
_symmetry_Int_Tables_number   1
_chemical_formula_structural   Tb4(Zn3Hg)3
_chemical_formula_sum   'Tb4 Zn9 Hg3'
_cell_volume   318.77160415
_cell_formula_units_Z   1
loop_
 _symmetry_equiv_pos_site_id
 _symmetry_equiv_pos_as_xyz
  1  'x, y, z'
loop_
 _atom_site_type_symbol
 _atom_site_label
 _atom_site_symmetry_multiplicity
 _atom_site_fract_x
 _atom_site_fract_y
 _atom_site_fract_z
 _atom_site_occupancy
  Tb  Tb0  1  0.250000  0.293199  0.670593  1
  Tb  Tb1  1  0.250000  0.796668  0.828687  1
  Tb  Tb2  1  0.750000  0.708441  0.329510  1
  Tb  Tb3  1  0.750000  0.203490  0.171197  1
  Zn  Zn4  1  0.750000  0.965746  0.600092  1
  Zn  Zn5  1  0.250000  0.911506  0.147015  1
  Zn  Zn6  1  0.250000  0.419298  0.364214  1
  Zn  Zn7  1  0.750000  0.084513  0.842508  1
  Zn  Zn8  1  0.750000  0.591627  0.638383  1
  Zn  Zn9  1  0.250000  0.178436  0.960501  1
  Zn  Zn10  1  0.250000  0.696486  0.540376  1
  Zn  Zn11  1  0.750000  0.821273  0.036584  1
  Zn  Zn12  1  0.750000  0.300745  0.466020  1
  Hg  Hg13  1  0.250000  0.523339  0.105060  1
  Hg  Hg14  1  0.250000  0.031760  0.403823  1
  Hg  Hg15  1  0.750000  0.473473  0.895439  1
