# generated using pymatgen
data_HoEr5(Sc2Pb3)2
_symmetry_space_group_name_H-M   'P 1'
_cell_length_a   8.84984800
_cell_length_b   8.85153491
_cell_length_c   6.34227900
_cell_angle_alpha   90.00000000
_cell_angle_beta   90.00000000
_cell_angle_gamma   119.99369593
_symmetry_Int_Tables_number   1
_chemical_formula_structural   HoEr5(Sc2Pb3)2
_chemical_formula_sum   'Ho1 Er5 Sc4 Pb6'
_cell_volume   430.28673455
_cell_formula_units_Z   1
loop_
 _symmetry_equiv_pos_site_id
 _symmetry_equiv_pos_as_xyz
  1  'x, y, z'
loop_
 _atom_site_type_symbol
 _atom_site_label
 _atom_site_symmetry_multiplicity
 _atom_site_fract_x
 _atom_site_fract_y
 _atom_site_fract_z
 _atom_site_occupancy
  Ho  Ho0  1  0.237748  0.000000  0.250000  1
  Er  Er1  1  0.237803  0.237818  0.750000  1
  Er  Er2  1  0.999985  0.762182  0.750000  1
  Er  Er3  1  0.999970  0.237800  0.250000  1
  Er  Er4  1  0.762170  0.762200  0.250000  1
  Er  Er5  1  0.762260  0.000000  0.750000  1
  Sc  Sc6  1  0.333339  0.666663  0.999991  1
  Sc  Sc7  1  0.666677  0.333337  0.500009  1
  Sc  Sc8  1  0.666677  0.333337  0.999991  1
  Sc  Sc9  1  0.333339  0.666663  0.500009  1
  Pb  Pb10  1  0.601377  0.000000  0.250000  1
  Pb  Pb11  1  0.601293  0.601293  0.750000  1
  Pb  Pb12  1  0.000000  0.398707  0.750000  1
  Pb  Pb13  1  0.999915  0.601168  0.250000  1
  Pb  Pb14  1  0.398747  0.398832  0.250000  1
  Pb  Pb15  1  0.398701  0.000000  0.750000  1
