# generated using pymatgen
data_CaHoU4O12
_symmetry_space_group_name_H-M   'P 1'
_cell_length_a   6.61943368
_cell_length_b   6.61943323
_cell_length_c   6.49841800
_cell_angle_alpha   80.26346103
_cell_angle_beta   80.26345292
_cell_angle_gamma   119.96968533
_symmetry_Int_Tables_number   1
_chemical_formula_structural   CaHoU4O12
_chemical_formula_sum   'Ca1 Ho1 U4 O12'
_cell_volume   232.14327156
_cell_formula_units_Z   1
loop_
 _symmetry_equiv_pos_site_id
 _symmetry_equiv_pos_as_xyz
  1  'x, y, z'
loop_
 _atom_site_type_symbol
 _atom_site_label
 _atom_site_symmetry_multiplicity
 _atom_site_fract_x
 _atom_site_fract_y
 _atom_site_fract_z
 _atom_site_occupancy
  Ca  Ca0  1  0.500096  0.499904  0.500000  1
  Ho  Ho1  1  0.832982  0.167018  0.500000  1
  U  U2  1  0.167123  0.832877  0.500000  1
  U  U3  1  0.666907  0.333093  0.000000  1
  U  U4  1  0.999030  0.000970  0.000000  1
  U  U5  1  0.334095  0.665905  0.000000  1
  O  O6  1  0.109346  0.102369  0.641571  1
  O  O7  1  0.703533  0.041575  0.885747  1
  O  O8  1  0.958425  0.296467  0.114253  1
  O  O9  1  0.364324  0.363574  0.895918  1
  O  O10  1  0.042975  0.705829  0.883776  1
  O  O11  1  0.537303  0.197542  0.360063  1
  O  O12  1  0.897631  0.890654  0.358429  1
  O  O13  1  0.447178  0.794004  0.640058  1
  O  O14  1  0.636426  0.635676  0.104082  1
  O  O15  1  0.294171  0.957025  0.116224  1
  O  O16  1  0.802458  0.462697  0.639937  1
  O  O17  1  0.205996  0.552822  0.359942  1
