# generated using pymatgen
data_PrEu3(Si5Pt3)2
_symmetry_space_group_name_H-M   'P 1'
_cell_length_a   8.30493593
_cell_length_b   8.30963875
_cell_length_c   8.30963863
_cell_angle_alpha   137.24703991
_cell_angle_beta   104.93621520
_cell_angle_gamma   90.46522033
_symmetry_Int_Tables_number   1
_chemical_formula_structural   PrEu3(Si5Pt3)2
_chemical_formula_sum   'Pr1 Eu3 Si10 Pt6'
_cell_volume   358.69741714
_cell_formula_units_Z   1
loop_
 _symmetry_equiv_pos_site_id
 _symmetry_equiv_pos_as_xyz
  1  'x, y, z'
loop_
 _atom_site_type_symbol
 _atom_site_label
 _atom_site_symmetry_multiplicity
 _atom_site_fract_x
 _atom_site_fract_y
 _atom_site_fract_z
 _atom_site_occupancy
  Pr  Pr0  1  0.605132  0.871385  0.733747  1
  Eu  Eu1  1  0.863156  0.629455  0.233701  1
  Eu  Eu2  1  0.137256  0.371057  0.766199  1
  Eu  Eu3  1  0.394105  0.128343  0.265762  1
  Si  Si4  1  0.499399  0.748496  0.247552  1
  Si  Si5  1  0.499399  0.251847  0.750903  1
  Si  Si6  1  0.228971  0.980459  0.750591  1
  Si  Si7  1  0.771319  0.520601  0.751308  1
  Si  Si8  1  0.771319  0.020011  0.250718  1
  Si  Si9  1  0.228971  0.478380  0.248512  1
  Si  Si10  1  0.038922  0.888049  0.150873  1
  Si  Si11  1  0.962180  0.112596  0.849584  1
  Si  Si12  1  0.739352  0.388432  0.350921  1
  Si  Si13  1  0.260717  0.611042  0.649675  1
  Pt  Pt14  1  0.999171  0.751033  0.750482  1
  Pt  Pt15  1  0.999171  0.248689  0.248138  1
  Pt  Pt16  1  0.253785  0.864460  0.389326  1
  Pt  Pt17  1  0.746960  0.135509  0.611450  1
  Pt  Pt18  1  0.476765  0.364032  0.112733  1
  Pt  Pt19  1  0.523952  0.636124  0.887827  1
