# generated using pymatgen
data_Dy3Ho2SnSb2
_symmetry_space_group_name_H-M   'P 1'
_cell_length_a   8.96994826
_cell_length_b   8.94600748
_cell_length_c   6.38659900
_cell_angle_alpha   90.00000000
_cell_angle_beta   90.00000000
_cell_angle_gamma   119.91175213
_symmetry_Int_Tables_number   1
_chemical_formula_structural   Dy3Ho2SnSb2
_chemical_formula_sum   'Dy6 Ho4 Sn2 Sb4'
_cell_volume   444.22703194
_cell_formula_units_Z   2
loop_
 _symmetry_equiv_pos_site_id
 _symmetry_equiv_pos_as_xyz
  1  'x, y, z'
loop_
 _atom_site_type_symbol
 _atom_site_label
 _atom_site_symmetry_multiplicity
 _atom_site_fract_x
 _atom_site_fract_y
 _atom_site_fract_z
 _atom_site_occupancy
  Dy  Dy0  1  0.755259  0.999302  0.750000  1
  Dy  Dy1  1  0.755259  0.755958  0.250000  1
  Dy  Dy2  1  0.000874  0.243975  0.250000  1
  Dy  Dy3  1  0.000874  0.756899  0.750000  1
  Dy  Dy4  1  0.243863  0.242371  0.750000  1
  Dy  Dy5  1  0.243863  0.001492  0.250000  1
  Ho  Ho6  1  0.333798  0.666900  0.000000  1
  Ho  Ho7  1  0.665053  0.332527  0.500000  1
  Ho  Ho8  1  0.665053  0.332527  0.000000  1
  Ho  Ho9  1  0.333798  0.666900  0.500000  1
  Sn  Sn10  1  0.392296  0.999066  0.750000  1
  Sn  Sn11  1  0.392296  0.393229  0.250000  1
  Sb  Sb12  1  0.999393  0.609073  0.250000  1
  Sb  Sb13  1  0.999393  0.390321  0.750000  1
  Sb  Sb14  1  0.609464  0.609215  0.750000  1
  Sb  Sb15  1  0.609464  0.000250  0.250000  1
