# generated using pymatgen
data_Ce4AlSi6Pd
_symmetry_space_group_name_H-M   'P 1'
_cell_length_a   8.26907000
_cell_length_b   8.26907027
_cell_length_c   4.15343600
_cell_angle_alpha   90.00000000
_cell_angle_beta   90.00000000
_cell_angle_gamma   119.99999891
_symmetry_Int_Tables_number   1
_chemical_formula_structural   Ce4AlSi6Pd
_chemical_formula_sum   'Ce4 Al1 Si6 Pd1'
_cell_volume   245.95265235
_cell_formula_units_Z   1
loop_
 _symmetry_equiv_pos_site_id
 _symmetry_equiv_pos_as_xyz
  1  'x, y, z'
loop_
 _atom_site_type_symbol
 _atom_site_label
 _atom_site_symmetry_multiplicity
 _atom_site_fract_x
 _atom_site_fract_y
 _atom_site_fract_z
 _atom_site_occupancy
  Ce  Ce0  1  0.000000  0.000000  0.500000  1
  Ce  Ce1  1  0.001140  0.500570  0.500000  1
  Ce  Ce2  1  0.499430  0.500570  0.500000  1
  Ce  Ce3  1  0.499430  0.998860  0.500000  1
  Al  Al4  1  0.666667  0.333333  0.000000  1
  Si  Si5  1  0.328500  0.164250  0.000000  1
  Si  Si6  1  0.835750  0.164250  0.000000  1
  Si  Si7  1  0.835750  0.671500  0.000000  1
  Si  Si8  1  0.165043  0.330087  0.000000  1
  Si  Si9  1  0.165043  0.834957  0.000000  1
  Si  Si10  1  0.669913  0.834957  0.000000  1
  Pd  Pd11  1  0.333333  0.666667  0.000000  1
