# generated using pymatgen
data_Ta6Be15Co4Cu3Ni
_symmetry_space_group_name_H-M   'P 1'
_cell_length_a   7.56422660
_cell_length_b   7.56284542
_cell_length_c   7.57583931
_cell_angle_alpha   60.01611212
_cell_angle_beta   60.00272334
_cell_angle_gamma   60.01337379
_symmetry_Int_Tables_number   1
_chemical_formula_structural   Ta6Be15Co4Cu3Ni
_chemical_formula_sum   'Ta6 Be15 Co4 Cu3 Ni1'
_cell_volume   306.52873573
_cell_formula_units_Z   1
loop_
 _symmetry_equiv_pos_site_id
 _symmetry_equiv_pos_as_xyz
  1  'x, y, z'
loop_
 _atom_site_type_symbol
 _atom_site_label
 _atom_site_symmetry_multiplicity
 _atom_site_fract_x
 _atom_site_fract_y
 _atom_site_fract_z
 _atom_site_occupancy
  Ta  Ta0  1  0.703349  0.292418  0.309169  1
  Ta  Ta1  1  0.286600  0.705835  0.705154  1
  Ta  Ta2  1  0.287726  0.700455  0.303915  1
  Ta  Ta3  1  0.709542  0.290344  0.693618  1
  Ta  Ta4  1  0.301431  0.300817  0.694675  1
  Ta  Ta5  1  0.713338  0.697517  0.294565  1
  Be  Be6  1  0.322598  0.329409  0.327366  1
  Be  Be7  1  0.675116  0.675196  0.666895  1
  Be  Be8  1  0.324121  0.331209  0.017281  1
  Be  Be9  1  0.321955  0.019522  0.331029  1
  Be  Be10  1  0.674364  0.674937  0.983730  1
  Be  Be11  1  0.678355  0.976075  0.673464  1
  Be  Be12  1  0.026191  0.325916  0.325385  1
  Be  Be13  1  0.975521  0.680474  0.672386  1
  Be  Be14  1  0.500140  0.999791  0.000893  1
  Be  Be15  1  0.001655  0.500221  0.496343  1
  Be  Be16  1  0.000896  0.501626  0.000771  1
  Be  Be17  1  0.499322  0.999973  0.499810  1
  Be  Be18  1  0.999468  0.999174  0.501208  1
  Be  Be19  1  0.497195  0.501630  0.000212  1
  Be  Be20  1  0.001565  0.994818  0.001655  1
  Co  Co21  1  0.876742  0.878173  0.878660  1
  Co  Co22  1  0.122585  0.122463  0.633205  1
  Co  Co23  1  0.122916  0.633508  0.121545  1
  Co  Co24  1  0.876611  0.877843  0.367542  1
  Cu  Cu25  1  0.877341  0.366799  0.878441  1
  Cu  Cu26  1  0.632106  0.123396  0.121994  1
  Cu  Cu27  1  0.368241  0.877059  0.877786  1
  Ni  Ni28  1  0.123007  0.123407  0.121306  1
