# generated using pymatgen
data_Nd3PaAl15(GaIr2)3
_symmetry_space_group_name_H-M   'P 1'
_cell_length_a   7.61672212
_cell_length_b   7.61065178
_cell_length_c   9.57322800
_cell_angle_alpha   90.00000000
_cell_angle_beta   90.00000000
_cell_angle_gamma   119.58483661
_symmetry_Int_Tables_number   1
_chemical_formula_structural   Nd3PaAl15(GaIr2)3
_chemical_formula_sum   'Nd3 Pa1 Al15 Ga3 Ir6'
_cell_volume   482.59263785
_cell_formula_units_Z   1
loop_
 _symmetry_equiv_pos_site_id
 _symmetry_equiv_pos_as_xyz
  1  'x, y, z'
loop_
 _atom_site_type_symbol
 _atom_site_label
 _atom_site_symmetry_multiplicity
 _atom_site_fract_x
 _atom_site_fract_y
 _atom_site_fract_z
 _atom_site_occupancy
  Nd  Nd0  1  0.004578  0.329552  0.750000  1
  Nd  Nd1  1  0.670206  0.995666  0.250000  1
  Nd  Nd2  1  0.330378  0.004390  0.750000  1
  Pa  Pa3  1  0.998247  0.671983  0.250000  1
  Al  Al4  1  0.131894  0.129724  0.250000  1
  Al  Al5  1  0.001052  0.333591  0.076027  1
  Al  Al6  1  0.996321  0.664927  0.927822  1
  Al  Al7  1  0.996321  0.664927  0.572178  1
  Al  Al8  1  0.337386  0.003574  0.423882  1
  Al  Al9  1  0.001052  0.333591  0.423973  1
  Al  Al10  1  0.665489  0.996614  0.570704  1
  Al  Al11  1  0.665489  0.996614  0.929296  1
  Al  Al12  1  0.337386  0.003574  0.076118  1
  Al  Al13  1  0.334604  0.334742  0.543607  1
  Al  Al14  1  0.664383  0.665505  0.441356  1
  Al  Al15  1  0.664383  0.665505  0.058644  1
  Al  Al16  1  0.334604  0.334742  0.956393  1
  Al  Al17  1  0.335686  0.545270  0.250000  1
  Al  Al18  1  0.548601  0.342487  0.250000  1
  Ga  Ga19  1  0.870705  0.871530  0.750000  1
  Ga  Ga20  1  0.658729  0.453252  0.750000  1
  Ga  Ga21  1  0.452965  0.659612  0.750000  1
  Ir  Ir22  1  0.673558  0.331531  0.004660  1
  Ir  Ir23  1  0.326285  0.671198  0.005109  1
  Ir  Ir24  1  0.326285  0.671198  0.494891  1
  Ir  Ir25  1  0.673558  0.331531  0.495340  1
  Ir  Ir26  1  0.999930  0.996587  0.006008  1
  Ir  Ir27  1  0.999930  0.996587  0.493992  1
