# generated using pymatgen
data_Ho2TcOs2Ru
_symmetry_space_group_name_H-M   'P 1'
_cell_length_a   5.29179784
_cell_length_b   5.17941761
_cell_length_c   9.09770100
_cell_angle_alpha   90.00000000
_cell_angle_beta   90.00000000
_cell_angle_gamma   119.29996011
_symmetry_Int_Tables_number   1
_chemical_formula_structural   Ho2TcOs2Ru
_chemical_formula_sum   'Ho4 Tc2 Os4 Ru2'
_cell_volume   217.45379277
_cell_formula_units_Z   2
loop_
 _symmetry_equiv_pos_site_id
 _symmetry_equiv_pos_as_xyz
  1  'x, y, z'
loop_
 _atom_site_type_symbol
 _atom_site_label
 _atom_site_symmetry_multiplicity
 _atom_site_fract_x
 _atom_site_fract_y
 _atom_site_fract_z
 _atom_site_occupancy
  Ho  Ho0  1  0.331017  0.665509  0.436198  1
  Ho  Ho1  1  0.668354  0.334177  0.566980  1
  Ho  Ho2  1  0.668354  0.334177  0.933020  1
  Ho  Ho3  1  0.331017  0.665509  0.063802  1
  Tc  Tc4  1  0.832001  0.170754  0.250000  1
  Tc  Tc5  1  0.832001  0.661247  0.250000  1
  Os  Os6  1  0.342059  0.171029  0.250000  1
  Os  Os7  1  0.170432  0.831470  0.750000  1
  Os  Os8  1  0.170432  0.338963  0.750000  1
  Os  Os9  1  0.657090  0.828545  0.750000  1
  Ru  Ru10  1  0.998621  0.999311  0.501609  1
  Ru  Ru11  1  0.998621  0.999311  0.998391  1
