# generated using pymatgen
data_NdErCo2I
_symmetry_space_group_name_H-M   'P 1'
_cell_length_a   3.97017400
_cell_length_b   3.97017440
_cell_length_c   17.29918600
_cell_angle_alpha   90.00000000
_cell_angle_beta   90.00000000
_cell_angle_gamma   119.99999669
_symmetry_Int_Tables_number   1
_chemical_formula_structural   NdErCo2I
_chemical_formula_sum   'Nd2 Er2 Co4 I2'
_cell_volume   236.14319758
_cell_formula_units_Z   2
loop_
 _symmetry_equiv_pos_site_id
 _symmetry_equiv_pos_as_xyz
  1  'x, y, z'
loop_
 _atom_site_type_symbol
 _atom_site_label
 _atom_site_symmetry_multiplicity
 _atom_site_fract_x
 _atom_site_fract_y
 _atom_site_fract_z
 _atom_site_occupancy
  Nd  Nd0  1  0.000000  0.000000  0.608783  1
  Nd  Nd1  1  0.000000  0.000000  0.391217  1
  Er  Er2  1  0.000000  0.000000  0.098920  1
  Er  Er3  1  0.000000  0.000000  0.901080  1
  Co  Co4  1  0.333333  0.666667  0.499596  1
  Co  Co5  1  0.666667  0.333333  0.500404  1
  Co  Co6  1  0.666667  0.333333  0.002201  1
  Co  Co7  1  0.333333  0.666667  0.997799  1
  I  I8  1  0.333333  0.666667  0.239864  1
  I  I9  1  0.666667  0.333333  0.760136  1
