# generated using pymatgen
data_Yb2Y2HoGaPb3
_symmetry_space_group_name_H-M   'P 1'
_cell_length_a   9.26251317
_cell_length_b   9.26251268
_cell_length_c   6.87417300
_cell_angle_alpha   90.00000000
_cell_angle_beta   90.00000000
_cell_angle_gamma   120.00569024
_symmetry_Int_Tables_number   1
_chemical_formula_structural   Yb2Y2HoGaPb3
_chemical_formula_sum   'Yb4 Y4 Ho2 Ga2 Pb6'
_cell_volume   510.72114435
_cell_formula_units_Z   2
loop_
 _symmetry_equiv_pos_site_id
 _symmetry_equiv_pos_as_xyz
  1  'x, y, z'
loop_
 _atom_site_type_symbol
 _atom_site_label
 _atom_site_symmetry_multiplicity
 _atom_site_fract_x
 _atom_site_fract_y
 _atom_site_fract_z
 _atom_site_occupancy
  Yb  Yb0  1  0.333475  0.666525  0.500000  1
  Yb  Yb1  1  0.666525  0.333475  0.500000  1
  Yb  Yb2  1  0.666525  0.333475  0.000000  1
  Yb  Yb3  1  0.333475  0.666525  0.000000  1
  Y  Y4  1  0.259992  0.000356  0.750000  1
  Y  Y5  1  0.740008  0.999644  0.250000  1
  Y  Y6  1  0.000356  0.259992  0.750000  1
  Y  Y7  1  0.999644  0.740008  0.250000  1
  Ho  Ho8  1  0.740882  0.740882  0.750000  1
  Ho  Ho9  1  0.259118  0.259118  0.250000  1
  Ga  Ga10  1  0.000000  0.000000  0.500000  1
  Ga  Ga11  1  0.000000  0.000000  0.000000  1
  Pb  Pb12  1  0.611834  0.999346  0.750000  1
  Pb  Pb13  1  0.388166  0.000654  0.250000  1
  Pb  Pb14  1  0.999346  0.611834  0.750000  1
  Pb  Pb15  1  0.000654  0.388166  0.250000  1
  Pb  Pb16  1  0.389319  0.389319  0.750000  1
  Pb  Pb17  1  0.610681  0.610681  0.250000  1
