# generated using pymatgen
data_Tb16Cd4OsPd3
_symmetry_space_group_name_H-M   'P 1'
_cell_length_a   9.74711636
_cell_length_b   9.74711590
_cell_length_c   9.74711599
_cell_angle_alpha   59.58239255
_cell_angle_beta   59.58239186
_cell_angle_gamma   59.58239018
_symmetry_Int_Tables_number   1
_chemical_formula_structural   Tb16Cd4OsPd3
_chemical_formula_sum   'Tb16 Cd4 Os1 Pd3'
_cell_volume   648.59121891
_cell_formula_units_Z   1
loop_
 _symmetry_equiv_pos_site_id
 _symmetry_equiv_pos_as_xyz
  1  'x, y, z'
loop_
 _atom_site_type_symbol
 _atom_site_label
 _atom_site_symmetry_multiplicity
 _atom_site_fract_x
 _atom_site_fract_y
 _atom_site_fract_z
 _atom_site_occupancy
  Tb  Tb0  1  0.352587  0.352587  0.352587  1
  Tb  Tb1  1  0.350377  0.350377  0.945468  1
  Tb  Tb2  1  0.350377  0.945468  0.350377  1
  Tb  Tb3  1  0.945468  0.350377  0.350377  1
  Tb  Tb4  1  0.815677  0.188886  0.188886  1
  Tb  Tb5  1  0.187812  0.810113  0.810113  1
  Tb  Tb6  1  0.188886  0.815677  0.188886  1
  Tb  Tb7  1  0.810113  0.187812  0.810113  1
  Tb  Tb8  1  0.188886  0.188886  0.815677  1
  Tb  Tb9  1  0.810113  0.810113  0.187812  1
  Tb  Tb10  1  0.934755  0.566393  0.566393  1
  Tb  Tb11  1  0.558644  0.937239  0.937239  1
  Tb  Tb12  1  0.566393  0.934755  0.566393  1
  Tb  Tb13  1  0.937239  0.558644  0.937239  1
  Tb  Tb14  1  0.566393  0.566393  0.934755  1
  Tb  Tb15  1  0.937239  0.937239  0.558644  1
  Cd  Cd16  1  0.580434  0.580434  0.580434  1
  Cd  Cd17  1  0.580953  0.580953  0.253991  1
  Cd  Cd18  1  0.580953  0.253991  0.580953  1
  Cd  Cd19  1  0.253991  0.580953  0.580953  1
  Os  Os20  1  0.143839  0.143839  0.143839  1
  Pd  Pd21  1  0.144586  0.144586  0.569700  1
  Pd  Pd22  1  0.144586  0.569700  0.144586  1
  Pd  Pd23  1  0.569700  0.144586  0.144586  1
