# generated using pymatgen
data_Nd3Tl3In2
_symmetry_space_group_name_H-M   'P 1'
_cell_length_a   6.63577407
_cell_length_b   6.63577390
_cell_length_c   10.69930600
_cell_angle_alpha   90.00000000
_cell_angle_beta   90.00000000
_cell_angle_gamma   102.28917141
_symmetry_Int_Tables_number   1
_chemical_formula_structural   Nd3Tl3In2
_chemical_formula_sum   'Nd6 Tl6 In4'
_cell_volume   460.33234298
_cell_formula_units_Z   2
loop_
 _symmetry_equiv_pos_site_id
 _symmetry_equiv_pos_as_xyz
  1  'x, y, z'
loop_
 _atom_site_type_symbol
 _atom_site_label
 _atom_site_symmetry_multiplicity
 _atom_site_fract_x
 _atom_site_fract_y
 _atom_site_fract_z
 _atom_site_occupancy
  Nd  Nd0  1  0.634928  0.634928  0.250000  1
  Nd  Nd1  1  0.365072  0.365072  0.750000  1
  Nd  Nd2  1  0.798230  0.201770  0.000000  1
  Nd  Nd3  1  0.201770  0.798230  0.000000  1
  Nd  Nd4  1  0.201770  0.798230  0.500000  1
  Nd  Nd5  1  0.798230  0.201770  0.500000  1
  Tl  Tl6  1  0.081007  0.509347  0.250000  1
  Tl  Tl7  1  0.918993  0.490653  0.750000  1
  Tl  Tl8  1  0.509347  0.081007  0.250000  1
  Tl  Tl9  1  0.490653  0.918993  0.750000  1
  Tl  Tl10  1  0.013898  0.013898  0.250000  1
  Tl  Tl11  1  0.986102  0.986102  0.750000  1
  In  In12  1  0.314170  0.314170  0.045262  1
  In  In13  1  0.685830  0.685830  0.954738  1
  In  In14  1  0.685830  0.685830  0.545262  1
  In  In15  1  0.314170  0.314170  0.454738  1
