# generated using pymatgen
data_Er10Tm2Co4TcSn
_symmetry_space_group_name_H-M   'P 1'
_cell_length_a   8.20564233
_cell_length_b   8.20564805
_cell_length_c   8.20564400
_cell_angle_alpha   111.62294451
_cell_angle_beta   110.70712973
_cell_angle_gamma   106.13559758
_symmetry_Int_Tables_number   1
_chemical_formula_structural   Er10Tm2Co4TcSn
_chemical_formula_sum   'Er10 Tm2 Co4 Tc1 Sn1'
_cell_volume   424.21860953
_cell_formula_units_Z   1
loop_
 _symmetry_equiv_pos_site_id
 _symmetry_equiv_pos_as_xyz
  1  'x, y, z'
loop_
 _atom_site_type_symbol
 _atom_site_label
 _atom_site_symmetry_multiplicity
 _atom_site_fract_x
 _atom_site_fract_y
 _atom_site_fract_z
 _atom_site_occupancy
  Er  Er0  1  0.418217  0.221797  0.196283  1
  Er  Er1  1  0.581783  0.778203  0.803717  1
  Er  Er2  1  0.025515  0.221797  0.803580  1
  Er  Er3  1  0.974485  0.778203  0.196420  1
  Er  Er4  1  0.183642  0.279569  0.463384  1
  Er  Er5  1  0.816358  0.720431  0.536616  1
  Er  Er6  1  0.183815  0.720431  0.904072  1
  Er  Er7  1  0.816185  0.279569  0.095928  1
  Er  Er8  1  0.312001  0.617232  0.305230  1
  Er  Er9  1  0.687999  0.382768  0.694770  1
  Tm  Tm10  1  0.311991  0.006744  0.694752  1
  Tm  Tm11  1  0.688009  0.993256  0.305248  1
  Co  Co12  1  0.376402  0.000000  0.376402  1
  Co  Co13  1  0.623598  0.000000  0.623598  1
  Co  Co14  1  0.111924  0.611956  0.500032  1
  Co  Co15  1  0.888076  0.388044  0.499968  1
  Tc  Tc16  1  0.000000  0.000000  0.000000  1
  Sn  Sn17  1  0.500000  0.500000  0.000000  1
