# generated using pymatgen
data_Dy4Ti2Sn5
_symmetry_space_group_name_H-M   'P 1'
_cell_length_a   11.21427958
_cell_length_b   11.21427907
_cell_length_c   11.21427900
_cell_angle_alpha   148.53749317
_cell_angle_beta   131.32340411
_cell_angle_gamma   59.11675157
_symmetry_Int_Tables_number   1
_chemical_formula_structural   Dy4Ti2Sn5
_chemical_formula_sum   'Dy8 Ti4 Sn10'
_cell_volume   548.29967040
_cell_formula_units_Z   2
loop_
 _symmetry_equiv_pos_site_id
 _symmetry_equiv_pos_as_xyz
  1  'x, y, z'
loop_
 _atom_site_type_symbol
 _atom_site_label
 _atom_site_symmetry_multiplicity
 _atom_site_fract_x
 _atom_site_fract_y
 _atom_site_fract_z
 _atom_site_occupancy
  Dy  Dy0  1  0.668727  0.441315  0.227411  1
  Dy  Dy1  1  0.331273  0.558685  0.772589  1
  Dy  Dy2  1  0.213903  0.941315  0.272589  1
  Dy  Dy3  1  0.786097  0.058685  0.727411  1
  Dy  Dy4  1  0.254429  0.146220  0.108210  1
  Dy  Dy5  1  0.745571  0.853780  0.891790  1
  Dy  Dy6  1  0.038010  0.646220  0.391790  1
  Dy  Dy7  1  0.961990  0.353780  0.608210  1
  Ti  Ti8  1  0.302430  0.552430  0.250000  1
  Ti  Ti9  1  0.697570  0.447570  0.750000  1
  Ti  Ti10  1  0.697570  0.947570  0.250000  1
  Ti  Ti11  1  0.302430  0.052430  0.750000  1
  Sn  Sn12  1  0.585095  0.287810  0.297286  1
  Sn  Sn13  1  0.414905  0.712190  0.702714  1
  Sn  Sn14  1  0.990524  0.787810  0.202714  1
  Sn  Sn15  1  0.009476  0.212190  0.797286  1
  Sn  Sn16  1  0.000000  0.250000  0.250000  1
  Sn  Sn17  1  0.000000  0.750000  0.750000  1
  Sn  Sn18  1  0.487360  0.084614  0.402743  1
  Sn  Sn19  1  0.512640  0.915386  0.597257  1
  Sn  Sn20  1  0.681871  0.584614  0.097257  1
  Sn  Sn21  1  0.318129  0.415386  0.902743  1
