# generated using pymatgen
data_Y6Er4Tm6Cd4Pd3Pt
_symmetry_space_group_name_H-M   'P 1'
_cell_length_a   9.63365838
_cell_length_b   9.63365829
_cell_length_c   9.63365700
_cell_angle_alpha   60.00000098
_cell_angle_beta   60.00000131
_cell_angle_gamma   59.99999856
_symmetry_Int_Tables_number   1
_chemical_formula_structural   Y6Er4Tm6Cd4Pd3Pt
_chemical_formula_sum   'Y6 Er4 Tm6 Cd4 Pd3 Pt1'
_cell_volume   632.20607351
_cell_formula_units_Z   1
loop_
 _symmetry_equiv_pos_site_id
 _symmetry_equiv_pos_as_xyz
  1  'x, y, z'
loop_
 _atom_site_type_symbol
 _atom_site_label
 _atom_site_symmetry_multiplicity
 _atom_site_fract_x
 _atom_site_fract_y
 _atom_site_fract_z
 _atom_site_occupancy
  Y  Y0  1  0.935336  0.564694  0.564694  1
  Y  Y1  1  0.564683  0.935924  0.935924  1
  Y  Y2  1  0.564683  0.935924  0.563469  1
  Y  Y3  1  0.935336  0.564694  0.935276  1
  Y  Y4  1  0.564683  0.563469  0.935924  1
  Y  Y5  1  0.935336  0.935276  0.564694  1
  Er  Er6  1  0.354695  0.352397  0.352397  1
  Er  Er7  1  0.354695  0.352397  0.940510  1
  Er  Er8  1  0.354695  0.940510  0.352397  1
  Er  Er9  1  0.939786  0.353404  0.353404  1
  Tm  Tm10  1  0.810332  0.188248  0.188248  1
  Tm  Tm11  1  0.188386  0.811740  0.811740  1
  Tm  Tm12  1  0.188386  0.811740  0.188134  1
  Tm  Tm13  1  0.810332  0.188248  0.813172  1
  Tm  Tm14  1  0.188386  0.188134  0.811740  1
  Tm  Tm15  1  0.810332  0.813172  0.188248  1
  Cd  Cd16  1  0.581560  0.581789  0.581789  1
  Cd  Cd17  1  0.581560  0.581789  0.254864  1
  Cd  Cd18  1  0.581560  0.254864  0.581789  1
  Cd  Cd19  1  0.255091  0.581637  0.581637  1
  Pd  Pd20  1  0.143610  0.143803  0.143803  1
  Pd  Pd21  1  0.143610  0.143803  0.568785  1
  Pd  Pd22  1  0.143610  0.568785  0.143803  1
  Pt  Pt23  1  0.569319  0.143561  0.143561  1
