# generated using pymatgen
data_RbSmUSe6
_symmetry_space_group_name_H-M   'P 1'
_cell_length_a   11.86822029
_cell_length_b   11.86822072
_cell_length_c   11.86822025
_cell_angle_alpha   159.59086675
_cell_angle_beta   152.56514270
_cell_angle_gamma   34.43566477
_symmetry_Int_Tables_number   1
_chemical_formula_structural   RbSmUSe6
_chemical_formula_sum   'Rb1 Sm1 U1 Se6'
_cell_volume   268.33144613
_cell_formula_units_Z   1
loop_
 _symmetry_equiv_pos_site_id
 _symmetry_equiv_pos_as_xyz
  1  'x, y, z'
loop_
 _atom_site_type_symbol
 _atom_site_label
 _atom_site_symmetry_multiplicity
 _atom_site_fract_x
 _atom_site_fract_y
 _atom_site_fract_z
 _atom_site_occupancy
  Rb  Rb0  1  0.998295  0.998295  0.000000  1
  Sm  Sm1  1  0.315381  0.815381  0.500000  1
  U  U2  1  0.687086  0.187086  0.500000  1
  Se  Se3  1  0.772084  0.772084  0.000000  1
  Se  Se4  1  0.825221  0.610147  0.215075  1
  Se  Se5  1  0.177096  0.392963  0.784132  1
  Se  Se6  1  0.220934  0.220934  0.000000  1
  Se  Se7  1  0.395072  0.610147  0.784925  1
  Se  Se8  1  0.608831  0.392963  0.215868  1
