# generated using pymatgen
data_Sr6Co3PbO12
_symmetry_space_group_name_H-M   'P 1'
_cell_length_a   6.70216834
_cell_length_b   6.70713320
_cell_length_c   6.70499084
_cell_angle_alpha   92.12910164
_cell_angle_beta   92.05562408
_cell_angle_gamma   92.05954254
_symmetry_Int_Tables_number   1
_chemical_formula_structural   Sr6Co3PbO12
_chemical_formula_sum   'Sr6 Co3 Pb1 O12'
_cell_volume   300.79340413
_cell_formula_units_Z   1
loop_
 _symmetry_equiv_pos_site_id
 _symmetry_equiv_pos_as_xyz
  1  'x, y, z'
loop_
 _atom_site_type_symbol
 _atom_site_label
 _atom_site_symmetry_multiplicity
 _atom_site_fract_x
 _atom_site_fract_y
 _atom_site_fract_z
 _atom_site_occupancy
  Sr  Sr0  1  0.876055  0.251768  0.623985  1
  Sr  Sr1  1  0.250194  0.623397  0.876585  1
  Sr  Sr2  1  0.623881  0.876054  0.247890  1
  Sr  Sr3  1  0.749978  0.390836  0.109073  1
  Sr  Sr4  1  0.390424  0.109996  0.750195  1
  Sr  Sr5  1  0.109707  0.749822  0.389937  1
  Co  Co6  1  0.994227  0.994411  0.995136  1
  Co  Co7  1  0.750478  0.753172  0.746446  1
  Co  Co8  1  0.505616  0.504813  0.505803  1
  Pb  Pb9  1  0.250134  0.250253  0.249753  1
  O  O10  1  0.220313  0.410858  0.543883  1
  O  O11  1  0.410553  0.544335  0.220345  1
  O  O12  1  0.543607  0.219797  0.410303  1
  O  O13  1  0.911845  0.721067  0.040885  1
  O  O14  1  0.720059  0.039867  0.913818  1
  O  O15  1  0.036650  0.909699  0.720733  1
  O  O16  1  0.779887  0.586542  0.460863  1
  O  O17  1  0.587619  0.458754  0.779120  1
  O  O18  1  0.462775  0.779065  0.590515  1
  O  O19  1  0.089559  0.279714  0.955646  1
  O  O20  1  0.279677  0.956096  0.088848  1
  O  O21  1  0.956759  0.089686  0.280238  1
