# generated using pymatgen
data_ScNbV(Ni10B3)2
_symmetry_space_group_name_H-M   'P 1'
_cell_length_a   7.45087478
_cell_length_b   7.45657389
_cell_length_c   7.45526693
_cell_angle_alpha   59.96222720
_cell_angle_beta   60.03189034
_cell_angle_gamma   60.02899526
_symmetry_Int_Tables_number   1
_chemical_formula_structural   ScNbV(Ni10B3)2
_chemical_formula_sum   'Sc1 Nb1 V1 Ni20 B6'
_cell_volume   292.93430159
_cell_formula_units_Z   1
loop_
 _symmetry_equiv_pos_site_id
 _symmetry_equiv_pos_as_xyz
  1  'x, y, z'
loop_
 _atom_site_type_symbol
 _atom_site_label
 _atom_site_symmetry_multiplicity
 _atom_site_fract_x
 _atom_site_fract_y
 _atom_site_fract_z
 _atom_site_occupancy
  Sc  Sc0  1  0.249866  0.249952  0.250027  1
  Nb  Nb1  1  0.750051  0.750022  0.750003  1
  V  V2  1  0.999997  0.999993  0.999992  1
  Ni  Ni3  1  0.341305  0.998437  0.998410  1
  Ni  Ni4  1  0.661790  0.998431  0.998454  1
  Ni  Ni5  1  0.998428  0.341322  0.661812  1
  Ni  Ni6  1  0.998398  0.661812  0.341341  1
  Ni  Ni7  1  0.998470  0.341216  0.998380  1
  Ni  Ni8  1  0.661990  0.998342  0.341211  1
  Ni  Ni9  1  0.998369  0.661900  0.998473  1
  Ni  Ni10  1  0.341220  0.998442  0.661972  1
  Ni  Ni11  1  0.998472  0.998391  0.341220  1
  Ni  Ni12  1  0.998374  0.998477  0.661891  1
  Ni  Ni13  1  0.661940  0.341247  0.998355  1
  Ni  Ni14  1  0.341231  0.661983  0.998425  1
  Ni  Ni15  1  0.386359  0.386289  0.386274  1
  Ni  Ni16  1  0.616224  0.616280  0.616268  1
  Ni  Ni17  1  0.386335  0.386395  0.840997  1
  Ni  Ni18  1  0.386334  0.841015  0.386382  1
  Ni  Ni19  1  0.616285  0.616186  0.151296  1
  Ni  Ni20  1  0.616284  0.151258  0.616188  1
  Ni  Ni21  1  0.840935  0.386358  0.386357  1
  Ni  Ni22  1  0.151320  0.616249  0.616273  1
  B  B23  1  0.731573  0.268458  0.268476  1
  B  B24  1  0.268410  0.731570  0.731528  1
  B  B25  1  0.268308  0.731699  0.268360  1
  B  B26  1  0.731709  0.268291  0.731650  1
  B  B27  1  0.268351  0.268355  0.731662  1
  B  B28  1  0.731673  0.731629  0.268323  1
