# generated using pymatgen
data_Ho8Ta11Si16Rh
_symmetry_space_group_name_H-M   'P 1'
_cell_length_a   7.02161765
_cell_length_b   7.02161856
_cell_length_c   12.92841764
_cell_angle_alpha   90.21867316
_cell_angle_beta   89.78132637
_cell_angle_gamma   89.62769682
_symmetry_Int_Tables_number   1
_chemical_formula_structural   Ho8Ta11Si16Rh
_chemical_formula_sum   'Ho8 Ta11 Si16 Rh1'
_cell_volume   637.38853480
_cell_formula_units_Z   1
loop_
 _symmetry_equiv_pos_site_id
 _symmetry_equiv_pos_as_xyz
  1  'x, y, z'
loop_
 _atom_site_type_symbol
 _atom_site_label
 _atom_site_symmetry_multiplicity
 _atom_site_fract_x
 _atom_site_fract_y
 _atom_site_fract_z
 _atom_site_occupancy
  Ho  Ho0  1  0.341003  0.003631  0.468227  1
  Ho  Ho1  1  0.495401  0.841827  0.719253  1
  Ho  Ho2  1  0.501976  0.158468  0.216838  1
  Ho  Ho3  1  0.841827  0.495401  0.280747  1
  Ho  Ho4  1  0.158468  0.501976  0.783162  1
  Ho  Ho5  1  0.656968  0.997856  0.968470  1
  Ho  Ho6  1  0.003631  0.341003  0.531773  1
  Ho  Ho7  1  0.997856  0.656968  0.031530  1
  Ta  Ta8  1  0.174146  0.828127  0.247718  1
  Ta  Ta9  1  0.828127  0.174146  0.752282  1
  Ta  Ta10  1  0.670836  0.670836  0.500000  1
  Ta  Ta11  1  0.148746  0.003805  0.875164  1
  Ta  Ta12  1  0.495712  0.657544  0.124112  1
  Ta  Ta13  1  0.504720  0.347950  0.625426  1
  Ta  Ta14  1  0.657544  0.495712  0.875888  1
  Ta  Ta15  1  0.347950  0.504720  0.374574  1
  Ta  Ta16  1  0.848671  0.993623  0.374073  1
  Ta  Ta17  1  0.003805  0.148746  0.124836  1
  Ta  Ta18  1  0.993623  0.848671  0.625927  1
  Si  Si19  1  0.202651  0.136123  0.683065  1
  Si  Si20  1  0.368374  0.703944  0.932320  1
  Si  Si21  1  0.635461  0.295687  0.431747  1
  Si  Si22  1  0.703944  0.368374  0.067680  1
  Si  Si23  1  0.295687  0.635461  0.568253  1
  Si  Si24  1  0.796192  0.864944  0.182306  1
  Si  Si25  1  0.136123  0.202651  0.316935  1
  Si  Si26  1  0.864944  0.796192  0.817694  1
  Si  Si27  1  0.290927  0.953229  0.061757  1
  Si  Si28  1  0.545451  0.794762  0.313922  1
  Si  Si29  1  0.449279  0.208575  0.817172  1
  Si  Si30  1  0.794762  0.545451  0.686078  1
  Si  Si31  1  0.208575  0.449279  0.182828  1
  Si  Si32  1  0.704957  0.045660  0.564741  1
  Si  Si33  1  0.953229  0.290927  0.938243  1
  Si  Si34  1  0.045660  0.704957  0.435259  1
  Rh  Rh35  1  0.332773  0.332773  0.000000  1
