# generated using pymatgen
data_Sc4Cr3Os5
_symmetry_space_group_name_H-M   'P 1'
_cell_length_a   5.07369103
_cell_length_b   5.16768346
_cell_length_c   8.52997400
_cell_angle_alpha   90.00000000
_cell_angle_beta   90.00000000
_cell_angle_gamma   120.61474583
_symmetry_Int_Tables_number   1
_chemical_formula_structural   Sc4Cr3Os5
_chemical_formula_sum   'Sc4 Cr3 Os5'
_cell_volume   192.47508303
_cell_formula_units_Z   1
loop_
 _symmetry_equiv_pos_site_id
 _symmetry_equiv_pos_as_xyz
  1  'x, y, z'
loop_
 _atom_site_type_symbol
 _atom_site_label
 _atom_site_symmetry_multiplicity
 _atom_site_fract_x
 _atom_site_fract_y
 _atom_site_fract_z
 _atom_site_occupancy
  Sc  Sc0  1  0.336760  0.668380  0.434929  1
  Sc  Sc1  1  0.665075  0.332537  0.562043  1
  Sc  Sc2  1  0.665075  0.332537  0.937957  1
  Sc  Sc3  1  0.336760  0.668380  0.065071  1
  Cr  Cr4  1  0.165274  0.342292  0.750000  1
  Cr  Cr5  1  0.165274  0.822980  0.750000  1
  Cr  Cr6  1  0.344382  0.172192  0.250000  1
  Os  Os7  1  0.827018  0.656994  0.250000  1
  Os  Os8  1  0.632528  0.816264  0.750000  1
  Os  Os9  1  0.017418  0.008709  0.991911  1
  Os  Os10  1  0.827018  0.170025  0.250000  1
  Os  Os11  1  0.017418  0.008709  0.508089  1
