# generated using pymatgen
data_Dy3AlIn2Ga2Pt
_symmetry_space_group_name_H-M   'P 1'
_cell_length_a   7.22523928
_cell_length_b   7.22524049
_cell_length_c   4.37729800
_cell_angle_alpha   90.00000000
_cell_angle_beta   90.00000000
_cell_angle_gamma   121.10559593
_symmetry_Int_Tables_number   1
_chemical_formula_structural   Dy3AlIn2Ga2Pt
_chemical_formula_sum   'Dy3 Al1 In2 Ga2 Pt1'
_cell_volume   195.65651550
_cell_formula_units_Z   1
loop_
 _symmetry_equiv_pos_site_id
 _symmetry_equiv_pos_as_xyz
  1  'x, y, z'
loop_
 _atom_site_type_symbol
 _atom_site_label
 _atom_site_symmetry_multiplicity
 _atom_site_fract_x
 _atom_site_fract_y
 _atom_site_fract_z
 _atom_site_occupancy
  Dy  Dy0  1  0.588834  0.999714  0.500000  1
  Dy  Dy1  1  0.416141  0.416141  0.500000  1
  Dy  Dy2  1  0.999714  0.588834  0.500000  1
  Al  Al3  1  0.762341  0.762341  0.000000  1
  In  In4  1  0.996301  0.246227  0.000000  1
  In  In5  1  0.246227  0.996301  0.000000  1
  Ga  Ga6  1  0.346920  0.668499  0.000000  1
  Ga  Ga7  1  0.668499  0.346920  0.000000  1
  Pt  Pt8  1  0.975024  0.975024  0.500000  1
