# generated using pymatgen
data_Yb3Zn3(Ni5B)2
_symmetry_space_group_name_H-M   'P 1'
_cell_length_a   5.11774500
_cell_length_b   5.11606519
_cell_length_c   10.70863800
_cell_angle_alpha   90.00001120
_cell_angle_beta   89.99881328
_cell_angle_gamma   119.95417293
_symmetry_Int_Tables_number   1
_chemical_formula_structural   Yb3Zn3(Ni5B)2
_chemical_formula_sum   'Yb3 Zn3 Ni10 B2'
_cell_volume   242.92932667
_cell_formula_units_Z   1
loop_
 _symmetry_equiv_pos_site_id
 _symmetry_equiv_pos_as_xyz
  1  'x, y, z'
loop_
 _atom_site_type_symbol
 _atom_site_label
 _atom_site_symmetry_multiplicity
 _atom_site_fract_x
 _atom_site_fract_y
 _atom_site_fract_z
 _atom_site_occupancy
  Yb  Yb0  1  0.999979  0.000020  0.999429  1
  Yb  Yb1  1  0.000011  0.999915  0.660407  1
  Yb  Yb2  1  0.999965  0.000022  0.328797  1
  Zn  Zn3  1  0.666599  0.333262  0.685654  1
  Zn  Zn4  1  0.333436  0.666634  0.684643  1
  Zn  Zn5  1  0.333359  0.666683  0.315024  1
  Ni  Ni6  1  0.501618  0.498195  0.499194  1
  Ni  Ni7  1  0.501700  0.003244  0.499192  1
  Ni  Ni8  1  0.996842  0.498286  0.499198  1
  Ni  Ni9  1  0.666636  0.333266  0.318156  1
  Ni  Ni10  1  0.499342  0.500783  0.875069  1
  Ni  Ni11  1  0.499312  0.998722  0.875050  1
  Ni  Ni12  1  0.001299  0.500684  0.875101  1
  Ni  Ni13  1  0.501689  0.498458  0.127378  1
  Ni  Ni14  1  0.501584  0.003368  0.127318  1
  Ni  Ni15  1  0.996676  0.498475  0.127343  1
  B  B16  1  0.666787  0.333225  0.000427  1
  B  B17  1  0.333161  0.666759  0.002619  1
