# generated using pymatgen
data_CaAuF7
_symmetry_space_group_name_H-M   'P 1'
_cell_length_a   7.40305100
_cell_length_b   8.24607700
_cell_length_c   10.35850500
_cell_angle_alpha   90.00000000
_cell_angle_beta   90.00000000
_cell_angle_gamma   90.00000000
_symmetry_Int_Tables_number   1
_chemical_formula_structural   CaAuF7
_chemical_formula_sum   'Ca4 Au4 F28'
_cell_volume   632.34662814
_cell_formula_units_Z   4
loop_
 _symmetry_equiv_pos_site_id
 _symmetry_equiv_pos_as_xyz
  1  'x, y, z'
loop_
 _atom_site_type_symbol
 _atom_site_label
 _atom_site_symmetry_multiplicity
 _atom_site_fract_x
 _atom_site_fract_y
 _atom_site_fract_z
 _atom_site_occupancy
  Ca  Ca0  1  0.750000  0.865796  0.734456  1
  Ca  Ca1  1  0.750000  0.365796  0.765544  1
  Ca  Ca2  1  0.250000  0.134204  0.265544  1
  Ca  Ca3  1  0.250000  0.634204  0.234456  1
  Au  Au4  1  0.250000  0.803464  0.557775  1
  Au  Au5  1  0.250000  0.303464  0.942225  1
  Au  Au6  1  0.750000  0.196536  0.442225  1
  Au  Au7  1  0.750000  0.696536  0.057775  1
  F  F8  1  0.750000  0.610024  0.692395  1
  F  F9  1  0.750000  0.110024  0.807605  1
  F  F10  1  0.250000  0.389976  0.307605  1
  F  F11  1  0.250000  0.889976  0.192395  1
  F  F12  1  0.750000  0.979124  0.521961  1
  F  F13  1  0.750000  0.479124  0.978039  1
  F  F14  1  0.250000  0.020876  0.478039  1
  F  F15  1  0.250000  0.520876  0.021961  1
  F  F16  1  0.928818  0.769733  0.932424  1
  F  F17  1  0.571182  0.269733  0.567576  1
  F  F18  1  0.428818  0.230267  0.067576  1
  F  F19  1  0.071182  0.730267  0.432424  1
  F  F20  1  0.071182  0.230267  0.067576  1
  F  F21  1  0.428818  0.730267  0.432424  1
  F  F22  1  0.571182  0.769733  0.932424  1
  F  F23  1  0.928818  0.269733  0.567576  1
  F  F24  1  0.432572  0.877598  0.680620  1
  F  F25  1  0.067428  0.377598  0.819380  1
  F  F26  1  0.932572  0.122402  0.319380  1
  F  F27  1  0.567428  0.622402  0.180620  1
  F  F28  1  0.567428  0.122402  0.319380  1
  F  F29  1  0.932572  0.622402  0.180620  1
  F  F30  1  0.067428  0.877598  0.680620  1
  F  F31  1  0.432572  0.377598  0.819380  1
  F  F32  1  0.250000  0.592347  0.637269  1
  F  F33  1  0.250000  0.092347  0.862731  1
  F  F34  1  0.750000  0.407653  0.362731  1
  F  F35  1  0.750000  0.907653  0.137269  1
