# generated using pymatgen
data_Er2TmLu9Co4
_symmetry_space_group_name_H-M   'P 1'
_cell_length_a   6.10912900
_cell_length_b   6.84826288
_cell_length_c   9.12284000
_cell_angle_alpha   90.00000000
_cell_angle_beta   90.00000000
_cell_angle_gamma   90.14811177
_symmetry_Int_Tables_number   1
_chemical_formula_structural   Er2TmLu9Co4
_chemical_formula_sum   'Er2 Tm1 Lu9 Co4'
_cell_volume   381.67026450
_cell_formula_units_Z   1
loop_
 _symmetry_equiv_pos_site_id
 _symmetry_equiv_pos_as_xyz
  1  'x, y, z'
loop_
 _atom_site_type_symbol
 _atom_site_label
 _atom_site_symmetry_multiplicity
 _atom_site_fract_x
 _atom_site_fract_y
 _atom_site_fract_z
 _atom_site_occupancy
  Er  Er0  1  0.866611  0.541564  0.250000  1
  Er  Er1  1  0.134567  0.458304  0.750000  1
  Tm  Tm2  1  0.634240  0.040336  0.250000  1
  Lu  Lu3  1  0.325061  0.676698  0.065662  1
  Lu  Lu4  1  0.175763  0.174688  0.434106  1
  Lu  Lu5  1  0.674918  0.323498  0.566028  1
  Lu  Lu6  1  0.823835  0.824993  0.933466  1
  Lu  Lu7  1  0.674918  0.323498  0.933972  1
  Lu  Lu8  1  0.823835  0.824993  0.566534  1
  Lu  Lu9  1  0.325061  0.676698  0.434338  1
  Lu  Lu10  1  0.175763  0.174688  0.065894  1
  Lu  Lu11  1  0.365164  0.959534  0.750000  1
  Co  Co12  1  0.046236  0.887912  0.250000  1
  Co  Co13  1  0.453558  0.387312  0.250000  1
  Co  Co14  1  0.954891  0.111760  0.750000  1
  Co  Co15  1  0.545577  0.613524  0.750000  1
