# generated using pymatgen
data_Li3La3Pd2Rh
_symmetry_space_group_name_H-M   'P 1'
_cell_length_a   7.43809600
_cell_length_b   7.43809542
_cell_length_c   4.18047500
_cell_angle_alpha   90.00000000
_cell_angle_beta   90.00000000
_cell_angle_gamma   119.99999368
_symmetry_Int_Tables_number   1
_chemical_formula_structural   Li3La3Pd2Rh
_chemical_formula_sum   'Li3 La3 Pd2 Rh1'
_cell_volume   200.29947672
_cell_formula_units_Z   1
loop_
 _symmetry_equiv_pos_site_id
 _symmetry_equiv_pos_as_xyz
  1  'x, y, z'
loop_
 _atom_site_type_symbol
 _atom_site_label
 _atom_site_symmetry_multiplicity
 _atom_site_fract_x
 _atom_site_fract_y
 _atom_site_fract_z
 _atom_site_occupancy
  Li  Li0  1  0.768717  0.770405  0.000000  1
  Li  Li1  1  0.001688  0.231283  0.000000  1
  Li  Li2  1  0.229595  0.998312  0.000000  1
  La  La3  1  0.581184  0.990022  0.500000  1
  La  La4  1  0.408838  0.418816  0.500000  1
  La  La5  1  0.009978  0.591162  0.500000  1
  Pd  Pd6  1  0.000000  0.000000  0.500000  1
  Pd  Pd7  1  0.666667  0.333333  0.000000  1
  Rh  Rh8  1  0.333333  0.666667  0.000000  1
