# generated using pymatgen
data_Cs3K2As2Pt
_symmetry_space_group_name_H-M   'P 1'
_cell_length_a   6.01094800
_cell_length_b   6.01094605
_cell_length_c   20.69354100
_cell_angle_alpha   90.00000000
_cell_angle_beta   90.00000000
_cell_angle_gamma   119.99999970
_symmetry_Int_Tables_number   1
_chemical_formula_structural   Cs3K2As2Pt
_chemical_formula_sum   'Cs6 K4 As4 Pt2'
_cell_volume   647.51710630
_cell_formula_units_Z   2
loop_
 _symmetry_equiv_pos_site_id
 _symmetry_equiv_pos_as_xyz
  1  'x, y, z'
loop_
 _atom_site_type_symbol
 _atom_site_label
 _atom_site_symmetry_multiplicity
 _atom_site_fract_x
 _atom_site_fract_y
 _atom_site_fract_z
 _atom_site_occupancy
  Cs  Cs0  1  0.333333  0.666667  0.548576  1
  Cs  Cs1  1  0.666667  0.333333  0.048576  1
  Cs  Cs2  1  0.666667  0.333333  0.451424  1
  Cs  Cs3  1  0.333333  0.666667  0.951424  1
  Cs  Cs4  1  0.333333  0.666667  0.750000  1
  Cs  Cs5  1  0.666667  0.333333  0.250000  1
  K  K6  1  0.000000  0.000000  0.156953  1
  K  K7  1  0.000000  0.000000  0.656953  1
  K  K8  1  0.000000  0.000000  0.843047  1
  K  K9  1  0.000000  0.000000  0.343047  1
  As  As10  1  0.333333  0.666667  0.367883  1
  As  As11  1  0.666667  0.333333  0.867883  1
  As  As12  1  0.666667  0.333333  0.632117  1
  As  As13  1  0.333333  0.666667  0.132117  1
  Pt  Pt14  1  0.333333  0.666667  0.250000  1
  Pt  Pt15  1  0.666667  0.333333  0.750000  1
