# generated using pymatgen
data_Eu2Cd2PdRh
_symmetry_space_group_name_H-M   'P 1'
_cell_length_a   4.34588600
_cell_length_b   7.38038400
_cell_length_c   8.73341300
_cell_angle_alpha   90.00000000
_cell_angle_beta   90.00000000
_cell_angle_gamma   90.00000000
_symmetry_Int_Tables_number   1
_chemical_formula_structural   Eu2Cd2PdRh
_chemical_formula_sum   'Eu4 Cd4 Pd2 Rh2'
_cell_volume   280.11817409
_cell_formula_units_Z   2
loop_
 _symmetry_equiv_pos_site_id
 _symmetry_equiv_pos_as_xyz
  1  'x, y, z'
loop_
 _atom_site_type_symbol
 _atom_site_label
 _atom_site_symmetry_multiplicity
 _atom_site_fract_x
 _atom_site_fract_y
 _atom_site_fract_z
 _atom_site_occupancy
  Eu  Eu0  1  0.250000  0.529452  0.177595  1
  Eu  Eu1  1  0.750000  0.457243  0.819304  1
  Eu  Eu2  1  0.250000  0.042757  0.319304  1
  Eu  Eu3  1  0.750000  0.970548  0.677595  1
  Cd  Cd4  1  0.250000  0.141887  0.939834  1
  Cd  Cd5  1  0.750000  0.358113  0.439834  1
  Cd  Cd6  1  0.250000  0.637013  0.561341  1
  Cd  Cd7  1  0.750000  0.862987  0.061341  1
  Pd  Pd8  1  0.750000  0.741295  0.370213  1
  Pd  Pd9  1  0.250000  0.758705  0.870213  1
  Rh  Rh10  1  0.750000  0.243331  0.131713  1
  Rh  Rh11  1  0.250000  0.256669  0.631713  1
