# generated using pymatgen
data_TmZnInCo
_symmetry_space_group_name_H-M   'P 1'
_cell_length_a   4.05711000
_cell_length_b   5.13882000
_cell_length_c   7.13661000
_cell_angle_alpha   90.00000000
_cell_angle_beta   90.00000000
_cell_angle_gamma   90.00000000
_symmetry_Int_Tables_number   1
_chemical_formula_structural   TmZnInCo
_chemical_formula_sum   'Tm2 Zn2 In2 Co2'
_cell_volume   148.78945490
_cell_formula_units_Z   2
loop_
 _symmetry_equiv_pos_site_id
 _symmetry_equiv_pos_as_xyz
  1  'x, y, z'
loop_
 _atom_site_type_symbol
 _atom_site_label
 _atom_site_symmetry_multiplicity
 _atom_site_fract_x
 _atom_site_fract_y
 _atom_site_fract_z
 _atom_site_occupancy
  Tm  Tm0  1  0.500000  0.750000  0.721665  1
  Tm  Tm1  1  0.500000  0.250000  0.278335  1
  Zn  Zn2  1  0.000000  0.000000  0.000000  1
  Zn  Zn3  1  0.000000  0.500000  0.000000  1
  In  In4  1  0.000000  0.750000  0.364782  1
  In  In5  1  0.000000  0.250000  0.635218  1
  Co  Co6  1  0.500000  0.750000  0.109873  1
  Co  Co7  1  0.500000  0.250000  0.890127  1
