# generated using pymatgen
data_VAg3Te8
_symmetry_space_group_name_H-M   'P 1'
_cell_length_a   6.93562928
_cell_length_b   6.93562967
_cell_length_c   6.93562971
_cell_angle_alpha   90.00601317
_cell_angle_beta   89.99398872
_cell_angle_gamma   90.00601296
_symmetry_Int_Tables_number   1
_chemical_formula_structural   VAg3Te8
_chemical_formula_sum   'V1 Ag3 Te8'
_cell_volume   333.62428675
_cell_formula_units_Z   1
loop_
 _symmetry_equiv_pos_site_id
 _symmetry_equiv_pos_as_xyz
  1  'x, y, z'
loop_
 _atom_site_type_symbol
 _atom_site_label
 _atom_site_symmetry_multiplicity
 _atom_site_fract_x
 _atom_site_fract_y
 _atom_site_fract_z
 _atom_site_occupancy
  V  V0  1  0.000000  0.500000  0.500000  1
  Ag  Ag1  1  0.000000  0.000000  0.000000  1
  Ag  Ag2  1  0.500000  0.000000  0.500000  1
  Ag  Ag3  1  0.500000  0.500000  0.000000  1
  Te  Te4  1  0.360744  0.393279  0.391256  1
  Te  Te5  1  0.106721  0.608744  0.860744  1
  Te  Te6  1  0.891256  0.139256  0.606721  1
  Te  Te7  1  0.614440  0.885560  0.114440  1
  Te  Te8  1  0.639256  0.606721  0.608744  1
  Te  Te9  1  0.893279  0.391256  0.139256  1
  Te  Te10  1  0.108744  0.860744  0.393279  1
  Te  Te11  1  0.385560  0.114440  0.885560  1
