# generated using pymatgen
data_DyHo(Ga4Ni)2
_symmetry_space_group_name_H-M   'P 1'
_cell_length_a   7.91704669
_cell_length_b   7.91704703
_cell_length_c   6.60217600
_cell_angle_alpha   90.00000000
_cell_angle_beta   90.00000000
_cell_angle_gamma   150.06435811
_symmetry_Int_Tables_number   1
_chemical_formula_structural   DyHo(Ga4Ni)2
_chemical_formula_sum   'Dy1 Ho1 Ga8 Ni2'
_cell_volume   206.50829270
_cell_formula_units_Z   1
loop_
 _symmetry_equiv_pos_site_id
 _symmetry_equiv_pos_as_xyz
  1  'x, y, z'
loop_
 _atom_site_type_symbol
 _atom_site_label
 _atom_site_symmetry_multiplicity
 _atom_site_fract_x
 _atom_site_fract_y
 _atom_site_fract_z
 _atom_site_occupancy
  Dy  Dy0  1  0.880821  0.119179  0.250000  1
  Ho  Ho1  1  0.119238  0.880762  0.750000  1
  Ga  Ga2  1  0.314934  0.685066  0.551931  1
  Ga  Ga3  1  0.070044  0.929956  0.250000  1
  Ga  Ga4  1  0.500122  0.499878  0.999649  1
  Ga  Ga5  1  0.684831  0.315169  0.448436  1
  Ga  Ga6  1  0.500122  0.499878  0.500351  1
  Ga  Ga7  1  0.684831  0.315169  0.051564  1
  Ga  Ga8  1  0.314934  0.685066  0.948069  1
  Ga  Ga9  1  0.930180  0.069820  0.750000  1
  Ni  Ni10  1  0.775524  0.224476  0.750000  1
  Ni  Ni11  1  0.224419  0.775581  0.250000  1
