# generated using pymatgen
data_Sc3Fe8NiP6
_symmetry_space_group_name_H-M   'P 1'
_cell_length_a   3.62269100
_cell_length_b   10.31320200
_cell_length_c   11.96235200
_cell_angle_alpha   90.00000000
_cell_angle_beta   90.00000000
_cell_angle_gamma   90.00000000
_symmetry_Int_Tables_number   1
_chemical_formula_structural   Sc3Fe8NiP6
_chemical_formula_sum   'Sc6 Fe16 Ni2 P12'
_cell_volume   446.93194139
_cell_formula_units_Z   2
loop_
 _symmetry_equiv_pos_site_id
 _symmetry_equiv_pos_as_xyz
  1  'x, y, z'
loop_
 _atom_site_type_symbol
 _atom_site_label
 _atom_site_symmetry_multiplicity
 _atom_site_fract_x
 _atom_site_fract_y
 _atom_site_fract_z
 _atom_site_occupancy
  Sc  Sc0  1  0.751864  0.000000  0.477686  1
  Sc  Sc1  1  0.251864  0.500000  0.522314  1
  Sc  Sc2  1  0.251764  0.683080  0.794147  1
  Sc  Sc3  1  0.251764  0.316920  0.794147  1
  Sc  Sc4  1  0.751764  0.816920  0.205853  1
  Sc  Sc5  1  0.751764  0.183080  0.205853  1
  Fe  Fe6  1  0.751736  0.000000  0.012779  1
  Fe  Fe7  1  0.251736  0.500000  0.987221  1
  Fe  Fe8  1  0.251846  0.200589  0.569292  1
  Fe  Fe9  1  0.251846  0.799411  0.569292  1
  Fe  Fe10  1  0.751846  0.299411  0.430708  1
  Fe  Fe11  1  0.751846  0.700589  0.430708  1
  Fe  Fe12  1  0.251837  0.619873  0.291704  1
  Fe  Fe13  1  0.251837  0.380127  0.291704  1
  Fe  Fe14  1  0.751837  0.880127  0.708296  1
  Fe  Fe15  1  0.751837  0.119873  0.708296  1
  Fe  Fe16  1  0.251641  0.171465  0.005075  1
  Fe  Fe17  1  0.251641  0.828535  0.005075  1
  Fe  Fe18  1  0.751641  0.328535  0.994925  1
  Fe  Fe19  1  0.751641  0.671465  0.994925  1
  Fe  Fe20  1  0.251766  0.000000  0.845988  1
  Fe  Fe21  1  0.751766  0.500000  0.154012  1
  Ni  Ni22  1  0.252608  0.000000  0.299998  1
  Ni  Ni23  1  0.752608  0.500000  0.700002  1
  P  P24  1  0.251862  0.190232  0.384375  1
  P  P25  1  0.251862  0.809768  0.384375  1
  P  P26  1  0.751862  0.309768  0.615625  1
  P  P27  1  0.751862  0.690232  0.615625  1
  P  P28  1  0.251614  0.000000  0.118984  1
  P  P29  1  0.751614  0.500000  0.881016  1
  P  P30  1  0.251712  0.651298  0.113048  1
  P  P31  1  0.251712  0.348702  0.113048  1
  P  P32  1  0.751712  0.848702  0.886952  1
  P  P33  1  0.751712  0.151298  0.886952  1
  P  P34  1  0.251891  0.000000  0.653736  1
  P  P35  1  0.751891  0.500000  0.346264  1
