# generated using pymatgen
data_PrNd(Y2Rh9)2
_symmetry_space_group_name_H-M   'P 1'
_cell_length_a   5.31283900
_cell_length_b   5.31283865
_cell_length_c   17.53619500
_cell_angle_alpha   90.00000000
_cell_angle_beta   90.00000000
_cell_angle_gamma   119.99998351
_symmetry_Int_Tables_number   1
_chemical_formula_structural   PrNd(Y2Rh9)2
_chemical_formula_sum   'Pr1 Nd1 Y4 Rh18'
_cell_volume   428.66630925
_cell_formula_units_Z   1
loop_
 _symmetry_equiv_pos_site_id
 _symmetry_equiv_pos_as_xyz
  1  'x, y, z'
loop_
 _atom_site_type_symbol
 _atom_site_label
 _atom_site_symmetry_multiplicity
 _atom_site_fract_x
 _atom_site_fract_y
 _atom_site_fract_z
 _atom_site_occupancy
  Pr  Pr0  1  0.666667  0.333333  0.250000  1
  Nd  Nd1  1  0.333333  0.666667  0.750000  1
  Y  Y2  1  0.333333  0.666667  0.958337  1
  Y  Y3  1  0.666667  0.333333  0.041296  1
  Y  Y4  1  0.666667  0.333333  0.458704  1
  Y  Y5  1  0.333333  0.666667  0.541663  1
  Rh  Rh6  1  0.167240  0.832760  0.374764  1
  Rh  Rh7  1  0.167240  0.334479  0.374764  1
  Rh  Rh8  1  0.665521  0.832760  0.374764  1
  Rh  Rh9  1  0.832774  0.167226  0.625518  1
  Rh  Rh10  1  0.832774  0.665549  0.625518  1
  Rh  Rh11  1  0.334451  0.167226  0.625518  1
  Rh  Rh12  1  0.832774  0.167226  0.874482  1
  Rh  Rh13  1  0.832774  0.665549  0.874482  1
  Rh  Rh14  1  0.334451  0.167226  0.874482  1
  Rh  Rh15  1  0.167240  0.832760  0.125236  1
  Rh  Rh16  1  0.167240  0.334479  0.125236  1
  Rh  Rh17  1  0.665521  0.832760  0.125236  1
  Rh  Rh18  1  0.333333  0.666667  0.250000  1
  Rh  Rh19  1  0.666667  0.333333  0.750000  1
  Rh  Rh20  1  0.000000  0.000000  0.250000  1
  Rh  Rh21  1  0.000000  0.000000  0.750000  1
  Rh  Rh22  1  0.000000  0.000000  0.500106  1
  Rh  Rh23  1  0.000000  0.000000  0.999894  1
