# generated using pymatgen
data_K2DyIrO6
_symmetry_space_group_name_H-M   'P 1'
_cell_length_a   5.89079378
_cell_length_b   5.89079365
_cell_length_c   5.89079300
_cell_angle_alpha   59.99999805
_cell_angle_beta   59.99999877
_cell_angle_gamma   60.00000494
_symmetry_Int_Tables_number   1
_chemical_formula_structural   K2DyIrO6
_chemical_formula_sum   'K2 Dy1 Ir1 O6'
_cell_volume   144.54610714
_cell_formula_units_Z   1
loop_
 _symmetry_equiv_pos_site_id
 _symmetry_equiv_pos_as_xyz
  1  'x, y, z'
loop_
 _atom_site_type_symbol
 _atom_site_label
 _atom_site_symmetry_multiplicity
 _atom_site_fract_x
 _atom_site_fract_y
 _atom_site_fract_z
 _atom_site_occupancy
  K  K0  1  0.750000  0.750000  0.750000  1
  K  K1  1  0.250000  0.250000  0.250000  1
  Dy  Dy2  1  0.500000  0.500000  0.500000  1
  Ir  Ir3  1  0.000000  0.000000  0.000000  1
  O  O4  1  0.769630  0.230370  0.230370  1
  O  O5  1  0.230370  0.230370  0.769630  1
  O  O6  1  0.230370  0.769630  0.769630  1
  O  O7  1  0.230370  0.769630  0.230370  1
  O  O8  1  0.769630  0.230370  0.769630  1
  O  O9  1  0.769630  0.769630  0.230370  1
