# generated using pymatgen
data_Cs4RbBaNbP4
_symmetry_space_group_name_H-M   'P 1'
_cell_length_a   10.94043173
_cell_length_b   10.96639922
_cell_length_c   8.23665812
_cell_angle_alpha   88.39272325
_cell_angle_beta   87.85113972
_cell_angle_gamma   120.77592029
_symmetry_Int_Tables_number   1
_chemical_formula_structural   Cs4RbBaNbP4
_chemical_formula_sum   'Cs8 Rb2 Ba2 Nb2 P8'
_cell_volume   847.16391414
_cell_formula_units_Z   2
loop_
 _symmetry_equiv_pos_site_id
 _symmetry_equiv_pos_as_xyz
  1  'x, y, z'
loop_
 _atom_site_type_symbol
 _atom_site_label
 _atom_site_symmetry_multiplicity
 _atom_site_fract_x
 _atom_site_fract_y
 _atom_site_fract_z
 _atom_site_occupancy
  Cs  Cs0  1  0.526944  0.463113  0.994506  1
  Cs  Cs1  1  0.529035  0.065221  0.997581  1
  Cs  Cs2  1  0.866103  0.138825  0.679541  1
  Cs  Cs3  1  0.290722  0.150293  0.724695  1
  Cs  Cs4  1  0.857431  0.719906  0.653324  1
  Cs  Cs5  1  0.139315  0.866062  0.181332  1
  Cs  Cs6  1  0.717329  0.855809  0.152802  1
  Cs  Cs7  1  0.151041  0.292454  0.222877  1
  Rb  Rb8  1  0.463890  0.526723  0.497420  1
  Rb  Rb9  1  0.061723  0.528874  0.500768  1
  Ba  Ba10  1  0.460977  0.929761  0.489274  1
  Ba  Ba11  1  0.934534  0.464281  0.992915  1
  Nb  Nb12  1  0.673004  0.331440  0.397576  1
  Nb  Nb13  1  0.327617  0.668532  0.889993  1
  P  P14  1  0.695049  0.344201  0.689347  1
  P  P15  1  0.336079  0.684718  0.186203  1
  P  P16  1  0.787276  0.206245  0.291991  1
  P  P17  1  0.422556  0.198411  0.336843  1
  P  P18  1  0.794548  0.570116  0.272743  1
  P  P19  1  0.202954  0.783290  0.787576  1
  P  P20  1  0.567358  0.791145  0.764367  1
  P  P21  1  0.194518  0.420577  0.824902  1
