# generated using pymatgen
data_SrSm5YFeI12
_symmetry_space_group_name_H-M   'P 1'
_cell_length_a   9.86102974
_cell_length_b   9.87320774
_cell_length_c   9.93526675
_cell_angle_alpha   106.11515426
_cell_angle_beta   106.47107926
_cell_angle_gamma   106.20235810
_symmetry_Int_Tables_number   1
_chemical_formula_structural   SrSm5YFeI12
_chemical_formula_sum   'Sr1 Sm5 Y1 Fe1 I12'
_cell_volume   821.22839888
_cell_formula_units_Z   1
loop_
 _symmetry_equiv_pos_site_id
 _symmetry_equiv_pos_as_xyz
  1  'x, y, z'
loop_
 _atom_site_type_symbol
 _atom_site_label
 _atom_site_symmetry_multiplicity
 _atom_site_fract_x
 _atom_site_fract_y
 _atom_site_fract_z
 _atom_site_occupancy
  Sr  Sr0  1  0.499835  0.499929  0.500110  1
  Sm  Sm1  1  0.713326  0.980291  0.909642  1
  Sm  Sm2  1  0.979590  0.904306  0.698711  1
  Sm  Sm3  1  0.090659  0.285734  0.019976  1
  Sm  Sm4  1  0.286928  0.020287  0.091992  1
  Sm  Sm5  1  0.909414  0.714655  0.980553  1
  Y  Y6  1  0.020749  0.094906  0.297485  1
  Fe  Fe7  1  0.000249  0.000221  0.000091  1
  I  I8  1  0.074369  0.225918  0.677220  1
  I  I9  1  0.365567  0.136956  0.448582  1
  I  I10  1  0.629645  0.862576  0.551023  1
  I  I11  1  0.225937  0.680148  0.074937  1
  I  I12  1  0.774137  0.319877  0.925254  1
  I  I13  1  0.683256  0.074592  0.226245  1
  I  I14  1  0.549847  0.630076  0.860898  1
  I  I15  1  0.862144  0.549382  0.632095  1
  I  I16  1  0.926675  0.778793  0.320875  1
  I  I17  1  0.322160  0.926554  0.777187  1
  I  I18  1  0.450298  0.369886  0.139256  1
  I  I19  1  0.135215  0.444913  0.367867  1
