# generated using pymatgen
data_Sm2Mn4Ni8P7
_symmetry_space_group_name_H-M   'P 1'
_cell_length_a   9.17724611
_cell_length_b   9.18770705
_cell_length_c   3.70561800
_cell_angle_alpha   90.00000000
_cell_angle_beta   90.00000000
_cell_angle_gamma   120.04021369
_symmetry_Int_Tables_number   1
_chemical_formula_structural   Sm2Mn4Ni8P7
_chemical_formula_sum   'Sm2 Mn4 Ni8 P7'
_cell_volume   270.47969568
_cell_formula_units_Z   1
loop_
 _symmetry_equiv_pos_site_id
 _symmetry_equiv_pos_as_xyz
  1  'x, y, z'
loop_
 _atom_site_type_symbol
 _atom_site_label
 _atom_site_symmetry_multiplicity
 _atom_site_fract_x
 _atom_site_fract_y
 _atom_site_fract_z
 _atom_site_occupancy
  Sm  Sm0  1  0.665431  0.331853  0.000000  1
  Sm  Sm1  1  0.333715  0.667621  0.500000  1
  Mn  Mn2  1  0.120168  0.845606  0.500000  1
  Mn  Mn3  1  0.220072  0.100539  0.000000  1
  Mn  Mn4  1  0.902147  0.118548  0.000000  1
  Mn  Mn5  1  0.877999  0.778120  0.000000  1
  Ni  Ni6  1  0.433942  0.062090  0.500000  1
  Ni  Ni7  1  0.941428  0.374823  0.500000  1
  Ni  Ni8  1  0.628083  0.567721  0.500000  1
  Ni  Ni9  1  0.152636  0.276993  0.500000  1
  Ni  Ni10  1  0.724671  0.877604  0.500000  1
  Ni  Ni11  1  0.385318  0.435126  0.000000  1
  Ni  Ni12  1  0.565475  0.948734  0.000000  1
  Ni  Ni13  1  0.049467  0.615531  0.000000  1
  P  P14  1  0.111015  0.401497  0.000000  1
  P  P15  1  0.597395  0.708867  0.000000  1
  P  P16  1  0.288348  0.889308  0.000000  1
  P  P17  1  0.002979  0.999904  0.500000  1
  P  P18  1  0.404370  0.294315  0.500000  1
  P  P19  1  0.704829  0.110451  0.500000  1
  P  P20  1  0.890513  0.594749  0.500000  1
