# generated using pymatgen
data_Dy4Al2ZnGaPt4
_symmetry_space_group_name_H-M   'P 1'
_cell_length_a   4.43039100
_cell_length_b   6.83407011
_cell_length_c   7.80913557
_cell_angle_alpha   89.69146254
_cell_angle_beta   90.00000000
_cell_angle_gamma   90.00000000
_symmetry_Int_Tables_number   1
_chemical_formula_structural   Dy4Al2ZnGaPt4
_chemical_formula_sum   'Dy4 Al2 Zn1 Ga1 Pt4'
_cell_volume   236.43847625
_cell_formula_units_Z   1
loop_
 _symmetry_equiv_pos_site_id
 _symmetry_equiv_pos_as_xyz
  1  'x, y, z'
loop_
 _atom_site_type_symbol
 _atom_site_label
 _atom_site_symmetry_multiplicity
 _atom_site_fract_x
 _atom_site_fract_y
 _atom_site_fract_z
 _atom_site_occupancy
  Dy  Dy0  1  0.250000  0.470868  0.181182  1
  Dy  Dy1  1  0.750000  0.530977  0.821475  1
  Dy  Dy2  1  0.750000  0.030039  0.686137  1
  Dy  Dy3  1  0.250000  0.972207  0.312363  1
  Al  Al4  1  0.750000  0.643955  0.439977  1
  Al  Al5  1  0.250000  0.351540  0.561853  1
  Zn  Zn6  1  0.250000  0.847783  0.933084  1
  Ga  Ga7  1  0.750000  0.149620  0.063194  1
  Pt  Pt8  1  0.250000  0.725704  0.608804  1
  Pt  Pt9  1  0.750000  0.272428  0.386902  1
  Pt  Pt10  1  0.750000  0.767959  0.125987  1
  Pt  Pt11  1  0.250000  0.236921  0.879039  1
