# generated using pymatgen
data_Tb4Ho5TmPb8
_symmetry_space_group_name_H-M   'P 1'
_cell_length_a   8.19596200
_cell_length_b   8.27910300
_cell_length_c   15.62577600
_cell_angle_alpha   90.00000000
_cell_angle_beta   90.00000000
_cell_angle_gamma   90.00000000
_symmetry_Int_Tables_number   1
_chemical_formula_structural   Tb4Ho5TmPb8
_chemical_formula_sum   'Tb8 Ho10 Tm2 Pb16'
_cell_volume   1060.29036787
_cell_formula_units_Z   2
loop_
 _symmetry_equiv_pos_site_id
 _symmetry_equiv_pos_as_xyz
  1  'x, y, z'
loop_
 _atom_site_type_symbol
 _atom_site_label
 _atom_site_symmetry_multiplicity
 _atom_site_fract_x
 _atom_site_fract_y
 _atom_site_fract_z
 _atom_site_occupancy
  Tb  Tb0  1  0.534243  0.323043  0.899988  1
  Tb  Tb1  1  0.034243  0.176957  0.600012  1
  Tb  Tb2  1  0.465735  0.676919  0.400043  1
  Tb  Tb3  1  0.965735  0.823081  0.099957  1
  Tb  Tb4  1  0.465735  0.676919  0.099957  1
  Tb  Tb5  1  0.965735  0.823081  0.400043  1
  Tb  Tb6  1  0.534243  0.323043  0.600012  1
  Tb  Tb7  1  0.034243  0.176957  0.899988  1
  Ho  Ho8  1  0.376610  0.840942  0.879176  1
  Ho  Ho9  1  0.876610  0.659058  0.620824  1
  Ho  Ho10  1  0.623471  0.159100  0.379256  1
  Ho  Ho11  1  0.123471  0.340900  0.120744  1
  Ho  Ho12  1  0.623471  0.159100  0.120744  1
  Ho  Ho13  1  0.123471  0.340900  0.379256  1
  Ho  Ho14  1  0.376610  0.840942  0.620824  1
  Ho  Ho15  1  0.876610  0.659058  0.879176  1
  Ho  Ho16  1  0.791722  0.495643  0.250000  1
  Ho  Ho17  1  0.291722  0.004357  0.250000  1
  Tm  Tm18  1  0.208367  0.504366  0.750000  1
  Tm  Tm19  1  0.708367  0.995634  0.750000  1
  Pb  Pb20  1  0.282174  0.033904  0.042703  1
  Pb  Pb21  1  0.782174  0.466096  0.457297  1
  Pb  Pb22  1  0.717852  0.966179  0.543022  1
  Pb  Pb23  1  0.217852  0.533821  0.956978  1
  Pb  Pb24  1  0.717852  0.966179  0.956978  1
  Pb  Pb25  1  0.217852  0.533821  0.543022  1
  Pb  Pb26  1  0.282174  0.033904  0.457297  1
  Pb  Pb27  1  0.782174  0.466096  0.042703  1
  Pb  Pb28  1  0.571393  0.627129  0.750000  1
  Pb  Pb29  1  0.071393  0.872871  0.750000  1
  Pb  Pb30  1  0.428146  0.372914  0.250000  1
  Pb  Pb31  1  0.928146  0.127086  0.250000  1
  Pb  Pb32  1  0.345481  0.152570  0.750000  1
  Pb  Pb33  1  0.845481  0.347430  0.750000  1
  Pb  Pb34  1  0.654720  0.847970  0.250000  1
  Pb  Pb35  1  0.154720  0.652030  0.250000  1
