# generated using pymatgen
data_LiSc(Nb2N3)2
_symmetry_space_group_name_H-M   'P 1'
_cell_length_a   5.26440200
_cell_length_b   5.26440075
_cell_length_c   10.47892200
_cell_angle_alpha   90.00000000
_cell_angle_beta   90.00000000
_cell_angle_gamma   119.99999530
_symmetry_Int_Tables_number   1
_chemical_formula_structural   LiSc(Nb2N3)2
_chemical_formula_sum   'Li2 Sc2 Nb8 N12'
_cell_volume   251.50420328
_cell_formula_units_Z   2
loop_
 _symmetry_equiv_pos_site_id
 _symmetry_equiv_pos_as_xyz
  1  'x, y, z'
loop_
 _atom_site_type_symbol
 _atom_site_label
 _atom_site_symmetry_multiplicity
 _atom_site_fract_x
 _atom_site_fract_y
 _atom_site_fract_z
 _atom_site_occupancy
  Li  Li0  1  0.333333  0.666667  0.000000  1
  Li  Li1  1  0.333333  0.666667  0.500000  1
  Sc  Sc2  1  0.666667  0.333333  0.500000  1
  Sc  Sc3  1  0.666667  0.333333  0.000000  1
  Nb  Nb4  1  0.003400  0.338519  0.250000  1
  Nb  Nb5  1  0.661481  0.996600  0.750000  1
  Nb  Nb6  1  0.335119  0.338519  0.750000  1
  Nb  Nb7  1  0.000000  0.000000  0.500000  1
  Nb  Nb8  1  0.000000  0.000000  0.000000  1
  Nb  Nb9  1  0.661481  0.664881  0.250000  1
  Nb  Nb10  1  0.335119  0.996600  0.250000  1
  Nb  Nb11  1  0.003400  0.664881  0.750000  1
  N  N12  1  0.671301  0.671290  0.621801  1
  N  N13  1  0.671301  0.671290  0.878199  1
  N  N14  1  0.328710  0.328699  0.121801  1
  N  N15  1  0.328710  0.328699  0.378199  1
  N  N16  1  0.328710  0.000011  0.878199  1
  N  N17  1  0.328710  0.000011  0.621801  1
  N  N18  1  0.999989  0.671290  0.378199  1
  N  N19  1  0.999989  0.671290  0.121801  1
  N  N20  1  0.671301  0.000011  0.121801  1
  N  N21  1  0.671301  0.000011  0.378199  1
  N  N22  1  0.999989  0.328699  0.878199  1
  N  N23  1  0.999989  0.328699  0.621801  1
