# generated using pymatgen
data_Cs2KSnTe3
_symmetry_space_group_name_H-M   'P 1'
_cell_length_a   11.44405795
_cell_length_b   11.44405010
_cell_length_c   10.65478400
_cell_angle_alpha   86.30972285
_cell_angle_beta   86.30977555
_cell_angle_gamma   79.23582949
_symmetry_Int_Tables_number   1
_chemical_formula_structural   Cs2KSnTe3
_chemical_formula_sum   'Cs8 K4 Sn4 Te12'
_cell_volume   1366.07143209
_cell_formula_units_Z   4
loop_
 _symmetry_equiv_pos_site_id
 _symmetry_equiv_pos_as_xyz
  1  'x, y, z'
loop_
 _atom_site_type_symbol
 _atom_site_label
 _atom_site_symmetry_multiplicity
 _atom_site_fract_x
 _atom_site_fract_y
 _atom_site_fract_z
 _atom_site_occupancy
  Cs  Cs0  1  0.793772  0.398211  0.867988  1
  Cs  Cs1  1  0.601789  0.206229  0.632012  1
  Cs  Cs2  1  0.206228  0.601789  0.132012  1
  Cs  Cs3  1  0.398211  0.793771  0.367988  1
  Cs  Cs4  1  0.752187  0.803665  0.685214  1
  Cs  Cs5  1  0.196335  0.247813  0.814786  1
  Cs  Cs6  1  0.247813  0.196335  0.314786  1
  Cs  Cs7  1  0.803665  0.752187  0.185214  1
  K  K8  1  0.597184  0.402816  0.250000  1
  K  K9  1  0.402816  0.597184  0.750000  1
  K  K10  1  0.909303  0.090697  0.250000  1
  K  K11  1  0.090697  0.909303  0.750000  1
  Sn  Sn12  1  0.914938  0.428019  0.459649  1
  Sn  Sn13  1  0.571981  0.085062  0.040351  1
  Sn  Sn14  1  0.085062  0.571981  0.540351  1
  Sn  Sn15  1  0.428019  0.914938  0.959649  1
  Te  Te16  1  0.059642  0.593690  0.801889  1
  Te  Te17  1  0.406310  0.940359  0.698110  1
  Te  Te18  1  0.940358  0.406310  0.198111  1
  Te  Te19  1  0.593690  0.059641  0.301890  1
  Te  Te20  1  0.041333  0.802365  0.431568  1
  Te  Te21  1  0.197635  0.958667  0.068432  1
  Te  Te22  1  0.958667  0.197635  0.568432  1
  Te  Te23  1  0.802365  0.041333  0.931568  1
  Te  Te24  1  0.677271  0.533469  0.519669  1
  Te  Te25  1  0.466531  0.322729  0.980331  1
  Te  Te26  1  0.322729  0.466531  0.480331  1
  Te  Te27  1  0.533469  0.677271  0.019669  1
