# generated using pymatgen
data_Zr6Ga6PdPt4Rh
_symmetry_space_group_name_H-M   'P 1'
_cell_length_a   7.25354000
_cell_length_b   7.25354181
_cell_length_c   7.04367300
_cell_angle_alpha   90.00000000
_cell_angle_beta   90.00000000
_cell_angle_gamma   119.99999174
_symmetry_Int_Tables_number   1
_chemical_formula_structural   Zr6Ga6PdPt4Rh
_chemical_formula_sum   'Zr6 Ga6 Pd1 Pt4 Rh1'
_cell_volume   320.94453341
_cell_formula_units_Z   1
loop_
 _symmetry_equiv_pos_site_id
 _symmetry_equiv_pos_as_xyz
  1  'x, y, z'
loop_
 _atom_site_type_symbol
 _atom_site_label
 _atom_site_symmetry_multiplicity
 _atom_site_fract_x
 _atom_site_fract_y
 _atom_site_fract_z
 _atom_site_occupancy
  Zr  Zr0  1  0.393788  0.417890  0.750000  1
  Zr  Zr1  1  0.024102  0.606212  0.750000  1
  Zr  Zr2  1  0.582110  0.975898  0.750000  1
  Zr  Zr3  1  0.618558  0.021333  0.250000  1
  Zr  Zr4  1  0.978667  0.597226  0.250000  1
  Zr  Zr5  1  0.402774  0.381442  0.250000  1
  Ga  Ga6  1  0.265135  0.998637  0.001296  1
  Ga  Ga7  1  0.733502  0.734865  0.001296  1
  Ga  Ga8  1  0.001363  0.266498  0.001296  1
  Ga  Ga9  1  0.733502  0.734865  0.498704  1
  Ga  Ga10  1  0.265135  0.998637  0.498704  1
  Ga  Ga11  1  0.001363  0.266498  0.498704  1
  Pd  Pd12  1  0.000000  0.000000  0.750000  1
  Pt  Pt13  1  0.666667  0.333333  0.971079  1
  Pt  Pt14  1  0.666667  0.333333  0.528921  1
  Pt  Pt15  1  0.333333  0.666667  0.464744  1
  Pt  Pt16  1  0.333333  0.666667  0.035256  1
  Rh  Rh17  1  0.000000  0.000000  0.250000  1
