# generated using pymatgen
data_Er20Sn12C
_symmetry_space_group_name_H-M   'P 1'
_cell_length_a   6.50278599
_cell_length_b   8.87178256
_cell_length_c   15.42057000
_cell_angle_alpha   90.00000646
_cell_angle_beta   90.00000000
_cell_angle_gamma   89.92778688
_symmetry_Int_Tables_number   1
_chemical_formula_structural   Er20Sn12C
_chemical_formula_sum   'Er20 Sn12 C1'
_cell_volume   889.63207490
_cell_formula_units_Z   1
loop_
 _symmetry_equiv_pos_site_id
 _symmetry_equiv_pos_as_xyz
  1  'x, y, z'
loop_
 _atom_site_type_symbol
 _atom_site_label
 _atom_site_symmetry_multiplicity
 _atom_site_fract_x
 _atom_site_fract_y
 _atom_site_fract_z
 _atom_site_occupancy
  Er  Er0  1  0.500024  0.000176  0.334627  1
  Er  Er1  1  0.500055  0.499906  0.831358  1
  Er  Er2  1  0.500055  0.499906  0.168642  1
  Er  Er3  1  0.500024  0.000176  0.665373  1
  Er  Er4  1  0.000095  0.499956  0.163965  1
  Er  Er5  1  0.999968  0.000056  0.669080  1
  Er  Er6  1  0.999968  0.000056  0.330920  1
  Er  Er7  1  0.000095  0.499956  0.836035  1
  Er  Er8  1  0.721960  0.226128  0.000000  1
  Er  Er9  1  0.750050  0.739678  0.500000  1
  Er  Er10  1  0.751657  0.381425  0.381664  1
  Er  Er11  1  0.722877  0.884542  0.886005  1
  Er  Er12  1  0.722877  0.884542  0.113995  1
  Er  Er13  1  0.751657  0.381425  0.618336  1
  Er  Er14  1  0.278215  0.773736  0.000000  1
  Er  Er15  1  0.249934  0.260219  0.500000  1
  Er  Er16  1  0.277127  0.115318  0.114044  1
  Er  Er17  1  0.248448  0.618609  0.618315  1
  Er  Er18  1  0.248448  0.618609  0.381685  1
  Er  Er19  1  0.277127  0.115318  0.885956  1
  Sn  Sn20  1  0.743892  0.598727  0.000000  1
  Sn  Sn21  1  0.753687  0.104190  0.500000  1
  Sn  Sn22  1  0.748294  0.199494  0.199448  1
  Sn  Sn23  1  0.751986  0.698545  0.698192  1
  Sn  Sn24  1  0.751986  0.698545  0.301808  1
  Sn  Sn25  1  0.748294  0.199494  0.800552  1
  Sn  Sn26  1  0.256572  0.401163  0.000000  1
  Sn  Sn27  1  0.246363  0.895858  0.500000  1
  Sn  Sn28  1  0.247549  0.301654  0.301867  1
  Sn  Sn29  1  0.251621  0.800496  0.800547  1
  Sn  Sn30  1  0.251621  0.800496  0.199453  1
  Sn  Sn31  1  0.247549  0.301654  0.698133  1
  C  C32  1  0.499928  0.999949  0.000000  1
