# generated using pymatgen
data_Mg3Sn3Pd2Rh
_symmetry_space_group_name_H-M   'P 1'
_cell_length_a   7.58890200
_cell_length_b   7.58890020
_cell_length_c   3.47996200
_cell_angle_alpha   90.00000000
_cell_angle_beta   90.00000000
_cell_angle_gamma   119.99999039
_symmetry_Int_Tables_number   1
_chemical_formula_structural   Mg3Sn3Pd2Rh
_chemical_formula_sum   'Mg3 Sn3 Pd2 Rh1'
_cell_volume   173.56532335
_cell_formula_units_Z   1
loop_
 _symmetry_equiv_pos_site_id
 _symmetry_equiv_pos_as_xyz
  1  'x, y, z'
loop_
 _atom_site_type_symbol
 _atom_site_label
 _atom_site_symmetry_multiplicity
 _atom_site_fract_x
 _atom_site_fract_y
 _atom_site_fract_z
 _atom_site_occupancy
  Mg  Mg0  1  0.389205  0.000000  0.500000  1
  Mg  Mg1  1  0.000000  0.389205  0.500000  1
  Mg  Mg2  1  0.610795  0.610795  0.500000  1
  Sn  Sn3  1  0.725247  0.000000  0.000000  1
  Sn  Sn4  1  0.000000  0.725247  0.000000  1
  Sn  Sn5  1  0.274753  0.274753  0.000000  1
  Pd  Pd6  1  0.333333  0.666667  0.000000  1
  Pd  Pd7  1  0.666667  0.333333  0.000000  1
  Rh  Rh8  1  0.000000  0.000000  0.500000  1
