# generated using pymatgen
data_Dy2YTm3FeBi2
_symmetry_space_group_name_H-M   'P 1'
_cell_length_a   8.29699000
_cell_length_b   8.26004080
_cell_length_c   4.18631600
_cell_angle_alpha   90.00000000
_cell_angle_beta   90.00000000
_cell_angle_gamma   120.14808445
_symmetry_Int_Tables_number   1
_chemical_formula_structural   Dy2YTm3FeBi2
_chemical_formula_sum   'Dy2 Y1 Tm3 Fe1 Bi2'
_cell_volume   248.09351346
_cell_formula_units_Z   1
loop_
 _symmetry_equiv_pos_site_id
 _symmetry_equiv_pos_as_xyz
  1  'x, y, z'
loop_
 _atom_site_type_symbol
 _atom_site_label
 _atom_site_symmetry_multiplicity
 _atom_site_fract_x
 _atom_site_fract_y
 _atom_site_fract_z
 _atom_site_occupancy
  Dy  Dy0  1  0.000166  0.609498  0.000000  1
  Dy  Dy1  1  0.390668  0.390502  0.000000  1
  Y  Y2  1  0.608296  0.000000  0.000000  1
  Tm  Tm3  1  0.228284  0.000000  0.500000  1
  Tm  Tm4  1  0.000685  0.229163  0.500000  1
  Tm  Tm5  1  0.771521  0.770837  0.500000  1
  Fe  Fe6  1  0.000588  0.000000  0.000000  1
  Bi  Bi7  1  0.333226  0.666661  0.500000  1
  Bi  Bi8  1  0.666566  0.333339  0.500000  1
