# generated using pymatgen
data_Nd3Ho(Sn5Rh3)2
_symmetry_space_group_name_H-M   'P 1'
_cell_length_a   13.57934356
_cell_length_b   13.57934406
_cell_length_c   7.24440802
_cell_angle_alpha   90.14530440
_cell_angle_beta   89.85469528
_cell_angle_gamma   160.85225046
_symmetry_Int_Tables_number   1
_chemical_formula_structural   Nd3Ho(Sn5Rh3)2
_chemical_formula_sum   'Nd3 Ho1 Sn10 Rh6'
_cell_volume   438.16722243
_cell_formula_units_Z   1
loop_
 _symmetry_equiv_pos_site_id
 _symmetry_equiv_pos_as_xyz
  1  'x, y, z'
loop_
 _atom_site_type_symbol
 _atom_site_label
 _atom_site_symmetry_multiplicity
 _atom_site_fract_x
 _atom_site_fract_y
 _atom_site_fract_z
 _atom_site_occupancy
  Nd  Nd0  1  0.172114  0.827886  0.745510  1
  Nd  Nd1  1  0.827821  0.172179  0.245089  1
  Nd  Nd2  1  0.476428  0.523572  0.761833  1
  Ho  Ho3  1  0.524553  0.475447  0.262134  1
  Sn  Sn4  1  0.878851  0.121149  0.767765  1
  Sn  Sn5  1  0.120518  0.879482  0.267460  1
  Sn  Sn6  1  0.704099  0.295901  0.451199  1
  Sn  Sn7  1  0.295437  0.704563  0.951025  1
  Sn  Sn8  1  0.596135  0.403865  0.890238  1
  Sn  Sn9  1  0.404461  0.595539  0.388352  1
  Sn  Sn10  1  0.953093  0.046907  0.101622  1
  Sn  Sn11  1  0.047931  0.952069  0.598229  1
  Sn  Sn12  1  0.290326  0.709674  0.523256  1
  Sn  Sn13  1  0.709377  0.290623  0.023666  1
  Rh  Rh14  1  0.050904  0.949096  0.986670  1
  Rh  Rh15  1  0.949376  0.050624  0.480473  1
  Rh  Rh16  1  0.777094  0.222906  0.734912  1
  Rh  Rh17  1  0.222582  0.777418  0.235031  1
  Rh  Rh18  1  0.394810  0.605190  0.016399  1
  Rh  Rh19  1  0.604089  0.395911  0.513137  1
