# generated using pymatgen
data_DyHo2Mg(GaPt)4
_symmetry_space_group_name_H-M   'P 1'
_cell_length_a   4.34080900
_cell_length_b   6.84475660
_cell_length_c   7.74036924
_cell_angle_alpha   86.13296439
_cell_angle_beta   90.00000000
_cell_angle_gamma   90.00000000
_symmetry_Int_Tables_number   1
_chemical_formula_structural   DyHo2Mg(GaPt)4
_chemical_formula_sum   'Dy1 Ho2 Mg1 Ga4 Pt4'
_cell_volume   229.45654754
_cell_formula_units_Z   1
loop_
 _symmetry_equiv_pos_site_id
 _symmetry_equiv_pos_as_xyz
  1  'x, y, z'
loop_
 _atom_site_type_symbol
 _atom_site_label
 _atom_site_symmetry_multiplicity
 _atom_site_fract_x
 _atom_site_fract_y
 _atom_site_fract_z
 _atom_site_occupancy
  Dy  Dy0  1  0.250000  0.523133  0.690711  1
  Ho  Ho1  1  0.750000  0.979636  0.178158  1
  Ho  Ho2  1  0.750000  0.471923  0.311494  1
  Mg  Mg3  1  0.250000  0.023413  0.819861  1
  Ga  Ga4  1  0.250000  0.149089  0.441241  1
  Ga  Ga5  1  0.250000  0.665336  0.064003  1
  Ga  Ga6  1  0.750000  0.845104  0.565423  1
  Ga  Ga7  1  0.750000  0.345417  0.930299  1
  Pt  Pt8  1  0.250000  0.770539  0.378815  1
  Pt  Pt9  1  0.250000  0.273578  0.109872  1
  Pt  Pt10  1  0.750000  0.217682  0.623496  1
  Pt  Pt11  1  0.750000  0.735152  0.886630  1
