# generated using pymatgen
data_DyEr5(CI3)2
_symmetry_space_group_name_H-M   'P 1'
_cell_length_a   3.88046900
_cell_length_b   8.63988488
_cell_length_c   11.85465658
_cell_angle_alpha   92.23318494
_cell_angle_beta   90.00000000
_cell_angle_gamma   90.00000000
_symmetry_Int_Tables_number   1
_chemical_formula_structural   DyEr5(CI3)2
_chemical_formula_sum   'Dy1 Er5 C2 I6'
_cell_volume   397.14690819
_cell_formula_units_Z   1
loop_
 _symmetry_equiv_pos_site_id
 _symmetry_equiv_pos_as_xyz
  1  'x, y, z'
loop_
 _atom_site_type_symbol
 _atom_site_label
 _atom_site_symmetry_multiplicity
 _atom_site_fract_x
 _atom_site_fract_y
 _atom_site_fract_z
 _atom_site_occupancy
  Dy  Dy0  1  0.250000  0.918096  0.599233  1
  Er  Er1  1  0.750000  0.079797  0.402121  1
  Er  Er2  1  0.250000  0.887527  0.189149  1
  Er  Er3  1  0.750000  0.112944  0.809947  1
  Er  Er4  1  0.250000  0.290612  0.615333  1
  Er  Er5  1  0.750000  0.709909  0.384395  1
  C  C6  1  0.250000  0.883225  0.386298  1
  C  C7  1  0.750000  0.118979  0.612004  1
  I  I8  1  0.250000  0.860719  0.873110  1
  I  I9  1  0.750000  0.140229  0.128664  1
  I  I10  1  0.250000  0.374562  0.870501  1
  I  I11  1  0.750000  0.625413  0.129614  1
  I  I12  1  0.250000  0.382453  0.369016  1
  I  I13  1  0.750000  0.615536  0.630616  1
