# generated using pymatgen
data_Tb10Dy10Si15Os
_symmetry_space_group_name_H-M   'P 1'
_cell_length_a   7.40039083
_cell_length_b   7.75932113
_cell_length_c   14.60264162
_cell_angle_alpha   90.02058288
_cell_angle_beta   90.02637687
_cell_angle_gamma   90.05854890
_symmetry_Int_Tables_number   1
_chemical_formula_structural   Tb10Dy10Si15Os
_chemical_formula_sum   'Tb10 Dy10 Si15 Os1'
_cell_volume   838.51243657
_cell_formula_units_Z   1
loop_
 _symmetry_equiv_pos_site_id
 _symmetry_equiv_pos_as_xyz
  1  'x, y, z'
loop_
 _atom_site_type_symbol
 _atom_site_label
 _atom_site_symmetry_multiplicity
 _atom_site_fract_x
 _atom_site_fract_y
 _atom_site_fract_z
 _atom_site_occupancy
  Tb  Tb0  1  0.672041  0.185295  0.874841  1
  Tb  Tb1  1  0.191043  0.323727  0.626445  1
  Tb  Tb2  1  0.522800  0.673996  0.597110  1
  Tb  Tb3  1  0.026915  0.816340  0.903292  1
  Tb  Tb4  1  0.473051  0.315540  0.097450  1
  Tb  Tb5  1  0.973222  0.183526  0.402652  1
  Tb  Tb6  1  0.473267  0.315495  0.402619  1
  Tb  Tb7  1  0.973263  0.183565  0.097336  1
  Tb  Tb8  1  0.522470  0.673927  0.902804  1
  Tb  Tb9  1  0.026919  0.816194  0.596718  1
  Dy  Dy10  1  0.672240  0.185142  0.625041  1
  Dy  Dy11  1  0.190956  0.324027  0.873619  1
  Dy  Dy12  1  0.318863  0.819092  0.123645  1
  Dy  Dy13  1  0.817509  0.679077  0.376930  1
  Dy  Dy14  1  0.318857  0.819193  0.376443  1
  Dy  Dy15  1  0.817389  0.679080  0.123108  1
  Dy  Dy16  1  0.840264  0.512350  0.749938  1
  Dy  Dy17  1  0.354568  0.986217  0.749965  1
  Dy  Dy18  1  0.150426  0.484469  0.250056  1
  Dy  Dy19  1  0.649884  0.014351  0.250034  1
  Si  Si20  1  0.645615  0.971460  0.460199  1
  Si  Si21  1  0.148362  0.528642  0.039565  1
  Si  Si22  1  0.349344  0.025149  0.961152  1
  Si  Si23  1  0.856227  0.471536  0.538973  1
  Si  Si24  1  0.350091  0.025013  0.538901  1
  Si  Si25  1  0.857100  0.471635  0.960948  1
  Si  Si26  1  0.645382  0.971189  0.040026  1
  Si  Si27  1  0.148189  0.528864  0.460256  1
  Si  Si28  1  0.979030  0.100423  0.749926  1
  Si  Si29  1  0.524126  0.603701  0.250007  1
  Si  Si30  1  0.021329  0.894907  0.250010  1
  Si  Si31  1  0.741328  0.876409  0.749861  1
  Si  Si32  1  0.231846  0.632721  0.750215  1
  Si  Si33  1  0.266943  0.126939  0.249999  1
  Si  Si34  1  0.768271  0.373730  0.250007  1
  Os  Os35  1  0.480868  0.407078  0.749909  1
