# generated using pymatgen
data_TbLu11Os3Ru
_symmetry_space_group_name_H-M   'P 1'
_cell_length_a   6.19086397
_cell_length_b   7.29409775
_cell_length_c   8.86504500
_cell_angle_alpha   90.00000000
_cell_angle_beta   90.00000000
_cell_angle_gamma   90.17613495
_symmetry_Int_Tables_number   1
_chemical_formula_structural   TbLu11Os3Ru
_chemical_formula_sum   'Tb1 Lu11 Os3 Ru1'
_cell_volume   400.31487962
_cell_formula_units_Z   1
loop_
 _symmetry_equiv_pos_site_id
 _symmetry_equiv_pos_as_xyz
  1  'x, y, z'
loop_
 _atom_site_type_symbol
 _atom_site_label
 _atom_site_symmetry_multiplicity
 _atom_site_fract_x
 _atom_site_fract_y
 _atom_site_fract_z
 _atom_site_occupancy
  Tb  Tb0  1  0.631396  0.039647  0.250000  1
  Lu  Lu1  1  0.332370  0.673991  0.061599  1
  Lu  Lu2  1  0.165767  0.176046  0.438262  1
  Lu  Lu3  1  0.668287  0.325807  0.562940  1
  Lu  Lu4  1  0.831891  0.822971  0.935435  1
  Lu  Lu5  1  0.668287  0.325807  0.937060  1
  Lu  Lu6  1  0.831891  0.822971  0.564565  1
  Lu  Lu7  1  0.332370  0.673991  0.438401  1
  Lu  Lu8  1  0.165767  0.176046  0.061738  1
  Lu  Lu9  1  0.870561  0.541018  0.250000  1
  Lu  Lu10  1  0.130200  0.459939  0.750000  1
  Lu  Lu11  1  0.369932  0.960334  0.750000  1
  Os  Os12  1  0.459682  0.385342  0.250000  1
  Os  Os13  1  0.961370  0.116717  0.750000  1
  Os  Os14  1  0.538412  0.616784  0.750000  1
  Ru  Ru15  1  0.041819  0.882588  0.250000  1
