# generated using pymatgen
data_CaEuUIr3
_symmetry_space_group_name_H-M   'P 1'
_cell_length_a   5.37956177
_cell_length_b   5.37956243
_cell_length_c   5.37956200
_cell_angle_alpha   65.81796411
_cell_angle_beta   65.81797262
_cell_angle_gamma   65.81796504
_symmetry_Int_Tables_number   1
_chemical_formula_structural   CaEuUIr3
_chemical_formula_sum   'Ca1 Eu1 U1 Ir3'
_cell_volume   123.96781984
_cell_formula_units_Z   1
loop_
 _symmetry_equiv_pos_site_id
 _symmetry_equiv_pos_as_xyz
  1  'x, y, z'
loop_
 _atom_site_type_symbol
 _atom_site_label
 _atom_site_symmetry_multiplicity
 _atom_site_fract_x
 _atom_site_fract_y
 _atom_site_fract_z
 _atom_site_occupancy
  Ca  Ca0  1  0.000122  0.000122  0.000122  1
  Eu  Eu1  1  0.244784  0.244784  0.244784  1
  U  U2  1  0.626260  0.626260  0.626260  1
  Ir  Ir3  1  0.126264  0.626285  0.626285  1
  Ir  Ir4  1  0.626285  0.126264  0.626285  1
  Ir  Ir5  1  0.626285  0.626285  0.126264  1
