# generated using pymatgen
data_Eu2NbVO6
_symmetry_space_group_name_H-M   'P 1'
_cell_length_a   5.68079853
_cell_length_b   5.68609498
_cell_length_c   9.85622970
_cell_angle_alpha   73.00537991
_cell_angle_beta   90.05962896
_cell_angle_gamma   119.90535287
_symmetry_Int_Tables_number   1
_chemical_formula_structural   Eu2NbVO6
_chemical_formula_sum   'Eu4 Nb2 V2 O12'
_cell_volume   259.87835724
_cell_formula_units_Z   2
loop_
 _symmetry_equiv_pos_site_id
 _symmetry_equiv_pos_as_xyz
  1  'x, y, z'
loop_
 _atom_site_type_symbol
 _atom_site_label
 _atom_site_symmetry_multiplicity
 _atom_site_fract_x
 _atom_site_fract_y
 _atom_site_fract_z
 _atom_site_occupancy
  Eu  Eu0  1  0.624548  0.249334  0.124427  1
  Eu  Eu1  1  0.125508  0.251238  0.625714  1
  Eu  Eu2  1  0.874492  0.748762  0.374286  1
  Eu  Eu3  1  0.375452  0.750667  0.875573  1
  Nb  Nb4  1  0.249912  0.501044  0.249922  1
  Nb  Nb5  1  0.750088  0.498956  0.750079  1
  V  V6  1  0.500000  0.000000  0.500000  1
  V  V7  1  0.000000  0.000000  0.000000  1
  O  O8  1  0.128733  0.258096  0.124928  1
  O  O9  1  0.622589  0.244355  0.626220  1
  O  O10  1  0.377024  0.254704  0.375657  1
  O  O11  1  0.873905  0.245285  0.874328  1
  O  O12  1  0.626465  0.755107  0.124441  1
  O  O13  1  0.121667  0.742747  0.626264  1
  O  O14  1  0.377411  0.755645  0.373780  1
  O  O15  1  0.871267  0.741904  0.875072  1
  O  O16  1  0.126095  0.754715  0.125672  1
  O  O17  1  0.622977  0.745296  0.624343  1
  O  O18  1  0.878333  0.257253  0.373736  1
  O  O19  1  0.373535  0.244893  0.875559  1
