# generated using pymatgen
data_LiSc8Si16Tc11
_symmetry_space_group_name_H-M   'P 1'
_cell_length_a   6.64050163
_cell_length_b   6.64752092
_cell_length_c   12.34877991
_cell_angle_alpha   90.10182127
_cell_angle_beta   90.07584087
_cell_angle_gamma   89.56678687
_symmetry_Int_Tables_number   1
_chemical_formula_structural   LiSc8Si16Tc11
_chemical_formula_sum   'Li1 Sc8 Si16 Tc11'
_cell_volume   545.09371892
_cell_formula_units_Z   1
loop_
 _symmetry_equiv_pos_site_id
 _symmetry_equiv_pos_as_xyz
  1  'x, y, z'
loop_
 _atom_site_type_symbol
 _atom_site_label
 _atom_site_symmetry_multiplicity
 _atom_site_fract_x
 _atom_site_fract_y
 _atom_site_fract_z
 _atom_site_occupancy
  Li  Li0  1  0.821331  0.999683  0.372834  1
  Sc  Sc1  1  0.004655  0.660510  0.030771  1
  Sc  Sc2  1  0.843869  0.502966  0.281707  1
  Sc  Sc3  1  0.159687  0.499239  0.780464  1
  Sc  Sc4  1  0.501367  0.842622  0.719429  1
  Sc  Sc5  1  0.494654  0.157044  0.218434  1
  Sc  Sc6  1  0.992663  0.339453  0.530564  1
  Sc  Sc7  1  0.660757  0.006672  0.969143  1
  Sc  Sc8  1  0.339734  0.997755  0.470248  1
  Si  Si9  1  0.285777  0.970766  0.064816  1
  Si  Si10  1  0.527864  0.780247  0.316518  1
  Si  Si11  1  0.471828  0.223698  0.813920  1
  Si  Si12  1  0.777914  0.529064  0.686129  1
  Si  Si13  1  0.218276  0.466484  0.185210  1
  Si  Si14  1  0.720092  0.025167  0.566320  1
  Si  Si15  1  0.972080  0.287172  0.933709  1
  Si  Si16  1  0.031901  0.716421  0.435930  1
  Si  Si17  1  0.695488  0.378059  0.067939  1
  Si  Si18  1  0.116168  0.193057  0.314757  1
  Si  Si19  1  0.876155  0.808534  0.816238  1
  Si  Si20  1  0.194872  0.125486  0.683697  1
  Si  Si21  1  0.805316  0.879313  0.184251  1
  Si  Si22  1  0.304651  0.621415  0.565688  1
  Si  Si23  1  0.376909  0.696232  0.932605  1
  Si  Si24  1  0.630897  0.303508  0.430620  1
  Tc  Tc25  1  0.335823  0.333739  0.997792  1
  Tc  Tc26  1  0.165295  0.830265  0.253855  1
  Tc  Tc27  1  0.827023  0.170501  0.751131  1
  Tc  Tc28  1  0.665898  0.666938  0.501733  1
  Tc  Tc29  1  0.985408  0.174699  0.123692  1
  Tc  Tc30  1  0.322894  0.478914  0.379240  1
  Tc  Tc31  1  0.683726  0.526973  0.881492  1
  Tc  Tc32  1  0.480265  0.317104  0.617505  1
  Tc  Tc33  1  0.512592  0.679984  0.120350  1
  Tc  Tc34  1  0.022043  0.826443  0.629590  1
  Tc  Tc35  1  0.174131  0.983874  0.871677  1
