# generated using pymatgen
data_Yb2Ga8Ni9
_symmetry_space_group_name_H-M   'P 1'
_cell_length_a   6.45057318
_cell_length_b   6.44673832
_cell_length_c   6.44467900
_cell_angle_alpha   85.51291118
_cell_angle_beta   94.52407329
_cell_angle_gamma   94.51155224
_symmetry_Int_Tables_number   1
_chemical_formula_structural   Yb2Ga8Ni9
_chemical_formula_sum   'Yb2 Ga8 Ni9'
_cell_volume   265.63964358
_cell_formula_units_Z   1
loop_
 _symmetry_equiv_pos_site_id
 _symmetry_equiv_pos_as_xyz
  1  'x, y, z'
loop_
 _atom_site_type_symbol
 _atom_site_label
 _atom_site_symmetry_multiplicity
 _atom_site_fract_x
 _atom_site_fract_y
 _atom_site_fract_z
 _atom_site_occupancy
  Yb  Yb0  1  0.632755  0.367272  0.367303  1
  Yb  Yb1  1  0.367246  0.632730  0.632698  1
  Ga  Ga2  1  0.321793  0.321781  0.999963  1
  Ga  Ga3  1  0.678207  0.678219  0.000037  1
  Ga  Ga4  1  0.875199  0.124662  0.124630  1
  Ga  Ga5  1  0.999971  0.678240  0.321709  1
  Ga  Ga6  1  0.321829  0.999990  0.321775  1
  Ga  Ga7  1  0.678171  0.000010  0.678225  1
  Ga  Ga8  1  0.000029  0.321760  0.678290  1
  Ga  Ga9  1  0.124802  0.875340  0.875371  1
  Ni  Ni10  1  0.500000  0.000000  0.000000  1
  Ni  Ni11  1  0.000000  0.500000  0.000000  1
  Ni  Ni12  1  0.337887  0.662132  0.162548  1
  Ni  Ni13  1  0.162478  0.337990  0.337839  1
  Ni  Ni14  1  0.662010  0.837440  0.337846  1
  Ni  Ni15  1  0.000000  0.000000  0.500000  1
  Ni  Ni16  1  0.837521  0.662010  0.662160  1
  Ni  Ni17  1  0.337991  0.162559  0.662155  1
  Ni  Ni18  1  0.662113  0.337868  0.837451  1
