# generated using pymatgen
data_Li4Pr(ThSi2)3
_symmetry_space_group_name_H-M   'P 1'
_cell_length_a   9.46290369
_cell_length_b   9.46290442
_cell_length_c   6.76696800
_cell_angle_alpha   90.00000000
_cell_angle_beta   90.00000000
_cell_angle_gamma   152.79958336
_symmetry_Int_Tables_number   1
_chemical_formula_structural   Li4Pr(ThSi2)3
_chemical_formula_sum   'Li4 Pr1 Th3 Si6'
_cell_volume   276.98636638
_cell_formula_units_Z   1
loop_
 _symmetry_equiv_pos_site_id
 _symmetry_equiv_pos_as_xyz
  1  'x, y, z'
loop_
 _atom_site_type_symbol
 _atom_site_label
 _atom_site_symmetry_multiplicity
 _atom_site_fract_x
 _atom_site_fract_y
 _atom_site_fract_z
 _atom_site_occupancy
  Li  Li0  1  0.811389  0.188611  0.566654  1
  Li  Li1  1  0.187954  0.812046  0.437728  1
  Li  Li2  1  0.187954  0.812046  0.062272  1
  Li  Li3  1  0.811389  0.188611  0.933346  1
  Pr  Pr4  1  0.655585  0.344415  0.750000  1
  Th  Th5  1  0.550165  0.449835  0.250000  1
  Th  Th6  1  0.449470  0.550530  0.750000  1
  Th  Th7  1  0.343555  0.656445  0.250000  1
  Si  Si8  1  0.939730  0.060270  0.069900  1
  Si  Si9  1  0.058616  0.941384  0.931348  1
  Si  Si10  1  0.058616  0.941384  0.568652  1
  Si  Si11  1  0.939730  0.060270  0.430100  1
  Si  Si12  1  0.722168  0.277832  0.250000  1
  Si  Si13  1  0.283681  0.716319  0.750000  1
