# generated using pymatgen
data_K2LiDyBi2
_symmetry_space_group_name_H-M   'P 1'
_cell_length_a   11.15935830
_cell_length_b   11.15935911
_cell_length_c   7.23577800
_cell_angle_alpha   90.00000000
_cell_angle_beta   90.00000000
_cell_angle_gamma   98.78380612
_symmetry_Int_Tables_number   1
_chemical_formula_structural   K2LiDyBi2
_chemical_formula_sum   'K8 Li4 Dy4 Bi8'
_cell_volume   890.51249257
_cell_formula_units_Z   4
loop_
 _symmetry_equiv_pos_site_id
 _symmetry_equiv_pos_as_xyz
  1  'x, y, z'
loop_
 _atom_site_type_symbol
 _atom_site_label
 _atom_site_symmetry_multiplicity
 _atom_site_fract_x
 _atom_site_fract_y
 _atom_site_fract_z
 _atom_site_occupancy
  K  K0  1  0.573368  0.926632  0.750000  1
  K  K1  1  0.926632  0.573368  0.250000  1
  K  K2  1  0.426632  0.073368  0.250000  1
  K  K3  1  0.073368  0.426632  0.750000  1
  K  K4  1  0.673400  0.326600  0.774352  1
  K  K5  1  0.826600  0.173400  0.274352  1
  K  K6  1  0.326600  0.673400  0.225648  1
  K  K7  1  0.173400  0.826600  0.725648  1
  Li  Li8  1  0.620322  0.620322  0.000000  1
  Li  Li9  1  0.879678  0.879678  0.500000  1
  Li  Li10  1  0.379678  0.379678  0.000000  1
  Li  Li11  1  0.120322  0.120322  0.500000  1
  Dy  Dy12  1  0.869332  0.869332  0.000000  1
  Dy  Dy13  1  0.630668  0.630668  0.500000  1
  Dy  Dy14  1  0.130668  0.130668  0.000000  1
  Dy  Dy15  1  0.369332  0.369332  0.500000  1
  Bi  Bi16  1  0.353988  0.146012  0.750000  1
  Bi  Bi17  1  0.146012  0.353988  0.250000  1
  Bi  Bi18  1  0.646012  0.853988  0.250000  1
  Bi  Bi19  1  0.853988  0.646012  0.750000  1
  Bi  Bi20  1  0.898438  0.101562  0.757951  1
  Bi  Bi21  1  0.601562  0.398438  0.257951  1
  Bi  Bi22  1  0.101562  0.898438  0.242049  1
  Bi  Bi23  1  0.398438  0.601562  0.742049  1
