# generated using pymatgen
data_Er3Tm7Cd3In5(AgPt)2
_symmetry_space_group_name_H-M   'P 1'
_cell_length_a   3.60665600
_cell_length_b   8.13628015
_cell_length_c   18.24876100
_cell_angle_alpha   89.94210761
_cell_angle_beta   90.00000000
_cell_angle_gamma   90.00000000
_symmetry_Int_Tables_number   1
_chemical_formula_structural   Er3Tm7Cd3In5(AgPt)2
_chemical_formula_sum   'Er3 Tm7 Cd3 In5 Ag2 Pt2'
_cell_volume   535.50530477
_cell_formula_units_Z   1
loop_
 _symmetry_equiv_pos_site_id
 _symmetry_equiv_pos_as_xyz
  1  'x, y, z'
loop_
 _atom_site_type_symbol
 _atom_site_label
 _atom_site_symmetry_multiplicity
 _atom_site_fract_x
 _atom_site_fract_y
 _atom_site_fract_z
 _atom_site_occupancy
  Er  Er0  1  0.000000  0.721126  0.280559  1
  Er  Er1  1  0.000000  0.999814  0.999935  1
  Er  Er2  1  0.000000  0.500080  0.499742  1
  Tm  Tm3  1  0.000000  0.121562  0.421157  1
  Tm  Tm4  1  0.000000  0.878891  0.579850  1
  Tm  Tm5  1  0.000000  0.381904  0.915520  1
  Tm  Tm6  1  0.000000  0.616997  0.083971  1
  Tm  Tm7  1  0.000000  0.260320  0.216323  1
  Tm  Tm8  1  0.000000  0.740430  0.783444  1
  Tm  Tm9  1  0.000000  0.278153  0.720330  1
  Cd  Cd10  1  0.500000  0.417176  0.352848  1
  Cd  Cd11  1  0.500000  0.581819  0.647028  1
  Cd  Cd12  1  0.500000  0.076256  0.851973  1
  In  In13  1  0.500000  0.922735  0.148598  1
  In  In14  1  0.500000  0.292203  0.063954  1
  In  In15  1  0.500000  0.709698  0.934568  1
  In  In16  1  0.500000  0.210492  0.568378  1
  In  In17  1  0.500000  0.790466  0.431874  1
  Ag  Ag18  1  0.500000  0.026450  0.301318  1
  Ag  Ag19  1  0.500000  0.974524  0.698910  1
  Pt  Pt20  1  0.500000  0.472143  0.804829  1
  Pt  Pt21  1  0.500000  0.526758  0.194890  1
