# generated using pymatgen
data_Ba4Lu2Co2O9
_symmetry_space_group_name_H-M   'P 1'
_cell_length_a   9.08059752
_cell_length_b   9.06389826
_cell_length_c   6.13741812
_cell_angle_alpha   70.37633378
_cell_angle_beta   70.08293546
_cell_angle_gamma   39.54073415
_symmetry_Int_Tables_number   1
_chemical_formula_structural   Ba4Lu2Co2O9
_chemical_formula_sum   'Ba4 Lu2 Co2 O9'
_cell_volume   300.08743793
_cell_formula_units_Z   1
loop_
 _symmetry_equiv_pos_site_id
 _symmetry_equiv_pos_as_xyz
  1  'x, y, z'
loop_
 _atom_site_type_symbol
 _atom_site_label
 _atom_site_symmetry_multiplicity
 _atom_site_fract_x
 _atom_site_fract_y
 _atom_site_fract_z
 _atom_site_occupancy
  Ba  Ba0  1  0.882215  0.380188  0.117785  1
  Ba  Ba1  1  0.380188  0.882215  0.619812  1
  Ba  Ba2  1  0.619812  0.117785  0.380188  1
  Ba  Ba3  1  0.117785  0.619812  0.882215  1
  Lu  Lu4  1  0.500000  0.000000  0.000000  1
  Lu  Lu5  1  0.000000  0.500000  0.500000  1
  Co  Co6  1  0.723932  0.276068  0.723932  1
  Co  Co7  1  0.276068  0.723932  0.276068  1
  O  O8  1  0.898864  0.317319  0.682681  1
  O  O9  1  0.317319  0.898864  0.101136  1
  O  O10  1  0.682681  0.101136  0.898864  1
  O  O11  1  0.101136  0.682681  0.317319  1
  O  O12  1  0.734048  0.734048  0.265952  1
  O  O13  1  0.265952  0.265952  0.734048  1
  O  O14  1  0.250000  0.250000  0.250000  1
  O  O15  1  0.750000  0.750000  0.750000  1
  O  O16  1  0.500000  0.500000  0.500000  1
