# generated using pymatgen
data_Ti12CoRe6Ir5
_symmetry_space_group_name_H-M   'P 1'
_cell_length_a   4.38150000
_cell_length_b   6.20602100
_cell_length_c   13.17165400
_cell_angle_alpha   90.00158566
_cell_angle_beta   90.00015676
_cell_angle_gamma   89.99955612
_symmetry_Int_Tables_number   1
_chemical_formula_structural   Ti12CoRe6Ir5
_chemical_formula_sum   'Ti12 Co1 Re6 Ir5'
_cell_volume   358.15941389
_cell_formula_units_Z   1
loop_
 _symmetry_equiv_pos_site_id
 _symmetry_equiv_pos_as_xyz
  1  'x, y, z'
loop_
 _atom_site_type_symbol
 _atom_site_label
 _atom_site_symmetry_multiplicity
 _atom_site_fract_x
 _atom_site_fract_y
 _atom_site_fract_z
 _atom_site_occupancy
  Ti  Ti0  1  0.500001  0.254263  0.999999  1
  Ti  Ti1  1  0.499999  0.745739  0.000001  1
  Ti  Ti2  1  0.000099  0.251566  0.164568  1
  Ti  Ti3  1  0.000102  0.748436  0.164568  1
  Ti  Ti4  1  0.500107  0.250077  0.333029  1
  Ti  Ti5  1  0.500105  0.749918  0.333030  1
  Ti  Ti6  1  0.000005  0.249561  0.499997  1
  Ti  Ti7  1  0.999995  0.750439  0.500003  1
  Ti  Ti8  1  0.499894  0.250080  0.666970  1
  Ti  Ti9  1  0.499892  0.749921  0.666971  1
  Ti  Ti10  1  0.999898  0.251564  0.835432  1
  Ti  Ti11  1  0.999901  0.748434  0.835432  1
  Co  Co12  1  0.000000  0.499999  0.000000  1
  Re  Re13  1  0.000000  0.000000  0.000000  1
  Re  Re14  1  0.500073  0.499999  0.165649  1
  Re  Re15  1  0.000086  0.000001  0.332902  1
  Re  Re16  1  0.500000  0.499999  0.500000  1
  Re  Re17  1  0.999914  0.999999  0.667098  1
  Re  Re18  1  0.499926  0.499999  0.834351  1
  Ir  Ir19  1  0.500078  0.999997  0.166470  1
  Ir  Ir20  1  0.000064  0.500001  0.333238  1
  Ir  Ir21  1  0.500000  0.000000  0.500000  1
  Ir  Ir22  1  0.999936  0.499997  0.666762  1
  Ir  Ir23  1  0.499921  0.000003  0.833529  1
