# generated using pymatgen
data_Li2SmThRh2
_symmetry_space_group_name_H-M   'P 1'
_cell_length_a   3.90852800
_cell_length_b   7.17981874
_cell_length_c   8.68239142
_cell_angle_alpha   92.02255299
_cell_angle_beta   90.00000000
_cell_angle_gamma   90.00000000
_symmetry_Int_Tables_number   1
_chemical_formula_structural   Li2SmThRh2
_chemical_formula_sum   'Li4 Sm2 Th2 Rh4'
_cell_volume   243.49801449
_cell_formula_units_Z   2
loop_
 _symmetry_equiv_pos_site_id
 _symmetry_equiv_pos_as_xyz
  1  'x, y, z'
loop_
 _atom_site_type_symbol
 _atom_site_label
 _atom_site_symmetry_multiplicity
 _atom_site_fract_x
 _atom_site_fract_y
 _atom_site_fract_z
 _atom_site_occupancy
  Li  Li0  1  0.250000  0.122934  0.947708  1
  Li  Li1  1  0.750000  0.877066  0.052292  1
  Li  Li2  1  0.250000  0.623879  0.549895  1
  Li  Li3  1  0.750000  0.376121  0.450105  1
  Sm  Sm4  1  0.250000  0.054818  0.321840  1
  Sm  Sm5  1  0.750000  0.945182  0.678160  1
  Th  Th6  1  0.250000  0.550167  0.187154  1
  Th  Th7  1  0.750000  0.449833  0.812846  1
  Rh  Rh8  1  0.750000  0.755493  0.361778  1
  Rh  Rh9  1  0.250000  0.244507  0.638222  1
  Rh  Rh10  1  0.750000  0.280136  0.124301  1
  Rh  Rh11  1  0.250000  0.719864  0.875699  1
