# generated using pymatgen
data_Tb4Y6InSb5
_symmetry_space_group_name_H-M   'P 1'
_cell_length_a   6.40967700
_cell_length_b   9.04161175
_cell_length_c   9.02314084
_cell_angle_alpha   120.06774428
_cell_angle_beta   90.00008702
_cell_angle_gamma   89.99982042
_symmetry_Int_Tables_number   1
_chemical_formula_structural   Tb4Y6InSb5
_chemical_formula_sum   'Tb4 Y6 In1 Sb5'
_cell_volume   452.55721866
_cell_formula_units_Z   1
loop_
 _symmetry_equiv_pos_site_id
 _symmetry_equiv_pos_as_xyz
  1  'x, y, z'
loop_
 _atom_site_type_symbol
 _atom_site_label
 _atom_site_symmetry_multiplicity
 _atom_site_fract_x
 _atom_site_fract_y
 _atom_site_fract_z
 _atom_site_occupancy
  Tb  Tb0  1  0.499137  0.334394  0.668265  1
  Tb  Tb1  1  0.499137  0.666128  0.331735  1
  Tb  Tb2  1  0.000857  0.666129  0.331733  1
  Tb  Tb3  1  0.000857  0.334396  0.668267  1
  Y  Y4  1  0.750000  0.244705  0.000000  1
  Y  Y5  1  0.750001  0.753943  0.757201  1
  Y  Y6  1  0.750001  0.996742  0.242799  1
  Y  Y7  1  0.249999  0.756623  0.000000  1
  Y  Y8  1  0.249999  0.246843  0.245133  1
  Y  Y9  1  0.249999  0.001710  0.754867  1
  In  In10  1  0.750017  0.606971  0.000000  1
  Sb  Sb11  1  0.750002  0.388525  0.389314  1
  Sb  Sb12  1  0.750002  0.999209  0.610686  1
  Sb  Sb13  1  0.249999  0.390764  0.000000  1
  Sb  Sb14  1  0.249999  0.611867  0.610817  1
  Sb  Sb15  1  0.249999  0.001051  0.389183  1
