# generated using pymatgen
data_TmMgMn12P7
_symmetry_space_group_name_H-M   'P 1'
_cell_length_a   9.39254700
_cell_length_b   9.39254785
_cell_length_c   3.43612800
_cell_angle_alpha   90.00000000
_cell_angle_beta   90.00000000
_cell_angle_gamma   120.00000053
_symmetry_Int_Tables_number   1
_chemical_formula_structural   TmMgMn12P7
_chemical_formula_sum   'Tm1 Mg1 Mn12 P7'
_cell_volume   262.52263575
_cell_formula_units_Z   1
loop_
 _symmetry_equiv_pos_site_id
 _symmetry_equiv_pos_as_xyz
  1  'x, y, z'
loop_
 _atom_site_type_symbol
 _atom_site_label
 _atom_site_symmetry_multiplicity
 _atom_site_fract_x
 _atom_site_fract_y
 _atom_site_fract_z
 _atom_site_occupancy
  Tm  Tm0  1  0.333333  0.666667  0.000000  1
  Mg  Mg1  1  0.000000  0.000000  0.500000  1
  Mn  Mn2  1  0.044745  0.276817  0.000000  1
  Mn  Mn3  1  0.723183  0.767928  0.000000  1
  Mn  Mn4  1  0.232072  0.955255  0.000000  1
  Mn  Mn5  1  0.551383  0.058788  0.000000  1
  Mn  Mn6  1  0.941212  0.492595  0.000000  1
  Mn  Mn7  1  0.507405  0.448617  0.000000  1
  Mn  Mn8  1  0.618420  0.900290  0.500000  1
  Mn  Mn9  1  0.099710  0.718131  0.500000  1
  Mn  Mn10  1  0.281869  0.381580  0.500000  1
  Mn  Mn11  1  0.797032  0.232951  0.500000  1
  Mn  Mn12  1  0.767049  0.564081  0.500000  1
  Mn  Mn13  1  0.435919  0.202968  0.500000  1
  P  P14  1  0.795928  0.044800  0.000000  1
  P  P15  1  0.955200  0.751127  0.000000  1
  P  P16  1  0.248873  0.204072  0.000000  1
  P  P17  1  0.375958  0.920796  0.500000  1
  P  P18  1  0.079204  0.455163  0.500000  1
  P  P19  1  0.544837  0.624042  0.500000  1
  P  P20  1  0.666667  0.333333  0.000000  1
