# generated using pymatgen
data_La10CuSi3Tc2
_symmetry_space_group_name_H-M   'P 1'
_cell_length_a   8.89862546
_cell_length_b   8.89862469
_cell_length_c   8.86138564
_cell_angle_alpha   126.91012078
_cell_angle_beta   125.79567098
_cell_angle_gamma   79.60129847
_symmetry_Int_Tables_number   1
_chemical_formula_structural   La10CuSi3Tc2
_chemical_formula_sum   'La10 Cu1 Si3 Tc2'
_cell_volume   439.02014380
_cell_formula_units_Z   1
loop_
 _symmetry_equiv_pos_site_id
 _symmetry_equiv_pos_as_xyz
  1  'x, y, z'
loop_
 _atom_site_type_symbol
 _atom_site_label
 _atom_site_symmetry_multiplicity
 _atom_site_fract_x
 _atom_site_fract_y
 _atom_site_fract_z
 _atom_site_occupancy
  La  La0  1  0.025634  0.199883  0.510532  1
  La  La1  1  0.525477  0.021423  0.826397  1
  La  La2  1  0.180956  0.675840  0.147514  1
  La  La3  1  0.471674  0.966558  0.147514  1
  La  La4  1  0.683116  0.526655  0.504668  1
  La  La5  1  0.978013  0.821552  0.504668  1
  La  La6  1  0.310649  0.484897  0.510532  1
  La  La7  1  0.804974  0.300920  0.826397  1
  La  La8  1  0.505789  0.525108  0.030898  1
  La  La9  1  0.995573  0.987230  0.982803  1
  Cu  Cu10  1  0.376239  0.119574  0.495813  1
  Si  Si11  1  0.879216  0.380009  0.259224  1
  Si  Si12  1  0.753236  0.750817  0.003828  1
  Si  Si13  1  0.253012  0.250592  0.003828  1
  Tc  Tc14  1  0.121450  0.612986  0.734435  1
  Tc  Tc15  1  0.634993  0.875957  0.510950  1
