# generated using pymatgen
data_Gd2SnRh2
_symmetry_space_group_name_H-M   'P 1'
_cell_length_a   5.49669763
_cell_length_b   5.49669783
_cell_length_c   5.49669800
_cell_angle_alpha   134.00795359
_cell_angle_beta   117.28509283
_cell_angle_gamma   81.18894701
_symmetry_Int_Tables_number   1
_chemical_formula_structural   Gd2SnRh2
_chemical_formula_sum   'Gd2 Sn1 Rh2'
_cell_volume   102.54687624
_cell_formula_units_Z   1
loop_
 _symmetry_equiv_pos_site_id
 _symmetry_equiv_pos_as_xyz
  1  'x, y, z'
loop_
 _atom_site_type_symbol
 _atom_site_label
 _atom_site_symmetry_multiplicity
 _atom_site_fract_x
 _atom_site_fract_y
 _atom_site_fract_z
 _atom_site_occupancy
  Gd  Gd0  1  0.296393  0.796393  0.500000  1
  Gd  Gd1  1  0.703607  0.203607  0.500000  1
  Sn  Sn2  1  0.000000  0.000000  0.000000  1
  Rh  Rh3  1  0.728234  0.500000  0.228234  1
  Rh  Rh4  1  0.271766  0.500000  0.771766  1
