# generated using pymatgen
data_Lu4Sc8In2Fe2Os
_symmetry_space_group_name_H-M   'P 1'
_cell_length_a   7.95268630
_cell_length_b   7.95268744
_cell_length_c   7.95268681
_cell_angle_alpha   108.28786265
_cell_angle_beta   108.28785930
_cell_angle_gamma   111.86477614
_symmetry_Int_Tables_number   1
_chemical_formula_structural   Lu4Sc8In2Fe2Os
_chemical_formula_sum   'Lu4 Sc8 In2 Fe2 Os1'
_cell_volume   386.67700300
_cell_formula_units_Z   1
loop_
 _symmetry_equiv_pos_site_id
 _symmetry_equiv_pos_as_xyz
  1  'x, y, z'
loop_
 _atom_site_type_symbol
 _atom_site_label
 _atom_site_symmetry_multiplicity
 _atom_site_fract_x
 _atom_site_fract_y
 _atom_site_fract_z
 _atom_site_occupancy
  Lu  Lu0  1  0.304582  0.304582  0.609164  1
  Lu  Lu1  1  0.695418  0.695418  0.390836  1
  Lu  Lu2  1  0.695418  0.304582  0.000000  1
  Lu  Lu3  1  0.304582  0.695418  0.000000  1
  Sc  Sc4  1  0.191550  0.426095  0.234544  1
  Sc  Sc5  1  0.808450  0.573905  0.765456  1
  Sc  Sc6  1  0.191550  0.957006  0.765456  1
  Sc  Sc7  1  0.957006  0.191550  0.765456  1
  Sc  Sc8  1  0.808450  0.042994  0.234544  1
  Sc  Sc9  1  0.042994  0.808450  0.234544  1
  Sc  Sc10  1  0.426095  0.191550  0.234544  1
  Sc  Sc11  1  0.573905  0.808450  0.765456  1
  In  In12  1  0.000000  0.500000  0.500000  1
  In  In13  1  0.500000  0.000000  0.500000  1
  Fe  Fe14  1  0.377764  0.377764  0.000000  1
  Fe  Fe15  1  0.622236  0.622236  0.000000  1
  Os  Os16  1  0.000000  0.000000  0.000000  1
