# generated using pymatgen
data_TlSb(IO3)6
_symmetry_space_group_name_H-M   'P 1'
_cell_length_a   7.84213509
_cell_length_b   7.84213574
_cell_length_c   7.84213700
_cell_angle_alpha   97.69079278
_cell_angle_beta   97.69078604
_cell_angle_gamma   97.69078731
_symmetry_Int_Tables_number   1
_chemical_formula_structural   TlSb(IO3)6
_chemical_formula_sum   'Tl1 Sb1 I6 O18'
_cell_volume   467.95929645
_cell_formula_units_Z   1
loop_
 _symmetry_equiv_pos_site_id
 _symmetry_equiv_pos_as_xyz
  1  'x, y, z'
loop_
 _atom_site_type_symbol
 _atom_site_label
 _atom_site_symmetry_multiplicity
 _atom_site_fract_x
 _atom_site_fract_y
 _atom_site_fract_z
 _atom_site_occupancy
  Tl  Tl0  1  0.636540  0.636540  0.636540  1
  Sb  Sb1  1  0.003787  0.003787  0.003787  1
  I  I2  1  0.634409  0.831024  0.200988  1
  I  I3  1  0.200988  0.634409  0.831024  1
  I  I4  1  0.831024  0.200988  0.634409  1
  I  I5  1  0.361662  0.168578  0.796128  1
  I  I6  1  0.796128  0.361662  0.168578  1
  I  I7  1  0.168578  0.796128  0.361662  1
  O  O8  1  0.809363  0.826250  0.047654  1
  O  O9  1  0.047654  0.809363  0.826250  1
  O  O10  1  0.826250  0.047654  0.809363  1
  O  O11  1  0.191814  0.180949  0.953121  1
  O  O12  1  0.953121  0.191814  0.180949  1
  O  O13  1  0.180949  0.953121  0.191814  1
  O  O14  1  0.603066  0.595903  0.184839  1
  O  O15  1  0.184839  0.603066  0.595903  1
  O  O16  1  0.595903  0.184839  0.603066  1
  O  O17  1  0.395662  0.404461  0.807269  1
  O  O18  1  0.807269  0.395662  0.404461  1
  O  O19  1  0.404461  0.807269  0.395662  1
  O  O20  1  0.788341  0.893744  0.403215  1
  O  O21  1  0.403215  0.788341  0.893744  1
  O  O22  1  0.893744  0.403215  0.788341  1
  O  O23  1  0.203146  0.097057  0.600589  1
  O  O24  1  0.600589  0.203146  0.097057  1
  O  O25  1  0.097057  0.600589  0.203146  1
