# generated using pymatgen
data_CeNdCdPt2
_symmetry_space_group_name_H-M   'P 1'
_cell_length_a   7.85935800
_cell_length_b   7.88090200
_cell_length_c   3.81538400
_cell_angle_alpha   90.00000000
_cell_angle_beta   90.00000000
_cell_angle_gamma   90.00000000
_symmetry_Int_Tables_number   1
_chemical_formula_structural   CeNdCdPt2
_chemical_formula_sum   'Ce2 Nd2 Cd2 Pt4'
_cell_volume   236.32042165
_cell_formula_units_Z   2
loop_
 _symmetry_equiv_pos_site_id
 _symmetry_equiv_pos_as_xyz
  1  'x, y, z'
loop_
 _atom_site_type_symbol
 _atom_site_label
 _atom_site_symmetry_multiplicity
 _atom_site_fract_x
 _atom_site_fract_y
 _atom_site_fract_z
 _atom_site_occupancy
  Ce  Ce0  1  0.831245  0.669448  0.500000  1
  Ce  Ce1  1  0.668755  0.169448  0.500000  1
  Nd  Nd2  1  0.169278  0.329351  0.500000  1
  Nd  Nd3  1  0.330722  0.829351  0.500000  1
  Cd  Cd4  1  0.499292  0.501912  0.000000  1
  Cd  Cd5  1  0.000708  0.001912  0.000000  1
  Pt  Pt6  1  0.643268  0.867924  0.000000  1
  Pt  Pt7  1  0.118245  0.631365  0.000000  1
  Pt  Pt8  1  0.856732  0.367924  0.000000  1
  Pt  Pt9  1  0.381755  0.131365  0.000000  1
