# generated using pymatgen
data_TbHo15(AgRh)4
_symmetry_space_group_name_H-M   'P 1'
_cell_length_a   9.50047578
_cell_length_b   9.50047518
_cell_length_c   9.48262100
_cell_angle_alpha   60.06215056
_cell_angle_beta   60.06215265
_cell_angle_gamma   60.14904476
_symmetry_Int_Tables_number   1
_chemical_formula_structural   TbHo15(AgRh)4
_chemical_formula_sum   'Tb1 Ho15 Ag4 Rh4'
_cell_volume   606.45579466
_cell_formula_units_Z   1
loop_
 _symmetry_equiv_pos_site_id
 _symmetry_equiv_pos_as_xyz
  1  'x, y, z'
loop_
 _atom_site_type_symbol
 _atom_site_label
 _atom_site_symmetry_multiplicity
 _atom_site_fract_x
 _atom_site_fract_y
 _atom_site_fract_z
 _atom_site_occupancy
  Tb  Tb0  1  0.185078  0.185078  0.814922  1
  Ho  Ho1  1  0.602452  0.602452  0.192967  1
  Ho  Ho2  1  0.437894  0.061754  0.437947  1
  Ho  Ho3  1  0.437791  0.437791  0.062209  1
  Ho  Ho4  1  0.814586  0.184992  0.814766  1
  Ho  Ho5  1  0.184992  0.814586  0.185655  1
  Ho  Ho6  1  0.437894  0.061754  0.062405  1
  Ho  Ho7  1  0.184992  0.814586  0.814766  1
  Ho  Ho8  1  0.061754  0.437894  0.062405  1
  Ho  Ho9  1  0.814705  0.814705  0.185295  1
  Ho  Ho10  1  0.193316  0.602771  0.601956  1
  Ho  Ho11  1  0.061754  0.437894  0.437947  1
  Ho  Ho12  1  0.061657  0.061657  0.438343  1
  Ho  Ho13  1  0.814586  0.184992  0.185655  1
  Ho  Ho14  1  0.602771  0.193316  0.601956  1
  Ho  Ho15  1  0.602452  0.602452  0.602127  1
  Ag  Ag16  1  0.832246  0.832246  0.832107  1
  Ag  Ag17  1  0.832246  0.832246  0.503402  1
  Ag  Ag18  1  0.504118  0.831746  0.832068  1
  Ag  Ag19  1  0.831746  0.504118  0.832068  1
  Rh  Rh20  1  0.393883  0.820055  0.393031  1
  Rh  Rh21  1  0.393515  0.393515  0.392204  1
  Rh  Rh22  1  0.820055  0.393883  0.393031  1
  Rh  Rh23  1  0.393515  0.393515  0.820766  1
