# generated using pymatgen
data_Lu2GaRu2
_symmetry_space_group_name_H-M   'P 1'
_cell_length_a   4.09537832
_cell_length_b   5.42704862
_cell_length_c   5.42704850
_cell_angle_alpha   64.01410017
_cell_angle_beta   67.83274246
_cell_angle_gamma   67.83274564
_symmetry_Int_Tables_number   1
_chemical_formula_structural   Lu2GaRu2
_chemical_formula_sum   'Lu2 Ga1 Ru2'
_cell_volume   97.10145659
_cell_formula_units_Z   1
loop_
 _symmetry_equiv_pos_site_id
 _symmetry_equiv_pos_as_xyz
  1  'x, y, z'
loop_
 _atom_site_type_symbol
 _atom_site_label
 _atom_site_symmetry_multiplicity
 _atom_site_fract_x
 _atom_site_fract_y
 _atom_site_fract_z
 _atom_site_occupancy
  Lu  Lu0  1  0.205201  0.294799  0.294799  1
  Lu  Lu1  1  0.794799  0.705201  0.705201  1
  Ga  Ga2  1  0.000000  0.000000  0.000000  1
  Ru  Ru3  1  0.500000  0.275630  0.724370  1
  Ru  Ru4  1  0.500000  0.724370  0.275630  1
