# generated using pymatgen
data_K6MoIrF12
_symmetry_space_group_name_H-M   'P 1'
_cell_length_a   6.43100879
_cell_length_b   6.17411377
_cell_length_c   10.81650000
_cell_angle_alpha   54.97050782
_cell_angle_beta   89.89029974
_cell_angle_gamma   89.97195288
_symmetry_Int_Tables_number   1
_chemical_formula_structural   K6MoIrF12
_chemical_formula_sum   'K6 Mo1 Ir1 F12'
_cell_volume   351.67984051
_cell_formula_units_Z   1
loop_
 _symmetry_equiv_pos_site_id
 _symmetry_equiv_pos_as_xyz
  1  'x, y, z'
loop_
 _atom_site_type_symbol
 _atom_site_label
 _atom_site_symmetry_multiplicity
 _atom_site_fract_x
 _atom_site_fract_y
 _atom_site_fract_z
 _atom_site_occupancy
  K  K0  1  0.500000  0.500000  0.500000  1
  K  K1  1  0.947544  0.724837  0.256909  1
  K  K2  1  0.444921  0.260971  0.254265  1
  K  K3  1  0.000000  0.500000  0.000000  1
  K  K4  1  0.555079  0.739029  0.745735  1
  K  K5  1  0.052456  0.275163  0.743091  1
  Mo  Mo6  1  0.500000  0.000000  0.000000  1
  Ir  Ir7  1  0.000000  0.000000  0.500000  1
  F  F8  1  0.449614  0.116247  0.777908  1
  F  F9  1  0.229888  0.764322  0.069827  1
  F  F10  1  0.179927  0.308092  0.457346  1
  F  F11  1  0.673595  0.671370  0.050162  1
  F  F12  1  0.738420  0.228231  0.440129  1
  F  F13  1  0.954160  0.889546  0.715946  1
  F  F14  1  0.045840  0.110454  0.284054  1
  F  F15  1  0.261580  0.771769  0.559871  1
  F  F16  1  0.326405  0.328630  0.949838  1
  F  F17  1  0.820073  0.691908  0.542654  1
  F  F18  1  0.770112  0.235678  0.930173  1
  F  F19  1  0.550386  0.883753  0.222092  1
