# generated using pymatgen
data_Ho3TmFe4(P3Rh4)4
_symmetry_space_group_name_H-M   'P 1'
_cell_length_a   3.84573400
_cell_length_b   10.74578108
_cell_length_c   12.41014409
_cell_angle_alpha   89.98613437
_cell_angle_beta   90.00000000
_cell_angle_gamma   90.00000000
_symmetry_Int_Tables_number   1
_chemical_formula_structural   Ho3TmFe4(P3Rh4)4
_chemical_formula_sum   'Ho3 Tm1 Fe4 P12 Rh16'
_cell_volume   512.85434782
_cell_formula_units_Z   1
loop_
 _symmetry_equiv_pos_site_id
 _symmetry_equiv_pos_as_xyz
  1  'x, y, z'
loop_
 _atom_site_type_symbol
 _atom_site_label
 _atom_site_symmetry_multiplicity
 _atom_site_fract_x
 _atom_site_fract_y
 _atom_site_fract_z
 _atom_site_occupancy
  Ho  Ho0  1  0.250000  0.917287  0.209706  1
  Ho  Ho1  1  0.750000  0.417465  0.290281  1
  Ho  Ho2  1  0.750000  0.082758  0.790358  1
  Tm  Tm3  1  0.250000  0.582591  0.709742  1
  Fe  Fe4  1  0.250000  0.462491  0.932167  1
  Fe  Fe5  1  0.250000  0.038030  0.433078  1
  Fe  Fe6  1  0.750000  0.537953  0.066709  1
  Fe  Fe7  1  0.750000  0.961653  0.567312  1
  P  P8  1  0.250000  0.430205  0.105243  1
  P  P9  1  0.250000  0.069635  0.605983  1
  P  P10  1  0.750000  0.569888  0.893756  1
  P  P11  1  0.750000  0.930077  0.394370  1
  P  P12  1  0.250000  0.270628  0.869965  1
  P  P13  1  0.250000  0.229642  0.369976  1
  P  P14  1  0.750000  0.729359  0.129993  1
  P  P15  1  0.750000  0.769861  0.630666  1
  P  P16  1  0.250000  0.600825  0.388724  1
  P  P17  1  0.250000  0.899352  0.888921  1
  P  P18  1  0.750000  0.399654  0.611311  1
  P  P19  1  0.750000  0.100796  0.111187  1
  Rh  Rh20  1  0.250000  0.717120  0.990902  1
  Rh  Rh21  1  0.250000  0.783070  0.490994  1
  Rh  Rh22  1  0.750000  0.282887  0.008623  1
  Rh  Rh23  1  0.750000  0.216959  0.509296  1
  Rh  Rh24  1  0.250000  0.408862  0.479000  1
  Rh  Rh25  1  0.250000  0.091437  0.979112  1
  Rh  Rh26  1  0.750000  0.591516  0.522288  1
  Rh  Rh27  1  0.750000  0.908645  0.020855  1
  Rh  Rh28  1  0.250000  0.231254  0.175189  1
  Rh  Rh29  1  0.250000  0.268867  0.675456  1
  Rh  Rh30  1  0.750000  0.768153  0.824367  1
  Rh  Rh31  1  0.750000  0.730692  0.324956  1
  Rh  Rh32  1  0.250000  0.881835  0.701085  1
  Rh  Rh33  1  0.250000  0.617750  0.200705  1
  Rh  Rh34  1  0.750000  0.117820  0.299169  1
  Rh  Rh35  1  0.750000  0.382982  0.798557  1
