# generated using pymatgen
data_K5Rb2PaAs4
_symmetry_space_group_name_H-M   'P 1'
_cell_length_a   8.59285200
_cell_length_b   9.65629100
_cell_length_c   10.71076400
_cell_angle_alpha   90.00000000
_cell_angle_beta   90.00000000
_cell_angle_gamma   90.00000000
_symmetry_Int_Tables_number   1
_chemical_formula_structural   K5Rb2PaAs4
_chemical_formula_sum   'K10 Rb4 Pa2 As8'
_cell_volume   888.72649368
_cell_formula_units_Z   2
loop_
 _symmetry_equiv_pos_site_id
 _symmetry_equiv_pos_as_xyz
  1  'x, y, z'
loop_
 _atom_site_type_symbol
 _atom_site_label
 _atom_site_symmetry_multiplicity
 _atom_site_fract_x
 _atom_site_fract_y
 _atom_site_fract_z
 _atom_site_occupancy
  K  K0  1  0.717063  0.832894  0.723412  1
  K  K1  1  0.217063  0.167106  0.776588  1
  K  K2  1  0.217063  0.167106  0.223412  1
  K  K3  1  0.717063  0.832894  0.276588  1
  K  K4  1  0.869323  0.440070  0.732588  1
  K  K5  1  0.369323  0.559930  0.767412  1
  K  K6  1  0.369323  0.559930  0.232588  1
  K  K7  1  0.869323  0.440070  0.267412  1
  K  K8  1  0.404574  0.900215  0.000000  1
  K  K9  1  0.904574  0.099785  0.500000  1
  Rb  Rb10  1  0.067814  0.659979  0.500000  1
  Rb  Rb11  1  0.567814  0.340021  0.000000  1
  Rb  Rb12  1  0.873558  0.061640  0.000000  1
  Rb  Rb13  1  0.373558  0.938360  0.500000  1
  Pa  Pa14  1  0.014369  0.678352  0.000000  1
  Pa  Pa15  1  0.514369  0.321648  0.500000  1
  As  As16  1  0.694887  0.673835  0.000000  1
  As  As17  1  0.194887  0.326165  0.500000  1
  As  As18  1  0.106069  0.826006  0.790388  1
  As  As19  1  0.606069  0.173994  0.709612  1
  As  As20  1  0.606069  0.173994  0.290388  1
  As  As21  1  0.106069  0.826006  0.209612  1
  As  As22  1  0.618239  0.592815  0.500000  1
  As  As23  1  0.118239  0.407185  0.000000  1
