# generated using pymatgen
data_Rb4Na2GdHoAs4
_symmetry_space_group_name_H-M   'P 1'
_cell_length_a   9.45612939
_cell_length_b   9.45612838
_cell_length_c   9.45612784
_cell_angle_alpha   135.31256905
_cell_angle_beta   135.16777066
_cell_angle_gamma   65.15733193
_symmetry_Int_Tables_number   1
_chemical_formula_structural   Rb4Na2GdHoAs4
_chemical_formula_sum   'Rb4 Na2 Gd1 Ho1 As4'
_cell_volume   413.16062159
_cell_formula_units_Z   1
loop_
 _symmetry_equiv_pos_site_id
 _symmetry_equiv_pos_as_xyz
  1  'x, y, z'
loop_
 _atom_site_type_symbol
 _atom_site_label
 _atom_site_symmetry_multiplicity
 _atom_site_fract_x
 _atom_site_fract_y
 _atom_site_fract_z
 _atom_site_occupancy
  Rb  Rb0  1  0.681463  0.399130  0.717350  1
  Rb  Rb1  1  0.818537  0.035887  0.217667  1
  Rb  Rb2  1  0.181781  0.964113  0.782650  1
  Rb  Rb3  1  0.318219  0.600870  0.282333  1
  Na  Na4  1  0.750000  0.000000  0.750000  1
  Na  Na5  1  0.250000  0.000000  0.250000  1
  Gd  Gd6  1  0.750000  0.500000  0.250000  1
  Ho  Ho7  1  0.250000  0.500000  0.750000  1
  As  As8  1  0.401897  0.181294  0.774228  1
  As  As9  1  0.592934  0.818706  0.220602  1
  As  As10  1  0.098103  0.372330  0.279398  1
  As  As11  1  0.907066  0.627670  0.725772  1
