# generated using pymatgen
data_Dy15HoCd4Os3Pt
_symmetry_space_group_name_H-M   'P 1'
_cell_length_a   9.63114405
_cell_length_b   9.73968920
_cell_length_c   9.73968861
_cell_angle_alpha   59.62434011
_cell_angle_beta   59.24480034
_cell_angle_gamma   59.24479795
_symmetry_Int_Tables_number   1
_chemical_formula_structural   Dy15HoCd4Os3Pt
_chemical_formula_sum   'Dy15 Ho1 Cd4 Os3 Pt1'
_cell_volume   636.76736032
_cell_formula_units_Z   1
loop_
 _symmetry_equiv_pos_site_id
 _symmetry_equiv_pos_as_xyz
  1  'x, y, z'
loop_
 _atom_site_type_symbol
 _atom_site_label
 _atom_site_symmetry_multiplicity
 _atom_site_fract_x
 _atom_site_fract_y
 _atom_site_fract_z
 _atom_site_occupancy
  Dy  Dy0  1  0.348331  0.350745  0.953328  1
  Dy  Dy1  1  0.348331  0.953328  0.350745  1
  Dy  Dy2  1  0.969568  0.344006  0.344006  1
  Dy  Dy3  1  0.813724  0.190276  0.190276  1
  Dy  Dy4  1  0.183566  0.809919  0.809919  1
  Dy  Dy5  1  0.186207  0.810667  0.191983  1
  Dy  Dy6  1  0.813587  0.189503  0.804010  1
  Dy  Dy7  1  0.186207  0.191983  0.810667  1
  Dy  Dy8  1  0.813587  0.804010  0.189503  1
  Dy  Dy9  1  0.936087  0.561420  0.561420  1
  Dy  Dy10  1  0.551875  0.940483  0.940483  1
  Dy  Dy11  1  0.551408  0.941202  0.566827  1
  Dy  Dy12  1  0.936296  0.560703  0.939974  1
  Dy  Dy13  1  0.551408  0.566827  0.941202  1
  Dy  Dy14  1  0.936296  0.939974  0.560703  1
  Ho  Ho15  1  0.347099  0.350776  0.350776  1
  Cd  Cd16  1  0.581533  0.579050  0.579050  1
  Cd  Cd17  1  0.581058  0.579260  0.258441  1
  Cd  Cd18  1  0.581058  0.258441  0.579260  1
  Cd  Cd19  1  0.254342  0.581075  0.581075  1
  Os  Os20  1  0.149440  0.136693  0.136693  1
  Os  Os21  1  0.150400  0.137986  0.579002  1
  Os  Os22  1  0.150400  0.579002  0.137986  1
  Pt  Pt23  1  0.578194  0.142671  0.142671  1
