# generated using pymatgen
data_TbNd6ScO12
_symmetry_space_group_name_H-M   'P 1'
_cell_length_a   6.90540569
_cell_length_b   6.90540626
_cell_length_c   6.90540600
_cell_angle_alpha   93.09136513
_cell_angle_beta   93.09136539
_cell_angle_gamma   93.09136751
_symmetry_Int_Tables_number   1
_chemical_formula_structural   TbNd6ScO12
_chemical_formula_sum   'Tb1 Nd6 Sc1 O12'
_cell_volume   327.79026123
_cell_formula_units_Z   1
loop_
 _symmetry_equiv_pos_site_id
 _symmetry_equiv_pos_as_xyz
  1  'x, y, z'
loop_
 _atom_site_type_symbol
 _atom_site_label
 _atom_site_symmetry_multiplicity
 _atom_site_fract_x
 _atom_site_fract_y
 _atom_site_fract_z
 _atom_site_occupancy
  Tb  Tb0  1  0.000000  0.000000  0.000000  1
  Nd  Nd1  1  0.741064  0.927779  0.437050  1
  Nd  Nd2  1  0.437050  0.741064  0.927779  1
  Nd  Nd3  1  0.072221  0.562950  0.258936  1
  Nd  Nd4  1  0.927779  0.437050  0.741064  1
  Nd  Nd5  1  0.562950  0.258936  0.072221  1
  Nd  Nd6  1  0.258936  0.072221  0.562950  1
  Sc  Sc7  1  0.500000  0.500000  0.500000  1
  O  O8  1  0.065127  0.910766  0.312771  1
  O  O9  1  0.687229  0.934873  0.089234  1
  O  O10  1  0.461800  0.798125  0.588111  1
  O  O11  1  0.089234  0.687229  0.934873  1
  O  O12  1  0.798125  0.588111  0.461800  1
  O  O13  1  0.411889  0.538200  0.201875  1
  O  O14  1  0.588111  0.461800  0.798125  1
  O  O15  1  0.201875  0.411889  0.538200  1
  O  O16  1  0.910766  0.312771  0.065127  1
  O  O17  1  0.538200  0.201875  0.411889  1
  O  O18  1  0.312771  0.065127  0.910766  1
  O  O19  1  0.934873  0.089234  0.687229  1
