# generated using pymatgen
data_Tc3OsO8
_symmetry_space_group_name_H-M   'P 1'
_cell_length_a   5.53436806
_cell_length_b   4.81487305
_cell_length_c   5.58679077
_cell_angle_alpha   90.06909207
_cell_angle_beta   117.78885462
_cell_angle_gamma   89.94005819
_symmetry_Int_Tables_number   1
_chemical_formula_structural   Tc3OsO8
_chemical_formula_sum   'Tc3 Os1 O8'
_cell_volume   131.70341358
_cell_formula_units_Z   1
loop_
 _symmetry_equiv_pos_site_id
 _symmetry_equiv_pos_as_xyz
  1  'x, y, z'
loop_
 _atom_site_type_symbol
 _atom_site_label
 _atom_site_symmetry_multiplicity
 _atom_site_fract_x
 _atom_site_fract_y
 _atom_site_fract_z
 _atom_site_occupancy
  Tc  Tc0  1  0.734258  0.494685  0.218512  1
  Tc  Tc1  1  0.264808  0.994399  0.279820  1
  Tc  Tc2  1  0.735099  0.005712  0.720137  1
  Os  Os3  1  0.262232  0.505245  0.777756  1
  O  O4  1  0.894984  0.188806  0.087622  1
  O  O5  1  0.392541  0.289562  0.124229  1
  O  O6  1  0.608305  0.789795  0.375970  1
  O  O7  1  0.106421  0.688903  0.414545  1
  O  O8  1  0.895549  0.312071  0.588589  1
  O  O9  1  0.390911  0.211203  0.623744  1
  O  O10  1  0.609075  0.710684  0.877029  1
  O  O11  1  0.105816  0.808931  0.912049  1
