# generated using pymatgen
data_Pr5Nd3CdHgPd2
_symmetry_space_group_name_H-M   'P 1'
_cell_length_a   10.07452749
_cell_length_b   10.07860908
_cell_length_c   10.09833483
_cell_angle_alpha   59.90848297
_cell_angle_beta   59.94856026
_cell_angle_gamma   59.94179437
_symmetry_Int_Tables_number   1
_chemical_formula_structural   Pr5Nd3CdHgPd2
_chemical_formula_sum   'Pr10 Nd6 Cd2 Hg2 Pd4'
_cell_volume   723.93387845
_cell_formula_units_Z   2
loop_
 _symmetry_equiv_pos_site_id
 _symmetry_equiv_pos_as_xyz
  1  'x, y, z'
loop_
 _atom_site_type_symbol
 _atom_site_label
 _atom_site_symmetry_multiplicity
 _atom_site_fract_x
 _atom_site_fract_y
 _atom_site_fract_z
 _atom_site_occupancy
  Pr  Pr0  1  0.191884  0.808120  0.193392  1
  Pr  Pr1  1  0.808120  0.191884  0.806604  1
  Pr  Pr2  1  0.191432  0.191432  0.808568  1
  Pr  Pr3  1  0.805869  0.805869  0.194131  1
  Pr  Pr4  1  0.937371  0.563027  0.565397  1
  Pr  Pr5  1  0.563027  0.937371  0.934206  1
  Pr  Pr6  1  0.563043  0.937407  0.565336  1
  Pr  Pr7  1  0.937407  0.563043  0.934214  1
  Pr  Pr8  1  0.563407  0.563407  0.936593  1
  Pr  Pr9  1  0.934943  0.934943  0.565057  1
  Nd  Nd10  1  0.351480  0.351209  0.350935  1
  Nd  Nd11  1  0.351209  0.351480  0.946377  1
  Nd  Nd12  1  0.354077  0.940049  0.353087  1
  Nd  Nd13  1  0.940049  0.354077  0.352789  1
  Nd  Nd14  1  0.808117  0.191909  0.193372  1
  Nd  Nd15  1  0.191909  0.808117  0.806603  1
  Cd  Cd16  1  0.578559  0.261212  0.580005  1
  Cd  Cd17  1  0.261212  0.578559  0.580223  1
  Hg  Hg18  1  0.583092  0.583288  0.586312  1
  Hg  Hg19  1  0.583288  0.583092  0.247307  1
  Pd  Pd20  1  0.143728  0.144520  0.145329  1
  Pd  Pd21  1  0.144520  0.143728  0.566423  1
  Pd  Pd22  1  0.143782  0.568477  0.143449  1
  Pd  Pd23  1  0.568477  0.143782  0.144293  1
