# generated using pymatgen
data_Th3TiSn5
_symmetry_space_group_name_H-M   'P 1'
_cell_length_a   9.47622700
_cell_length_b   9.47622734
_cell_length_c   6.22862100
_cell_angle_alpha   90.00000000
_cell_angle_beta   90.00000000
_cell_angle_gamma   119.99999531
_symmetry_Int_Tables_number   1
_chemical_formula_structural   Th3TiSn5
_chemical_formula_sum   'Th6 Ti2 Sn10'
_cell_volume   484.38812178
_cell_formula_units_Z   2
loop_
 _symmetry_equiv_pos_site_id
 _symmetry_equiv_pos_as_xyz
  1  'x, y, z'
loop_
 _atom_site_type_symbol
 _atom_site_label
 _atom_site_symmetry_multiplicity
 _atom_site_fract_x
 _atom_site_fract_y
 _atom_site_fract_z
 _atom_site_occupancy
  Th  Th0  1  0.613450  0.000000  0.750000  1
  Th  Th1  1  0.386550  0.000000  0.250000  1
  Th  Th2  1  0.000000  0.613450  0.750000  1
  Th  Th3  1  0.000000  0.386550  0.250000  1
  Th  Th4  1  0.386550  0.386550  0.750000  1
  Th  Th5  1  0.613450  0.613450  0.250000  1
  Ti  Ti6  1  0.000000  0.000000  0.500000  1
  Ti  Ti7  1  0.000000  0.000000  0.000000  1
  Sn  Sn8  1  0.258600  0.000000  0.750000  1
  Sn  Sn9  1  0.741400  0.000000  0.250000  1
  Sn  Sn10  1  0.000000  0.258600  0.750000  1
  Sn  Sn11  1  0.000000  0.741400  0.250000  1
  Sn  Sn12  1  0.741400  0.741400  0.750000  1
  Sn  Sn13  1  0.258600  0.258600  0.250000  1
  Sn  Sn14  1  0.333333  0.666667  0.500000  1
  Sn  Sn15  1  0.666667  0.333333  0.500000  1
  Sn  Sn16  1  0.666667  0.333333  0.000000  1
  Sn  Sn17  1  0.333333  0.666667  0.000000  1
