# generated using pymatgen
data_Ho6LuVO12
_symmetry_space_group_name_H-M   'P 1'
_cell_length_a   6.57588958
_cell_length_b   6.57588984
_cell_length_c   6.57589005
_cell_angle_alpha   93.17884960
_cell_angle_beta   93.17885349
_cell_angle_gamma   93.17885014
_symmetry_Int_Tables_number   1
_chemical_formula_structural   Ho6LuVO12
_chemical_formula_sum   'Ho6 Lu1 V1 O12'
_cell_volume   282.99341259
_cell_formula_units_Z   1
loop_
 _symmetry_equiv_pos_site_id
 _symmetry_equiv_pos_as_xyz
  1  'x, y, z'
loop_
 _atom_site_type_symbol
 _atom_site_label
 _atom_site_symmetry_multiplicity
 _atom_site_fract_x
 _atom_site_fract_y
 _atom_site_fract_z
 _atom_site_occupancy
  Ho  Ho0  1  0.740383  0.925113  0.435297  1
  Ho  Ho1  1  0.925113  0.435297  0.740383  1
  Ho  Ho2  1  0.435297  0.740383  0.925113  1
  Ho  Ho3  1  0.259617  0.074887  0.564703  1
  Ho  Ho4  1  0.074887  0.564703  0.259617  1
  Ho  Ho5  1  0.564703  0.259617  0.074887  1
  Lu  Lu6  1  0.000000  0.000000  0.000000  1
  V  V7  1  0.500000  0.500000  0.500000  1
  O  O8  1  0.589569  0.461697  0.801775  1
  O  O9  1  0.461697  0.801775  0.589569  1
  O  O10  1  0.801775  0.589569  0.461697  1
  O  O11  1  0.410431  0.538303  0.198225  1
  O  O12  1  0.538303  0.198225  0.410431  1
  O  O13  1  0.198225  0.410431  0.538303  1
  O  O14  1  0.068941  0.910604  0.315018  1
  O  O15  1  0.910604  0.315018  0.068941  1
  O  O16  1  0.684982  0.931059  0.089396  1
  O  O17  1  0.089396  0.684982  0.931059  1
  O  O18  1  0.931059  0.089396  0.684982  1
  O  O19  1  0.315018  0.068941  0.910604  1
