# generated using pymatgen
data_ScInGaNi3
_symmetry_space_group_name_H-M   'P 1'
_cell_length_a   4.88141406
_cell_length_b   4.88141377
_cell_length_c   4.88141456
_cell_angle_alpha   62.44233030
_cell_angle_beta   62.44233490
_cell_angle_gamma   62.44232848
_symmetry_Int_Tables_number   1
_chemical_formula_structural   ScInGaNi3
_chemical_formula_sum   'Sc1 In1 Ga1 Ni3'
_cell_volume   86.72585054
_cell_formula_units_Z   1
loop_
 _symmetry_equiv_pos_site_id
 _symmetry_equiv_pos_as_xyz
  1  'x, y, z'
loop_
 _atom_site_type_symbol
 _atom_site_label
 _atom_site_symmetry_multiplicity
 _atom_site_fract_x
 _atom_site_fract_y
 _atom_site_fract_z
 _atom_site_occupancy
  Sc  Sc0  1  0.251442  0.251442  0.251442  1
  In  In1  1  0.001209  0.001209  0.001209  1
  Ga  Ga2  1  0.622723  0.622723  0.622723  1
  Ni  Ni3  1  0.626038  0.626038  0.122548  1
  Ni  Ni4  1  0.626038  0.122548  0.626038  1
  Ni  Ni5  1  0.122548  0.626038  0.626038  1
