# generated using pymatgen
data_Th2Ni9P7W3
_symmetry_space_group_name_H-M   'P 1'
_cell_length_a   9.23309500
_cell_length_b   9.23309490
_cell_length_c   3.83003000
_cell_angle_alpha   90.00000000
_cell_angle_beta   90.00000000
_cell_angle_gamma   119.99999677
_symmetry_Int_Tables_number   1
_chemical_formula_structural   Th2Ni9P7W3
_chemical_formula_sum   'Th2 Ni9 P7 W3'
_cell_volume   282.76615411
_cell_formula_units_Z   1
loop_
 _symmetry_equiv_pos_site_id
 _symmetry_equiv_pos_as_xyz
  1  'x, y, z'
loop_
 _atom_site_type_symbol
 _atom_site_label
 _atom_site_symmetry_multiplicity
 _atom_site_fract_x
 _atom_site_fract_y
 _atom_site_fract_z
 _atom_site_occupancy
  Th  Th0  1  0.333333  0.666667  0.000000  1
  Th  Th1  1  0.000000  0.000000  0.500000  1
  Ni  Ni2  1  0.035093  0.268985  0.000000  1
  Ni  Ni3  1  0.731015  0.766107  0.000000  1
  Ni  Ni4  1  0.233893  0.964907  0.000000  1
  Ni  Ni5  1  0.537479  0.054250  0.000000  1
  Ni  Ni6  1  0.945750  0.483229  0.000000  1
  Ni  Ni7  1  0.516771  0.462521  0.000000  1
  Ni  Ni8  1  0.605877  0.891157  0.500000  1
  Ni  Ni9  1  0.108843  0.714719  0.500000  1
  Ni  Ni10  1  0.285281  0.394123  0.500000  1
  P  P11  1  0.771635  0.034018  0.000000  1
  P  P12  1  0.965982  0.737618  0.000000  1
  P  P13  1  0.262382  0.228365  0.000000  1
  P  P14  1  0.374785  0.933708  0.500000  1
  P  P15  1  0.066292  0.441077  0.500000  1
  P  P16  1  0.558923  0.625215  0.500000  1
  P  P17  1  0.666667  0.333333  0.000000  1
  W  W18  1  0.776754  0.228713  0.500000  1
  W  W19  1  0.771287  0.548040  0.500000  1
  W  W20  1  0.451960  0.223246  0.500000  1
