# generated using pymatgen
data_SrPrNd2(Pt2O7)2
_symmetry_space_group_name_H-M   'P 1'
_cell_length_a   7.44342844
_cell_length_b   7.47210029
_cell_length_c   7.47209927
_cell_angle_alpha   59.96981098
_cell_angle_beta   59.86929113
_cell_angle_gamma   59.86928557
_symmetry_Int_Tables_number   1
_chemical_formula_structural   SrPrNd2(Pt2O7)2
_chemical_formula_sum   'Sr1 Pr1 Nd2 Pt4 O14'
_cell_volume   293.21331307
_cell_formula_units_Z   1
loop_
 _symmetry_equiv_pos_site_id
 _symmetry_equiv_pos_as_xyz
  1  'x, y, z'
loop_
 _atom_site_type_symbol
 _atom_site_label
 _atom_site_symmetry_multiplicity
 _atom_site_fract_x
 _atom_site_fract_y
 _atom_site_fract_z
 _atom_site_occupancy
  Sr  Sr0  1  0.125000  0.625000  0.625000  1
  Pr  Pr1  1  0.625000  0.625000  0.625000  1
  Nd  Nd2  1  0.625000  0.625000  0.125000  1
  Nd  Nd3  1  0.625000  0.125000  0.625000  1
  Pt  Pt4  1  0.125000  0.125000  0.625000  1
  Pt  Pt5  1  0.125000  0.625000  0.125000  1
  Pt  Pt6  1  0.625000  0.125000  0.125000  1
  Pt  Pt7  1  0.125000  0.125000  0.125000  1
  O  O8  1  0.511350  0.495233  0.495233  1
  O  O9  1  0.738650  0.754767  0.754767  1
  O  O10  1  0.459263  0.042455  0.457156  1
  O  O11  1  0.212160  0.795547  0.196679  1
  O  O12  1  0.459263  0.457156  0.042455  1
  O  O13  1  0.038866  0.454085  0.454085  1
  O  O14  1  0.459546  0.041558  0.041558  1
  O  O15  1  0.037840  0.053321  0.454453  1
  O  O16  1  0.037840  0.454453  0.053321  1
  O  O17  1  0.790454  0.208442  0.208442  1
  O  O18  1  0.211134  0.795915  0.795915  1
  O  O19  1  0.790737  0.207545  0.792844  1
  O  O20  1  0.212160  0.196679  0.795547  1
  O  O21  1  0.790737  0.792844  0.207545  1
