# generated using pymatgen
data_RbLa(PO3)4
_symmetry_space_group_name_H-M   'P 1'
_cell_length_a   8.69321700
_cell_length_b   7.53034100
_cell_length_c   8.24935849
_cell_angle_alpha   88.45010659
_cell_angle_beta   90.00000000
_cell_angle_gamma   90.00000000
_symmetry_Int_Tables_number   1
_chemical_formula_structural   RbLa(PO3)4
_chemical_formula_sum   'Rb2 La2 P8 O24'
_cell_volume   539.82926622
_cell_formula_units_Z   2
loop_
 _symmetry_equiv_pos_site_id
 _symmetry_equiv_pos_as_xyz
  1  'x, y, z'
loop_
 _atom_site_type_symbol
 _atom_site_label
 _atom_site_symmetry_multiplicity
 _atom_site_fract_x
 _atom_site_fract_y
 _atom_site_fract_z
 _atom_site_occupancy
  Rb  Rb0  1  0.047141  0.732614  0.717453  1
  Rb  Rb1  1  0.547141  0.267386  0.282547  1
  La  La2  1  0.740002  0.763338  0.240740  1
  La  La3  1  0.240002  0.236662  0.759260  1
  P  P4  1  0.995017  0.382655  0.391730  1
  P  P5  1  0.495017  0.617345  0.608270  1
  P  P6  1  0.092781  0.006888  0.376355  1
  P  P7  1  0.592781  0.993112  0.623645  1
  P  P8  1  0.316277  0.897267  0.103925  1
  P  P9  1  0.816277  0.102733  0.896075  1
  P  P10  1  0.115961  0.567606  0.098448  1
  P  P11  1  0.615961  0.432394  0.901552  1
  O  O12  1  0.054198  0.389531  0.562185  1
  O  O13  1  0.554198  0.610469  0.437815  1
  O  O14  1  0.842757  0.465547  0.350237  1
  O  O15  1  0.342757  0.534453  0.649763  1
  O  O16  1  0.988511  0.179506  0.334057  1
  O  O17  1  0.488511  0.820494  0.665943  1
  O  O18  1  0.188050  0.035949  0.525531  1
  O  O19  1  0.688050  0.964051  0.474469  1
  O  O20  1  0.988749  0.847714  0.378910  1
  O  O21  1  0.488749  0.152286  0.621090  1
  O  O22  1  0.201216  0.007521  0.218655  1
  O  O23  1  0.701216  0.992479  0.781345  1
  O  O24  1  0.473541  0.322028  0.923473  1
  O  O25  1  0.973541  0.677972  0.076527  1
  O  O26  1  0.648727  0.562549  0.032310  1
  O  O27  1  0.148727  0.437451  0.967690  1
  O  O28  1  0.765348  0.307969  0.880782  1
  O  O29  1  0.265348  0.692031  0.119218  1
  O  O30  1  0.627094  0.533742  0.726777  1
  O  O31  1  0.127094  0.466258  0.273223  1
  O  O32  1  0.786142  0.031363  0.065176  1
  O  O33  1  0.286142  0.968637  0.934824  1
  O  O34  1  0.975317  0.094518  0.826658  1
  O  O35  1  0.475317  0.905482  0.173342  1
