# generated using pymatgen
data_Ho7Th(CdCo)2
_symmetry_space_group_name_H-M   'P 1'
_cell_length_a   9.52004548
_cell_length_b   9.52004546
_cell_length_c   9.54125900
_cell_angle_alpha   59.92625745
_cell_angle_beta   59.92625753
_cell_angle_gamma   60.02335922
_symmetry_Int_Tables_number   1
_chemical_formula_structural   Ho7Th(CdCo)2
_chemical_formula_sum   'Ho14 Th2 Cd4 Co4'
_cell_volume   610.88603754
_cell_formula_units_Z   2
loop_
 _symmetry_equiv_pos_site_id
 _symmetry_equiv_pos_as_xyz
  1  'x, y, z'
loop_
 _atom_site_type_symbol
 _atom_site_label
 _atom_site_symmetry_multiplicity
 _atom_site_fract_x
 _atom_site_fract_y
 _atom_site_fract_z
 _atom_site_occupancy
  Ho  Ho0  1  0.348168  0.955001  0.348416  1
  Ho  Ho1  1  0.955001  0.348168  0.348416  1
  Ho  Ho2  1  0.813053  0.188342  0.186854  1
  Ho  Ho3  1  0.188342  0.813053  0.811752  1
  Ho  Ho4  1  0.188342  0.813053  0.186854  1
  Ho  Ho5  1  0.813053  0.188342  0.811752  1
  Ho  Ho6  1  0.187176  0.187176  0.812824  1
  Ho  Ho7  1  0.813454  0.813454  0.186546  1
  Ho  Ho8  1  0.937069  0.564320  0.563541  1
  Ho  Ho9  1  0.564320  0.937069  0.935070  1
  Ho  Ho10  1  0.564320  0.937069  0.563541  1
  Ho  Ho11  1  0.937069  0.564320  0.935070  1
  Ho  Ho12  1  0.563132  0.563132  0.936868  1
  Ho  Ho13  1  0.939264  0.939264  0.560736  1
  Th  Th14  1  0.341209  0.341209  0.347797  1
  Th  Th15  1  0.341209  0.341209  0.969786  1
  Cd  Cd16  1  0.581093  0.581093  0.579428  1
  Cd  Cd17  1  0.581093  0.581093  0.258384  1
  Cd  Cd18  1  0.582255  0.254944  0.581399  1
  Cd  Cd19  1  0.254944  0.582255  0.581399  1
  Co  Co20  1  0.144050  0.144050  0.139060  1
  Co  Co21  1  0.144050  0.144050  0.572842  1
  Co  Co22  1  0.148363  0.569972  0.140833  1
  Co  Co23  1  0.569972  0.148363  0.140833  1
