# generated using pymatgen
data_Mg3ScCo8(NiP)12
_symmetry_space_group_name_H-M   'P 1'
_cell_length_a   3.60191400
_cell_length_b   10.20640429
_cell_length_c   11.77208374
_cell_angle_alpha   89.76043993
_cell_angle_beta   90.00000000
_cell_angle_gamma   90.00000000
_symmetry_Int_Tables_number   1
_chemical_formula_structural   Mg3ScCo8(NiP)12
_chemical_formula_sum   'Mg3 Sc1 Co8 Ni12 P12'
_cell_volume   432.76851108
_cell_formula_units_Z   1
loop_
 _symmetry_equiv_pos_site_id
 _symmetry_equiv_pos_as_xyz
  1  'x, y, z'
loop_
 _atom_site_type_symbol
 _atom_site_label
 _atom_site_symmetry_multiplicity
 _atom_site_fract_x
 _atom_site_fract_y
 _atom_site_fract_z
 _atom_site_occupancy
  Mg  Mg0  1  0.250000  0.578485  0.705180  1
  Mg  Mg1  1  0.250000  0.921979  0.204711  1
  Mg  Mg2  1  0.750000  0.421973  0.295036  1
  Sc  Sc3  1  0.750000  0.079394  0.795343  1
  Co  Co4  1  0.250000  0.876818  0.700538  1
  Co  Co5  1  0.250000  0.621461  0.200850  1
  Co  Co6  1  0.750000  0.122195  0.298818  1
  Co  Co7  1  0.750000  0.379520  0.798928  1
  Co  Co8  1  0.250000  0.464240  0.931808  1
  Co  Co9  1  0.250000  0.035657  0.431135  1
  Co  Co10  1  0.750000  0.535898  0.068553  1
  Co  Co11  1  0.750000  0.963188  0.567261  1
  Ni  Ni12  1  0.250000  0.715210  0.990092  1
  Ni  Ni13  1  0.250000  0.785258  0.490205  1
  Ni  Ni14  1  0.750000  0.285132  0.007927  1
  Ni  Ni15  1  0.750000  0.213849  0.510375  1
  Ni  Ni16  1  0.250000  0.407515  0.481075  1
  Ni  Ni17  1  0.250000  0.091520  0.983549  1
  Ni  Ni18  1  0.750000  0.591183  0.519812  1
  Ni  Ni19  1  0.750000  0.909321  0.018497  1
  Ni  Ni20  1  0.250000  0.226132  0.174379  1
  Ni  Ni21  1  0.250000  0.272789  0.675110  1
  Ni  Ni22  1  0.750000  0.775291  0.826125  1
  Ni  Ni23  1  0.750000  0.725849  0.324875  1
  P  P24  1  0.250000  0.426089  0.115660  1
  P  P25  1  0.250000  0.072388  0.615762  1
  P  P26  1  0.750000  0.574743  0.884880  1
  P  P27  1  0.750000  0.925975  0.383647  1
  P  P28  1  0.250000  0.265118  0.865922  1
  P  P29  1  0.250000  0.234862  0.365073  1
  P  P30  1  0.750000  0.735435  0.134022  1
  P  P31  1  0.750000  0.764628  0.635043  1
  P  P32  1  0.250000  0.599635  0.388245  1
  P  P33  1  0.250000  0.901928  0.887538  1
  P  P34  1  0.750000  0.399568  0.612519  1
  P  P35  1  0.750000  0.099773  0.111504  1
