# generated using pymatgen
data_Pr4Mn3Pt3O19
_symmetry_space_group_name_H-M   'P 1'
_cell_length_a   7.76743076
_cell_length_b   7.75201357
_cell_length_c   7.76743021
_cell_angle_alpha   109.28455445
_cell_angle_beta   109.40425089
_cell_angle_gamma   109.80602753
_symmetry_Int_Tables_number   1
_chemical_formula_structural   Pr4Mn3Pt3O19
_chemical_formula_sum   'Pr4 Mn3 Pt3 O19'
_cell_volume   359.66994899
_cell_formula_units_Z   1
loop_
 _symmetry_equiv_pos_site_id
 _symmetry_equiv_pos_as_xyz
  1  'x, y, z'
loop_
 _atom_site_type_symbol
 _atom_site_label
 _atom_site_symmetry_multiplicity
 _atom_site_fract_x
 _atom_site_fract_y
 _atom_site_fract_z
 _atom_site_occupancy
  Pr  Pr0  1  0.678555  0.680039  0.673365  1
  Pr  Pr1  1  0.328728  0.008036  0.010895  1
  Pr  Pr2  1  0.993326  0.319961  0.998515  1
  Pr  Pr3  1  0.002859  0.991964  0.320693  1
  Mn  Mn4  1  0.339763  0.840915  0.497724  1
  Mn  Mn5  1  0.656809  0.159085  0.498848  1
  Mn  Mn6  1  0.841620  0.500000  0.341620  1
  Pt  Pt7  1  0.156236  0.500000  0.656236  1
  Pt  Pt8  1  0.501801  0.338523  0.839687  1
  Pt  Pt9  1  0.501164  0.661477  0.163278  1
  O  O10  1  0.660873  0.660642  0.999774  1
  O  O11  1  0.339132  0.339358  0.000230  1
  O  O12  1  0.644803  0.000000  0.644803  1
  O  O13  1  0.350586  0.000000  0.350586  1
  O  O14  1  0.995661  0.655051  0.651450  1
  O  O15  1  0.996399  0.344949  0.340610  1
  O  O16  1  0.000166  0.000000  0.000166  1
  O  O17  1  0.356958  0.610564  0.325830  1
  O  O18  1  0.643105  0.968494  0.255077  1
  O  O19  1  0.715267  0.389436  0.746394  1
  O  O20  1  0.617882  0.323809  0.365344  1
  O  O21  1  0.286581  0.031506  0.674611  1
  O  O22  1  0.952507  0.246322  0.636634  1
  O  O23  1  0.390311  0.753677  0.706186  1
  O  O24  1  0.041534  0.676191  0.294072  1
  O  O25  1  0.320292  0.357699  0.605985  1
  O  O26  1  0.757117  0.709674  0.391354  1
  O  O27  1  0.681681  0.290326  0.047444  1
  O  O28  1  0.248285  0.642301  0.962593  1
