# generated using pymatgen
data_La2ErPa(NiAs)4
_symmetry_space_group_name_H-M   'P 1'
_cell_length_a   4.13504700
_cell_length_b   4.13504660
_cell_length_c   15.70902800
_cell_angle_alpha   90.00000000
_cell_angle_beta   90.00000000
_cell_angle_gamma   120.00001118
_symmetry_Int_Tables_number   1
_chemical_formula_structural   La2ErPa(NiAs)4
_chemical_formula_sum   'La2 Er1 Pa1 Ni4 As4'
_cell_volume   232.61662763
_cell_formula_units_Z   1
loop_
 _symmetry_equiv_pos_site_id
 _symmetry_equiv_pos_as_xyz
  1  'x, y, z'
loop_
 _atom_site_type_symbol
 _atom_site_label
 _atom_site_symmetry_multiplicity
 _atom_site_fract_x
 _atom_site_fract_y
 _atom_site_fract_z
 _atom_site_occupancy
  La  La0  1  0.000000  0.000000  0.995629  1
  La  La1  1  0.000000  0.000000  0.504371  1
  Er  Er2  1  0.000000  0.000000  0.750000  1
  Pa  Pa3  1  0.000000  0.000000  0.250000  1
  Ni  Ni4  1  0.333333  0.666667  0.160067  1
  Ni  Ni5  1  0.666667  0.333333  0.856129  1
  Ni  Ni6  1  0.666667  0.333333  0.643871  1
  Ni  Ni7  1  0.333333  0.666667  0.339933  1
  As  As8  1  0.333333  0.666667  0.628412  1
  As  As9  1  0.666667  0.333333  0.376507  1
  As  As10  1  0.666667  0.333333  0.123493  1
  As  As11  1  0.333333  0.666667  0.871588  1
