# generated using pymatgen
data_La8AlZn7Ir5Rh3
_symmetry_space_group_name_H-M   'P 1'
_cell_length_a   4.07507000
_cell_length_b   7.47145891
_cell_length_c   16.66496554
_cell_angle_alpha   89.58432872
_cell_angle_beta   90.00000000
_cell_angle_gamma   90.00000000
_symmetry_Int_Tables_number   1
_chemical_formula_structural   La8AlZn7Ir5Rh3
_chemical_formula_sum   'La8 Al1 Zn7 Ir5 Rh3'
_cell_volume   507.38015443
_cell_formula_units_Z   1
loop_
 _symmetry_equiv_pos_site_id
 _symmetry_equiv_pos_as_xyz
  1  'x, y, z'
loop_
 _atom_site_type_symbol
 _atom_site_label
 _atom_site_symmetry_multiplicity
 _atom_site_fract_x
 _atom_site_fract_y
 _atom_site_fract_z
 _atom_site_occupancy
  La  La0  1  0.750000  0.329036  0.439422  1
  La  La1  1  0.250000  0.045389  0.716375  1
  La  La2  1  0.250000  0.545109  0.783239  1
  La  La3  1  0.250000  0.671062  0.560022  1
  La  La4  1  0.750000  0.828010  0.058771  1
  La  La5  1  0.250000  0.169897  0.939658  1
  La  La6  1  0.750000  0.459823  0.219888  1
  La  La7  1  0.750000  0.951642  0.284176  1
  Al  Al8  1  0.250000  0.132632  0.150492  1
  Zn  Zn9  1  0.250000  0.998318  0.440375  1
  Zn  Zn10  1  0.750000  0.871796  0.850404  1
  Zn  Zn11  1  0.750000  0.000626  0.559247  1
  Zn  Zn12  1  0.250000  0.496684  0.060345  1
  Zn  Zn13  1  0.750000  0.371033  0.649786  1
  Zn  Zn14  1  0.750000  0.498180  0.940901  1
  Zn  Zn15  1  0.250000  0.626045  0.353135  1
  Ir  Ir16  1  0.750000  0.255191  0.814632  1
  Ir  Ir17  1  0.250000  0.241850  0.306644  1
  Ir  Ir18  1  0.750000  0.757717  0.434143  1
  Ir  Ir19  1  0.750000  0.251463  0.072171  1
  Ir  Ir20  1  0.750000  0.755923  0.685829  1
  Rh  Rh21  1  0.250000  0.739310  0.934853  1
  Rh  Rh22  1  0.250000  0.241850  0.564418  1
  Rh  Rh23  1  0.250000  0.761418  0.181071  1
