# generated using pymatgen
data_TbEr15(Ga3Fe)2
_symmetry_space_group_name_H-M   'P 1'
_cell_length_a   9.89376900
_cell_length_b   9.89376850
_cell_length_c   6.88428300
_cell_angle_alpha   90.00000000
_cell_angle_beta   90.00000000
_cell_angle_gamma   119.99999834
_symmetry_Int_Tables_number   1
_chemical_formula_structural   TbEr15(Ga3Fe)2
_chemical_formula_sum   'Tb1 Er15 Ga6 Fe2'
_cell_volume   583.59674955
_cell_formula_units_Z   1
loop_
 _symmetry_equiv_pos_site_id
 _symmetry_equiv_pos_as_xyz
  1  'x, y, z'
loop_
 _atom_site_type_symbol
 _atom_site_label
 _atom_site_symmetry_multiplicity
 _atom_site_fract_x
 _atom_site_fract_y
 _atom_site_fract_z
 _atom_site_occupancy
  Tb  Tb0  1  0.000000  0.000000  0.730836  1
  Er  Er1  1  0.173382  0.826618  0.510178  1
  Er  Er2  1  0.653234  0.826618  0.510178  1
  Er  Er3  1  0.173382  0.346766  0.510178  1
  Er  Er4  1  0.826516  0.173484  0.010620  1
  Er  Er5  1  0.346969  0.173484  0.010620  1
  Er  Er6  1  0.826516  0.653031  0.010620  1
  Er  Er7  1  0.333333  0.666667  0.830362  1
  Er  Er8  1  0.666667  0.333333  0.329313  1
  Er  Er9  1  0.463410  0.536590  0.207109  1
  Er  Er10  1  0.073180  0.536590  0.207109  1
  Er  Er11  1  0.463410  0.926820  0.207109  1
  Er  Er12  1  0.536681  0.463319  0.707359  1
  Er  Er13  1  0.926638  0.463319  0.707359  1
  Er  Er14  1  0.536681  0.073362  0.707359  1
  Er  Er15  1  0.000000  0.000000  0.231210  1
  Ga  Ga16  1  0.163959  0.836041  0.959543  1
  Ga  Ga17  1  0.672081  0.836041  0.959543  1
  Ga  Ga18  1  0.163959  0.327919  0.959543  1
  Ga  Ga19  1  0.836070  0.163930  0.458825  1
  Ga  Ga20  1  0.327862  0.163930  0.458825  1
  Ga  Ga21  1  0.836070  0.672138  0.458825  1
  Fe  Fe22  1  0.333333  0.666667  0.445870  1
  Fe  Fe23  1  0.666667  0.333333  0.945547  1
