# generated using pymatgen
data_PmBeIrF
_symmetry_space_group_name_H-M   'P 1'
_cell_length_a   4.15103600
_cell_length_b   4.15103600
_cell_length_c   7.55579400
_cell_angle_alpha   90.00001380
_cell_angle_beta   90.00001380
_cell_angle_gamma   89.99993099
_symmetry_Int_Tables_number   1
_chemical_formula_structural   PmBeIrF
_chemical_formula_sum   'Pm2 Be2 Ir2 F2'
_cell_volume   130.19464104
_cell_formula_units_Z   2
loop_
 _symmetry_equiv_pos_site_id
 _symmetry_equiv_pos_as_xyz
  1  'x, y, z'
loop_
 _atom_site_type_symbol
 _atom_site_label
 _atom_site_symmetry_multiplicity
 _atom_site_fract_x
 _atom_site_fract_y
 _atom_site_fract_z
 _atom_site_occupancy
  Pm  Pm0  1  0.250001  0.250001  0.200511  1
  Pm  Pm1  1  0.750001  0.750001  0.799484  1
  Be  Be2  1  0.750001  0.750001  0.388497  1
  Be  Be3  1  0.250002  0.250002  0.611507  1
  Ir  Ir4  1  0.750001  0.250002  0.499998  1
  Ir  Ir5  1  0.250002  0.750001  0.499998  1
  F  F6  1  0.750002  0.250002  0.000002  1
  F  F7  1  0.250002  0.750002  0.000002  1
