# generated using pymatgen
data_Pr5PdRhO12
_symmetry_space_group_name_H-M   'P 1'
_cell_length_a   7.14669265
_cell_length_b   7.14669168
_cell_length_c   7.63494712
_cell_angle_alpha   74.51313901
_cell_angle_beta   74.51313958
_cell_angle_gamma   50.84164080
_symmetry_Int_Tables_number   1
_chemical_formula_structural   Pr5PdRhO12
_chemical_formula_sum   'Pr5 Pd1 Rh1 O12'
_cell_volume   288.85727014
_cell_formula_units_Z   1
loop_
 _symmetry_equiv_pos_site_id
 _symmetry_equiv_pos_as_xyz
  1  'x, y, z'
loop_
 _atom_site_type_symbol
 _atom_site_label
 _atom_site_symmetry_multiplicity
 _atom_site_fract_x
 _atom_site_fract_y
 _atom_site_fract_z
 _atom_site_occupancy
  Pr  Pr0  1  0.310887  0.297973  0.357521  1
  Pr  Pr1  1  0.702027  0.689113  0.642479  1
  Pr  Pr2  1  0.696039  0.691443  0.164961  1
  Pr  Pr3  1  0.308557  0.303961  0.835039  1
  Pr  Pr4  1  0.002719  0.997281  0.500000  1
  Pd  Pd5  1  0.748765  0.251235  0.000000  1
  Rh  Rh6  1  0.240140  0.759860  0.000000  1
  O  O7  1  0.099528  0.597110  0.574512  1
  O  O8  1  0.998087  0.001117  0.172933  1
  O  O9  1  0.402890  0.900472  0.425488  1
  O  O10  1  0.495858  0.504878  0.175588  1
  O  O11  1  0.102739  0.582170  0.079512  1
  O  O12  1  0.908187  0.401373  0.422048  1
  O  O13  1  0.998883  0.001913  0.827067  1
  O  O14  1  0.598627  0.091812  0.577952  1
  O  O15  1  0.495122  0.504142  0.824412  1
  O  O16  1  0.571077  0.097962  0.081442  1
  O  O17  1  0.417830  0.897261  0.920488  1
  O  O18  1  0.902038  0.428923  0.918558  1
