# generated using pymatgen
data_Yb12Ga12Sb5Pt2RhO48
_symmetry_space_group_name_H-M   'P 1'
_cell_length_a   10.85075638
_cell_length_b   10.81853945
_cell_length_c   10.81854000
_cell_angle_alpha   109.41082410
_cell_angle_beta   109.53155210
_cell_angle_gamma   109.53155959
_symmetry_Int_Tables_number   1
_chemical_formula_structural   Yb12Ga12Sb5Pt2RhO48
_chemical_formula_sum   'Yb12 Ga12 Sb5 Pt2 Rh1 O48'
_cell_volume   976.90302181
_cell_formula_units_Z   1
loop_
 _symmetry_equiv_pos_site_id
 _symmetry_equiv_pos_as_xyz
  1  'x, y, z'
loop_
 _atom_site_type_symbol
 _atom_site_label
 _atom_site_symmetry_multiplicity
 _atom_site_fract_x
 _atom_site_fract_y
 _atom_site_fract_z
 _atom_site_occupancy
  Yb  Yb0  1  0.256302  0.378017  0.132369  1
  Yb  Yb1  1  0.381033  0.758204  0.119698  1
  Yb  Yb2  1  0.379926  0.125660  0.245175  1
  Yb  Yb3  1  0.876324  0.632238  0.254220  1
  Yb  Yb4  1  0.128591  0.249572  0.378230  1
  Yb  Yb5  1  0.746641  0.120759  0.365555  1
  Yb  Yb6  1  0.253356  0.879241  0.634445  1
  Yb  Yb7  1  0.871406  0.750427  0.621768  1
  Yb  Yb8  1  0.123675  0.367762  0.745779  1
  Yb  Yb9  1  0.620073  0.874343  0.754827  1
  Yb  Yb10  1  0.618967  0.241796  0.880300  1
  Yb  Yb11  1  0.743698  0.621984  0.867632  1
  Ga  Ga12  1  0.749441  0.876265  0.126662  1
  Ga  Ga13  1  0.871595  0.245202  0.122334  1
  Ga  Ga14  1  0.624840  0.372443  0.250732  1
  Ga  Ga15  1  0.126197  0.877935  0.253532  1
  Ga  Ga16  1  0.625017  0.749931  0.376239  1
  Ga  Ga17  1  0.251409  0.624660  0.377420  1
  Ga  Ga18  1  0.748587  0.375345  0.622578  1
  Ga  Ga19  1  0.374994  0.250074  0.623768  1
  Ga  Ga20  1  0.873803  0.122068  0.746469  1
  Ga  Ga21  1  0.375158  0.627558  0.749272  1
  Ga  Ga22  1  0.250554  0.123731  0.873338  1
  Ga  Ga23  1  0.128406  0.754797  0.877663  1
  Sb  Sb24  1  0.999998  0.999999  0.000001  1
  Sb  Sb25  1  0.500002  0.499999  0.000001  1
  Sb  Sb26  1  0.000000  0.500001  0.000002  1
  Sb  Sb27  1  0.499999  0.000001  0.499999  1
  Sb  Sb28  1  0.999999  0.499998  0.499998  1
  Pt  Pt29  1  0.000001  0.000002  0.500002  1
  Pt  Pt30  1  0.499999  0.499996  0.499994  1
  Rh  Rh31  1  0.500000  0.999996  0.999998  1
  O  O32  1  0.317779  0.907195  0.029291  1
  O  O33  1  0.200296  0.122416  0.023686  1
  O  O34  1  0.701916  0.676078  0.078798  1
  O  O35  1  0.881400  0.405425  0.083602  1
  O  O36  1  0.977306  0.679386  0.096643  1
  O  O37  1  0.622767  0.422063  0.099188  1
  O  O38  1  0.594221  0.910655  0.121957  1
  O  O39  1  0.025713  0.202237  0.122015  1
  O  O40  1  0.475389  0.598216  0.176684  1
  O  O41  1  0.201758  0.581791  0.178713  1
  O  O42  1  0.122584  0.024660  0.201150  1
  O  O43  1  0.590389  0.182722  0.212599  1
  O  O44  1  0.472458  0.379640  0.291626  1
  O  O45  1  0.322746  0.919755  0.298810  1
  O  O46  1  0.908742  0.029297  0.319949  1
  O  O47  1  0.922027  0.299615  0.322902  1
  O  O48  1  0.292577  0.472327  0.378875  1
  O  O49  1  0.578719  0.902464  0.378014  1
  O  O50  1  0.824462  0.526015  0.403121  1
  O  O51  1  0.086088  0.878455  0.406778  1
  O  O52  1  0.818804  0.792318  0.413133  1
  O  O53  1  0.097236  0.621553  0.420003  1
  O  O54  1  0.597693  0.176618  0.475798  1
  O  O55  1  0.378417  0.291246  0.471273  1
  O  O56  1  0.621581  0.708755  0.528728  1
  O  O57  1  0.402308  0.823386  0.524203  1
  O  O58  1  0.902764  0.378446  0.579997  1
  O  O59  1  0.181195  0.207683  0.586867  1
  O  O60  1  0.913911  0.121544  0.593220  1
  O  O61  1  0.175537  0.473980  0.596876  1
  O  O62  1  0.421278  0.097537  0.621984  1
  O  O63  1  0.707425  0.527676  0.621127  1
  O  O64  1  0.077969  0.700384  0.677097  1
  O  O65  1  0.091265  0.970709  0.680061  1
  O  O66  1  0.677252  0.080243  0.701188  1
  O  O67  1  0.527553  0.620359  0.708368  1
  O  O68  1  0.409604  0.817260  0.787394  1
  O  O69  1  0.877414  0.975342  0.798849  1
  O  O70  1  0.798242  0.418208  0.821289  1
  O  O71  1  0.524612  0.401789  0.823318  1
  O  O72  1  0.974287  0.797761  0.877983  1
  O  O73  1  0.405781  0.089341  0.878044  1
  O  O74  1  0.377234  0.577937  0.900804  1
  O  O75  1  0.022694  0.320615  0.903357  1
  O  O76  1  0.118598  0.594575  0.916395  1
  O  O77  1  0.298083  0.323921  0.921203  1
  O  O78  1  0.682220  0.092804  0.970709  1
  O  O79  1  0.799700  0.877584  0.976323  1
