# generated using pymatgen
data_Pr17Nd3Si15Se
_symmetry_space_group_name_H-M   'P 1'
_cell_length_a   7.95624863
_cell_length_b   7.91335248
_cell_length_c   15.37872440
_cell_angle_alpha   89.74468924
_cell_angle_beta   89.26334641
_cell_angle_gamma   89.99811051
_symmetry_Int_Tables_number   1
_chemical_formula_structural   Pr17Nd3Si15Se
_chemical_formula_sum   'Pr17 Nd3 Si15 Se1'
_cell_volume   968.16407480
_cell_formula_units_Z   1
loop_
 _symmetry_equiv_pos_site_id
 _symmetry_equiv_pos_as_xyz
  1  'x, y, z'
loop_
 _atom_site_type_symbol
 _atom_site_label
 _atom_site_symmetry_multiplicity
 _atom_site_fract_x
 _atom_site_fract_y
 _atom_site_fract_z
 _atom_site_occupancy
  Pr  Pr0  1  0.686911  0.688651  0.497508  1
  Pr  Pr1  1  0.381393  0.007201  0.443362  1
  Pr  Pr2  1  0.492092  0.875592  0.698233  1
  Pr  Pr3  1  0.510449  0.120983  0.196409  1
  Pr  Pr4  1  0.876988  0.487250  0.301546  1
  Pr  Pr5  1  0.122882  0.510749  0.803388  1
  Pr  Pr6  1  0.628919  0.985967  0.949695  1
  Pr  Pr7  1  0.001103  0.380166  0.548751  1
  Pr  Pr8  1  0.990580  0.621709  0.053415  1
  Pr  Pr9  1  0.136561  0.988588  0.873281  1
  Pr  Pr10  1  0.518143  0.628837  0.126169  1
  Pr  Pr11  1  0.478210  0.370021  0.630480  1
  Pr  Pr12  1  0.631303  0.521334  0.875452  1
  Pr  Pr13  1  0.370626  0.478733  0.374364  1
  Pr  Pr14  1  0.871844  0.019023  0.376499  1
  Pr  Pr15  1  0.982510  0.128395  0.124474  1
  Pr  Pr16  1  0.015460  0.867946  0.621927  1
  Nd  Nd17  1  0.310893  0.310133  0.000321  1
  Nd  Nd18  1  0.188522  0.808923  0.249589  1
  Nd  Nd19  1  0.801623  0.190413  0.751552  1
  Si  Si20  1  0.330186  0.696831  0.951174  1
  Si  Si21  1  0.664425  0.304679  0.454323  1
  Si  Si22  1  0.699620  0.334454  0.049311  1
  Si  Si23  1  0.304124  0.667667  0.549007  1
  Si  Si24  1  0.804324  0.832420  0.202648  1
  Si  Si25  1  0.168308  0.194754  0.297144  1
  Si  Si26  1  0.840002  0.804029  0.796840  1
  Si  Si27  1  0.285975  0.921795  0.058503  1
  Si  Si28  1  0.577225  0.786848  0.308732  1
  Si  Si29  1  0.448675  0.210529  0.823043  1
  Si  Si30  1  0.789014  0.578253  0.688989  1
  Si  Si31  1  0.211972  0.423660  0.190956  1
  Si  Si32  1  0.704707  0.075952  0.560710  1
  Si  Si33  1  0.926070  0.289826  0.940229  1
  Si  Si34  1  0.077908  0.711380  0.440499  1
  Se  Se35  1  0.170450  0.176309  0.691473  1
