# generated using pymatgen
data_SmGd5(BO3)6
_symmetry_space_group_name_H-M   'P 1'
_cell_length_a   6.67906478
_cell_length_b   6.68242918
_cell_length_c   9.75519254
_cell_angle_alpha   70.33318380
_cell_angle_beta   70.34303838
_cell_angle_gamma   60.16674611
_symmetry_Int_Tables_number   1
_chemical_formula_structural   SmGd5(BO3)6
_chemical_formula_sum   'Sm1 Gd5 B6 O18'
_cell_volume   347.97315910
_cell_formula_units_Z   1
loop_
 _symmetry_equiv_pos_site_id
 _symmetry_equiv_pos_as_xyz
  1  'x, y, z'
loop_
 _atom_site_type_symbol
 _atom_site_label
 _atom_site_symmetry_multiplicity
 _atom_site_fract_x
 _atom_site_fract_y
 _atom_site_fract_z
 _atom_site_occupancy
  Sm  Sm0  1  0.829268  0.342417  0.000966  1
  Gd  Gd1  1  0.000064  0.500100  0.499864  1
  Gd  Gd2  1  0.499997  0.999991  0.999986  1
  Gd  Gd3  1  0.656822  0.170999  0.499210  1
  Gd  Gd4  1  0.170992  0.657100  0.999054  1
  Gd  Gd5  1  0.343073  0.828904  0.500958  1
  B  B6  1  0.083797  0.153446  0.253323  1
  B  B7  1  0.846329  0.916014  0.247267  1
  B  B8  1  0.916565  0.846912  0.746848  1
  B  B9  1  0.154078  0.083147  0.752728  1
  B  B10  1  0.320984  0.678953  0.250116  1
  B  B11  1  0.678248  0.321569  0.749716  1
  O  O12  1  0.035906  0.216082  0.394117  1
  O  O13  1  0.783938  0.963135  0.106357  1
  O  O14  1  0.964066  0.784101  0.606035  1
  O  O15  1  0.216983  0.035093  0.893611  1
  O  O16  1  0.131661  0.309842  0.113089  1
  O  O17  1  0.689702  0.869024  0.387398  1
  O  O18  1  0.869218  0.691359  0.887029  1
  O  O19  1  0.310333  0.130903  0.612596  1
  O  O20  1  0.477445  0.617797  0.110239  1
  O  O21  1  0.383505  0.521062  0.389955  1
  O  O22  1  0.520395  0.383573  0.889637  1
  O  O23  1  0.616282  0.479198  0.609902  1
  O  O24  1  0.084067  0.702652  0.247875  1
  O  O25  1  0.297249  0.915703  0.252548  1
  O  O26  1  0.915922  0.296975  0.751695  1
  O  O27  1  0.702580  0.084612  0.747474  1
  O  O28  1  0.870463  0.129043  0.250627  1
  O  O29  1  0.130065  0.870297  0.749782  1
