# generated using pymatgen
data_Ca16Al5Hg
_symmetry_space_group_name_H-M   'P 1'
_cell_length_a   9.47172750
_cell_length_b   9.55598098
_cell_length_c   9.60073577
_cell_angle_alpha   99.09110217
_cell_angle_beta   101.00904421
_cell_angle_gamma   119.71133404
_symmetry_Int_Tables_number   1
_chemical_formula_structural   Ca16Al5Hg
_chemical_formula_sum   'Ca16 Al5 Hg1'
_cell_volume   707.56840352
_cell_formula_units_Z   1
loop_
 _symmetry_equiv_pos_site_id
 _symmetry_equiv_pos_as_xyz
  1  'x, y, z'
loop_
 _atom_site_type_symbol
 _atom_site_label
 _atom_site_symmetry_multiplicity
 _atom_site_fract_x
 _atom_site_fract_y
 _atom_site_fract_z
 _atom_site_occupancy
  Ca  Ca0  1  0.531000  0.700906  0.650553  1
  Ca  Ca1  1  0.469000  0.299094  0.349447  1
  Ca  Ca2  1  0.079902  0.230218  0.106285  1
  Ca  Ca3  1  0.920098  0.769782  0.893715  1
  Ca  Ca4  1  0.878647  0.401768  0.650372  1
  Ca  Ca5  1  0.121353  0.598232  0.349628  1
  Ca  Ca6  1  0.332368  0.877908  0.109749  1
  Ca  Ca7  1  0.667632  0.122092  0.890251  1
  Ca  Ca8  1  0.958791  0.060813  0.669559  1
  Ca  Ca9  1  0.041209  0.939187  0.330441  1
  Ca  Ca10  1  0.702106  0.498167  0.108989  1
  Ca  Ca11  1  0.297894  0.501833  0.891011  1
  Ca  Ca12  1  0.774917  0.152480  0.300101  1
  Ca  Ca13  1  0.225083  0.847520  0.699899  1
  Ca  Ca14  1  0.546241  0.712829  0.298192  1
  Ca  Ca15  1  0.453759  0.287171  0.701808  1
  Al  Al16  1  0.500000  0.000000  0.500000  1
  Al  Al17  1  0.173183  0.337198  0.499574  1
  Al  Al18  1  0.826817  0.662802  0.500426  1
  Al  Al19  1  0.675555  0.840691  0.026254  1
  Al  Al20  1  0.324445  0.159309  0.973746  1
  Hg  Hg21  1  0.000000  0.500000  0.000000  1
