# generated using pymatgen
data_NaDy6RhI12
_symmetry_space_group_name_H-M   'P 1'
_cell_length_a   9.78690810
_cell_length_b   9.78690613
_cell_length_c   9.78690740
_cell_angle_alpha   107.03566260
_cell_angle_beta   107.03566085
_cell_angle_gamma   107.03567179
_symmetry_Int_Tables_number   1
_chemical_formula_structural   NaDy6RhI12
_chemical_formula_sum   'Na1 Dy6 Rh1 I12'
_cell_volume   779.93551012
_cell_formula_units_Z   1
loop_
 _symmetry_equiv_pos_site_id
 _symmetry_equiv_pos_as_xyz
  1  'x, y, z'
loop_
 _atom_site_type_symbol
 _atom_site_label
 _atom_site_symmetry_multiplicity
 _atom_site_fract_x
 _atom_site_fract_y
 _atom_site_fract_z
 _atom_site_occupancy
  Na  Na0  1  0.500000  0.500000  0.500000  1
  Dy  Dy1  1  0.900448  0.972461  0.697037  1
  Dy  Dy2  1  0.972461  0.697037  0.900448  1
  Dy  Dy3  1  0.697037  0.900448  0.972461  1
  Dy  Dy4  1  0.099552  0.027539  0.302963  1
  Dy  Dy5  1  0.027539  0.302963  0.099552  1
  Dy  Dy6  1  0.302963  0.099552  0.027539  1
  Rh  Rh7  1  0.000000  0.000000  0.000000  1
  I  I8  1  0.548502  0.858362  0.627266  1
  I  I9  1  0.858362  0.627266  0.548502  1
  I  I10  1  0.627266  0.548502  0.858362  1
  I  I11  1  0.451498  0.141638  0.372734  1
  I  I12  1  0.141638  0.372734  0.451498  1
  I  I13  1  0.372734  0.451498  0.141638  1
  I  I14  1  0.679961  0.223352  0.072859  1
  I  I15  1  0.223352  0.072859  0.679961  1
  I  I16  1  0.072859  0.679961  0.223352  1
  I  I17  1  0.320039  0.776648  0.927141  1
  I  I18  1  0.776648  0.927141  0.320039  1
  I  I19  1  0.927141  0.320039  0.776648  1
