# generated using pymatgen
data_Pr9Nd8Tm3Sn16
_symmetry_space_group_name_H-M   'P 1'
_cell_length_a   8.27082517
_cell_length_b   8.42363561
_cell_length_c   15.98464003
_cell_angle_alpha   90.00644091
_cell_angle_beta   89.99822857
_cell_angle_gamma   90.07043634
_symmetry_Int_Tables_number   1
_chemical_formula_structural   Pr9Nd8Tm3Sn16
_chemical_formula_sum   'Pr9 Nd8 Tm3 Sn16'
_cell_volume   1113.65569325
_cell_formula_units_Z   1
loop_
 _symmetry_equiv_pos_site_id
 _symmetry_equiv_pos_as_xyz
  1  'x, y, z'
loop_
 _atom_site_type_symbol
 _atom_site_label
 _atom_site_symmetry_multiplicity
 _atom_site_fract_x
 _atom_site_fract_y
 _atom_site_fract_z
 _atom_site_occupancy
  Pr  Pr0  1  0.868211  0.663245  0.879521  1
  Pr  Pr1  1  0.518239  0.318273  0.900876  1
  Pr  Pr2  1  0.018535  0.181611  0.599495  1
  Pr  Pr3  1  0.481957  0.680864  0.401191  1
  Pr  Pr4  1  0.980965  0.817603  0.098687  1
  Pr  Pr5  1  0.481953  0.680834  0.098817  1
  Pr  Pr6  1  0.980930  0.817599  0.401383  1
  Pr  Pr7  1  0.518295  0.318309  0.599117  1
  Pr  Pr8  1  0.018555  0.181567  0.900490  1
  Nd  Nd9  1  0.367873  0.836815  0.878535  1
  Nd  Nd10  1  0.868125  0.663229  0.620502  1
  Nd  Nd11  1  0.632881  0.164119  0.379688  1
  Nd  Nd12  1  0.130981  0.336932  0.119925  1
  Nd  Nd13  1  0.632846  0.164127  0.120357  1
  Nd  Nd14  1  0.131001  0.336856  0.380051  1
  Nd  Nd15  1  0.367917  0.836802  0.621449  1
  Nd  Nd16  1  0.303014  0.001762  0.250005  1
  Tm  Tm17  1  0.199694  0.501485  0.749955  1
  Tm  Tm18  1  0.699425  0.998250  0.749940  1
  Tm  Tm19  1  0.800624  0.497846  0.250007  1
  Sn  Sn20  1  0.291703  0.035279  0.041957  1
  Sn  Sn21  1  0.791711  0.466399  0.455661  1
  Sn  Sn22  1  0.708148  0.966618  0.544726  1
  Sn  Sn23  1  0.209012  0.533660  0.955263  1
  Sn  Sn24  1  0.707847  0.967114  0.955357  1
  Sn  Sn25  1  0.208560  0.533807  0.544814  1
  Sn  Sn26  1  0.291689  0.035267  0.458025  1
  Sn  Sn27  1  0.791592  0.466134  0.044573  1
  Sn  Sn28  1  0.564266  0.617201  0.749873  1
  Sn  Sn29  1  0.064322  0.882906  0.749884  1
  Sn  Sn30  1  0.436892  0.385436  0.250001  1
  Sn  Sn31  1  0.931247  0.118195  0.250001  1
  Sn  Sn32  1  0.323757  0.145950  0.749988  1
  Sn  Sn33  1  0.823133  0.354488  0.749888  1
  Sn  Sn34  1  0.679018  0.853095  0.250000  1
  Sn  Sn35  1  0.175076  0.640323  0.249998  1
