# generated using pymatgen
data_Dy8Fe(Si4Pt)3
_symmetry_space_group_name_H-M   'P 1'
_cell_length_a   8.11291700
_cell_length_b   8.11291742
_cell_length_c   8.02174300
_cell_angle_alpha   90.00000000
_cell_angle_beta   90.00000000
_cell_angle_gamma   119.99999419
_symmetry_Int_Tables_number   1
_chemical_formula_structural   Dy8Fe(Si4Pt)3
_chemical_formula_sum   'Dy8 Fe1 Si12 Pt3'
_cell_volume   457.24976364
_cell_formula_units_Z   1
loop_
 _symmetry_equiv_pos_site_id
 _symmetry_equiv_pos_as_xyz
  1  'x, y, z'
loop_
 _atom_site_type_symbol
 _atom_site_label
 _atom_site_symmetry_multiplicity
 _atom_site_fract_x
 _atom_site_fract_y
 _atom_site_fract_z
 _atom_site_occupancy
  Dy  Dy0  1  0.000000  0.000000  0.250223  1
  Dy  Dy1  1  0.000000  0.000000  0.748807  1
  Dy  Dy2  1  0.002442  0.501221  0.255290  1
  Dy  Dy3  1  0.498779  0.501221  0.255290  1
  Dy  Dy4  1  0.506259  0.012516  0.745861  1
  Dy  Dy5  1  0.498779  0.997558  0.255290  1
  Dy  Dy6  1  0.506259  0.493741  0.745861  1
  Dy  Dy7  1  0.987484  0.493741  0.745861  1
  Fe  Fe8  1  0.666667  0.333333  0.481205  1
  Si  Si9  1  0.165552  0.331102  0.001098  1
  Si  Si10  1  0.668898  0.834448  0.001098  1
  Si  Si11  1  0.163620  0.327239  0.500306  1
  Si  Si12  1  0.329385  0.164693  0.998120  1
  Si  Si13  1  0.165552  0.834448  0.001098  1
  Si  Si14  1  0.672761  0.836380  0.500306  1
  Si  Si15  1  0.835307  0.670615  0.998120  1
  Si  Si16  1  0.345584  0.172792  0.500118  1
  Si  Si17  1  0.163620  0.836380  0.500306  1
  Si  Si18  1  0.827208  0.654416  0.500118  1
  Si  Si19  1  0.835307  0.164693  0.998120  1
  Si  Si20  1  0.827208  0.172792  0.500118  1
  Pt  Pt21  1  0.333333  0.666667  0.989983  1
  Pt  Pt22  1  0.333333  0.666667  0.511716  1
  Pt  Pt23  1  0.666667  0.333333  0.015685  1
