# generated using pymatgen
data_ZrNp7H24
_symmetry_space_group_name_H-M   'P 1'
_cell_length_a   6.56649800
_cell_length_b   6.56649800
_cell_length_c   6.56649800
_cell_angle_alpha   90.00000000
_cell_angle_beta   90.00000000
_cell_angle_gamma   90.00000000
_symmetry_Int_Tables_number   1
_chemical_formula_structural   ZrNp7H24
_chemical_formula_sum   'Zr1 Np7 H24'
_cell_volume   283.14014424
_cell_formula_units_Z   1
loop_
 _symmetry_equiv_pos_site_id
 _symmetry_equiv_pos_as_xyz
  1  'x, y, z'
loop_
 _atom_site_type_symbol
 _atom_site_label
 _atom_site_symmetry_multiplicity
 _atom_site_fract_x
 _atom_site_fract_y
 _atom_site_fract_z
 _atom_site_occupancy
  Zr  Zr0  1  0.500000  0.500000  0.500000  1
  Np  Np1  1  0.000000  0.000000  0.000000  1
  Np  Np2  1  0.252480  0.000000  0.500000  1
  Np  Np3  1  0.747520  0.000000  0.500000  1
  Np  Np4  1  0.000000  0.500000  0.252480  1
  Np  Np5  1  0.000000  0.500000  0.747520  1
  Np  Np6  1  0.500000  0.747520  0.000000  1
  Np  Np7  1  0.500000  0.252480  0.000000  1
  H  H8  1  0.000000  0.156892  0.305886  1
  H  H9  1  0.500000  0.209418  0.651545  1
  H  H10  1  0.500000  0.790582  0.348455  1
  H  H11  1  0.790582  0.651545  0.500000  1
  H  H12  1  0.209418  0.651545  0.500000  1
  H  H13  1  0.348455  0.500000  0.790582  1
  H  H14  1  0.651545  0.500000  0.790582  1
  H  H15  1  0.305886  0.000000  0.156892  1
  H  H16  1  0.156892  0.305886  0.000000  1
  H  H17  1  0.843108  0.694114  0.000000  1
  H  H18  1  0.305886  0.000000  0.843108  1
  H  H19  1  0.843108  0.305886  0.000000  1
  H  H20  1  0.694114  0.000000  0.156892  1
  H  H21  1  0.694114  0.000000  0.843108  1
  H  H22  1  0.156892  0.694114  0.000000  1
  H  H23  1  0.000000  0.843108  0.694114  1
  H  H24  1  0.000000  0.156892  0.694114  1
  H  H25  1  0.000000  0.843108  0.305886  1
  H  H26  1  0.651545  0.500000  0.209418  1
  H  H27  1  0.348455  0.500000  0.209418  1
  H  H28  1  0.790582  0.348455  0.500000  1
  H  H29  1  0.209418  0.348455  0.500000  1
  H  H30  1  0.500000  0.790582  0.651545  1
  H  H31  1  0.500000  0.209418  0.348455  1
