# generated using pymatgen
data_Dy5Ho3(LuPb3)2
_symmetry_space_group_name_H-M   'P 1'
_cell_length_a   6.56812100
_cell_length_b   9.02415959
_cell_length_c   9.02650443
_cell_angle_alpha   120.00782314
_cell_angle_beta   89.99996598
_cell_angle_gamma   90.00109341
_symmetry_Int_Tables_number   1
_chemical_formula_structural   Dy5Ho3(LuPb3)2
_chemical_formula_sum   'Dy5 Ho3 Lu2 Pb6'
_cell_volume   463.30170875
_cell_formula_units_Z   1
loop_
 _symmetry_equiv_pos_site_id
 _symmetry_equiv_pos_as_xyz
  1  'x, y, z'
loop_
 _atom_site_type_symbol
 _atom_site_label
 _atom_site_symmetry_multiplicity
 _atom_site_fract_x
 _atom_site_fract_y
 _atom_site_fract_z
 _atom_site_occupancy
  Dy  Dy0  1  0.750433  0.237203  0.999862  1
  Dy  Dy1  1  0.750446  0.762769  0.762482  1
  Dy  Dy2  1  0.750457  0.000085  0.237921  1
  Dy  Dy3  1  0.249573  0.762632  0.999890  1
  Dy  Dy4  1  0.249574  0.237444  0.237430  1
  Ho  Ho5  1  0.249565  0.999920  0.762611  1
  Ho  Ho6  1  0.499921  0.333353  0.666750  1
  Ho  Ho7  1  0.499918  0.666598  0.333153  1
  Lu  Lu8  1  0.000065  0.666622  0.333159  1
  Lu  Lu9  1  0.000050  0.333381  0.666785  1
  Pb  Pb10  1  0.751779  0.604242  0.999916  1
  Pb  Pb11  1  0.751819  0.395878  0.395824  1
  Pb  Pb12  1  0.751766  0.999997  0.604127  1
  Pb  Pb13  1  0.248189  0.395072  0.999588  1
  Pb  Pb14  1  0.248214  0.604827  0.604431  1
  Pb  Pb15  1  0.248229  0.999977  0.396072  1
