# generated using pymatgen
data_YbTiGeO5
_symmetry_space_group_name_H-M   'P 1'
_cell_length_a   8.89963000
_cell_length_b   6.70479999
_cell_length_c   7.19160753
_cell_angle_alpha   66.00241986
_cell_angle_beta   90.00000000
_cell_angle_gamma   90.00000000
_symmetry_Int_Tables_number   1
_chemical_formula_structural   YbTiGeO5
_chemical_formula_sum   'Yb4 Ti4 Ge4 O20'
_cell_volume   392.03251177
_cell_formula_units_Z   4
loop_
 _symmetry_equiv_pos_site_id
 _symmetry_equiv_pos_as_xyz
  1  'x, y, z'
loop_
 _atom_site_type_symbol
 _atom_site_label
 _atom_site_symmetry_multiplicity
 _atom_site_fract_x
 _atom_site_fract_y
 _atom_site_fract_z
 _atom_site_occupancy
  Yb  Yb0  1  0.424790  0.750042  0.243669  1
  Yb  Yb1  1  0.924790  0.249958  0.256331  1
  Yb  Yb2  1  0.575210  0.249958  0.756331  1
  Yb  Yb3  1  0.075210  0.750042  0.743669  1
  Ti  Ti4  1  0.246409  0.250918  0.012643  1
  Ti  Ti5  1  0.746409  0.749082  0.487357  1
  Ti  Ti6  1  0.753591  0.749082  0.987357  1
  Ti  Ti7  1  0.253591  0.250918  0.512643  1
  Ge  Ge8  1  0.430562  0.751412  0.747709  1
  Ge  Ge9  1  0.930562  0.248588  0.752291  1
  Ge  Ge10  1  0.569438  0.248588  0.252291  1
  Ge  Ge11  1  0.069438  0.751412  0.247709  1
  O  O12  1  0.460343  0.143179  0.106276  1
  O  O13  1  0.960343  0.856821  0.393724  1
  O  O14  1  0.539657  0.856821  0.893724  1
  O  O15  1  0.039657  0.143179  0.606276  1
  O  O16  1  0.038360  0.357589  0.896154  1
  O  O17  1  0.538360  0.642411  0.603846  1
  O  O18  1  0.961640  0.642411  0.103846  1
  O  O19  1  0.461640  0.357589  0.396154  1
  O  O20  1  0.303829  0.941243  0.577558  1
  O  O21  1  0.803829  0.058757  0.922442  1
  O  O22  1  0.696171  0.058757  0.422442  1
  O  O23  1  0.196171  0.941243  0.077558  1
  O  O24  1  0.319340  0.248967  0.750455  1
  O  O25  1  0.819340  0.751033  0.749545  1
  O  O26  1  0.680660  0.751033  0.249545  1
  O  O27  1  0.180660  0.248967  0.250455  1
  O  O28  1  0.304070  0.561823  0.918963  1
  O  O29  1  0.804070  0.438177  0.581037  1
  O  O30  1  0.695930  0.438177  0.081037  1
  O  O31  1  0.195930  0.561823  0.418963  1
