# generated using pymatgen
data_Na4Yb(GeS3)2
_symmetry_space_group_name_H-M   'P 1'
_cell_length_a   7.03993928
_cell_length_b   7.03993927
_cell_length_c   6.87658888
_cell_angle_alpha   81.08049453
_cell_angle_beta   81.08049126
_cell_angle_gamma   113.88870587
_symmetry_Int_Tables_number   1
_chemical_formula_structural   Na4Yb(GeS3)2
_chemical_formula_sum   'Na4 Yb1 Ge2 S6'
_cell_volume   298.75881188
_cell_formula_units_Z   1
loop_
 _symmetry_equiv_pos_site_id
 _symmetry_equiv_pos_as_xyz
  1  'x, y, z'
loop_
 _atom_site_type_symbol
 _atom_site_label
 _atom_site_symmetry_multiplicity
 _atom_site_fract_x
 _atom_site_fract_y
 _atom_site_fract_z
 _atom_site_occupancy
  Na  Na0  1  0.519551  0.480449  0.000000  1
  Na  Na1  1  0.672918  0.327082  0.500000  1
  Na  Na2  1  0.981518  0.018482  0.500000  1
  Na  Na3  1  0.346135  0.653865  0.500000  1
  Yb  Yb4  1  0.157098  0.842902  0.000000  1
  Ge  Ge5  1  0.667708  0.002266  0.057968  1
  Ge  Ge6  1  0.997734  0.332292  0.942032  1
  S  S7  1  0.751555  0.764430  0.240262  1
  S  S8  1  0.235570  0.248445  0.759738  1
  S  S9  1  0.564770  0.908256  0.781117  1
  S  S10  1  0.091744  0.435230  0.218883  1
  S  S11  1  0.414667  0.054466  0.251988  1
  S  S12  1  0.945534  0.585333  0.748012  1
