# generated using pymatgen
data_Ir8PtS12
_symmetry_space_group_name_H-M   'P 1'
_cell_length_a   7.59897933
_cell_length_b   7.60267335
_cell_length_c   6.34745530
_cell_angle_alpha   77.03330886
_cell_angle_beta   77.00226661
_cell_angle_gamma   91.70055260
_symmetry_Int_Tables_number   1
_chemical_formula_structural   Ir8PtS12
_chemical_formula_sum   'Ir8 Pt1 S12'
_cell_volume   346.95955276
_cell_formula_units_Z   1
loop_
 _symmetry_equiv_pos_site_id
 _symmetry_equiv_pos_as_xyz
  1  'x, y, z'
loop_
 _atom_site_type_symbol
 _atom_site_label
 _atom_site_symmetry_multiplicity
 _atom_site_fract_x
 _atom_site_fract_y
 _atom_site_fract_z
 _atom_site_occupancy
  Ir  Ir0  1  0.163024  0.838805  0.999515  1
  Ir  Ir1  1  0.838155  0.161622  0.999969  1
  Ir  Ir2  1  0.001967  0.001122  0.498982  1
  Ir  Ir3  1  0.348127  0.348487  0.945916  1
  Ir  Ir4  1  0.650849  0.649568  0.055054  1
  Ir  Ir5  1  0.508408  0.219420  0.548860  1
  Ir  Ir6  1  0.219225  0.510740  0.549287  1
  Ir  Ir7  1  0.488199  0.779438  0.452167  1
  Pt  Pt8  1  0.774633  0.489308  0.453195  1
  S  S9  1  0.856240  0.438154  0.096813  1
  S  S10  1  0.560968  0.144697  0.897201  1
  S  S11  1  0.147023  0.562344  0.895008  1
  S  S12  1  0.438504  0.853257  0.104895  1
  S  S13  1  0.115628  0.115577  0.110620  1
  S  S14  1  0.885383  0.884901  0.888854  1
  S  S15  1  0.035640  0.717784  0.386550  1
  S  S16  1  0.288828  0.969425  0.611403  1
  S  S17  1  0.971486  0.282881  0.613789  1
  S  S18  1  0.579766  0.586696  0.737252  1
  S  S19  1  0.413355  0.414161  0.267485  1
  S  S20  1  0.714590  0.031613  0.387186  1
