# generated using pymatgen
data_Er2TmMg3AgPb2
_symmetry_space_group_name_H-M   'P 1'
_cell_length_a   7.49941312
_cell_length_b   7.49941350
_cell_length_c   4.56830600
_cell_angle_alpha   90.00000000
_cell_angle_beta   90.00000000
_cell_angle_gamma   120.00861835
_symmetry_Int_Tables_number   1
_chemical_formula_structural   Er2TmMg3AgPb2
_chemical_formula_sum   'Er2 Tm1 Mg3 Ag1 Pb2'
_cell_volume   222.48599281
_cell_formula_units_Z   1
loop_
 _symmetry_equiv_pos_site_id
 _symmetry_equiv_pos_as_xyz
  1  'x, y, z'
loop_
 _atom_site_type_symbol
 _atom_site_label
 _atom_site_symmetry_multiplicity
 _atom_site_fract_x
 _atom_site_fract_y
 _atom_site_fract_z
 _atom_site_occupancy
  Er  Er0  1  0.585076  0.999891  0.500000  1
  Er  Er1  1  0.999891  0.585076  0.500000  1
  Tm  Tm2  1  0.415294  0.415294  0.500000  1
  Mg  Mg3  1  0.766598  0.766598  0.000000  1
  Mg  Mg4  1  0.233011  0.000087  0.000000  1
  Mg  Mg5  1  0.000087  0.233011  0.000000  1
  Ag  Ag6  1  0.000207  0.000207  0.500000  1
  Pb  Pb7  1  0.666218  0.333618  0.000000  1
  Pb  Pb8  1  0.333618  0.666218  0.000000  1
