# generated using pymatgen
data_Er12Co4SnOs
_symmetry_space_group_name_H-M   'P 1'
_cell_length_a   8.21150905
_cell_length_b   8.21150837
_cell_length_c   8.21150874
_cell_angle_alpha   111.55969487
_cell_angle_beta   110.59411649
_cell_angle_gamma   106.30700610
_symmetry_Int_Tables_number   1
_chemical_formula_structural   Er12Co4SnOs
_chemical_formula_sum   'Er12 Co4 Sn1 Os1'
_cell_volume   425.23275326
_cell_formula_units_Z   1
loop_
 _symmetry_equiv_pos_site_id
 _symmetry_equiv_pos_as_xyz
  1  'x, y, z'
loop_
 _atom_site_type_symbol
 _atom_site_label
 _atom_site_symmetry_multiplicity
 _atom_site_fract_x
 _atom_site_fract_y
 _atom_site_fract_z
 _atom_site_occupancy
  Er  Er0  1  0.181365  0.279494  0.460859  1
  Er  Er1  1  0.818635  0.720506  0.539141  1
  Er  Er2  1  0.181365  0.720506  0.901870  1
  Er  Er3  1  0.818635  0.279494  0.098130  1
  Er  Er4  1  0.313667  0.618956  0.305289  1
  Er  Er5  1  0.686333  0.381044  0.694711  1
  Er  Er6  1  0.313667  0.008380  0.694711  1
  Er  Er7  1  0.686333  0.991620  0.305289  1
  Er  Er8  1  0.416374  0.220144  0.196230  1
  Er  Er9  1  0.583626  0.779856  0.803770  1
  Er  Er10  1  0.023914  0.220144  0.803770  1
  Er  Er11  1  0.976086  0.779856  0.196230  1
  Co  Co12  1  0.112095  0.612095  0.500000  1
  Co  Co13  1  0.887905  0.387905  0.500000  1
  Co  Co14  1  0.376759  0.000000  0.376759  1
  Co  Co15  1  0.623241  0.000000  0.623241  1
  Sn  Sn16  1  0.500000  0.500000  0.000000  1
  Os  Os17  1  0.000000  0.000000  0.000000  1
