# generated using pymatgen
data_Sr2Al16Pd9
_symmetry_space_group_name_H-M   'P 1'
_cell_length_a   11.27034716
_cell_length_b   11.27034815
_cell_length_c   11.27034756
_cell_angle_alpha   158.51044608
_cell_angle_beta   115.67558931
_cell_angle_gamma   68.66873773
_symmetry_Int_Tables_number   1
_chemical_formula_structural   Sr2Al16Pd9
_chemical_formula_sum   'Sr2 Al16 Pd9'
_cell_volume   469.27042742
_cell_formula_units_Z   1
loop_
 _symmetry_equiv_pos_site_id
 _symmetry_equiv_pos_as_xyz
  1  'x, y, z'
loop_
 _atom_site_type_symbol
 _atom_site_label
 _atom_site_symmetry_multiplicity
 _atom_site_fract_x
 _atom_site_fract_y
 _atom_site_fract_z
 _atom_site_occupancy
  Sr  Sr0  1  0.228651  0.228651  0.000000  1
  Sr  Sr1  1  0.771349  0.771349  0.000000  1
  Al  Al2  1  0.275613  0.394556  0.881057  1
  Al  Al3  1  0.093069  0.920617  0.172453  1
  Al  Al4  1  0.506993  0.204488  0.302506  1
  Al  Al5  1  0.251836  0.079383  0.172453  1
  Al  Al6  1  0.915856  0.415856  0.500000  1
  Al  Al7  1  0.724387  0.605444  0.118943  1
  Al  Al8  1  0.901982  0.204488  0.697494  1
  Al  Al9  1  0.493007  0.795512  0.697494  1
  Al  Al10  1  0.383317  0.000000  0.383317  1
  Al  Al11  1  0.616683  0.000000  0.616683  1
  Al  Al12  1  0.486501  0.605444  0.881057  1
  Al  Al13  1  0.098018  0.795512  0.302506  1
  Al  Al14  1  0.906931  0.079383  0.827547  1
  Al  Al15  1  0.748164  0.920617  0.827547  1
  Al  Al16  1  0.513499  0.394556  0.118943  1
  Al  Al17  1  0.084144  0.584144  0.500000  1
  Pd  Pd18  1  0.757886  0.500000  0.257886  1
  Pd  Pd19  1  0.031540  0.342225  0.689315  1
  Pd  Pd20  1  0.621952  0.121952  0.500000  1
  Pd  Pd21  1  0.242114  0.500000  0.742114  1
  Pd  Pd22  1  0.378048  0.878048  0.500000  1
  Pd  Pd23  1  0.000000  0.000000  0.000000  1
  Pd  Pd24  1  0.652909  0.342225  0.310685  1
  Pd  Pd25  1  0.347091  0.657775  0.689315  1
  Pd  Pd26  1  0.968460  0.657775  0.310685  1
