# generated using pymatgen
data_Yb7Ho(Sc3Sn4)4
_symmetry_space_group_name_H-M   'P 1'
_cell_length_a   7.64001138
_cell_length_b   8.06894186
_cell_length_c   15.07720547
_cell_angle_alpha   89.96376589
_cell_angle_beta   89.93030240
_cell_angle_gamma   90.22538126
_symmetry_Int_Tables_number   1
_chemical_formula_structural   Yb7Ho(Sc3Sn4)4
_chemical_formula_sum   'Yb7 Ho1 Sc12 Sn16'
_cell_volume   929.45351781
_cell_formula_units_Z   1
loop_
 _symmetry_equiv_pos_site_id
 _symmetry_equiv_pos_as_xyz
  1  'x, y, z'
loop_
 _atom_site_type_symbol
 _atom_site_label
 _atom_site_symmetry_multiplicity
 _atom_site_fract_x
 _atom_site_fract_y
 _atom_site_fract_z
 _atom_site_occupancy
  Yb  Yb0  1  0.996287  0.178791  0.091460  1
  Yb  Yb1  1  0.004168  0.821810  0.906958  1
  Yb  Yb2  1  0.504851  0.678060  0.907507  1
  Yb  Yb3  1  0.004665  0.821625  0.592075  1
  Yb  Yb4  1  0.496305  0.321125  0.091291  1
  Yb  Yb5  1  0.996413  0.179907  0.409277  1
  Yb  Yb6  1  0.496583  0.320758  0.408919  1
  Ho  Ho7  1  0.501979  0.681393  0.594520  1
  Sc  Sc8  1  0.162595  0.500373  0.750373  1
  Sc  Sc9  1  0.836815  0.499118  0.249929  1
  Sc  Sc10  1  0.337682  0.000648  0.249704  1
  Sc  Sc11  1  0.663069  0.999414  0.749676  1
  Sc  Sc12  1  0.328722  0.158416  0.626073  1
  Sc  Sc13  1  0.669822  0.841273  0.374104  1
  Sc  Sc14  1  0.170986  0.658403  0.374748  1
  Sc  Sc15  1  0.670881  0.841560  0.125452  1
  Sc  Sc16  1  0.829992  0.341326  0.626037  1
  Sc  Sc17  1  0.327983  0.158724  0.872871  1
  Sc  Sc18  1  0.829464  0.340219  0.873178  1
  Sc  Sc19  1  0.170235  0.658830  0.125476  1
  Sn  Sn20  1  0.023257  0.129089  0.748965  1
  Sn  Sn21  1  0.976111  0.871159  0.250422  1
  Sn  Sn22  1  0.475188  0.627528  0.249620  1
  Sn  Sn23  1  0.523433  0.374123  0.748875  1
  Sn  Sn24  1  0.304514  0.852441  0.749537  1
  Sn  Sn25  1  0.699785  0.144010  0.250342  1
  Sn  Sn26  1  0.199034  0.356103  0.250569  1
  Sn  Sn27  1  0.801350  0.644744  0.748355  1
  Sn  Sn28  1  0.174990  0.459797  0.544868  1
  Sn  Sn29  1  0.823435  0.544486  0.458021  1
  Sn  Sn30  1  0.328640  0.955892  0.458033  1
  Sn  Sn31  1  0.828283  0.542195  0.043346  1
  Sn  Sn32  1  0.671871  0.038188  0.544839  1
  Sn  Sn33  1  0.171665  0.458369  0.955765  1
  Sn  Sn34  1  0.670893  0.041480  0.955386  1
  Sn  Sn35  1  0.328053  0.958627  0.043427  1
