# generated using pymatgen
data_Pr3Np(In2Br5)4
_symmetry_space_group_name_H-M   'P 1'
_cell_length_a   8.65765175
_cell_length_b   9.23323500
_cell_length_c   13.67548600
_cell_angle_alpha   90.00000000
_cell_angle_beta   89.97608278
_cell_angle_gamma   90.00000000
_symmetry_Int_Tables_number   1
_chemical_formula_structural   Pr3Np(In2Br5)4
_chemical_formula_sum   'Pr3 Np1 In8 Br20'
_cell_volume   1093.19272614
_cell_formula_units_Z   1
loop_
 _symmetry_equiv_pos_site_id
 _symmetry_equiv_pos_as_xyz
  1  'x, y, z'
loop_
 _atom_site_type_symbol
 _atom_site_label
 _atom_site_symmetry_multiplicity
 _atom_site_fract_x
 _atom_site_fract_y
 _atom_site_fract_z
 _atom_site_occupancy
  Pr  Pr0  1  0.921938  0.750000  0.505471  1
  Pr  Pr1  1  0.078297  0.250000  0.494702  1
  Pr  Pr2  1  0.423268  0.250000  0.994816  1
  Np  Np3  1  0.575891  0.750000  0.003933  1
  In  In4  1  0.951065  0.004788  0.825930  1
  In  In5  1  0.048334  0.995427  0.174278  1
  In  In6  1  0.451191  0.995449  0.673905  1
  In  In7  1  0.048334  0.504573  0.174278  1
  In  In8  1  0.548737  0.004750  0.325813  1
  In  In9  1  0.951065  0.495212  0.825930  1
  In  In10  1  0.548737  0.495250  0.325813  1
  In  In11  1  0.451191  0.504551  0.673905  1
  Br  Br12  1  0.121632  0.750000  0.682562  1
  Br  Br13  1  0.878507  0.250000  0.317152  1
  Br  Br14  1  0.621809  0.250000  0.817186  1
  Br  Br15  1  0.382090  0.750000  0.181654  1
  Br  Br16  1  0.833926  0.045269  0.577303  1
  Br  Br17  1  0.166814  0.954989  0.422699  1
  Br  Br18  1  0.334916  0.955016  0.922815  1
  Br  Br19  1  0.166814  0.545011  0.422699  1
  Br  Br20  1  0.665027  0.043430  0.077426  1
  Br  Br21  1  0.833926  0.454731  0.577303  1
  Br  Br22  1  0.665027  0.456570  0.077426  1
  Br  Br23  1  0.334916  0.544984  0.922815  1
  Br  Br24  1  0.575449  0.750000  0.507153  1
  Br  Br25  1  0.424992  0.250000  0.493306  1
  Br  Br26  1  0.076015  0.250000  0.993104  1
  Br  Br27  1  0.921536  0.750000  0.007150  1
  Br  Br28  1  0.661034  0.750000  0.795423  1
  Br  Br29  1  0.337324  0.250000  0.206043  1
  Br  Br30  1  0.162734  0.250000  0.705440  1
  Br  Br31  1  0.837464  0.750000  0.294569  1
