# generated using pymatgen
data_Pr4Zn4SnRh9
_symmetry_space_group_name_H-M   'P 1'
_cell_length_a   12.83202169
_cell_length_b   12.83202200
_cell_length_c   12.83202300
_cell_angle_alpha   24.94573955
_cell_angle_beta   24.94573653
_cell_angle_gamma   24.94573827
_symmetry_Int_Tables_number   1
_chemical_formula_structural   Pr4Zn4SnRh9
_chemical_formula_sum   'Pr4 Zn4 Sn1 Rh9'
_cell_volume   330.63467500
_cell_formula_units_Z   1
loop_
 _symmetry_equiv_pos_site_id
 _symmetry_equiv_pos_as_xyz
  1  'x, y, z'
loop_
 _atom_site_type_symbol
 _atom_site_label
 _atom_site_symmetry_multiplicity
 _atom_site_fract_x
 _atom_site_fract_y
 _atom_site_fract_z
 _atom_site_occupancy
  Pr  Pr0  1  0.951684  0.951684  0.951684  1
  Pr  Pr1  1  0.048316  0.048316  0.048316  1
  Pr  Pr2  1  0.855715  0.855715  0.855715  1
  Pr  Pr3  1  0.144285  0.144285  0.144285  1
  Zn  Zn4  1  0.720960  0.720960  0.720960  1
  Zn  Zn5  1  0.279040  0.279040  0.279040  1
  Zn  Zn6  1  0.611477  0.611477  0.611477  1
  Zn  Zn7  1  0.388523  0.388523  0.388523  1
  Sn  Sn8  1  0.500000  0.500000  0.500000  1
  Rh  Rh9  1  0.500000  0.500000  0.000000  1
  Rh  Rh10  1  0.000000  0.500000  0.500000  1
  Rh  Rh11  1  0.500000  0.000000  0.500000  1
  Rh  Rh12  1  0.386035  0.899364  0.386035  1
  Rh  Rh13  1  0.386035  0.386035  0.899364  1
  Rh  Rh14  1  0.899364  0.386035  0.386035  1
  Rh  Rh15  1  0.613965  0.100636  0.613965  1
  Rh  Rh16  1  0.613965  0.613965  0.100636  1
  Rh  Rh17  1  0.100636  0.613965  0.613965  1
