# generated using pymatgen
data_FeNi(BW)2
_symmetry_space_group_name_H-M   'P 1'
_cell_length_a   5.76517100
_cell_length_b   3.25034100
_cell_length_c   6.65675000
_cell_angle_alpha   90.00000000
_cell_angle_beta   90.00000000
_cell_angle_gamma   90.00000000
_symmetry_Int_Tables_number   1
_chemical_formula_structural   FeNi(BW)2
_chemical_formula_sum   'Fe2 Ni2 B4 W4'
_cell_volume   124.73931834
_cell_formula_units_Z   2
loop_
 _symmetry_equiv_pos_site_id
 _symmetry_equiv_pos_as_xyz
  1  'x, y, z'
loop_
 _atom_site_type_symbol
 _atom_site_label
 _atom_site_symmetry_multiplicity
 _atom_site_fract_x
 _atom_site_fract_y
 _atom_site_fract_z
 _atom_site_occupancy
  Fe  Fe0  1  0.858890  0.750000  0.557510  1
  Fe  Fe1  1  0.358890  0.750000  0.942490  1
  Ni  Ni2  1  0.145922  0.250000  0.443160  1
  Ni  Ni3  1  0.645922  0.250000  0.056840  1
  B  B4  1  0.265775  0.250000  0.123959  1
  B  B5  1  0.765775  0.250000  0.376041  1
  B  B6  1  0.729689  0.750000  0.869068  1
  B  B7  1  0.229689  0.750000  0.630932  1
  W  W8  1  0.028184  0.250000  0.827841  1
  W  W9  1  0.528184  0.250000  0.672159  1
  W  W10  1  0.971540  0.750000  0.176248  1
  W  W11  1  0.471540  0.750000  0.323752  1
