# generated using pymatgen
data_NaEu21(Ga4Sn3)2
_symmetry_space_group_name_H-M   'P 1'
_cell_length_a   11.75702534
_cell_length_b   11.75702615
_cell_length_c   11.75702600
_cell_angle_alpha   60.00000606
_cell_angle_beta   60.00000376
_cell_angle_gamma   59.99999993
_symmetry_Int_Tables_number   1
_chemical_formula_structural   NaEu21(Ga4Sn3)2
_chemical_formula_sum   'Na1 Eu21 Ga8 Sn6'
_cell_volume   1149.15193103
_cell_formula_units_Z   1
loop_
 _symmetry_equiv_pos_site_id
 _symmetry_equiv_pos_as_xyz
  1  'x, y, z'
loop_
 _atom_site_type_symbol
 _atom_site_label
 _atom_site_symmetry_multiplicity
 _atom_site_fract_x
 _atom_site_fract_y
 _atom_site_fract_z
 _atom_site_occupancy
  Na  Na0  1  0.500000  0.500000  0.500000  1
  Eu  Eu1  1  0.869323  0.869323  0.392031  1
  Eu  Eu2  1  0.607969  0.130677  0.130677  1
  Eu  Eu3  1  0.869323  0.392031  0.869323  1
  Eu  Eu4  1  0.130677  0.130677  0.130677  1
  Eu  Eu5  1  0.392031  0.869323  0.869323  1
  Eu  Eu6  1  0.869323  0.869323  0.869323  1
  Eu  Eu7  1  0.167687  0.832313  0.500000  1
  Eu  Eu8  1  0.832313  0.500000  0.500000  1
  Eu  Eu9  1  0.130677  0.130677  0.607969  1
  Eu  Eu10  1  0.832313  0.167687  0.500000  1
  Eu  Eu11  1  0.167687  0.500000  0.500000  1
  Eu  Eu12  1  0.130677  0.607969  0.130677  1
  Eu  Eu13  1  0.500000  0.500000  0.167687  1
  Eu  Eu14  1  0.500000  0.167687  0.832313  1
  Eu  Eu15  1  0.500000  0.832313  0.167687  1
  Eu  Eu16  1  0.500000  0.500000  0.832313  1
  Eu  Eu17  1  0.500000  0.167687  0.500000  1
  Eu  Eu18  1  0.167687  0.500000  0.832313  1
  Eu  Eu19  1  0.000000  0.000000  0.000000  1
  Eu  Eu20  1  0.500000  0.832313  0.500000  1
  Eu  Eu21  1  0.832313  0.500000  0.167687  1
  Ga  Ga22  1  0.692519  0.922443  0.692519  1
  Ga  Ga23  1  0.692519  0.692519  0.922443  1
  Ga  Ga24  1  0.692519  0.692519  0.692519  1
  Ga  Ga25  1  0.307481  0.077557  0.307481  1
  Ga  Ga26  1  0.922443  0.692519  0.692519  1
  Ga  Ga27  1  0.307481  0.307481  0.077557  1
  Ga  Ga28  1  0.077557  0.307481  0.307481  1
  Ga  Ga29  1  0.307481  0.307481  0.307481  1
  Sn  Sn30  1  0.784181  0.215819  0.784181  1
  Sn  Sn31  1  0.784181  0.215819  0.215819  1
  Sn  Sn32  1  0.215819  0.784181  0.215819  1
  Sn  Sn33  1  0.215819  0.784181  0.784181  1
  Sn  Sn34  1  0.784181  0.784181  0.215819  1
  Sn  Sn35  1  0.215819  0.215819  0.784181  1
