# generated using pymatgen
data_Dy2HoLu2Si3H
_symmetry_space_group_name_H-M   'P 1'
_cell_length_a   8.37638011
_cell_length_b   8.37407466
_cell_length_c   6.13317800
_cell_angle_alpha   90.00000000
_cell_angle_beta   90.00000000
_cell_angle_gamma   119.99088737
_symmetry_Int_Tables_number   1
_chemical_formula_structural   Dy2HoLu2Si3H
_chemical_formula_sum   'Dy4 Ho2 Lu4 Si6 H2'
_cell_volume   372.60551422
_cell_formula_units_Z   2
loop_
 _symmetry_equiv_pos_site_id
 _symmetry_equiv_pos_as_xyz
  1  'x, y, z'
loop_
 _atom_site_type_symbol
 _atom_site_label
 _atom_site_symmetry_multiplicity
 _atom_site_fract_x
 _atom_site_fract_y
 _atom_site_fract_z
 _atom_site_occupancy
  Dy  Dy0  1  0.000000  0.250339  0.750000  1
  Dy  Dy1  1  0.250380  0.250355  0.250000  1
  Dy  Dy2  1  0.749620  0.999975  0.250000  1
  Dy  Dy3  1  0.000000  0.749668  0.250000  1
  Ho  Ho4  1  0.749520  0.749529  0.750000  1
  Ho  Ho5  1  0.250480  0.000009  0.750000  1
  Lu  Lu6  1  0.666632  0.333340  0.999972  1
  Lu  Lu7  1  0.333368  0.666709  0.999972  1
  Lu  Lu8  1  0.333368  0.666709  0.500028  1
  Lu  Lu9  1  0.666632  0.333340  0.500028  1
  Si  Si10  1  0.391602  0.391480  0.750000  1
  Si  Si11  1  0.608398  0.999878  0.750000  1
  Si  Si12  1  0.000000  0.608692  0.750000  1
  Si  Si13  1  0.608482  0.608478  0.250000  1
  Si  Si14  1  0.391518  0.999996  0.250000  1
  Si  Si15  1  0.000000  0.391536  0.250000  1
  H  H16  1  0.000000  0.999982  0.500096  1
  H  H17  1  0.000000  0.999982  0.999904  1
