# generated using pymatgen
data_Eu4HoSc7O16
_symmetry_space_group_name_H-M   'P 1'
_cell_length_a   3.23587300
_cell_length_b   9.72068477
_cell_length_c   11.43903903
_cell_angle_alpha   90.40432269
_cell_angle_beta   90.00000000
_cell_angle_gamma   90.00000000
_symmetry_Int_Tables_number   1
_chemical_formula_structural   Eu4HoSc7O16
_chemical_formula_sum   'Eu4 Ho1 Sc7 O16'
_cell_volume   359.80488590
_cell_formula_units_Z   1
loop_
 _symmetry_equiv_pos_site_id
 _symmetry_equiv_pos_as_xyz
  1  'x, y, z'
loop_
 _atom_site_type_symbol
 _atom_site_label
 _atom_site_symmetry_multiplicity
 _atom_site_fract_x
 _atom_site_fract_y
 _atom_site_fract_z
 _atom_site_occupancy
  Eu  Eu0  1  0.250000  0.748953  0.147028  1
  Eu  Eu1  1  0.750000  0.253119  0.847369  1
  Eu  Eu2  1  0.750000  0.754803  0.657205  1
  Eu  Eu3  1  0.250000  0.244446  0.347185  1
  Ho  Ho4  1  0.250000  0.579475  0.390937  1
  Sc  Sc5  1  0.250000  0.575976  0.893311  1
  Sc  Sc6  1  0.750000  0.421020  0.105652  1
  Sc  Sc7  1  0.750000  0.925187  0.390557  1
  Sc  Sc8  1  0.250000  0.076188  0.607086  1
  Sc  Sc9  1  0.250000  0.073187  0.109884  1
  Sc  Sc10  1  0.750000  0.929650  0.889757  1
  Sc  Sc11  1  0.750000  0.426655  0.615170  1
  O  O12  1  0.250000  0.575443  0.585361  1
  O  O13  1  0.750000  0.419368  0.430288  1
  O  O14  1  0.750000  0.925036  0.073254  1
  O  O15  1  0.250000  0.076416  0.925090  1
  O  O16  1  0.250000  0.875857  0.517972  1
  O  O17  1  0.750000  0.118314  0.480396  1
  O  O18  1  0.750000  0.618201  0.020723  1
  O  O19  1  0.250000  0.379311  0.977483  1
  O  O20  1  0.250000  0.790723  0.837999  1
  O  O21  1  0.750000  0.208970  0.162189  1
  O  O22  1  0.750000  0.719726  0.323781  1
  O  O23  1  0.250000  0.288380  0.666006  1
  O  O24  1  0.250000  0.985380  0.283064  1
  O  O25  1  0.750000  0.017456  0.715712  1
  O  O26  1  0.750000  0.517055  0.786514  1
  O  O27  1  0.250000  0.475705  0.213024  1
