# generated using pymatgen
data_Yb10Zn3Hg2Os
_symmetry_space_group_name_H-M   'P 1'
_cell_length_a   9.18583126
_cell_length_b   9.18583180
_cell_length_c   9.14741289
_cell_angle_alpha   129.32315869
_cell_angle_beta   129.32316040
_cell_angle_gamma   74.80608701
_symmetry_Int_Tables_number   1
_chemical_formula_structural   Yb10Zn3Hg2Os
_chemical_formula_sum   'Yb10 Zn3 Hg2 Os1'
_cell_volume   449.18091438
_cell_formula_units_Z   1
loop_
 _symmetry_equiv_pos_site_id
 _symmetry_equiv_pos_as_xyz
  1  'x, y, z'
loop_
 _atom_site_type_symbol
 _atom_site_label
 _atom_site_symmetry_multiplicity
 _atom_site_fract_x
 _atom_site_fract_y
 _atom_site_fract_z
 _atom_site_occupancy
  Yb  Yb0  1  0.486497  0.503714  0.990211  1
  Yb  Yb1  1  0.003714  0.986497  0.990211  1
  Yb  Yb2  1  0.527889  0.027889  0.839300  1
  Yb  Yb3  1  0.179328  0.679328  0.132736  1
  Yb  Yb4  1  0.032406  0.206244  0.517621  1
  Yb  Yb5  1  0.706244  0.532406  0.517621  1
  Yb  Yb6  1  0.453409  0.953409  0.132736  1
  Yb  Yb7  1  0.811410  0.311410  0.839300  1
  Yb  Yb8  1  0.985215  0.811376  0.517621  1
  Yb  Yb9  1  0.311376  0.485215  0.517621  1
  Zn  Zn10  1  0.884202  0.384202  0.268402  1
  Zn  Zn11  1  0.619113  0.877412  0.496526  1
  Zn  Zn12  1  0.377412  0.119113  0.496526  1
  Hg  Hg13  1  0.253387  0.253387  0.006775  1
  Hg  Hg14  1  0.753387  0.753387  0.006775  1
  Os  Os15  1  0.115009  0.615009  0.730020  1
