# generated using pymatgen
data_Nd(Al5Rh)2
_symmetry_space_group_name_H-M   'P 1'
_cell_length_a   6.89266738
_cell_length_b   6.89266764
_cell_length_c   9.21768200
_cell_angle_alpha   90.00000000
_cell_angle_beta   90.00000000
_cell_angle_gamma   97.17027748
_symmetry_Int_Tables_number   1
_chemical_formula_structural   Nd(Al5Rh)2
_chemical_formula_sum   'Nd2 Al20 Rh4'
_cell_volume   434.49688438
_cell_formula_units_Z   2
loop_
 _symmetry_equiv_pos_site_id
 _symmetry_equiv_pos_as_xyz
  1  'x, y, z'
loop_
 _atom_site_type_symbol
 _atom_site_label
 _atom_site_symmetry_multiplicity
 _atom_site_fract_x
 _atom_site_fract_y
 _atom_site_fract_z
 _atom_site_occupancy
  Nd  Nd0  1  0.873139  0.126861  0.750000  1
  Nd  Nd1  1  0.126861  0.873139  0.250000  1
  Al  Al2  1  0.621112  0.378888  0.550241  1
  Al  Al3  1  0.378888  0.621112  0.449759  1
  Al  Al4  1  0.378888  0.621112  0.050241  1
  Al  Al5  1  0.621112  0.378888  0.949759  1
  Al  Al6  1  0.223093  0.223093  0.500000  1
  Al  Al7  1  0.776907  0.776907  0.500000  1
  Al  Al8  1  0.776907  0.776907  0.000000  1
  Al  Al9  1  0.223093  0.223093  0.000000  1
  Al  Al10  1  0.843051  0.156949  0.103666  1
  Al  Al11  1  0.156949  0.843051  0.896334  1
  Al  Al12  1  0.156949  0.843051  0.603666  1
  Al  Al13  1  0.843051  0.156949  0.396334  1
  Al  Al14  1  0.859125  0.595584  0.750000  1
  Al  Al15  1  0.140875  0.404416  0.250000  1
  Al  Al16  1  0.404416  0.140875  0.750000  1
  Al  Al17  1  0.595584  0.859125  0.250000  1
  Al  Al18  1  0.226827  0.481048  0.750000  1
  Al  Al19  1  0.773173  0.518952  0.250000  1
  Al  Al20  1  0.518952  0.773173  0.750000  1
  Al  Al21  1  0.481048  0.226827  0.250000  1
  Rh  Rh22  1  0.000000  0.500000  0.500000  1
  Rh  Rh23  1  0.000000  0.500000  0.000000  1
  Rh  Rh24  1  0.500000  0.000000  0.000000  1
  Rh  Rh25  1  0.500000  0.000000  0.500000  1
