# generated using pymatgen
data_Zr10Ge4As2C
_symmetry_space_group_name_H-M   'P 1'
_cell_length_a   8.06933816
_cell_length_b   8.06071967
_cell_length_c   5.65063565
_cell_angle_alpha   90.06503744
_cell_angle_beta   89.87005687
_cell_angle_gamma   120.03537914
_symmetry_Int_Tables_number   1
_chemical_formula_structural   Zr10Ge4As2C
_chemical_formula_sum   'Zr10 Ge4 As2 C1'
_cell_volume   318.18786730
_cell_formula_units_Z   1
loop_
 _symmetry_equiv_pos_site_id
 _symmetry_equiv_pos_as_xyz
  1  'x, y, z'
loop_
 _atom_site_type_symbol
 _atom_site_label
 _atom_site_symmetry_multiplicity
 _atom_site_fract_x
 _atom_site_fract_y
 _atom_site_fract_z
 _atom_site_occupancy
  Zr  Zr0  1  0.000441  0.759471  0.259732  1
  Zr  Zr1  1  0.240969  0.240529  0.259732  1
  Zr  Zr2  1  0.758887  0.000000  0.257829  1
  Zr  Zr3  1  0.999795  0.241050  0.740743  1
  Zr  Zr4  1  0.758745  0.758950  0.740743  1
  Zr  Zr5  1  0.240903  0.000000  0.741239  1
  Zr  Zr6  1  0.333050  0.665828  0.999210  1
  Zr  Zr7  1  0.667223  0.334172  0.999210  1
  Zr  Zr8  1  0.667387  0.334050  0.500891  1
  Zr  Zr9  1  0.333336  0.665950  0.500891  1
  Ge  Ge10  1  0.396720  0.000000  0.247359  1
  Ge  Ge11  1  0.000606  0.605434  0.752686  1
  Ge  Ge12  1  0.395171  0.394566  0.752686  1
  Ge  Ge13  1  0.603145  0.000000  0.753390  1
  As  As14  1  0.999858  0.395400  0.247061  1
  As  As15  1  0.604457  0.604600  0.247061  1
  C  C16  1  0.999308  0.000000  0.499536  1
