# generated using pymatgen
data_DyB2IrOs
_symmetry_space_group_name_H-M   'P 1'
_cell_length_a   6.81518087
_cell_length_b   6.01037814
_cell_length_c   5.55906575
_cell_angle_alpha   72.06185094
_cell_angle_beta   57.03893659
_cell_angle_gamma   50.89922051
_symmetry_Int_Tables_number   1
_chemical_formula_structural   DyB2IrOs
_chemical_formula_sum   'Dy2 B4 Ir2 Os2'
_cell_volume   148.05162874
_cell_formula_units_Z   2
loop_
 _symmetry_equiv_pos_site_id
 _symmetry_equiv_pos_as_xyz
  1  'x, y, z'
loop_
 _atom_site_type_symbol
 _atom_site_label
 _atom_site_symmetry_multiplicity
 _atom_site_fract_x
 _atom_site_fract_y
 _atom_site_fract_z
 _atom_site_occupancy
  Dy  Dy0  1  0.500000  0.500000  0.500000  1
  Dy  Dy1  1  0.750000  0.750000  0.750000  1
  B  B2  1  0.180407  0.819593  0.180407  1
  B  B3  1  0.057878  0.442122  0.057878  1
  B  B4  1  0.819593  0.180407  0.819593  1
  B  B5  1  0.442122  0.057878  0.442122  1
  Ir  Ir6  1  0.384827  0.384827  0.115173  1
  Ir  Ir7  1  0.115173  0.115173  0.384827  1
  Os  Os8  1  0.864135  0.864135  0.135865  1
  Os  Os9  1  0.135865  0.135865  0.864135  1
