# generated using pymatgen
data_Dy3Zr(PPt)4
_symmetry_space_group_name_H-M   'P 1'
_cell_length_a   4.10481100
_cell_length_b   4.10481023
_cell_length_c   15.39111600
_cell_angle_alpha   90.00000000
_cell_angle_beta   90.00000000
_cell_angle_gamma   119.99999817
_symmetry_Int_Tables_number   1
_chemical_formula_structural   Dy3Zr(PPt)4
_chemical_formula_sum   'Dy3 Zr1 P4 Pt4'
_cell_volume   224.58823404
_cell_formula_units_Z   1
loop_
 _symmetry_equiv_pos_site_id
 _symmetry_equiv_pos_as_xyz
  1  'x, y, z'
loop_
 _atom_site_type_symbol
 _atom_site_label
 _atom_site_symmetry_multiplicity
 _atom_site_fract_x
 _atom_site_fract_y
 _atom_site_fract_z
 _atom_site_occupancy
  Dy  Dy0  1  0.000000  0.000000  0.492323  1
  Dy  Dy1  1  0.000000  0.000000  0.007677  1
  Dy  Dy2  1  0.000000  0.000000  0.750000  1
  Zr  Zr3  1  0.000000  0.000000  0.250000  1
  P  P4  1  0.333333  0.666667  0.880865  1
  P  P5  1  0.666667  0.333333  0.118525  1
  P  P6  1  0.666667  0.333333  0.381475  1
  P  P7  1  0.333333  0.666667  0.619135  1
  Pt  Pt8  1  0.333333  0.666667  0.350036  1
  Pt  Pt9  1  0.666667  0.333333  0.623810  1
  Pt  Pt10  1  0.666667  0.333333  0.876190  1
  Pt  Pt11  1  0.333333  0.666667  0.149964  1
