# generated using pymatgen
data_CeGdRh2Pb
_symmetry_space_group_name_H-M   'P 1'
_cell_length_a   8.07467200
_cell_length_b   7.92506000
_cell_length_c   3.75411600
_cell_angle_alpha   90.00000000
_cell_angle_beta   90.00000000
_cell_angle_gamma   90.00000000
_symmetry_Int_Tables_number   1
_chemical_formula_structural   CeGdRh2Pb
_chemical_formula_sum   'Ce2 Gd2 Rh4 Pb2'
_cell_volume   240.23436744
_cell_formula_units_Z   2
loop_
 _symmetry_equiv_pos_site_id
 _symmetry_equiv_pos_as_xyz
  1  'x, y, z'
loop_
 _atom_site_type_symbol
 _atom_site_label
 _atom_site_symmetry_multiplicity
 _atom_site_fract_x
 _atom_site_fract_y
 _atom_site_fract_z
 _atom_site_occupancy
  Ce  Ce0  1  0.178228  0.664333  0.499999  1
  Ce  Ce1  1  0.678228  0.835666  0.499999  1
  Gd  Gd2  1  0.332872  0.168915  0.499999  1
  Gd  Gd3  1  0.832872  0.331084  0.499999  1
  Rh  Rh4  1  0.625266  0.100412  0.000000  1
  Rh  Rh5  1  0.125267  0.399588  0.000000  1
  Rh  Rh6  1  0.856532  0.650282  0.000000  1
  Rh  Rh7  1  0.356532  0.849717  0.000000  1
  Pb  Pb8  1  0.007101  0.003362  0.000000  1
  Pb  Pb9  1  0.507101  0.496638  0.000000  1
