# generated using pymatgen
data_Nd17Y2ErSn16
_symmetry_space_group_name_H-M   'P 1'
_cell_length_a   8.26267000
_cell_length_b   8.41157212
_cell_length_c   15.95836800
_cell_angle_alpha   90.00000000
_cell_angle_beta   90.00000000
_cell_angle_gamma   89.97169240
_symmetry_Int_Tables_number   1
_chemical_formula_structural   Nd17Y2ErSn16
_chemical_formula_sum   'Nd17 Y2 Er1 Sn16'
_cell_volume   1109.13906911
_cell_formula_units_Z   1
loop_
 _symmetry_equiv_pos_site_id
 _symmetry_equiv_pos_as_xyz
  1  'x, y, z'
loop_
 _atom_site_type_symbol
 _atom_site_label
 _atom_site_symmetry_multiplicity
 _atom_site_fract_x
 _atom_site_fract_y
 _atom_site_fract_z
 _atom_site_occupancy
  Nd  Nd0  1  0.017594  0.181111  0.401133  1
  Nd  Nd1  1  0.368195  0.837142  0.120656  1
  Nd  Nd2  1  0.132549  0.336416  0.620619  1
  Nd  Nd3  1  0.481604  0.681612  0.901431  1
  Nd  Nd4  1  0.868044  0.662893  0.121325  1
  Nd  Nd5  1  0.132549  0.336416  0.879381  1
  Nd  Nd6  1  0.481604  0.681612  0.598569  1
  Nd  Nd7  1  0.631123  0.162688  0.620331  1
  Nd  Nd8  1  0.802591  0.498020  0.750000  1
  Nd  Nd9  1  0.868044  0.662893  0.378675  1
  Nd  Nd10  1  0.017594  0.181111  0.098867  1
  Nd  Nd11  1  0.982647  0.819591  0.901266  1
  Nd  Nd12  1  0.631123  0.162688  0.879669  1
  Nd  Nd13  1  0.517784  0.318985  0.099086  1
  Nd  Nd14  1  0.368195  0.837142  0.379344  1
  Nd  Nd15  1  0.982647  0.819591  0.598734  1
  Nd  Nd16  1  0.517784  0.318985  0.400914  1
  Y  Y17  1  0.199402  0.502133  0.250000  1
  Y  Y18  1  0.699589  0.998116  0.250000  1
  Er  Er19  1  0.300451  0.002306  0.750000  1
  Sn  Sn20  1  0.791640  0.463502  0.541677  1
  Sn  Sn21  1  0.708390  0.964805  0.456111  1
  Sn  Sn22  1  0.674610  0.858220  0.750000  1
  Sn  Sn23  1  0.208314  0.534866  0.456168  1
  Sn  Sn24  1  0.291774  0.035149  0.956305  1
  Sn  Sn25  1  0.824581  0.353734  0.250000  1
  Sn  Sn26  1  0.791640  0.463502  0.958323  1
  Sn  Sn27  1  0.564712  0.616942  0.250000  1
  Sn  Sn28  1  0.208314  0.534866  0.043832  1
  Sn  Sn29  1  0.431616  0.382210  0.750000  1
  Sn  Sn30  1  0.177600  0.647391  0.750000  1
  Sn  Sn31  1  0.936552  0.114579  0.750000  1
  Sn  Sn32  1  0.291774  0.035149  0.543695  1
  Sn  Sn33  1  0.708390  0.964805  0.043889  1
  Sn  Sn34  1  0.324040  0.145711  0.250000  1
  Sn  Sn35  1  0.064943  0.883122  0.250000  1
