# generated using pymatgen
data_SrSm6PtI12
_symmetry_space_group_name_H-M   'P 1'
_cell_length_a   9.94985604
_cell_length_b   9.94985517
_cell_length_c   9.94985663
_cell_angle_alpha   106.35222966
_cell_angle_beta   106.35224057
_cell_angle_gamma   106.35222826
_symmetry_Int_Tables_number   1
_chemical_formula_structural   SrSm6PtI12
_chemical_formula_sum   'Sr1 Sm6 Pt1 I12'
_cell_volume   834.41570621
_cell_formula_units_Z   1
loop_
 _symmetry_equiv_pos_site_id
 _symmetry_equiv_pos_as_xyz
  1  'x, y, z'
loop_
 _atom_site_type_symbol
 _atom_site_label
 _atom_site_symmetry_multiplicity
 _atom_site_fract_x
 _atom_site_fract_y
 _atom_site_fract_z
 _atom_site_occupancy
  Sr  Sr0  1  0.500000  0.500000  0.500000  1
  Sm  Sm1  1  0.097213  0.022725  0.302497  1
  Sm  Sm2  1  0.302497  0.097213  0.022725  1
  Sm  Sm3  1  0.022725  0.302497  0.097213  1
  Sm  Sm4  1  0.902787  0.977275  0.697503  1
  Sm  Sm5  1  0.697503  0.902787  0.977275  1
  Sm  Sm6  1  0.977275  0.697503  0.902787  1
  Pt  Pt7  1  0.000000  0.000000  0.000000  1
  I  I8  1  0.074449  0.677552  0.224882  1
  I  I9  1  0.224882  0.074449  0.677552  1
  I  I10  1  0.677552  0.224882  0.074449  1
  I  I11  1  0.925551  0.322448  0.775118  1
  I  I12  1  0.775118  0.925551  0.322448  1
  I  I13  1  0.322448  0.775118  0.925551  1
  I  I14  1  0.452934  0.140834  0.372971  1
  I  I15  1  0.372971  0.452934  0.140834  1
  I  I16  1  0.140834  0.372971  0.452934  1
  I  I17  1  0.547066  0.859166  0.627029  1
  I  I18  1  0.627029  0.547066  0.859166  1
  I  I19  1  0.859166  0.627029  0.547066  1
