# generated using pymatgen
data_Na2Nd2Al18CuPd5
_symmetry_space_group_name_H-M   'P 1'
_cell_length_a   7.64368910
_cell_length_b   7.65586863
_cell_length_c   9.54520782
_cell_angle_alpha   90.07070884
_cell_angle_beta   89.74861269
_cell_angle_gamma   119.55941352
_symmetry_Int_Tables_number   1
_chemical_formula_structural   Na2Nd2Al18CuPd5
_chemical_formula_sum   'Na2 Nd2 Al18 Cu1 Pd5'
_cell_volume   485.87004035
_cell_formula_units_Z   1
loop_
 _symmetry_equiv_pos_site_id
 _symmetry_equiv_pos_as_xyz
  1  'x, y, z'
loop_
 _atom_site_type_symbol
 _atom_site_label
 _atom_site_symmetry_multiplicity
 _atom_site_fract_x
 _atom_site_fract_y
 _atom_site_fract_z
 _atom_site_occupancy
  Na  Na0  1  0.003585  0.323169  0.749499  1
  Na  Na1  1  0.326856  0.009513  0.749427  1
  Nd  Nd2  1  0.000151  0.668237  0.248233  1
  Nd  Nd3  1  0.666933  0.996890  0.248856  1
  Al  Al4  1  0.663543  0.001800  0.916596  1
  Al  Al5  1  0.004490  0.664665  0.584291  1
  Al  Al6  1  0.130578  0.130981  0.250470  1
  Al  Al7  1  0.665534  0.666440  0.049275  1
  Al  Al8  1  0.331107  0.332731  0.560825  1
  Al  Al9  1  0.332383  0.333706  0.938565  1
  Al  Al10  1  0.667491  0.666942  0.450356  1
  Al  Al11  1  0.335021  0.002369  0.066715  1
  Al  Al12  1  0.002625  0.334102  0.434027  1
  Al  Al13  1  0.338220  0.541789  0.249556  1
  Al  Al14  1  0.005792  0.335234  0.067021  1
  Al  Al15  1  0.542667  0.339206  0.250514  1
  Al  Al16  1  0.657665  0.451093  0.749950  1
  Al  Al17  1  0.866475  0.867108  0.749980  1
  Al  Al18  1  0.006774  0.664768  0.914626  1
  Al  Al19  1  0.662890  0.002237  0.582635  1
  Al  Al20  1  0.333944  0.003057  0.433960  1
  Al  Al21  1  0.446565  0.658039  0.751602  1
  Cu  Cu22  1  0.334210  0.673918  0.003907  1
  Pd  Pd23  1  0.672387  0.331801  0.499325  1
  Pd  Pd24  1  0.673264  0.331762  0.000602  1
  Pd  Pd25  1  0.331810  0.672401  0.499391  1
  Pd  Pd26  1  0.999301  0.997998  0.999741  1
  Pd  Pd27  1  0.997741  0.998045  0.500054  1
