# generated using pymatgen
data_Nb4Ga5(Co2P)2
_symmetry_space_group_name_H-M   'P 1'
_cell_length_a   9.42728012
_cell_length_b   9.42744976
_cell_length_c   9.42727970
_cell_angle_alpha   94.16639477
_cell_angle_beta   94.17027555
_cell_angle_gamma   148.71660469
_symmetry_Int_Tables_number   1
_chemical_formula_structural   Nb4Ga5(Co2P)2
_chemical_formula_sum   'Nb8 Ga10 Co8 P4'
_cell_volume   418.96389888
_cell_formula_units_Z   2
loop_
 _symmetry_equiv_pos_site_id
 _symmetry_equiv_pos_as_xyz
  1  'x, y, z'
loop_
 _atom_site_type_symbol
 _atom_site_label
 _atom_site_symmetry_multiplicity
 _atom_site_fract_x
 _atom_site_fract_y
 _atom_site_fract_z
 _atom_site_occupancy
  Nb  Nb0  1  0.308120  0.500000  0.808120  1
  Nb  Nb1  1  0.691880  0.500000  0.191880  1
  Nb  Nb2  1  0.500039  0.691921  0.191882  1
  Nb  Nb3  1  0.499961  0.308079  0.808118  1
  Nb  Nb4  1  0.137282  0.137291  0.274597  1
  Nb  Nb5  1  0.862718  0.862709  0.725403  1
  Nb  Nb6  1  0.137306  0.862709  0.999990  1
  Nb  Nb7  1  0.862694  0.137291  0.000010  1
  Ga  Ga8  1  0.099249  0.500000  0.599249  1
  Ga  Ga9  1  0.900751  0.500000  0.400751  1
  Ga  Ga10  1  0.499996  0.900737  0.400742  1
  Ga  Ga11  1  0.500004  0.099263  0.599258  1
  Ga  Ga12  1  0.247636  0.247632  0.999996  1
  Ga  Ga13  1  0.752364  0.752368  0.000004  1
  Ga  Ga14  1  0.299800  0.000000  0.299800  1
  Ga  Ga15  1  0.700200  0.000000  0.700200  1
  Ga  Ga16  1  0.999972  0.700175  0.700204  1
  Ga  Ga17  1  0.000028  0.299825  0.299796  1
  Co  Co18  1  0.414767  0.914766  0.829545  1
  Co  Co19  1  0.085256  0.585266  0.170504  1
  Co  Co20  1  0.914779  0.085234  0.500000  1
  Co  Co21  1  0.585237  0.414734  0.499990  1
  Co  Co22  1  0.585233  0.085234  0.170455  1
  Co  Co23  1  0.914744  0.414734  0.829496  1
  Co  Co24  1  0.085221  0.914766  0.500000  1
  Co  Co25  1  0.414763  0.585266  0.500010  1
  P  P26  1  0.302263  0.302264  0.604439  1
  P  P27  1  0.697737  0.697736  0.395561  1
  P  P28  1  0.302174  0.697736  0.999999  1
  P  P29  1  0.697826  0.302264  0.000001  1
