# generated using pymatgen
data_Pr8Sm12Si15Pt
_symmetry_space_group_name_H-M   'P 1'
_cell_length_a   7.63705807
_cell_length_b   7.93751288
_cell_length_c   15.20269400
_cell_angle_alpha   90.00000000
_cell_angle_beta   90.00000000
_cell_angle_gamma   90.43913131
_symmetry_Int_Tables_number   1
_chemical_formula_structural   Pr8Sm12Si15Pt
_chemical_formula_sum   'Pr8 Sm12 Si15 Pt1'
_cell_volume   921.54879230
_cell_formula_units_Z   1
loop_
 _symmetry_equiv_pos_site_id
 _symmetry_equiv_pos_as_xyz
  1  'x, y, z'
loop_
 _atom_site_type_symbol
 _atom_site_label
 _atom_site_symmetry_multiplicity
 _atom_site_fract_x
 _atom_site_fract_y
 _atom_site_fract_z
 _atom_site_occupancy
  Pr  Pr0  1  0.026876  0.183931  0.401583  1
  Pr  Pr1  1  0.527318  0.318211  0.400526  1
  Pr  Pr2  1  0.477039  0.676028  0.907342  1
  Pr  Pr3  1  0.477039  0.676028  0.592658  1
  Pr  Pr4  1  0.972202  0.819955  0.595812  1
  Pr  Pr5  1  0.972202  0.819955  0.904188  1
  Pr  Pr6  1  0.527318  0.318211  0.099474  1
  Pr  Pr7  1  0.026876  0.183931  0.098417  1
  Sm  Sm8  1  0.315329  0.181280  0.621677  1
  Sm  Sm9  1  0.681833  0.818599  0.377095  1
  Sm  Sm10  1  0.634260  0.975135  0.750000  1
  Sm  Sm11  1  0.179364  0.682540  0.376757  1
  Sm  Sm12  1  0.821867  0.318049  0.877142  1
  Sm  Sm13  1  0.821867  0.318049  0.622858  1
  Sm  Sm14  1  0.849406  0.486399  0.250000  1
  Sm  Sm15  1  0.349824  0.016700  0.250000  1
  Sm  Sm16  1  0.315329  0.181280  0.878323  1
  Sm  Sm17  1  0.179364  0.682540  0.123243  1
  Sm  Sm18  1  0.681833  0.818599  0.122905  1
  Sm  Sm19  1  0.161693  0.529234  0.750000  1
  Si  Si20  1  0.472035  0.606242  0.250000  1
  Si  Si21  1  0.022692  0.096966  0.750000  1
  Si  Si22  1  0.530403  0.391087  0.750000  1
  Si  Si23  1  0.142676  0.472519  0.538260  1
  Si  Si24  1  0.972310  0.897580  0.250000  1
  Si  Si25  1  0.736596  0.118887  0.250000  1
  Si  Si26  1  0.857029  0.528102  0.039066  1
  Si  Si27  1  0.359103  0.972477  0.039902  1
  Si  Si28  1  0.142676  0.472519  0.961740  1
  Si  Si29  1  0.641428  0.030537  0.538084  1
  Si  Si30  1  0.359103  0.972477  0.460098  1
  Si  Si31  1  0.857029  0.528102  0.460934  1
  Si  Si32  1  0.764371  0.615619  0.750000  1
  Si  Si33  1  0.236506  0.383444  0.250000  1
  Si  Si34  1  0.641428  0.030537  0.961916  1
  Pt  Pt35  1  0.265773  0.878248  0.750000  1
