# generated using pymatgen
data_La2YbPr2Si2Ge
_symmetry_space_group_name_H-M   'P 1'
_cell_length_a   7.85887001
_cell_length_b   9.00783633
_cell_length_c   7.85887001
_cell_angle_alpha   115.77027826
_cell_angle_beta   90.19178628
_cell_angle_gamma   115.77027826
_symmetry_Int_Tables_number   1
_chemical_formula_structural   La2YbPr2Si2Ge
_chemical_formula_sum   'La4 Yb2 Pr4 Si4 Ge2'
_cell_volume   438.30450804
_cell_formula_units_Z   2
loop_
 _symmetry_equiv_pos_site_id
 _symmetry_equiv_pos_as_xyz
  1  'x, y, z'
loop_
 _atom_site_type_symbol
 _atom_site_label
 _atom_site_symmetry_multiplicity
 _atom_site_fract_x
 _atom_site_fract_y
 _atom_site_fract_z
 _atom_site_occupancy
  La  La0  1  0.675667  0.708417  0.175667  1
  La  La1  1  0.032751  0.708417  0.532751  1
  La  La2  1  0.324333  0.291583  0.824333  1
  La  La3  1  0.967249  0.291583  0.467249  1
  Yb  Yb4  1  0.000000  0.000000  0.000000  1
  Yb  Yb5  1  0.500000  0.000000  0.500000  1
  Pr  Pr6  1  0.533583  0.712254  0.678672  1
  Pr  Pr7  1  0.178672  0.712254  0.033583  1
  Pr  Pr8  1  0.466417  0.287746  0.321328  1
  Pr  Pr9  1  0.821328  0.287746  0.966417  1
  Si  Si10  1  0.885570  0.000000  0.614430  1
  Si  Si11  1  0.114430  0.000000  0.385570  1
  Si  Si12  1  0.613323  0.000000  0.113323  1
  Si  Si13  1  0.386677  0.000000  0.886677  1
  Ge  Ge14  1  0.750000  0.500000  0.750000  1
  Ge  Ge15  1  0.250000  0.500000  0.250000  1
