# generated using pymatgen
data_Pr3NdAl18(CoPt)3
_symmetry_space_group_name_H-M   'P 1'
_cell_length_a   7.59874544
_cell_length_b   7.60068560
_cell_length_c   9.54317024
_cell_angle_alpha   89.85394385
_cell_angle_beta   89.86391112
_cell_angle_gamma   119.44831791
_symmetry_Int_Tables_number   1
_chemical_formula_structural   Pr3NdAl18(CoPt)3
_chemical_formula_sum   'Pr3 Nd1 Al18 Co3 Pt3'
_cell_volume   479.95479493
_cell_formula_units_Z   1
loop_
 _symmetry_equiv_pos_site_id
 _symmetry_equiv_pos_as_xyz
  1  'x, y, z'
loop_
 _atom_site_type_symbol
 _atom_site_label
 _atom_site_symmetry_multiplicity
 _atom_site_fract_x
 _atom_site_fract_y
 _atom_site_fract_z
 _atom_site_occupancy
  Pr  Pr0  1  0.001904  0.326526  0.749253  1
  Pr  Pr1  1  0.332239  0.009539  0.749261  1
  Pr  Pr2  1  0.990518  0.667862  0.250778  1
  Nd  Nd3  1  0.673598  0.998224  0.250742  1
  Al  Al4  1  0.655686  0.986485  0.926042  1
  Al  Al5  1  0.009710  0.673197  0.570220  1
  Al  Al6  1  0.130270  0.128228  0.257972  1
  Al  Al7  1  0.657220  0.665703  0.049242  1
  Al  Al8  1  0.327181  0.334055  0.543281  1
  Al  Al9  1  0.334606  0.342741  0.951236  1
  Al  Al10  1  0.665948  0.673164  0.456199  1
  Al  Al11  1  0.334600  0.990432  0.073679  1
  Al  Al12  1  0.009073  0.335399  0.428720  1
  Al  Al13  1  0.341669  0.556704  0.251597  1
  Al  Al14  1  0.013134  0.343925  0.074649  1
  Al  Al15  1  0.539270  0.339221  0.250681  1
  Al  Al16  1  0.660145  0.460547  0.749317  1
  Al  Al17  1  0.871516  0.869186  0.742013  1
  Al  Al18  1  0.009532  0.665834  0.926696  1
  Al  Al19  1  0.664137  0.990538  0.570527  1
  Al  Al20  1  0.327311  0.990300  0.429422  1
  Al  Al21  1  0.444152  0.659051  0.748410  1
  Co  Co22  1  0.330656  0.669598  0.499810  1
  Co  Co23  1  0.000368  0.999273  0.499793  1
  Co  Co24  1  0.330965  0.669222  0.000211  1
  Pt  Pt25  1  0.672004  0.327927  0.499848  1
  Pt  Pt26  1  0.672170  0.327784  0.000167  1
  Pt  Pt27  1  0.000419  0.999334  0.000234  1
