# generated using pymatgen
data_Dy3TmZr4F28
_symmetry_space_group_name_H-M   'P 1'
_cell_length_a   5.73793470
_cell_length_b   9.08066337
_cell_length_c   12.21018092
_cell_angle_alpha   62.42649718
_cell_angle_beta   90.02154931
_cell_angle_gamma   89.98597225
_symmetry_Int_Tables_number   1
_chemical_formula_structural   Dy3TmZr4F28
_chemical_formula_sum   'Dy3 Tm1 Zr4 F28'
_cell_volume   563.94095728
_cell_formula_units_Z   1
loop_
 _symmetry_equiv_pos_site_id
 _symmetry_equiv_pos_as_xyz
  1  'x, y, z'
loop_
 _atom_site_type_symbol
 _atom_site_label
 _atom_site_symmetry_multiplicity
 _atom_site_fract_x
 _atom_site_fract_y
 _atom_site_fract_z
 _atom_site_occupancy
  Dy  Dy0  1  0.743268  0.815323  0.266358  1
  Dy  Dy1  1  0.243275  0.183815  0.233824  1
  Dy  Dy2  1  0.256847  0.181987  0.733940  1
  Tm  Tm3  1  0.756676  0.815638  0.766114  1
  Zr  Zr4  1  0.744719  0.273460  0.455629  1
  Zr  Zr5  1  0.244176  0.725818  0.043938  1
  Zr  Zr6  1  0.255339  0.725398  0.546538  1
  Zr  Zr7  1  0.755454  0.275572  0.954032  1
  F  F8  1  0.469637  0.712736  0.919723  1
  F  F9  1  0.968224  0.288504  0.579404  1
  F  F10  1  0.533099  0.289370  0.078690  1
  F  F11  1  0.033605  0.711106  0.421552  1
  F  F12  1  0.452658  0.280158  0.550197  1
  F  F13  1  0.951402  0.721104  0.947879  1
  F  F14  1  0.546466  0.719147  0.450594  1
  F  F15  1  0.047282  0.281453  0.049381  1
  F  F16  1  0.767530  0.528408  0.857262  1
  F  F17  1  0.267396  0.473623  0.642609  1
  F  F18  1  0.232412  0.474290  0.141923  1
  F  F19  1  0.732582  0.525628  0.357939  1
  F  F20  1  0.759708  0.023798  0.057792  1
  F  F21  1  0.259843  0.976872  0.442281  1
  F  F22  1  0.240502  0.977433  0.941300  1
  F  F23  1  0.739975  0.021828  0.560100  1
  F  F24  1  0.982884  0.735113  0.651060  1
  F  F25  1  0.484024  0.266246  0.849610  1
  F  F26  1  0.015112  0.266101  0.350082  1
  F  F27  1  0.514504  0.733960  0.149602  1
  F  F28  1  0.033606  0.746550  0.172646  1
  F  F29  1  0.533331  0.253635  0.327097  1
  F  F30  1  0.967201  0.253535  0.826649  1
  F  F31  1  0.469807  0.747797  0.673773  1
  F  F32  1  0.429354  0.972802  0.234938  1
  F  F33  1  0.927900  0.026616  0.265236  1
  F  F34  1  0.572785  0.023936  0.764951  1
  F  F35  1  0.067417  0.971236  0.735356  1
