# generated using pymatgen
data_Ce3Sb4Pd2Pt
_symmetry_space_group_name_H-M   'P 1'
_cell_length_a   8.54278903
_cell_length_b   8.54278931
_cell_length_c   8.54278900
_cell_angle_alpha   109.54967638
_cell_angle_beta   109.54967185
_cell_angle_gamma   109.31442658
_symmetry_Int_Tables_number   1
_chemical_formula_structural   Ce3Sb4Pd2Pt
_chemical_formula_sum   'Ce6 Sb8 Pd4 Pt2'
_cell_volume   479.92649997
_cell_formula_units_Z   2
loop_
 _symmetry_equiv_pos_site_id
 _symmetry_equiv_pos_as_xyz
  1  'x, y, z'
loop_
 _atom_site_type_symbol
 _atom_site_label
 _atom_site_symmetry_multiplicity
 _atom_site_fract_x
 _atom_site_fract_y
 _atom_site_fract_z
 _atom_site_occupancy
  Ce  Ce0  1  0.873632  0.250000  0.123632  1
  Ce  Ce1  1  0.626368  0.750000  0.376368  1
  Ce  Ce2  1  0.250000  0.126368  0.876368  1
  Ce  Ce3  1  0.750000  0.373632  0.623632  1
  Ce  Ce4  1  0.125000  0.875000  0.250000  1
  Ce  Ce5  1  0.375000  0.625000  0.750000  1
  Sb  Sb6  1  0.669031  0.502222  0.000349  1
  Sb  Sb7  1  0.498127  0.997778  0.666809  1
  Sb  Sb8  1  0.001873  0.668682  0.499651  1
  Sb  Sb9  1  0.830969  0.831318  0.833191  1
  Sb  Sb10  1  0.497778  0.998127  0.166809  1
  Sb  Sb11  1  0.168682  0.501873  0.999651  1
  Sb  Sb12  1  0.002222  0.169031  0.500349  1
  Sb  Sb13  1  0.331318  0.330969  0.333191  1
  Pd  Pd14  1  0.376126  0.250000  0.626126  1
  Pd  Pd15  1  0.123874  0.750000  0.873874  1
  Pd  Pd16  1  0.250000  0.623874  0.373874  1
  Pd  Pd17  1  0.750000  0.876126  0.126126  1
  Pt  Pt18  1  0.625000  0.375000  0.250000  1
  Pt  Pt19  1  0.875000  0.125000  0.750000  1
