# generated using pymatgen
data_SmPu(PIr)4
_symmetry_space_group_name_H-M   'P 1'
_cell_length_a   4.12370200
_cell_length_b   4.12370200
_cell_length_c   9.61550400
_cell_angle_alpha   90.00000000
_cell_angle_beta   90.00000000
_cell_angle_gamma   90.00000000
_symmetry_Int_Tables_number   1
_chemical_formula_structural   SmPu(PIr)4
_chemical_formula_sum   'Sm1 Pu1 P4 Ir4'
_cell_volume   163.51085883
_cell_formula_units_Z   1
loop_
 _symmetry_equiv_pos_site_id
 _symmetry_equiv_pos_as_xyz
  1  'x, y, z'
loop_
 _atom_site_type_symbol
 _atom_site_label
 _atom_site_symmetry_multiplicity
 _atom_site_fract_x
 _atom_site_fract_y
 _atom_site_fract_z
 _atom_site_occupancy
  Sm  Sm0  1  0.500000  0.000000  0.755369  1
  Pu  Pu1  1  0.000000  0.500000  0.242059  1
  P  P2  1  0.000000  0.000000  0.001836  1
  P  P3  1  0.500000  0.500000  0.001836  1
  P  P4  1  0.000000  0.500000  0.641634  1
  P  P5  1  0.500000  0.000000  0.359857  1
  Ir  Ir6  1  0.000000  0.000000  0.496393  1
  Ir  Ir7  1  0.500000  0.500000  0.496393  1
  Ir  Ir8  1  0.000000  0.500000  0.887123  1
  Ir  Ir9  1  0.500000  0.000000  0.117498  1
