# generated using pymatgen
data_Dy3Y3Pd2
_symmetry_space_group_name_H-M   'P 1'
_cell_length_a   6.49032047
_cell_length_b   7.06134770
_cell_length_c   9.71799269
_cell_angle_alpha   89.95733028
_cell_angle_beta   90.00666710
_cell_angle_gamma   90.18501426
_symmetry_Int_Tables_number   1
_chemical_formula_structural   Dy3Y3Pd2
_chemical_formula_sum   'Dy6 Y6 Pd4'
_cell_volume   445.37713588
_cell_formula_units_Z   2
loop_
 _symmetry_equiv_pos_site_id
 _symmetry_equiv_pos_as_xyz
  1  'x, y, z'
loop_
 _atom_site_type_symbol
 _atom_site_label
 _atom_site_symmetry_multiplicity
 _atom_site_fract_x
 _atom_site_fract_y
 _atom_site_fract_z
 _atom_site_occupancy
  Dy  Dy0  1  0.173754  0.181286  0.060095  1
  Dy  Dy1  1  0.826246  0.818714  0.939905  1
  Dy  Dy2  1  0.673687  0.318836  0.939926  1
  Dy  Dy3  1  0.826413  0.818965  0.560223  1
  Dy  Dy4  1  0.326313  0.681164  0.060074  1
  Dy  Dy5  1  0.173587  0.181035  0.439777  1
  Y  Y6  1  0.633869  0.023992  0.249633  1
  Y  Y7  1  0.366131  0.976008  0.750367  1
  Y  Y8  1  0.133685  0.476114  0.750282  1
  Y  Y9  1  0.866315  0.523886  0.249718  1
  Y  Y10  1  0.326542  0.681827  0.440897  1
  Y  Y11  1  0.673458  0.318173  0.559103  1
  Pd  Pd12  1  0.435880  0.388025  0.249091  1
  Pd  Pd13  1  0.564120  0.611975  0.750909  1
  Pd  Pd14  1  0.936159  0.110313  0.750763  1
  Pd  Pd15  1  0.063841  0.889687  0.249237  1
