# generated using pymatgen
data_Dy4Co16Si11Tc4P
_symmetry_space_group_name_H-M   'P 1'
_cell_length_a   3.75384700
_cell_length_b   10.54191967
_cell_length_c   12.00538479
_cell_angle_alpha   89.95879468
_cell_angle_beta   90.00000000
_cell_angle_gamma   90.00000000
_symmetry_Int_Tables_number   1
_chemical_formula_structural   Dy4Co16Si11Tc4P
_chemical_formula_sum   'Dy4 Co16 Si11 Tc4 P1'
_cell_volume   475.08601042
_cell_formula_units_Z   1
loop_
 _symmetry_equiv_pos_site_id
 _symmetry_equiv_pos_as_xyz
  1  'x, y, z'
loop_
 _atom_site_type_symbol
 _atom_site_label
 _atom_site_symmetry_multiplicity
 _atom_site_fract_x
 _atom_site_fract_y
 _atom_site_fract_z
 _atom_site_occupancy
  Dy  Dy0  1  0.250000  0.580112  0.703797  1
  Dy  Dy1  1  0.250000  0.920808  0.202434  1
  Dy  Dy2  1  0.750000  0.420198  0.296564  1
  Dy  Dy3  1  0.750000  0.081078  0.795097  1
  Co  Co4  1  0.250000  0.406555  0.489592  1
  Co  Co5  1  0.250000  0.093808  0.992457  1
  Co  Co6  1  0.750000  0.593255  0.510580  1
  Co  Co7  1  0.750000  0.910964  0.012303  1
  Co  Co8  1  0.250000  0.213045  0.174127  1
  Co  Co9  1  0.250000  0.285042  0.674880  1
  Co  Co10  1  0.750000  0.786670  0.825932  1
  Co  Co11  1  0.750000  0.714443  0.324983  1
  Co  Co12  1  0.250000  0.884496  0.698941  1
  Co  Co13  1  0.250000  0.615895  0.199233  1
  Co  Co14  1  0.750000  0.115143  0.297111  1
  Co  Co15  1  0.750000  0.383419  0.801865  1
  Co  Co16  1  0.250000  0.466666  0.933676  1
  Co  Co17  1  0.250000  0.032750  0.431299  1
  Co  Co18  1  0.750000  0.531730  0.067172  1
  Co  Co19  1  0.750000  0.967576  0.566066  1
  Si  Si20  1  0.250000  0.416880  0.114080  1
  Si  Si21  1  0.250000  0.083077  0.612546  1
  Si  Si22  1  0.750000  0.582977  0.886666  1
  Si  Si23  1  0.750000  0.916828  0.385531  1
  Si  Si24  1  0.250000  0.269238  0.866569  1
  Si  Si25  1  0.250000  0.230922  0.365628  1
  Si  Si26  1  0.750000  0.730089  0.133837  1
  Si  Si27  1  0.750000  0.769645  0.634075  1
  Si  Si28  1  0.250000  0.600477  0.393636  1
  Si  Si29  1  0.250000  0.900845  0.893348  1
  Si  Si30  1  0.750000  0.399117  0.606922  1
  Tc  Tc31  1  0.250000  0.701580  0.991166  1
  Tc  Tc32  1  0.250000  0.799489  0.491321  1
  Tc  Tc33  1  0.750000  0.294589  0.011887  1
  Tc  Tc34  1  0.750000  0.200766  0.507404  1
  P  P35  1  0.750000  0.099829  0.107276  1
