# generated using pymatgen
data_Er3Mg3Ge2Ir
_symmetry_space_group_name_H-M   'P 1'
_cell_length_a   7.16967800
_cell_length_b   7.16967862
_cell_length_c   4.28464500
_cell_angle_alpha   90.00000000
_cell_angle_beta   90.00000000
_cell_angle_gamma   119.99999714
_symmetry_Int_Tables_number   1
_chemical_formula_structural   Er3Mg3Ge2Ir
_chemical_formula_sum   'Er3 Mg3 Ge2 Ir1'
_cell_volume   190.74133991
_cell_formula_units_Z   1
loop_
 _symmetry_equiv_pos_site_id
 _symmetry_equiv_pos_as_xyz
  1  'x, y, z'
loop_
 _atom_site_type_symbol
 _atom_site_label
 _atom_site_symmetry_multiplicity
 _atom_site_fract_x
 _atom_site_fract_y
 _atom_site_fract_z
 _atom_site_occupancy
  Er  Er0  1  0.410330  0.000000  0.000000  1
  Er  Er1  1  0.000000  0.410330  0.000000  1
  Er  Er2  1  0.589669  0.589669  0.000000  1
  Mg  Mg3  1  0.763238  0.000000  0.499999  1
  Mg  Mg4  1  0.236762  0.236763  0.499999  1
  Mg  Mg5  1  0.000000  0.763238  0.499999  1
  Ge  Ge6  1  0.666666  0.333334  0.499999  1
  Ge  Ge7  1  0.333334  0.666667  0.499999  1
  Ir  Ir8  1  0.000000  0.000000  0.000000  1
