# generated using pymatgen
data_Tb16TcHg4Pd3
_symmetry_space_group_name_H-M   'P 1'
_cell_length_a   9.73526852
_cell_length_b   9.73526821
_cell_length_c   9.73526834
_cell_angle_alpha   59.42630638
_cell_angle_beta   59.42630649
_cell_angle_gamma   59.42629691
_symmetry_Int_Tables_number   1
_chemical_formula_structural   Tb16TcHg4Pd3
_chemical_formula_sum   'Tb16 Tc1 Hg4 Pd3'
_cell_volume   643.90606960
_cell_formula_units_Z   1
loop_
 _symmetry_equiv_pos_site_id
 _symmetry_equiv_pos_as_xyz
  1  'x, y, z'
loop_
 _atom_site_type_symbol
 _atom_site_label
 _atom_site_symmetry_multiplicity
 _atom_site_fract_x
 _atom_site_fract_y
 _atom_site_fract_z
 _atom_site_occupancy
  Tb  Tb0  1  0.354888  0.354888  0.354888  1
  Tb  Tb1  1  0.352116  0.352116  0.940994  1
  Tb  Tb2  1  0.352116  0.940994  0.352116  1
  Tb  Tb3  1  0.940994  0.352116  0.352116  1
  Tb  Tb4  1  0.816854  0.188406  0.188406  1
  Tb  Tb5  1  0.188159  0.809128  0.809128  1
  Tb  Tb6  1  0.188406  0.816854  0.188406  1
  Tb  Tb7  1  0.809128  0.188159  0.809128  1
  Tb  Tb8  1  0.188406  0.188406  0.816854  1
  Tb  Tb9  1  0.809128  0.809128  0.188159  1
  Tb  Tb10  1  0.935684  0.564774  0.564774  1
  Tb  Tb11  1  0.556595  0.937843  0.937843  1
  Tb  Tb12  1  0.564774  0.935684  0.564774  1
  Tb  Tb13  1  0.937843  0.556595  0.937843  1
  Tb  Tb14  1  0.564774  0.564774  0.935684  1
  Tb  Tb15  1  0.937843  0.937843  0.556595  1
  Tc  Tc16  1  0.144339  0.144339  0.144339  1
  Hg  Hg17  1  0.584025  0.584025  0.584025  1
  Hg  Hg18  1  0.586124  0.586124  0.240144  1
  Hg  Hg19  1  0.586124  0.240144  0.586124  1
  Hg  Hg20  1  0.240144  0.586124  0.586124  1
  Pd  Pd21  1  0.146171  0.146171  0.569198  1
  Pd  Pd22  1  0.146171  0.569198  0.146171  1
  Pd  Pd23  1  0.569198  0.146171  0.146171  1
