# generated using pymatgen
data_Yb5In(Si3Ru)8
_symmetry_space_group_name_H-M   'P 1'
_cell_length_a   10.17946720
_cell_length_b   10.17946726
_cell_length_c   8.13086162
_cell_angle_alpha   90.26511411
_cell_angle_beta   89.73488469
_cell_angle_gamma   132.92325108
_symmetry_Int_Tables_number   1
_chemical_formula_structural   Yb5In(Si3Ru)8
_chemical_formula_sum   'Yb5 In1 Si24 Ru8'
_cell_volume   616.95055573
_cell_formula_units_Z   1
loop_
 _symmetry_equiv_pos_site_id
 _symmetry_equiv_pos_as_xyz
  1  'x, y, z'
loop_
 _atom_site_type_symbol
 _atom_site_label
 _atom_site_symmetry_multiplicity
 _atom_site_fract_x
 _atom_site_fract_y
 _atom_site_fract_z
 _atom_site_occupancy
  Yb  Yb0  1  0.500111  0.499892  0.501888  1
  Yb  Yb1  1  0.999892  0.000111  0.998112  1
  Yb  Yb2  1  0.501302  0.001302  0.750000  1
  Yb  Yb3  1  0.997726  0.497726  0.250000  1
  Yb  Yb4  1  0.497390  0.997390  0.250000  1
  In  In5  1  0.997944  0.497944  0.750000  1
  Si  Si6  1  0.792994  0.200773  0.496938  1
  Si  Si7  1  0.296569  0.703403  0.000679  1
  Si  Si8  1  0.203403  0.796569  0.499321  1
  Si  Si9  1  0.700773  0.292994  0.003062  1
  Si  Si10  1  0.335852  0.334565  0.833962  1
  Si  Si11  1  0.667839  0.665709  0.168856  1
  Si  Si12  1  0.165709  0.167839  0.331144  1
  Si  Si13  1  0.834565  0.835852  0.666038  1
  Si  Si14  1  0.124677  0.895293  0.726766  1
  Si  Si15  1  0.107253  0.873367  0.264995  1
  Si  Si16  1  0.608057  0.373546  0.235795  1
  Si  Si17  1  0.622238  0.392378  0.773966  1
  Si  Si18  1  0.873546  0.108057  0.264205  1
  Si  Si19  1  0.892378  0.122238  0.726034  1
  Si  Si20  1  0.395293  0.624677  0.773234  1
  Si  Si21  1  0.373367  0.607253  0.235005  1
  Si  Si22  1  0.352537  0.117600  0.508095  1
  Si  Si23  1  0.888351  0.658535  0.491129  1
  Si  Si24  1  0.382009  0.148219  0.009612  1
  Si  Si25  1  0.842659  0.611306  0.994983  1
  Si  Si26  1  0.648219  0.882009  0.490388  1
  Si  Si27  1  0.111306  0.342659  0.505017  1
  Si  Si28  1  0.617600  0.852537  0.991905  1
  Si  Si29  1  0.158535  0.388351  0.008871  1
  Ru  Ru30  1  0.678182  0.335981  0.507366  1
  Ru  Ru31  1  0.164603  0.822242  0.992055  1
  Ru  Ru32  1  0.322242  0.664603  0.507945  1
  Ru  Ru33  1  0.835981  0.178182  0.992634  1
  Ru  Ru34  1  0.130258  0.129711  0.623468  1
  Ru  Ru35  1  0.873796  0.875131  0.372253  1
  Ru  Ru36  1  0.375131  0.373796  0.127747  1
  Ru  Ru37  1  0.629711  0.630258  0.876532  1
