# generated using pymatgen
data_Nd4CuPt3
_symmetry_space_group_name_H-M   'P 1'
_cell_length_a   4.59715700
_cell_length_b   5.75933960
_cell_length_c   7.36140497
_cell_angle_alpha   89.94131551
_cell_angle_beta   90.00000000
_cell_angle_gamma   90.00000000
_symmetry_Int_Tables_number   1
_chemical_formula_structural   Nd4CuPt3
_chemical_formula_sum   'Nd4 Cu1 Pt3'
_cell_volume   194.90478671
_cell_formula_units_Z   1
loop_
 _symmetry_equiv_pos_site_id
 _symmetry_equiv_pos_as_xyz
  1  'x, y, z'
loop_
 _atom_site_type_symbol
 _atom_site_label
 _atom_site_symmetry_multiplicity
 _atom_site_fract_x
 _atom_site_fract_y
 _atom_site_fract_z
 _atom_site_occupancy
  Nd  Nd0  1  0.000000  0.640101  0.315161  1
  Nd  Nd1  1  0.000000  0.857074  0.819201  1
  Nd  Nd2  1  0.500000  0.365342  0.688504  1
  Nd  Nd3  1  0.500000  0.139369  0.177508  1
  Cu  Cu4  1  0.000000  0.131958  0.463761  1
  Pt  Pt5  1  0.000000  0.340672  0.955568  1
  Pt  Pt6  1  0.500000  0.871233  0.535235  1
  Pt  Pt7  1  0.500000  0.654253  0.045061  1
