# generated using pymatgen
data_Y2Er2Tc5Ru3
_symmetry_space_group_name_H-M   'P 1'
_cell_length_a   5.31001259
_cell_length_b   5.31001241
_cell_length_c   9.16411708
_cell_angle_alpha   89.98714950
_cell_angle_beta   90.01285267
_cell_angle_gamma   121.76820670
_symmetry_Int_Tables_number   1
_chemical_formula_structural   Y2Er2Tc5Ru3
_chemical_formula_sum   'Y2 Er2 Tc5 Ru3'
_cell_volume   219.68232870
_cell_formula_units_Z   1
loop_
 _symmetry_equiv_pos_site_id
 _symmetry_equiv_pos_as_xyz
  1  'x, y, z'
loop_
 _atom_site_type_symbol
 _atom_site_label
 _atom_site_symmetry_multiplicity
 _atom_site_fract_x
 _atom_site_fract_y
 _atom_site_fract_z
 _atom_site_occupancy
  Y  Y0  1  0.335395  0.664605  0.434645  1
  Y  Y1  1  0.665336  0.334664  0.563976  1
  Er  Er2  1  0.665115  0.334885  0.936569  1
  Er  Er3  1  0.335708  0.664292  0.064682  1
  Tc  Tc4  1  0.170314  0.342166  0.751541  1
  Tc  Tc5  1  0.170933  0.829067  0.751576  1
  Tc  Tc6  1  0.338724  0.173282  0.248526  1
  Tc  Tc7  1  0.826718  0.661276  0.248526  1
  Tc  Tc8  1  0.657834  0.829686  0.751541  1
  Ru  Ru9  1  0.004430  0.995570  0.001314  1
  Ru  Ru10  1  0.825268  0.174732  0.248351  1
  Ru  Ru11  1  0.004224  0.995776  0.498753  1
