# generated using pymatgen
data_Tb5Dy8Y7(CoSb2)4
_symmetry_space_group_name_H-M   'P 1'
_cell_length_a   7.96098673
_cell_length_b   8.74301406
_cell_length_c   12.24358605
_cell_angle_alpha   90.00929489
_cell_angle_beta   89.97812701
_cell_angle_gamma   90.00956538
_symmetry_Int_Tables_number   1
_chemical_formula_structural   Tb5Dy8Y7(CoSb2)4
_chemical_formula_sum   'Tb5 Dy8 Y7 Co4 Sb8'
_cell_volume   852.19046618
_cell_formula_units_Z   1
loop_
 _symmetry_equiv_pos_site_id
 _symmetry_equiv_pos_as_xyz
  1  'x, y, z'
loop_
 _atom_site_type_symbol
 _atom_site_label
 _atom_site_symmetry_multiplicity
 _atom_site_fract_x
 _atom_site_fract_y
 _atom_site_fract_z
 _atom_site_occupancy
  Tb  Tb0  1  0.622855  0.750150  0.306076  1
  Tb  Tb1  1  0.122492  0.250056  0.193668  1
  Tb  Tb2  1  0.377801  0.249786  0.693906  1
  Tb  Tb3  1  0.877274  0.749988  0.806239  1
  Tb  Tb4  1  0.321703  0.465870  0.435036  1
  Dy  Dy5  1  0.044851  0.750163  0.498271  1
  Dy  Dy6  1  0.822561  0.966097  0.065035  1
  Dy  Dy7  1  0.322533  0.034171  0.435046  1
  Dy  Dy8  1  0.177406  0.465950  0.935018  1
  Dy  Dy9  1  0.677853  0.534510  0.564878  1
  Dy  Dy10  1  0.177397  0.034046  0.935003  1
  Dy  Dy11  1  0.677709  0.965418  0.564868  1
  Dy  Dy12  1  0.822540  0.533898  0.065020  1
  Y  Y13  1  0.154911  0.750027  0.203214  1
  Y  Y14  1  0.655076  0.249901  0.296783  1
  Y  Y15  1  0.845117  0.249997  0.796890  1
  Y  Y16  1  0.344830  0.750074  0.703345  1
  Y  Y17  1  0.456325  0.750020  0.998292  1
  Y  Y18  1  0.955864  0.249880  0.501767  1
  Y  Y19  1  0.543699  0.249986  0.001682  1
  Co  Co20  1  0.436420  0.750166  0.489942  1
  Co  Co21  1  0.937999  0.250003  0.009743  1
  Co  Co22  1  0.562935  0.249708  0.509994  1
  Co  Co23  1  0.061928  0.750004  0.990284  1
  Sb  Sb24  1  0.928692  0.991752  0.327250  1
  Sb  Sb25  1  0.428634  0.008274  0.172833  1
  Sb  Sb26  1  0.071402  0.491746  0.672815  1
  Sb  Sb27  1  0.571400  0.508276  0.827146  1
  Sb  Sb28  1  0.071292  0.008253  0.672853  1
  Sb  Sb29  1  0.571460  0.991713  0.827196  1
  Sb  Sb30  1  0.928272  0.508336  0.327196  1
  Sb  Sb31  1  0.428766  0.491783  0.172707  1
