# generated using pymatgen
data_Lu3Np5(Nb3Si4)4
_symmetry_space_group_name_H-M   'P 1'
_cell_length_a   7.06219591
_cell_length_b   7.06161608
_cell_length_c   13.01685500
_cell_angle_alpha   90.00756196
_cell_angle_beta   89.93967964
_cell_angle_gamma   89.99536693
_symmetry_Int_Tables_number   1
_chemical_formula_structural   Lu3Np5(Nb3Si4)4
_chemical_formula_sum   'Lu3 Np5 Nb12 Si16'
_cell_volume   649.15691137
_cell_formula_units_Z   1
loop_
 _symmetry_equiv_pos_site_id
 _symmetry_equiv_pos_as_xyz
  1  'x, y, z'
loop_
 _atom_site_type_symbol
 _atom_site_label
 _atom_site_symmetry_multiplicity
 _atom_site_fract_x
 _atom_site_fract_y
 _atom_site_fract_z
 _atom_site_occupancy
  Lu  Lu0  1  0.998791  0.341443  0.217572  1
  Lu  Lu1  1  0.000732  0.658732  0.717849  1
  Lu  Lu2  1  0.158723  0.498165  0.467643  1
  Np  Np3  1  0.507949  0.838097  0.030915  1
  Np  Np4  1  0.835650  0.508239  0.968727  1
  Np  Np5  1  0.496795  0.157869  0.532133  1
  Np  Np6  1  0.342634  0.998655  0.782162  1
  Np  Np7  1  0.655011  0.001173  0.283301  1
  Nb  Nb8  1  0.171237  0.171377  0.998653  1
  Nb  Nb9  1  0.826855  0.830308  0.498856  1
  Nb  Nb10  1  0.331003  0.673064  0.249495  1
  Nb  Nb11  1  0.670203  0.328198  0.749646  1
  Nb  Nb12  1  0.154282  0.993081  0.377256  1
  Nb  Nb13  1  0.846702  0.004577  0.876813  1
  Nb  Nb14  1  0.506026  0.653664  0.626770  1
  Nb  Nb15  1  0.347657  0.497973  0.874191  1
  Nb  Nb16  1  0.496189  0.346615  0.126962  1
  Nb  Nb17  1  0.651566  0.501947  0.375250  1
  Nb  Nb18  1  0.998735  0.151514  0.624398  1
  Nb  Nb19  1  0.003219  0.846284  0.124704  1
  Si  Si20  1  0.292121  0.045857  0.184905  1
  Si  Si21  1  0.708507  0.955444  0.685498  1
  Si  Si22  1  0.453711  0.791321  0.436131  1
  Si  Si23  1  0.204773  0.544283  0.064046  1
  Si  Si24  1  0.545616  0.207824  0.936064  1
  Si  Si25  1  0.796328  0.454325  0.563702  1
  Si  Si26  1  0.043847  0.297601  0.813562  1
  Si  Si27  1  0.955035  0.703943  0.313858  1
  Si  Si28  1  0.363129  0.295954  0.318236  1
  Si  Si29  1  0.635006  0.705784  0.816297  1
  Si  Si30  1  0.203615  0.862302  0.568342  1
  Si  Si31  1  0.132698  0.794464  0.931503  1
  Si  Si32  1  0.796873  0.135709  0.068561  1
  Si  Si33  1  0.867865  0.204828  0.431410  1
  Si  Si34  1  0.295143  0.367037  0.681299  1
  Si  Si35  1  0.705774  0.632348  0.183285  1
