# generated using pymatgen
data_Nd2Sm2(CuNi)7
_symmetry_space_group_name_H-M   'P 1'
_cell_length_a   5.07096734
_cell_length_b   5.05747198
_cell_length_c   12.61531392
_cell_angle_alpha   78.43316069
_cell_angle_beta   78.28601397
_cell_angle_gamma   60.42403301
_symmetry_Int_Tables_number   1
_chemical_formula_structural   Nd2Sm2(CuNi)7
_chemical_formula_sum   'Nd2 Sm2 Cu7 Ni7'
_cell_volume   273.60178064
_cell_formula_units_Z   1
loop_
 _symmetry_equiv_pos_site_id
 _symmetry_equiv_pos_as_xyz
  1  'x, y, z'
loop_
 _atom_site_type_symbol
 _atom_site_label
 _atom_site_symmetry_multiplicity
 _atom_site_fract_x
 _atom_site_fract_y
 _atom_site_fract_z
 _atom_site_occupancy
  Nd  Nd0  1  0.947822  0.947914  0.157318  1
  Nd  Nd1  1  0.053462  0.053002  0.839022  1
  Sm  Sm2  1  0.851657  0.851955  0.446813  1
  Sm  Sm3  1  0.146230  0.146483  0.559022  1
  Cu  Cu4  1  0.724916  0.719791  0.832833  1
  Cu  Cu5  1  0.273862  0.276805  0.166418  1
  Cu  Cu6  1  0.615946  0.613033  0.165631  1
  Cu  Cu7  1  0.386062  0.390924  0.833129  1
  Cu  Cu8  1  0.500535  0.000235  0.999041  1
  Cu  Cu9  1  0.500058  0.499895  0.999842  1
  Cu  Cu10  1  0.389921  0.389983  0.329818  1
  Ni  Ni11  1  0.500089  0.500087  0.501088  1
  Ni  Ni12  1  0.000281  0.500074  0.999487  1
  Ni  Ni13  1  0.888005  0.391004  0.331576  1
  Ni  Ni14  1  0.390381  0.888937  0.331602  1
  Ni  Ni15  1  0.610147  0.610444  0.668868  1
  Ni  Ni16  1  0.111089  0.609339  0.669095  1
  Ni  Ni17  1  0.609542  0.110092  0.669396  1
