# generated using pymatgen
data_Li4YbPr3Si8
_symmetry_space_group_name_H-M   'P 1'
_cell_length_a   3.87034900
_cell_length_b   7.83562436
_cell_length_c   10.56002709
_cell_angle_alpha   89.93220182
_cell_angle_beta   90.00000000
_cell_angle_gamma   90.00000000
_symmetry_Int_Tables_number   1
_chemical_formula_structural   Li4YbPr3Si8
_chemical_formula_sum   'Li4 Yb1 Pr3 Si8'
_cell_volume   320.24950278
_cell_formula_units_Z   1
loop_
 _symmetry_equiv_pos_site_id
 _symmetry_equiv_pos_as_xyz
  1  'x, y, z'
loop_
 _atom_site_type_symbol
 _atom_site_label
 _atom_site_symmetry_multiplicity
 _atom_site_fract_x
 _atom_site_fract_y
 _atom_site_fract_z
 _atom_site_occupancy
  Li  Li0  1  0.250000  0.998164  0.391008  1
  Li  Li1  1  0.750000  0.005222  0.609463  1
  Li  Li2  1  0.250000  0.494196  0.112280  1
  Li  Li3  1  0.750000  0.503999  0.890217  1
  Yb  Yb4  1  0.750000  0.365566  0.365681  1
  Pr  Pr5  1  0.250000  0.133941  0.864172  1
  Pr  Pr6  1  0.750000  0.866111  0.134601  1
  Pr  Pr7  1  0.250000  0.633099  0.633884  1
  Si  Si8  1  0.750000  0.271412  0.070211  1
  Si  Si9  1  0.250000  0.726998  0.930221  1
  Si  Si10  1  0.750000  0.772853  0.430122  1
  Si  Si11  1  0.250000  0.232425  0.567791  1
  Si  Si12  1  0.750000  0.832124  0.821397  1
  Si  Si13  1  0.250000  0.165615  0.176537  1
  Si  Si14  1  0.750000  0.332980  0.678117  1
  Si  Si15  1  0.250000  0.665296  0.324299  1
