# generated using pymatgen
data_ErSc4Bi2Sb
_symmetry_space_group_name_H-M   'P 1'
_cell_length_a   7.79475000
_cell_length_b   9.01105400
_cell_length_c   11.46618000
_cell_angle_alpha   90.00000000
_cell_angle_beta   90.00000000
_cell_angle_gamma   90.00000000
_symmetry_Int_Tables_number   1
_chemical_formula_structural   ErSc4Bi2Sb
_chemical_formula_sum   'Er4 Sc16 Bi8 Sb4'
_cell_volume   805.37202137
_cell_formula_units_Z   4
loop_
 _symmetry_equiv_pos_site_id
 _symmetry_equiv_pos_as_xyz
  1  'x, y, z'
loop_
 _atom_site_type_symbol
 _atom_site_label
 _atom_site_symmetry_multiplicity
 _atom_site_fract_x
 _atom_site_fract_y
 _atom_site_fract_z
 _atom_site_occupancy
  Er  Er0  1  0.318047  0.250000  0.217769  1
  Er  Er1  1  0.818047  0.250000  0.282231  1
  Er  Er2  1  0.681953  0.750000  0.782231  1
  Er  Er3  1  0.181953  0.750000  0.717769  1
  Sc  Sc4  1  0.349189  0.750000  0.216968  1
  Sc  Sc5  1  0.849189  0.750000  0.283032  1
  Sc  Sc6  1  0.650811  0.250000  0.783032  1
  Sc  Sc7  1  0.150811  0.250000  0.716968  1
  Sc  Sc8  1  0.688328  0.565417  0.060385  1
  Sc  Sc9  1  0.188328  0.934583  0.439615  1
  Sc  Sc10  1  0.311672  0.065417  0.939615  1
  Sc  Sc11  1  0.811672  0.434583  0.560385  1
  Sc  Sc12  1  0.311672  0.434583  0.939615  1
  Sc  Sc13  1  0.811672  0.065417  0.560385  1
  Sc  Sc14  1  0.688328  0.934583  0.060385  1
  Sc  Sc15  1  0.188328  0.565417  0.439615  1
  Sc  Sc16  1  0.478142  0.250000  0.488551  1
  Sc  Sc17  1  0.978142  0.250000  0.011449  1
  Sc  Sc18  1  0.521858  0.750000  0.511449  1
  Sc  Sc19  1  0.021858  0.750000  0.988551  1
  Bi  Bi20  1  0.563861  0.990781  0.327825  1
  Bi  Bi21  1  0.063861  0.509219  0.172175  1
  Bi  Bi22  1  0.436139  0.490781  0.672175  1
  Bi  Bi23  1  0.936139  0.009219  0.827825  1
  Bi  Bi24  1  0.436139  0.009219  0.672175  1
  Bi  Bi25  1  0.936139  0.490781  0.827825  1
  Bi  Bi26  1  0.563861  0.509219  0.327825  1
  Bi  Bi27  1  0.063861  0.990781  0.172175  1
  Sb  Sb28  1  0.402327  0.750000  0.966166  1
  Sb  Sb29  1  0.902327  0.750000  0.533834  1
  Sb  Sb30  1  0.597673  0.250000  0.033834  1
  Sb  Sb31  1  0.097673  0.250000  0.466166  1
