# generated using pymatgen
data_Hf4MoOsRh2
_symmetry_space_group_name_H-M   'P 1'
_cell_length_a   6.58462500
_cell_length_b   4.61373200
_cell_length_c   9.22847600
_cell_angle_alpha   90.00000000
_cell_angle_beta   89.99998509
_cell_angle_gamma   90.00000000
_symmetry_Int_Tables_number   1
_chemical_formula_structural   Hf4MoOsRh2
_chemical_formula_sum   'Hf8 Mo2 Os2 Rh4'
_cell_volume   280.35828685
_cell_formula_units_Z   2
loop_
 _symmetry_equiv_pos_site_id
 _symmetry_equiv_pos_as_xyz
  1  'x, y, z'
loop_
 _atom_site_type_symbol
 _atom_site_label
 _atom_site_symmetry_multiplicity
 _atom_site_fract_x
 _atom_site_fract_y
 _atom_site_fract_z
 _atom_site_occupancy
  Hf  Hf0  1  0.499244  0.750000  0.124474  1
  Hf  Hf1  1  0.000752  0.750000  0.124475  1
  Hf  Hf2  1  0.500764  0.249999  0.375553  1
  Hf  Hf3  1  0.999233  0.249999  0.375555  1
  Hf  Hf4  1  0.999990  0.750000  0.625157  1
  Hf  Hf5  1  0.500009  0.750000  0.625160  1
  Hf  Hf6  1  0.999985  0.249999  0.874807  1
  Hf  Hf7  1  0.500017  0.249999  0.874811  1
  Mo  Mo8  1  0.749999  0.249999  0.124058  1
  Mo  Mo9  1  0.250002  0.750000  0.375961  1
  Os  Os10  1  0.750001  0.249999  0.626551  1
  Os  Os11  1  0.250000  0.750000  0.873506  1
  Rh  Rh12  1  0.249993  0.249999  0.124275  1
  Rh  Rh13  1  0.750000  0.750000  0.375709  1
  Rh  Rh14  1  0.250003  0.249999  0.625755  1
  Rh  Rh15  1  0.750006  0.750000  0.874193  1
