# generated using pymatgen
data_LiPr6OsI12
_symmetry_space_group_name_H-M   'P 1'
_cell_length_a   10.14935424
_cell_length_b   10.14935322
_cell_length_c   10.14935300
_cell_angle_alpha   107.25244612
_cell_angle_beta   107.25245025
_cell_angle_gamma   107.25243464
_symmetry_Int_Tables_number   1
_chemical_formula_structural   LiPr6OsI12
_chemical_formula_sum   'Li1 Pr6 Os1 I12'
_cell_volume   864.61862583
_cell_formula_units_Z   1
loop_
 _symmetry_equiv_pos_site_id
 _symmetry_equiv_pos_as_xyz
  1  'x, y, z'
loop_
 _atom_site_type_symbol
 _atom_site_label
 _atom_site_symmetry_multiplicity
 _atom_site_fract_x
 _atom_site_fract_y
 _atom_site_fract_z
 _atom_site_occupancy
  Li  Li0  1  0.500000  0.500000  0.500000  1
  Pr  Pr1  1  0.104603  0.033092  0.308172  1
  Pr  Pr2  1  0.308173  0.104603  0.033091  1
  Pr  Pr3  1  0.033091  0.308173  0.104603  1
  Pr  Pr4  1  0.895397  0.966909  0.691828  1
  Pr  Pr5  1  0.691828  0.895397  0.966909  1
  Pr  Pr6  1  0.966910  0.691828  0.895397  1
  Os  Os7  1  0.000000  0.000000  0.000000  1
  I  I8  1  0.165744  0.383986  0.458542  1
  I  I9  1  0.458541  0.165745  0.383986  1
  I  I10  1  0.383985  0.458542  0.165745  1
  I  I11  1  0.834256  0.616015  0.541459  1
  I  I12  1  0.541459  0.834256  0.616015  1
  I  I13  1  0.616016  0.541459  0.834255  1
  I  I14  1  0.313943  0.775045  0.926491  1
  I  I15  1  0.926492  0.313943  0.775044  1
  I  I16  1  0.775044  0.926492  0.313943  1
  I  I17  1  0.686058  0.224956  0.073509  1
  I  I18  1  0.073509  0.686058  0.224957  1
  I  I19  1  0.224956  0.073509  0.686058  1
