# generated using pymatgen
data_Tb3Mn(Ni4P3)2
_symmetry_space_group_name_H-M   'P 1'
_cell_length_a   3.78464700
_cell_length_b   10.56442500
_cell_length_c   12.33266600
_cell_angle_alpha   90.00000000
_cell_angle_beta   90.00000000
_cell_angle_gamma   90.00000000
_symmetry_Int_Tables_number   1
_chemical_formula_structural   Tb3Mn(Ni4P3)2
_chemical_formula_sum   'Tb6 Mn2 Ni16 P12'
_cell_volume   493.09229066
_cell_formula_units_Z   2
loop_
 _symmetry_equiv_pos_site_id
 _symmetry_equiv_pos_as_xyz
  1  'x, y, z'
loop_
 _atom_site_type_symbol
 _atom_site_label
 _atom_site_symmetry_multiplicity
 _atom_site_fract_x
 _atom_site_fract_y
 _atom_site_fract_z
 _atom_site_occupancy
  Tb  Tb0  1  0.000000  0.500000  0.521276  1
  Tb  Tb1  1  0.500000  0.000000  0.478724  1
  Tb  Tb2  1  0.500000  0.816575  0.205334  1
  Tb  Tb3  1  0.500000  0.183425  0.205334  1
  Tb  Tb4  1  0.000000  0.683425  0.794666  1
  Tb  Tb5  1  0.000000  0.316575  0.794666  1
  Mn  Mn6  1  0.500000  0.500000  0.154021  1
  Mn  Mn7  1  0.000000  0.000000  0.845979  1
  Ni  Ni8  1  0.500000  0.500000  0.700051  1
  Ni  Ni9  1  0.000000  0.000000  0.299949  1
  Ni  Ni10  1  0.000000  0.500000  0.983764  1
  Ni  Ni11  1  0.500000  0.000000  0.016236  1
  Ni  Ni12  1  0.500000  0.333015  0.992326  1
  Ni  Ni13  1  0.500000  0.666985  0.992326  1
  Ni  Ni14  1  0.000000  0.166985  0.007674  1
  Ni  Ni15  1  0.000000  0.833015  0.007674  1
  Ni  Ni16  1  0.500000  0.300778  0.428165  1
  Ni  Ni17  1  0.500000  0.699222  0.428165  1
  Ni  Ni18  1  0.000000  0.199222  0.571835  1
  Ni  Ni19  1  0.000000  0.800778  0.571835  1
  Ni  Ni20  1  0.500000  0.879953  0.710653  1
  Ni  Ni21  1  0.500000  0.120047  0.710653  1
  Ni  Ni22  1  0.000000  0.620047  0.289347  1
  Ni  Ni23  1  0.000000  0.379953  0.289347  1
  P  P24  1  0.500000  0.500000  0.877560  1
  P  P25  1  0.000000  0.000000  0.122440  1
  P  P26  1  0.500000  0.500000  0.344818  1
  P  P27  1  0.000000  0.000000  0.655182  1
  P  P28  1  0.500000  0.312936  0.613986  1
  P  P29  1  0.500000  0.687064  0.613986  1
  P  P30  1  0.000000  0.187064  0.386014  1
  P  P31  1  0.000000  0.812936  0.386014  1
  P  P32  1  0.500000  0.847055  0.893448  1
  P  P33  1  0.500000  0.152945  0.893448  1
  P  P34  1  0.000000  0.652945  0.106552  1
  P  P35  1  0.000000  0.347055  0.106552  1
