# generated using pymatgen
data_NdTm2(P2Rh3)3
_symmetry_space_group_name_H-M   'P 1'
_cell_length_a   3.92449900
_cell_length_b   11.22069000
_cell_length_c   12.81967200
_cell_angle_alpha   90.00000000
_cell_angle_beta   90.00000000
_cell_angle_gamma   90.00000000
_symmetry_Int_Tables_number   1
_chemical_formula_structural   NdTm2(P2Rh3)3
_chemical_formula_sum   'Nd2 Tm4 P12 Rh18'
_cell_volume   564.52177762
_cell_formula_units_Z   2
loop_
 _symmetry_equiv_pos_site_id
 _symmetry_equiv_pos_as_xyz
  1  'x, y, z'
loop_
 _atom_site_type_symbol
 _atom_site_label
 _atom_site_symmetry_multiplicity
 _atom_site_fract_x
 _atom_site_fract_y
 _atom_site_fract_z
 _atom_site_occupancy
  Nd  Nd0  1  0.000000  0.500000  0.520784  1
  Nd  Nd1  1  0.500000  0.000000  0.479216  1
  Tm  Tm2  1  0.500000  0.815137  0.204285  1
  Tm  Tm3  1  0.500000  0.184863  0.204285  1
  Tm  Tm4  1  0.000000  0.684863  0.795715  1
  Tm  Tm5  1  0.000000  0.315137  0.795715  1
  P  P6  1  0.500000  0.500000  0.879248  1
  P  P7  1  0.000000  0.000000  0.120752  1
  P  P8  1  0.500000  0.500000  0.347646  1
  P  P9  1  0.000000  0.000000  0.652354  1
  P  P10  1  0.500000  0.314229  0.620279  1
  P  P11  1  0.500000  0.685771  0.620279  1
  P  P12  1  0.000000  0.185771  0.379721  1
  P  P13  1  0.000000  0.814229  0.379721  1
  P  P14  1  0.500000  0.845707  0.893241  1
  P  P15  1  0.500000  0.154293  0.893241  1
  P  P16  1  0.000000  0.654293  0.106759  1
  P  P17  1  0.000000  0.345707  0.106759  1
  Rh  Rh18  1  0.500000  0.500000  0.167534  1
  Rh  Rh19  1  0.000000  0.000000  0.832466  1
  Rh  Rh20  1  0.500000  0.500000  0.704656  1
  Rh  Rh21  1  0.000000  0.000000  0.295344  1
  Rh  Rh22  1  0.000000  0.500000  0.978684  1
  Rh  Rh23  1  0.500000  0.000000  0.021316  1
  Rh  Rh24  1  0.500000  0.333987  0.993300  1
  Rh  Rh25  1  0.500000  0.666013  0.993300  1
  Rh  Rh26  1  0.000000  0.166013  0.006700  1
  Rh  Rh27  1  0.000000  0.833987  0.006700  1
  Rh  Rh28  1  0.500000  0.291722  0.428526  1
  Rh  Rh29  1  0.500000  0.708278  0.428526  1
  Rh  Rh30  1  0.000000  0.208278  0.571474  1
  Rh  Rh31  1  0.000000  0.791722  0.571474  1
  Rh  Rh32  1  0.500000  0.872201  0.713315  1
  Rh  Rh33  1  0.500000  0.127799  0.713315  1
  Rh  Rh34  1  0.000000  0.627799  0.286685  1
  Rh  Rh35  1  0.000000  0.372201  0.286685  1
