# generated using pymatgen
data_LiSmTmP2
_symmetry_space_group_name_H-M   'P 1'
_cell_length_a   4.06777100
_cell_length_b   4.06777110
_cell_length_c   13.92080100
_cell_angle_alpha   90.00000000
_cell_angle_beta   90.00000000
_cell_angle_gamma   119.99997482
_symmetry_Int_Tables_number   1
_chemical_formula_structural   LiSmTmP2
_chemical_formula_sum   'Li2 Sm2 Tm2 P4'
_cell_volume   199.48395453
_cell_formula_units_Z   2
loop_
 _symmetry_equiv_pos_site_id
 _symmetry_equiv_pos_as_xyz
  1  'x, y, z'
loop_
 _atom_site_type_symbol
 _atom_site_label
 _atom_site_symmetry_multiplicity
 _atom_site_fract_x
 _atom_site_fract_y
 _atom_site_fract_z
 _atom_site_occupancy
  Li  Li0  1  0.000000  0.000000  0.745921  1
  Li  Li1  1  0.000000  0.000000  0.245921  1
  Sm  Sm2  1  0.333333  0.666667  0.890510  1
  Sm  Sm3  1  0.666667  0.333333  0.390510  1
  Tm  Tm4  1  0.666667  0.333333  0.110757  1
  Tm  Tm5  1  0.333333  0.666667  0.610757  1
  P  P6  1  0.000000  0.000000  0.007099  1
  P  P7  1  0.333333  0.666667  0.245712  1
  P  P8  1  0.666667  0.333333  0.745712  1
  P  P9  1  0.000000  0.000000  0.507099  1
