# generated using pymatgen
data_Sc12Mn2RhPb2
_symmetry_space_group_name_H-M   'P 1'
_cell_length_a   7.85268438
_cell_length_b   7.85268358
_cell_length_c   7.85268400
_cell_angle_alpha   108.79832336
_cell_angle_beta   108.79832137
_cell_angle_gamma   110.82557203
_symmetry_Int_Tables_number   1
_chemical_formula_structural   Sc12Mn2RhPb2
_chemical_formula_sum   'Sc12 Mn2 Rh1 Pb2'
_cell_volume   372.60605900
_cell_formula_units_Z   1
loop_
 _symmetry_equiv_pos_site_id
 _symmetry_equiv_pos_as_xyz
  1  'x, y, z'
loop_
 _atom_site_type_symbol
 _atom_site_label
 _atom_site_symmetry_multiplicity
 _atom_site_fract_x
 _atom_site_fract_y
 _atom_site_fract_z
 _atom_site_occupancy
  Sc  Sc0  1  0.305904  0.305904  0.611807  1
  Sc  Sc1  1  0.694096  0.694096  0.388193  1
  Sc  Sc2  1  0.305904  0.694096  0.000000  1
  Sc  Sc3  1  0.694096  0.305904  0.000000  1
  Sc  Sc4  1  0.434126  0.198457  0.235670  1
  Sc  Sc5  1  0.565874  0.801543  0.764330  1
  Sc  Sc6  1  0.962786  0.198457  0.764330  1
  Sc  Sc7  1  0.198457  0.962786  0.764330  1
  Sc  Sc8  1  0.037214  0.801543  0.235670  1
  Sc  Sc9  1  0.801543  0.037214  0.235670  1
  Sc  Sc10  1  0.198457  0.434126  0.235670  1
  Sc  Sc11  1  0.801543  0.565874  0.764330  1
  Mn  Mn12  1  0.382763  0.382763  0.000000  1
  Mn  Mn13  1  0.617237  0.617237  0.000000  1
  Rh  Rh14  1  0.000000  0.000000  0.000000  1
  Pb  Pb15  1  0.500000  0.000000  0.500000  1
  Pb  Pb16  1  0.000000  0.500000  0.500000  1
