# generated using pymatgen
data_Hf7Sc(V3Si4)4
_symmetry_space_group_name_H-M   'P 1'
_cell_length_a   6.60636147
_cell_length_b   6.60641785
_cell_length_c   12.22698606
_cell_angle_alpha   89.98542023
_cell_angle_beta   90.01110252
_cell_angle_gamma   90.03809558
_symmetry_Int_Tables_number   1
_chemical_formula_structural   Hf7Sc(V3Si4)4
_chemical_formula_sum   'Hf7 Sc1 V12 Si16'
_cell_volume   533.63913397
_cell_formula_units_Z   1
loop_
 _symmetry_equiv_pos_site_id
 _symmetry_equiv_pos_as_xyz
  1  'x, y, z'
loop_
 _atom_site_type_symbol
 _atom_site_label
 _atom_site_symmetry_multiplicity
 _atom_site_fract_x
 _atom_site_fract_y
 _atom_site_fract_z
 _atom_site_occupancy
  Hf  Hf0  1  0.002786  0.662354  0.029886  1
  Hf  Hf1  1  0.837439  0.503093  0.279910  1
  Hf  Hf2  1  0.162411  0.496804  0.780118  1
  Hf  Hf3  1  0.503137  0.837280  0.719932  1
  Hf  Hf4  1  0.496874  0.162121  0.219596  1
  Hf  Hf5  1  0.995783  0.339195  0.529997  1
  Hf  Hf6  1  0.662152  0.002990  0.970093  1
  Sc  Sc7  1  0.337267  0.998288  0.470618  1
  V  V8  1  0.333433  0.333507  0.000011  1
  V  V9  1  0.166052  0.833825  0.249545  1
  V  V10  1  0.833597  0.166188  0.749811  1
  V  V11  1  0.668488  0.664422  0.500032  1
  V  V12  1  0.003208  0.159854  0.126767  1
  V  V13  1  0.341042  0.504495  0.376167  1
  V  V14  1  0.660040  0.496109  0.877072  1
  V  V15  1  0.505219  0.340537  0.623792  1
  V  V16  1  0.495435  0.659422  0.123250  1
  V  V17  1  0.995057  0.839514  0.627481  1
  V  V18  1  0.159813  0.004089  0.873400  1
  V  V19  1  0.841211  0.995485  0.372334  1
  Si  Si20  1  0.290707  0.961058  0.064431  1
  Si  Si21  1  0.537638  0.792912  0.315334  1
  Si  Si22  1  0.461501  0.208811  0.814395  1
  Si  Si23  1  0.791425  0.538617  0.685943  1
  Si  Si24  1  0.208186  0.461107  0.185506  1
  Si  Si25  1  0.707690  0.037456  0.563611  1
  Si  Si26  1  0.961035  0.290986  0.935560  1
  Si  Si27  1  0.040074  0.709946  0.435501  1
  Si  Si28  1  0.705242  0.373675  0.071565  1
  Si  Si29  1  0.127830  0.204711  0.321691  1
  Si  Si30  1  0.873627  0.794620  0.821512  1
  Si  Si31  1  0.205088  0.126313  0.678829  1
  Si  Si32  1  0.793960  0.873027  0.178502  1
  Si  Si33  1  0.295792  0.627512  0.570761  1
  Si  Si34  1  0.373566  0.705480  0.928477  1
  Si  Si35  1  0.626195  0.294197  0.428572  1
