# generated using pymatgen
data_DyEr3CuPt3
_symmetry_space_group_name_H-M   'P 1'
_cell_length_a   4.47238200
_cell_length_b   5.57422287
_cell_length_c   6.97198858
_cell_angle_alpha   89.60188583
_cell_angle_beta   90.00000000
_cell_angle_gamma   90.00000000
_symmetry_Int_Tables_number   1
_chemical_formula_structural   DyEr3CuPt3
_chemical_formula_sum   'Dy1 Er3 Cu1 Pt3'
_cell_volume   173.80785611
_cell_formula_units_Z   1
loop_
 _symmetry_equiv_pos_site_id
 _symmetry_equiv_pos_as_xyz
  1  'x, y, z'
loop_
 _atom_site_type_symbol
 _atom_site_label
 _atom_site_symmetry_multiplicity
 _atom_site_fract_x
 _atom_site_fract_y
 _atom_site_fract_z
 _atom_site_occupancy
  Dy  Dy0  1  0.000000  0.640574  0.317387  1
  Er  Er1  1  0.000000  0.856107  0.819661  1
  Er  Er2  1  0.500000  0.363863  0.687800  1
  Er  Er3  1  0.500000  0.139119  0.175589  1
  Cu  Cu4  1  0.000000  0.138746  0.464079  1
  Pt  Pt5  1  0.000000  0.338824  0.955267  1
  Pt  Pt6  1  0.500000  0.866709  0.535859  1
  Pt  Pt7  1  0.500000  0.656061  0.044358  1
