# generated using pymatgen
data_Y3Ho3Al24(Ir3Ru)2
_symmetry_space_group_name_H-M   'P 1'
_cell_length_a   8.83015000
_cell_length_b   8.81691353
_cell_length_c   9.48585900
_cell_angle_alpha   90.00000000
_cell_angle_beta   90.00000000
_cell_angle_gamma   120.06829393
_symmetry_Int_Tables_number   1
_chemical_formula_structural   Y3Ho3Al24(Ir3Ru)2
_chemical_formula_sum   'Y3 Ho3 Al24 Ir6 Ru2'
_cell_volume   639.13511239
_cell_formula_units_Z   1
loop_
 _symmetry_equiv_pos_site_id
 _symmetry_equiv_pos_as_xyz
  1  'x, y, z'
loop_
 _atom_site_type_symbol
 _atom_site_label
 _atom_site_symmetry_multiplicity
 _atom_site_fract_x
 _atom_site_fract_y
 _atom_site_fract_z
 _atom_site_occupancy
  Y  Y0  1  0.190883  0.383502  0.250000  1
  Y  Y1  1  0.808746  0.616725  0.750000  1
  Y  Y2  1  0.616293  0.808628  0.250000  1
  Ho  Ho3  1  0.385573  0.192161  0.750000  1
  Ho  Ho4  1  0.192942  0.806148  0.250000  1
  Ho  Ho5  1  0.806746  0.193064  0.750000  1
  Al  Al6  1  0.333329  0.666623  0.029906  1
  Al  Al7  1  0.666811  0.333462  0.969500  1
  Al  Al8  1  0.666811  0.333462  0.530500  1
  Al  Al9  1  0.333329  0.666623  0.470094  1
  Al  Al10  1  0.163456  0.326724  0.576628  1
  Al  Al11  1  0.836409  0.672892  0.423837  1
  Al  Al12  1  0.673062  0.836707  0.576475  1
  Al  Al13  1  0.836409  0.672892  0.076163  1
  Al  Al14  1  0.326828  0.163273  0.424298  1
  Al  Al15  1  0.163456  0.326724  0.923372  1
  Al  Al16  1  0.163546  0.837032  0.576530  1
  Al  Al17  1  0.326828  0.163273  0.075702  1
  Al  Al18  1  0.836348  0.163358  0.423944  1
  Al  Al19  1  0.673062  0.836707  0.923525  1
  Al  Al20  1  0.836348  0.163358  0.076056  1
  Al  Al21  1  0.163546  0.837032  0.923470  1
  Al  Al22  1  0.561632  0.124797  0.250000  1
  Al  Al23  1  0.437810  0.875086  0.750000  1
  Al  Al24  1  0.874409  0.437607  0.250000  1
  Al  Al25  1  0.124887  0.562078  0.750000  1
  Al  Al26  1  0.562563  0.436706  0.250000  1
  Al  Al27  1  0.436814  0.562970  0.750000  1
  Al  Al28  1  0.001191  0.998504  0.250000  1
  Al  Al29  1  0.001364  0.002573  0.750000  1
  Ir  Ir30  1  0.499862  0.000162  0.999812  1
  Ir  Ir31  1  0.999993  0.499998  0.000008  1
  Ir  Ir32  1  0.499862  0.000162  0.500188  1
  Ir  Ir33  1  0.499787  0.499660  0.999743  1
  Ir  Ir34  1  0.999993  0.499998  0.499992  1
  Ir  Ir35  1  0.499787  0.499660  0.500257  1
  Ru  Ru36  1  0.999643  0.999833  0.999923  1
  Ru  Ru37  1  0.999643  0.999833  0.500077  1
