# generated using pymatgen
data_ErSc9(In2Pt)4
_symmetry_space_group_name_H-M   'P 1'
_cell_length_a   3.45456000
_cell_length_b   7.79730542
_cell_length_c   17.61580614
_cell_angle_alpha   90.03937347
_cell_angle_beta   90.00000000
_cell_angle_gamma   90.00000000
_symmetry_Int_Tables_number   1
_chemical_formula_structural   ErSc9(In2Pt)4
_chemical_formula_sum   'Er1 Sc9 In8 Pt4'
_cell_volume   474.50381177
_cell_formula_units_Z   1
loop_
 _symmetry_equiv_pos_site_id
 _symmetry_equiv_pos_as_xyz
  1  'x, y, z'
loop_
 _atom_site_type_symbol
 _atom_site_label
 _atom_site_symmetry_multiplicity
 _atom_site_fract_x
 _atom_site_fract_y
 _atom_site_fract_z
 _atom_site_occupancy
  Er  Er0  1  0.000000  0.747386  0.279695  1
  Sc  Sc1  1  0.000000  0.121788  0.417904  1
  Sc  Sc2  1  0.000000  0.881049  0.585399  1
  Sc  Sc3  1  0.000000  0.379110  0.915454  1
  Sc  Sc4  1  0.000000  0.619018  0.082131  1
  Sc  Sc5  1  0.000000  0.248723  0.221285  1
  Sc  Sc6  1  0.000000  0.749517  0.777880  1
  Sc  Sc7  1  0.000000  0.251668  0.721992  1
  Sc  Sc8  1  0.000000  0.999557  0.998333  1
  Sc  Sc9  1  0.000000  0.500965  0.500545  1
  In  In10  1  0.500000  0.421102  0.354072  1
  In  In11  1  0.500000  0.575145  0.647291  1
  In  In12  1  0.500000  0.074309  0.852224  1
  In  In13  1  0.500000  0.927779  0.144320  1
  In  In14  1  0.500000  0.291839  0.063914  1
  In  In15  1  0.500000  0.705361  0.934020  1
  In  In16  1  0.500000  0.206997  0.566151  1
  In  In17  1  0.500000  0.797858  0.438776  1
  Pt  Pt18  1  0.500000  0.040808  0.305983  1
  Pt  Pt19  1  0.500000  0.967261  0.695636  1
  Pt  Pt20  1  0.500000  0.466567  0.805185  1
  Pt  Pt21  1  0.500000  0.526194  0.191810  1
