# generated using pymatgen
data_Y8Co(Si4Pt)3
_symmetry_space_group_name_H-M   'P 1'
_cell_length_a   8.13865300
_cell_length_b   8.13865253
_cell_length_c   7.97601300
_cell_angle_alpha   90.00000000
_cell_angle_beta   90.00000000
_cell_angle_gamma   119.99999783
_symmetry_Int_Tables_number   1
_chemical_formula_structural   Y8Co(Si4Pt)3
_chemical_formula_sum   'Y8 Co1 Si12 Pt3'
_cell_volume   457.53206294
_cell_formula_units_Z   1
loop_
 _symmetry_equiv_pos_site_id
 _symmetry_equiv_pos_as_xyz
  1  'x, y, z'
loop_
 _atom_site_type_symbol
 _atom_site_label
 _atom_site_symmetry_multiplicity
 _atom_site_fract_x
 _atom_site_fract_y
 _atom_site_fract_z
 _atom_site_occupancy
  Y  Y0  1  0.507361  0.014721  0.245835  1
  Y  Y1  1  0.488797  0.977592  0.752280  1
  Y  Y2  1  0.985279  0.492639  0.245835  1
  Y  Y3  1  0.022408  0.511203  0.752280  1
  Y  Y4  1  0.507361  0.492639  0.245835  1
  Y  Y5  1  0.488797  0.511203  0.752280  1
  Y  Y6  1  0.000000  0.000000  0.248689  1
  Y  Y7  1  0.000000  0.000000  0.751799  1
  Co  Co8  1  0.333333  0.666667  0.040235  1
  Si  Si9  1  0.173318  0.346637  0.003262  1
  Si  Si10  1  0.836385  0.672769  0.997315  1
  Si  Si11  1  0.653363  0.826682  0.003262  1
  Si  Si12  1  0.834528  0.669057  0.500672  1
  Si  Si13  1  0.327231  0.163615  0.997315  1
  Si  Si14  1  0.165263  0.330527  0.499777  1
  Si  Si15  1  0.173318  0.826682  0.003262  1
  Si  Si16  1  0.330943  0.165472  0.500672  1
  Si  Si17  1  0.836385  0.163615  0.997315  1
  Si  Si18  1  0.669473  0.834737  0.499777  1
  Si  Si19  1  0.834528  0.165472  0.500672  1
  Si  Si20  1  0.165263  0.834737  0.499777  1
  Pt  Pt21  1  0.666667  0.333333  0.969769  1
  Pt  Pt22  1  0.666667  0.333333  0.530055  1
  Pt  Pt23  1  0.333333  0.666667  0.462032  1
