# generated using pymatgen
data_Tb8ZnSI12
_symmetry_space_group_name_H-M   'P 1'
_cell_length_a   4.17340800
_cell_length_b   14.09194028
_cell_length_c   14.76176785
_cell_angle_alpha   90.13193766
_cell_angle_beta   90.00000000
_cell_angle_gamma   90.00000000
_symmetry_Int_Tables_number   1
_chemical_formula_structural   Tb8ZnSI12
_chemical_formula_sum   'Tb8 Zn1 S1 I12'
_cell_volume   868.15817248
_cell_formula_units_Z   1
loop_
 _symmetry_equiv_pos_site_id
 _symmetry_equiv_pos_as_xyz
  1  'x, y, z'
loop_
 _atom_site_type_symbol
 _atom_site_label
 _atom_site_symmetry_multiplicity
 _atom_site_fract_x
 _atom_site_fract_y
 _atom_site_fract_z
 _atom_site_occupancy
  Tb  Tb0  1  0.500000  0.111466  0.353205  1
  Tb  Tb1  1  0.500000  0.888534  0.646795  1
  Tb  Tb2  1  0.500000  0.617604  0.153018  1
  Tb  Tb3  1  0.500000  0.382396  0.846982  1
  Tb  Tb4  1  0.000000  0.103395  0.571240  1
  Tb  Tb5  1  0.000000  0.896605  0.428760  1
  Tb  Tb6  1  0.000000  0.614133  0.920076  1
  Tb  Tb7  1  0.000000  0.385867  0.079924  1
  Zn  Zn8  1  0.500000  0.500000  0.000000  1
  S  S9  1  0.500000  0.000000  0.500000  1
  I  I10  1  0.500000  0.247252  0.172080  1
  I  I11  1  0.500000  0.752748  0.827920  1
  I  I12  1  0.500000  0.756896  0.336653  1
  I  I13  1  0.500000  0.243104  0.663347  1
  I  I14  1  0.000000  0.256296  0.420602  1
  I  I15  1  0.000000  0.743704  0.579398  1
  I  I16  1  0.000000  0.764020  0.081421  1
  I  I17  1  0.000000  0.235980  0.918579  1
  I  I18  1  0.000000  0.998648  0.243128  1
  I  I19  1  0.000000  0.001352  0.756872  1
  I  I20  1  0.000000  0.503191  0.266241  1
  I  I21  1  0.000000  0.496809  0.733759  1
