# generated using pymatgen
data_LiTb2Yb6(Si4Pd)3
_symmetry_space_group_name_H-M   'P 1'
_cell_length_a   8.27883116
_cell_length_b   8.28007153
_cell_length_c   8.16613000
_cell_angle_alpha   89.99742456
_cell_angle_beta   90.00209063
_cell_angle_gamma   120.01716598
_symmetry_Int_Tables_number   1
_chemical_formula_structural   LiTb2Yb6(Si4Pd)3
_chemical_formula_sum   'Li1 Tb2 Yb6 Si12 Pd3'
_cell_volume   484.70208301
_cell_formula_units_Z   1
loop_
 _symmetry_equiv_pos_site_id
 _symmetry_equiv_pos_as_xyz
  1  'x, y, z'
loop_
 _atom_site_type_symbol
 _atom_site_label
 _atom_site_symmetry_multiplicity
 _atom_site_fract_x
 _atom_site_fract_y
 _atom_site_fract_z
 _atom_site_occupancy
  Li  Li0  1  0.333332  0.666662  0.001371  1
  Tb  Tb1  1  0.000001  0.000003  0.249892  1
  Tb  Tb2  1  0.999999  0.999999  0.750098  1
  Yb  Yb3  1  0.503293  0.006591  0.253182  1
  Yb  Yb4  1  0.502368  0.004737  0.746839  1
  Yb  Yb5  1  0.993416  0.496710  0.253179  1
  Yb  Yb6  1  0.995270  0.497640  0.746842  1
  Yb  Yb7  1  0.503298  0.496708  0.253180  1
  Yb  Yb8  1  0.502368  0.497633  0.746841  1
  Si  Si9  1  0.161746  0.323502  0.999987  1
  Si  Si10  1  0.835239  0.670469  0.999911  1
  Si  Si11  1  0.676493  0.838245  0.999989  1
  Si  Si12  1  0.836467  0.672921  0.500643  1
  Si  Si13  1  0.329532  0.164766  0.999904  1
  Si  Si14  1  0.164994  0.330000  0.499277  1
  Si  Si15  1  0.161741  0.838246  0.999989  1
  Si  Si16  1  0.327083  0.163541  0.500637  1
  Si  Si17  1  0.835236  0.164774  0.999907  1
  Si  Si18  1  0.670001  0.835002  0.499283  1
  Si  Si19  1  0.836465  0.163547  0.500639  1
  Si  Si20  1  0.164998  0.834994  0.499280  1
  Pd  Pd21  1  0.666657  0.333310  0.998951  1
  Pd  Pd22  1  0.666650  0.333310  0.501155  1
  Pd  Pd23  1  0.333349  0.666693  0.499021  1
