# generated using pymatgen
data_Yb3U(CuSi3)2
_symmetry_space_group_name_H-M   'P 1'
_cell_length_a   8.09830315
_cell_length_b   8.06850439
_cell_length_c   5.71642013
_cell_angle_alpha   69.57259463
_cell_angle_beta   69.01381904
_cell_angle_gamma   41.41358786
_symmetry_Int_Tables_number   1
_chemical_formula_structural   Yb3U(CuSi3)2
_chemical_formula_sum   'Yb3 U1 Cu2 Si6'
_cell_volume   228.72416517
_cell_formula_units_Z   1
loop_
 _symmetry_equiv_pos_site_id
 _symmetry_equiv_pos_as_xyz
  1  'x, y, z'
loop_
 _atom_site_type_symbol
 _atom_site_label
 _atom_site_symmetry_multiplicity
 _atom_site_fract_x
 _atom_site_fract_y
 _atom_site_fract_z
 _atom_site_occupancy
  Yb  Yb0  1  0.251953  0.248047  0.251952  1
  Yb  Yb1  1  0.751952  0.748048  0.751952  1
  Yb  Yb2  1  0.750002  0.249998  0.750003  1
  U  U3  1  0.242937  0.757063  0.242938  1
  Cu  Cu4  1  0.663837  0.674508  0.325493  1
  Cu  Cu5  1  0.325492  0.336163  0.663839  1
  Si  Si6  1  0.846381  0.822865  0.177136  1
  Si  Si7  1  0.825571  0.340125  0.169582  1
  Si  Si8  1  0.659875  0.174429  0.335278  1
  Si  Si9  1  0.335276  0.830419  0.659876  1
  Si  Si10  1  0.169580  0.664723  0.825572  1
  Si  Si11  1  0.177134  0.153618  0.846383  1
