# generated using pymatgen
data_LiZr12Tc5Ir6
_symmetry_space_group_name_H-M   'P 1'
_cell_length_a   4.67625700
_cell_length_b   6.56461200
_cell_length_c   14.00502700
_cell_angle_alpha   90.00000000
_cell_angle_beta   90.00019621
_cell_angle_gamma   90.00000000
_symmetry_Int_Tables_number   1
_chemical_formula_structural   LiZr12Tc5Ir6
_chemical_formula_sum   'Li1 Zr12 Tc5 Ir6'
_cell_volume   429.92369735
_cell_formula_units_Z   1
loop_
 _symmetry_equiv_pos_site_id
 _symmetry_equiv_pos_as_xyz
  1  'x, y, z'
loop_
 _atom_site_type_symbol
 _atom_site_label
 _atom_site_symmetry_multiplicity
 _atom_site_fract_x
 _atom_site_fract_y
 _atom_site_fract_z
 _atom_site_occupancy
  Li  Li0  1  0.000000  0.000000  0.000000  1
  Zr  Zr1  1  0.500000  0.252072  0.000000  1
  Zr  Zr2  1  0.500000  0.747929  0.000000  1
  Zr  Zr3  1  0.999984  0.250108  0.168207  1
  Zr  Zr4  1  0.999984  0.749891  0.168207  1
  Zr  Zr5  1  0.499990  0.249817  0.333554  1
  Zr  Zr6  1  0.499990  0.750184  0.333554  1
  Zr  Zr7  1  0.000000  0.248876  0.500000  1
  Zr  Zr8  1  0.000000  0.751123  0.500000  1
  Zr  Zr9  1  0.500010  0.249817  0.666445  1
  Zr  Zr10  1  0.500010  0.750184  0.666445  1
  Zr  Zr11  1  0.000016  0.250108  0.831793  1
  Zr  Zr12  1  0.000016  0.749891  0.831793  1
  Tc  Tc13  1  0.499990  0.500000  0.166670  1
  Tc  Tc14  1  0.999991  0.000000  0.333833  1
  Tc  Tc15  1  0.500000  0.500000  0.500000  1
  Tc  Tc16  1  0.000009  0.000000  0.666167  1
  Tc  Tc17  1  0.500010  0.500000  0.833330  1
  Ir  Ir18  1  0.000000  0.500000  0.000000  1
  Ir  Ir19  1  0.499983  0.000000  0.164093  1
  Ir  Ir20  1  0.999988  0.500000  0.332263  1
  Ir  Ir21  1  0.500000  0.000000  0.500000  1
  Ir  Ir22  1  0.000012  0.500000  0.667737  1
  Ir  Ir23  1  0.500017  0.000000  0.835907  1
