# generated using pymatgen
data_Ti6PS
_symmetry_space_group_name_H-M   'P 1'
_cell_length_a   9.88976100
_cell_length_b   9.88976100
_cell_length_c   4.97731300
_cell_angle_alpha   90.00000000
_cell_angle_beta   90.00000000
_cell_angle_gamma   90.00000000
_symmetry_Int_Tables_number   1
_chemical_formula_structural   Ti6PS
_chemical_formula_sum   'Ti24 P4 S4'
_cell_volume   486.81790732
_cell_formula_units_Z   4
loop_
 _symmetry_equiv_pos_site_id
 _symmetry_equiv_pos_as_xyz
  1  'x, y, z'
loop_
 _atom_site_type_symbol
 _atom_site_label
 _atom_site_symmetry_multiplicity
 _atom_site_fract_x
 _atom_site_fract_y
 _atom_site_fract_z
 _atom_site_occupancy
  Ti  Ti0  1  0.970983  0.861711  0.280899  1
  Ti  Ti1  1  0.361711  0.529017  0.780899  1
  Ti  Ti2  1  0.638289  0.470983  0.780899  1
  Ti  Ti3  1  0.029017  0.138289  0.280899  1
  Ti  Ti4  1  0.528938  0.640211  0.219863  1
  Ti  Ti5  1  0.140211  0.971062  0.719863  1
  Ti  Ti6  1  0.859789  0.028938  0.719863  1
  Ti  Ti7  1  0.471062  0.359789  0.219863  1
  Ti  Ti8  1  0.819429  0.283730  0.013546  1
  Ti  Ti9  1  0.783730  0.680571  0.513546  1
  Ti  Ti10  1  0.216270  0.319429  0.513546  1
  Ti  Ti11  1  0.180571  0.716270  0.013546  1
  Ti  Ti12  1  0.679901  0.215429  0.485594  1
  Ti  Ti13  1  0.715429  0.820099  0.985594  1
  Ti  Ti14  1  0.284571  0.179901  0.985594  1
  Ti  Ti15  1  0.320099  0.784571  0.485594  1
  Ti  Ti16  1  0.915098  0.392535  0.538478  1
  Ti  Ti17  1  0.892535  0.584902  0.038478  1
  Ti  Ti18  1  0.107465  0.415098  0.038478  1
  Ti  Ti19  1  0.084902  0.607465  0.538478  1
  Ti  Ti20  1  0.584525  0.106600  0.961763  1
  Ti  Ti21  1  0.606600  0.915475  0.461763  1
  Ti  Ti22  1  0.393400  0.084525  0.461763  1
  Ti  Ti23  1  0.415475  0.893400  0.961763  1
  P  P24  1  0.040390  0.206099  0.786607  1
  P  P25  1  0.706099  0.459610  0.286607  1
  P  P26  1  0.293901  0.540390  0.286607  1
  P  P27  1  0.959610  0.793901  0.786607  1
  S  S28  1  0.459881  0.291681  0.713251  1
  S  S29  1  0.791681  0.040119  0.213251  1
  S  S30  1  0.208319  0.959881  0.213251  1
  S  S31  1  0.540119  0.708319  0.713251  1
