# generated using pymatgen
data_NdSi3Ni5
_symmetry_space_group_name_H-M   'P 1'
_cell_length_a   6.14932725
_cell_length_b   6.14932764
_cell_length_c   11.65988300
_cell_angle_alpha   90.00000000
_cell_angle_beta   90.00000000
_cell_angle_gamma   145.00954647
_symmetry_Int_Tables_number   1
_chemical_formula_structural   NdSi3Ni5
_chemical_formula_sum   'Nd2 Si6 Ni10'
_cell_volume   252.83510449
_cell_formula_units_Z   2
loop_
 _symmetry_equiv_pos_site_id
 _symmetry_equiv_pos_as_xyz
  1  'x, y, z'
loop_
 _atom_site_type_symbol
 _atom_site_label
 _atom_site_symmetry_multiplicity
 _atom_site_fract_x
 _atom_site_fract_y
 _atom_site_fract_z
 _atom_site_occupancy
  Nd  Nd0  1  0.339577  0.660423  0.250000  1
  Nd  Nd1  1  0.660423  0.339577  0.750000  1
  Si  Si2  1  0.613265  0.386735  0.250000  1
  Si  Si3  1  0.386735  0.613265  0.750000  1
  Si  Si4  1  0.116337  0.883663  0.538547  1
  Si  Si5  1  0.883663  0.116337  0.461453  1
  Si  Si6  1  0.883663  0.116337  0.038547  1
  Si  Si7  1  0.116337  0.883663  0.961453  1
  Ni  Ni8  1  0.052224  0.947776  0.145465  1
  Ni  Ni9  1  0.052224  0.947776  0.354535  1
  Ni  Ni10  1  0.696718  0.303282  0.433551  1
  Ni  Ni11  1  0.303282  0.696718  0.566449  1
  Ni  Ni12  1  0.303282  0.696718  0.933551  1
  Ni  Ni13  1  0.696718  0.303282  0.066449  1
  Ni  Ni14  1  0.500000  0.500000  0.500000  1
  Ni  Ni15  1  0.500000  0.500000  0.000000  1
  Ni  Ni16  1  0.947776  0.052224  0.645465  1
  Ni  Ni17  1  0.947776  0.052224  0.854535  1
