# generated using pymatgen
data_ErInNiH
_symmetry_space_group_name_H-M   'P 1'
_cell_length_a   3.97035200
_cell_length_b   7.29005000
_cell_length_c   8.63859000
_cell_angle_alpha   90.00000000
_cell_angle_beta   90.00000000
_cell_angle_gamma   90.00000000
_symmetry_Int_Tables_number   1
_chemical_formula_structural   ErInNiH
_chemical_formula_sum   'Er4 In4 Ni4 H4'
_cell_volume   250.03590699
_cell_formula_units_Z   4
loop_
 _symmetry_equiv_pos_site_id
 _symmetry_equiv_pos_as_xyz
  1  'x, y, z'
loop_
 _atom_site_type_symbol
 _atom_site_label
 _atom_site_symmetry_multiplicity
 _atom_site_fract_x
 _atom_site_fract_y
 _atom_site_fract_z
 _atom_site_occupancy
  Er  Er0  1  0.750000  0.022347  0.681884  1
  Er  Er1  1  0.250000  0.977653  0.318116  1
  Er  Er2  1  0.250000  0.477653  0.181884  1
  Er  Er3  1  0.750000  0.522347  0.818116  1
  In  In4  1  0.750000  0.643554  0.436157  1
  In  In5  1  0.250000  0.356446  0.563843  1
  In  In6  1  0.250000  0.856446  0.936157  1
  In  In7  1  0.750000  0.143554  0.063843  1
  Ni  Ni8  1  0.750000  0.761057  0.130020  1
  Ni  Ni9  1  0.250000  0.238943  0.869980  1
  Ni  Ni10  1  0.250000  0.738943  0.630020  1
  Ni  Ni11  1  0.750000  0.261057  0.369980  1
  H  H12  1  0.250000  0.448890  0.927269  1
  H  H13  1  0.750000  0.551110  0.072731  1
  H  H14  1  0.750000  0.051110  0.427269  1
  H  H15  1  0.250000  0.948890  0.572731  1
