# generated using pymatgen
data_Yb4As6Ir4Rh3
_symmetry_space_group_name_H-M   'P 1'
_cell_length_a   7.22491791
_cell_length_b   7.22491865
_cell_length_c   7.22491837
_cell_angle_alpha   109.54803616
_cell_angle_beta   108.79061973
_cell_angle_gamma   110.07758030
_symmetry_Int_Tables_number   1
_chemical_formula_structural   Yb4As6Ir4Rh3
_chemical_formula_sum   'Yb4 As6 Ir4 Rh3'
_cell_volume   290.28303629
_cell_formula_units_Z   1
loop_
 _symmetry_equiv_pos_site_id
 _symmetry_equiv_pos_as_xyz
  1  'x, y, z'
loop_
 _atom_site_type_symbol
 _atom_site_label
 _atom_site_symmetry_multiplicity
 _atom_site_fract_x
 _atom_site_fract_y
 _atom_site_fract_z
 _atom_site_occupancy
  Yb  Yb0  1  0.500065  0.499141  0.500921  1
  Yb  Yb1  1  0.998220  0.499141  0.999076  1
  Yb  Yb2  1  0.499935  0.000856  0.999076  1
  Yb  Yb3  1  0.001780  0.000856  0.500921  1
  As  As4  1  0.681294  0.999717  0.681011  1
  As  As5  1  0.680843  0.681197  0.000355  1
  As  As6  1  0.319157  0.319512  0.000355  1
  As  As7  1  0.000000  0.681067  0.681067  1
  As  As8  1  0.000000  0.318862  0.318862  1
  As  As9  1  0.318706  0.999717  0.318423  1
  Ir  Ir10  1  0.500000  0.749657  0.249657  1
  Ir  Ir11  1  0.750131  0.249130  0.498999  1
  Ir  Ir12  1  0.249869  0.748868  0.498999  1
  Ir  Ir13  1  0.000000  0.999784  0.999784  1
  Rh  Rh14  1  0.250238  0.501170  0.751409  1
  Rh  Rh15  1  0.500000  0.250154  0.750154  1
  Rh  Rh16  1  0.749762  0.501170  0.250932  1
