# generated using pymatgen
data_Tb3YRe5Os3
_symmetry_space_group_name_H-M   'P 1'
_cell_length_a   5.36612702
_cell_length_b   5.28519493
_cell_length_c   9.07771200
_cell_angle_alpha   90.00000029
_cell_angle_beta   89.99848568
_cell_angle_gamma   119.50233372
_symmetry_Int_Tables_number   1
_chemical_formula_structural   Tb3YRe5Os3
_chemical_formula_sum   'Tb3 Y1 Re5 Os3'
_cell_volume   224.07072781
_cell_formula_units_Z   1
loop_
 _symmetry_equiv_pos_site_id
 _symmetry_equiv_pos_as_xyz
  1  'x, y, z'
loop_
 _atom_site_type_symbol
 _atom_site_label
 _atom_site_symmetry_multiplicity
 _atom_site_fract_x
 _atom_site_fract_y
 _atom_site_fract_z
 _atom_site_occupancy
  Tb  Tb0  1  0.333850  0.666925  0.437327  1
  Tb  Tb1  1  0.669019  0.334510  0.564050  1
  Tb  Tb2  1  0.669042  0.334521  0.935859  1
  Y  Y3  1  0.333779  0.666890  0.062979  1
  Re  Re4  1  0.830449  0.169638  0.249805  1
  Re  Re5  1  0.830449  0.660811  0.249805  1
  Re  Re6  1  0.343644  0.171821  0.249822  1
  Re  Re7  1  0.162520  0.829707  0.750160  1
  Re  Re8  1  0.162520  0.332813  0.750160  1
  Os  Os9  1  0.010138  0.005069  0.500122  1
  Os  Os10  1  0.010149  0.005074  0.999670  1
  Os  Os11  1  0.644442  0.822221  0.750240  1
