# generated using pymatgen
data_PrSi4(Ir2Ru)2
_symmetry_space_group_name_H-M   'P 1'
_cell_length_a   7.03655149
_cell_length_b   7.05309969
_cell_length_c   3.88097400
_cell_angle_alpha   90.00000000
_cell_angle_beta   90.00000000
_cell_angle_gamma   120.07781899
_symmetry_Int_Tables_number   1
_chemical_formula_structural   PrSi4(Ir2Ru)2
_chemical_formula_sum   'Pr1 Si4 Ir4 Ru2'
_cell_volume   166.67488675
_cell_formula_units_Z   1
loop_
 _symmetry_equiv_pos_site_id
 _symmetry_equiv_pos_as_xyz
  1  'x, y, z'
loop_
 _atom_site_type_symbol
 _atom_site_label
 _atom_site_symmetry_multiplicity
 _atom_site_fract_x
 _atom_site_fract_y
 _atom_site_fract_z
 _atom_site_occupancy
  Pr  Pr0  1  0.001160  0.000580  0.000000  1
  Si  Si1  1  0.336454  0.668227  0.000000  1
  Si  Si2  1  0.798362  0.199227  0.500000  1
  Si  Si3  1  0.798362  0.599136  0.500000  1
  Si  Si4  1  0.401198  0.200599  0.500000  1
  Ir  Ir5  1  0.931857  0.465928  0.000000  1
  Ir  Ir6  1  0.200143  0.799701  0.500000  1
  Ir  Ir7  1  0.200143  0.400441  0.500000  1
  Ir  Ir8  1  0.600662  0.800330  0.500000  1
  Ru  Ru9  1  0.532497  0.464251  0.000000  1
  Ru  Ru10  1  0.532497  0.068245  0.000000  1
