# generated using pymatgen
data_Sc6TaAl13Os7W2
_symmetry_space_group_name_H-M   'P 1'
_cell_length_a   8.82309265
_cell_length_b   8.82309254
_cell_length_c   8.83536323
_cell_angle_alpha   59.80518708
_cell_angle_beta   59.80518808
_cell_angle_gamma   59.86884892
_symmetry_Int_Tables_number   1
_chemical_formula_structural   Sc6TaAl13Os7W2
_chemical_formula_sum   'Sc6 Ta1 Al13 Os7 W2'
_cell_volume   484.43577481
_cell_formula_units_Z   1
loop_
 _symmetry_equiv_pos_site_id
 _symmetry_equiv_pos_as_xyz
  1  'x, y, z'
loop_
 _atom_site_type_symbol
 _atom_site_label
 _atom_site_symmetry_multiplicity
 _atom_site_fract_x
 _atom_site_fract_y
 _atom_site_fract_z
 _atom_site_occupancy
  Sc  Sc0  1  0.712272  0.712272  0.278174  1
  Sc  Sc1  1  0.291142  0.710587  0.289590  1
  Sc  Sc2  1  0.710587  0.291142  0.289590  1
  Sc  Sc3  1  0.289635  0.289635  0.711806  1
  Sc  Sc4  1  0.713083  0.277634  0.713731  1
  Sc  Sc5  1  0.277634  0.713083  0.713731  1
  Ta  Ta6  1  0.877439  0.877439  0.363160  1
  Al  Al7  1  0.880139  0.880139  0.880747  1
  Al  Al8  1  0.121246  0.121246  0.637043  1
  Al  Al9  1  0.120808  0.638255  0.121134  1
  Al  Al10  1  0.638255  0.120808  0.121134  1
  Al  Al11  1  0.121888  0.121888  0.122506  1
  Al  Al12  1  0.665922  0.665922  0.009319  1
  Al  Al13  1  0.665183  0.009732  0.666038  1
  Al  Al14  1  0.009732  0.665183  0.666038  1
  Al  Al15  1  0.657588  0.657588  0.657373  1
  Al  Al16  1  0.335379  0.335379  0.996539  1
  Al  Al17  1  0.335664  0.996780  0.335056  1
  Al  Al18  1  0.996780  0.335664  0.335056  1
  Al  Al19  1  0.335544  0.335544  0.335055  1
  Os  Os20  1  0.006176  0.006176  0.997924  1
  Os  Os21  1  0.998246  0.998246  0.499572  1
  Os  Os22  1  0.501965  0.996494  0.507057  1
  Os  Os23  1  0.996494  0.501965  0.507057  1
  Os  Os24  1  0.505001  0.505001  0.995721  1
  Os  Os25  1  0.998171  0.497004  0.998111  1
  Os  Os26  1  0.497004  0.998171  0.998111  1
  W  W27  1  0.875725  0.365302  0.876816  1
  W  W28  1  0.365302  0.875725  0.876816  1
