# generated using pymatgen
data_HfBi6WO14
_symmetry_space_group_name_H-M   'P 1'
_cell_length_a   6.69113570
_cell_length_b   6.94581617
_cell_length_c   7.67005400
_cell_angle_alpha   106.94650035
_cell_angle_beta   88.81141322
_cell_angle_gamma   102.97673346
_symmetry_Int_Tables_number   1
_chemical_formula_structural   HfBi6WO14
_chemical_formula_sum   'Hf1 Bi6 W1 O14'
_cell_volume   331.89912223
_cell_formula_units_Z   1
loop_
 _symmetry_equiv_pos_site_id
 _symmetry_equiv_pos_as_xyz
  1  'x, y, z'
loop_
 _atom_site_type_symbol
 _atom_site_label
 _atom_site_symmetry_multiplicity
 _atom_site_fract_x
 _atom_site_fract_y
 _atom_site_fract_z
 _atom_site_occupancy
  Hf  Hf0  1  0.000000  0.000000  0.500000  1
  Bi  Bi1  1  0.524690  0.013871  0.737592  1
  Bi  Bi2  1  0.475310  0.986129  0.262408  1
  Bi  Bi3  1  0.263727  0.517348  0.876549  1
  Bi  Bi4  1  0.736273  0.482652  0.123451  1
  Bi  Bi5  1  0.737982  0.520584  0.616525  1
  Bi  Bi6  1  0.262018  0.479416  0.383475  1
  W  W7  1  0.000000  0.000000  0.000000  1
  O  O8  1  0.472547  0.628107  0.187487  1
  O  O9  1  0.527453  0.371893  0.812513  1
  O  O10  1  0.266765  0.949101  0.930959  1
  O  O11  1  0.733235  0.050899  0.069041  1
  O  O12  1  0.285507  0.936649  0.521602  1
  O  O13  1  0.714493  0.063351  0.478398  1
  O  O14  1  0.529853  0.340370  0.363542  1
  O  O15  1  0.470147  0.659630  0.636458  1
  O  O16  1  0.907297  0.705332  0.979720  1
  O  O17  1  0.092703  0.294668  0.020280  1
  O  O18  1  0.104751  0.321183  0.617607  1
  O  O19  1  0.895249  0.678817  0.382393  1
  O  O20  1  0.907049  0.931005  0.741641  1
  O  O21  1  0.092951  0.068995  0.258359  1
