# generated using pymatgen
data_Y2Al9OsPt2
_symmetry_space_group_name_H-M   'P 1'
_cell_length_a   7.59795487
_cell_length_b   7.59795538
_cell_length_c   9.47478500
_cell_angle_alpha   90.00000000
_cell_angle_beta   90.00000000
_cell_angle_gamma   119.33358339
_symmetry_Int_Tables_number   1
_chemical_formula_structural   Y2Al9OsPt2
_chemical_formula_sum   'Y4 Al18 Os2 Pt4'
_cell_volume   476.83798808
_cell_formula_units_Z   2
loop_
 _symmetry_equiv_pos_site_id
 _symmetry_equiv_pos_as_xyz
  1  'x, y, z'
loop_
 _atom_site_type_symbol
 _atom_site_label
 _atom_site_symmetry_multiplicity
 _atom_site_fract_x
 _atom_site_fract_y
 _atom_site_fract_z
 _atom_site_occupancy
  Y  Y0  1  0.993527  0.673207  0.250000  1
  Y  Y1  1  0.006473  0.326793  0.750000  1
  Y  Y2  1  0.673207  0.993527  0.250000  1
  Y  Y3  1  0.326793  0.006473  0.750000  1
  Al  Al4  1  0.127797  0.127797  0.250000  1
  Al  Al5  1  0.872203  0.872203  0.750000  1
  Al  Al6  1  0.999796  0.330991  0.076488  1
  Al  Al7  1  0.000204  0.669009  0.923512  1
  Al  Al8  1  0.000204  0.669009  0.576488  1
  Al  Al9  1  0.330991  0.999796  0.423512  1
  Al  Al10  1  0.999796  0.330991  0.423512  1
  Al  Al11  1  0.669009  0.000204  0.576488  1
  Al  Al12  1  0.669009  0.000204  0.923512  1
  Al  Al13  1  0.330991  0.999796  0.076488  1
  Al  Al14  1  0.328120  0.328120  0.551723  1
  Al  Al15  1  0.671880  0.671880  0.448277  1
  Al  Al16  1  0.671880  0.671880  0.051723  1
  Al  Al17  1  0.328120  0.328120  0.948277  1
  Al  Al18  1  0.343170  0.548367  0.250000  1
  Al  Al19  1  0.656830  0.451633  0.750000  1
  Al  Al20  1  0.548367  0.343170  0.250000  1
  Al  Al21  1  0.451633  0.656830  0.750000  1
  Os  Os22  1  0.000000  0.000000  0.000000  1
  Os  Os23  1  0.000000  0.000000  0.500000  1
  Pt  Pt24  1  0.671767  0.328233  0.000000  1
  Pt  Pt25  1  0.328233  0.671767  0.000000  1
  Pt  Pt26  1  0.328233  0.671767  0.500000  1
  Pt  Pt27  1  0.671767  0.328233  0.500000  1
