# generated using pymatgen
data_Dy6Y14(Ir3Rh)3
_symmetry_space_group_name_H-M   'P 1'
_cell_length_a   10.90993701
_cell_length_b   10.90938401
_cell_length_c   6.40080801
_cell_angle_alpha   90.00385200
_cell_angle_beta   90.00458652
_cell_angle_gamma   90.00077719
_symmetry_Int_Tables_number   1
_chemical_formula_structural   Dy6Y14(Ir3Rh)3
_chemical_formula_sum   'Dy6 Y14 Ir9 Rh3'
_cell_volume   761.82859636
_cell_formula_units_Z   1
loop_
 _symmetry_equiv_pos_site_id
 _symmetry_equiv_pos_as_xyz
  1  'x, y, z'
loop_
 _atom_site_type_symbol
 _atom_site_label
 _atom_site_symmetry_multiplicity
 _atom_site_fract_x
 _atom_site_fract_y
 _atom_site_fract_z
 _atom_site_occupancy
  Dy  Dy0  1  0.088781  0.708566  0.618777  1
  Dy  Dy1  1  0.089095  0.291034  0.121293  1
  Dy  Dy2  1  0.000037  0.999971  0.500303  1
  Dy  Dy3  1  0.000036  0.000032  0.000078  1
  Dy  Dy4  1  0.499992  0.500037  0.000007  1
  Dy  Dy5  1  0.499997  0.499963  0.500233  1
  Y  Y6  1  0.290377  0.088843  0.379826  1
  Y  Y7  1  0.290264  0.910724  0.879615  1
  Y  Y8  1  0.709626  0.089223  0.879576  1
  Y  Y9  1  0.709506  0.911218  0.379794  1
  Y  Y10  1  0.589219  0.790356  0.879577  1
  Y  Y11  1  0.588782  0.209523  0.379789  1
  Y  Y12  1  0.411208  0.790472  0.379790  1
  Y  Y13  1  0.410771  0.209650  0.879578  1
  Y  Y14  1  0.208833  0.411177  0.619225  1
  Y  Y15  1  0.209222  0.589126  0.121631  1
  Y  Y16  1  0.790845  0.410862  0.121541  1
  Y  Y17  1  0.791248  0.588835  0.619115  1
  Y  Y18  1  0.910863  0.709246  0.121636  1
  Y  Y19  1  0.911175  0.291156  0.619220  1
  Ir  Ir20  1  0.846195  0.152874  0.249721  1
  Ir  Ir21  1  0.846427  0.846698  0.749755  1
  Ir  Ir22  1  0.153684  0.153390  0.750395  1
  Ir  Ir23  1  0.153919  0.847021  0.250374  1
  Ir  Ir24  1  0.653205  0.346258  0.749870  1
  Ir  Ir25  1  0.652785  0.653977  0.249833  1
  Ir  Ir26  1  0.346915  0.345976  0.249652  1
  Ir  Ir27  1  0.346498  0.653783  0.749683  1
  Ir  Ir28  1  0.000249  0.500031  0.374750  1
  Rh  Rh29  1  0.499996  0.000000  0.124701  1
  Rh  Rh30  1  0.500000  0.999997  0.624968  1
  Rh  Rh31  1  0.000250  0.499980  0.875694  1
