# generated using pymatgen
data_Dy2Tm2MnB12Os
_symmetry_space_group_name_H-M   'P 1'
_cell_length_a   3.59144600
_cell_length_b   9.07797178
_cell_length_c   11.46067010
_cell_angle_alpha   90.05120411
_cell_angle_beta   90.00000000
_cell_angle_gamma   90.00000000
_symmetry_Int_Tables_number   1
_chemical_formula_structural   Dy2Tm2MnB12Os
_chemical_formula_sum   'Dy4 Tm4 Mn2 B24 Os2'
_cell_volume   373.65259883
_cell_formula_units_Z   2
loop_
 _symmetry_equiv_pos_site_id
 _symmetry_equiv_pos_as_xyz
  1  'x, y, z'
loop_
 _atom_site_type_symbol
 _atom_site_label
 _atom_site_symmetry_multiplicity
 _atom_site_fract_x
 _atom_site_fract_y
 _atom_site_fract_z
 _atom_site_occupancy
  Dy  Dy0  1  0.000000  0.326043  0.416048  1
  Dy  Dy1  1  0.000000  0.673957  0.583952  1
  Dy  Dy2  1  0.000000  0.820104  0.087477  1
  Dy  Dy3  1  0.000000  0.179896  0.912523  1
  Tm  Tm4  1  0.000000  0.939116  0.370990  1
  Tm  Tm5  1  0.000000  0.060884  0.629011  1
  Tm  Tm6  1  0.000000  0.445538  0.131621  1
  Tm  Tm7  1  0.000000  0.554462  0.868378  1
  Mn  Mn8  1  0.000000  0.638909  0.319713  1
  Mn  Mn9  1  0.000000  0.361091  0.680287  1
  B  B10  1  0.500000  0.554310  0.432003  1
  B  B11  1  0.500000  0.445690  0.567997  1
  B  B12  1  0.500000  0.053662  0.067317  1
  B  B13  1  0.500000  0.946338  0.932683  1
  B  B14  1  0.500000  0.746835  0.417396  1
  B  B15  1  0.500000  0.253165  0.582604  1
  B  B16  1  0.500000  0.250131  0.081899  1
  B  B17  1  0.500000  0.749869  0.918101  1
  B  B18  1  0.500000  0.789389  0.266098  1
  B  B19  1  0.500000  0.210611  0.733902  1
  B  B20  1  0.500000  0.291997  0.235473  1
  B  B21  1  0.500000  0.708002  0.764527  1
  B  B22  1  0.500000  0.630838  0.186375  1
  B  B23  1  0.500000  0.369162  0.813625  1
  B  B24  1  0.500000  0.130372  0.315374  1
  B  B25  1  0.500000  0.869628  0.684626  1
  B  B26  1  0.500000  0.981750  0.212845  1
  B  B27  1  0.500000  0.018250  0.787155  1
  B  B28  1  0.500000  0.485413  0.288565  1
  B  B29  1  0.500000  0.514587  0.711435  1
  B  B30  1  0.500000  0.601501  0.027899  1
  B  B31  1  0.500000  0.398499  0.972101  1
  B  B32  1  0.500000  0.101870  0.471845  1
  B  B33  1  0.500000  0.898130  0.528155  1
  Os  Os34  1  0.000000  0.138238  0.179408  1
  Os  Os35  1  0.000000  0.861762  0.820592  1
