# generated using pymatgen
data_Cs2InGa(SiSe4)2
_symmetry_space_group_name_H-M   'P 1'
_cell_length_a   17.65579500
_cell_length_b   7.32572502
_cell_length_c   8.25625903
_cell_angle_alpha   70.01810851
_cell_angle_beta   90.00000000
_cell_angle_gamma   90.00000000
_symmetry_Int_Tables_number   1
_chemical_formula_structural   Cs2InGa(SiSe4)2
_chemical_formula_sum   'Cs4 In2 Ga2 Si4 Se16'
_cell_volume   1003.59144560
_cell_formula_units_Z   2
loop_
 _symmetry_equiv_pos_site_id
 _symmetry_equiv_pos_as_xyz
  1  'x, y, z'
loop_
 _atom_site_type_symbol
 _atom_site_label
 _atom_site_symmetry_multiplicity
 _atom_site_fract_x
 _atom_site_fract_y
 _atom_site_fract_z
 _atom_site_occupancy
  Cs  Cs0  1  0.395461  0.953495  0.182063  1
  Cs  Cs1  1  0.895461  0.046505  0.817937  1
  Cs  Cs2  1  0.602000  0.525344  0.832731  1
  Cs  Cs3  1  0.102000  0.474656  0.167269  1
  In  In4  1  0.586196  0.166807  0.476575  1
  In  In5  1  0.086196  0.833193  0.523425  1
  Ga  Ga6  1  0.274414  0.589278  0.697216  1
  Ga  Ga7  1  0.774414  0.410722  0.302784  1
  Si  Si8  1  0.418102  0.316509  0.544213  1
  Si  Si9  1  0.918102  0.683491  0.455787  1
  Si  Si10  1  0.728364  0.910179  0.278565  1
  Si  Si11  1  0.228364  0.089821  0.721435  1
  Se  Se12  1  0.604564  0.872247  0.370736  1
  Se  Se13  1  0.104564  0.127753  0.629264  1
  Se  Se14  1  0.409241  0.584611  0.628117  1
  Se  Se15  1  0.909241  0.415389  0.371883  1
  Se  Se16  1  0.802069  0.788910  0.526465  1
  Se  Se17  1  0.302069  0.211090  0.473535  1
  Se  Se18  1  0.208146  0.708557  0.428115  1
  Se  Se19  1  0.708146  0.291443  0.571885  1
  Se  Se20  1  0.762251  0.219858  0.109175  1
  Se  Se21  1  0.262251  0.780142  0.890825  1
  Se  Se22  1  0.239033  0.266726  0.901699  1
  Se  Se23  1  0.739033  0.733274  0.098301  1
  Se  Se24  1  0.989696  0.917997  0.258323  1
  Se  Se25  1  0.489696  0.082003  0.741677  1
  Se  Se26  1  0.980460  0.597969  0.716920  1
  Se  Se27  1  0.480460  0.402031  0.283080  1
