# generated using pymatgen
data_BeNb4Co4Si2P
_symmetry_space_group_name_H-M   'P 1'
_cell_length_a   3.61236100
_cell_length_b   6.18625723
_cell_length_c   7.01775870
_cell_angle_alpha   89.95853523
_cell_angle_beta   90.00000000
_cell_angle_gamma   90.00000000
_symmetry_Int_Tables_number   1
_chemical_formula_structural   BeNb4Co4Si2P
_chemical_formula_sum   'Be1 Nb4 Co4 Si2 P1'
_cell_volume   156.82577278
_cell_formula_units_Z   1
loop_
 _symmetry_equiv_pos_site_id
 _symmetry_equiv_pos_as_xyz
  1  'x, y, z'
loop_
 _atom_site_type_symbol
 _atom_site_label
 _atom_site_symmetry_multiplicity
 _atom_site_fract_x
 _atom_site_fract_y
 _atom_site_fract_z
 _atom_site_occupancy
  Be  Be0  1  0.250000  0.778131  0.382054  1
  Nb  Nb1  1  0.250000  0.018114  0.820703  1
  Nb  Nb2  1  0.250000  0.528990  0.675199  1
  Nb  Nb3  1  0.750000  0.972166  0.187320  1
  Nb  Nb4  1  0.750000  0.490638  0.321559  1
  Co  Co5  1  0.250000  0.137081  0.436503  1
  Co  Co6  1  0.250000  0.642032  0.060692  1
  Co  Co7  1  0.750000  0.852080  0.560436  1
  Co  Co8  1  0.750000  0.361142  0.935635  1
  Si  Si9  1  0.250000  0.272437  0.121783  1
  Si  Si10  1  0.750000  0.223280  0.614624  1
  P  P11  1  0.750000  0.723908  0.883492  1
