# generated using pymatgen
data_Sm2PdN2
_symmetry_space_group_name_H-M   'P 1'
_cell_length_a   3.57253410
_cell_length_b   3.57253161
_cell_length_c   6.91610316
_cell_angle_alpha   104.94515529
_cell_angle_beta   104.96781127
_cell_angle_gamma   90.00000382
_symmetry_Int_Tables_number   1
_chemical_formula_structural   Sm2PdN2
_chemical_formula_sum   'Sm2 Pd1 N2'
_cell_volume   82.18060379
_cell_formula_units_Z   1
loop_
 _symmetry_equiv_pos_site_id
 _symmetry_equiv_pos_as_xyz
  1  'x, y, z'
loop_
 _atom_site_type_symbol
 _atom_site_label
 _atom_site_symmetry_multiplicity
 _atom_site_fract_x
 _atom_site_fract_y
 _atom_site_fract_z
 _atom_site_occupancy
  Sm  Sm0  1  0.154074  0.154134  0.808147  1
  Sm  Sm1  1  0.845926  0.845866  0.191853  1
  Pd  Pd2  1  0.500000  0.500000  0.500000  1
  N  N3  1  0.664210  0.664124  0.828420  1
  N  N4  1  0.335790  0.335876  0.171580  1
