# generated using pymatgen
data_Tb3TaNb(MoN4)3
_symmetry_space_group_name_H-M   'P 1'
_cell_length_a   11.13899281
_cell_length_b   11.13899270
_cell_length_c   11.13899300
_cell_angle_alpha   109.47122300
_cell_angle_beta   109.47122279
_cell_angle_gamma   109.47122126
_symmetry_Int_Tables_number   1
_chemical_formula_structural   Tb3TaNb(MoN4)3
_chemical_formula_sum   'Tb12 Ta4 Nb4 Mo12 N48'
_cell_volume   1063.93686164
_cell_formula_units_Z   4
loop_
 _symmetry_equiv_pos_site_id
 _symmetry_equiv_pos_as_xyz
  1  'x, y, z'
loop_
 _atom_site_type_symbol
 _atom_site_label
 _atom_site_symmetry_multiplicity
 _atom_site_fract_x
 _atom_site_fract_y
 _atom_site_fract_z
 _atom_site_occupancy
  Tb  Tb0  1  0.250000  0.375308  0.125308  1
  Tb  Tb1  1  0.374692  0.750000  0.124692  1
  Tb  Tb2  1  0.375308  0.125308  0.250000  1
  Tb  Tb3  1  0.875308  0.625308  0.250000  1
  Tb  Tb4  1  0.750000  0.124692  0.374692  1
  Tb  Tb5  1  0.125308  0.250000  0.375308  1
  Tb  Tb6  1  0.874692  0.750000  0.624692  1
  Tb  Tb7  1  0.250000  0.875308  0.625308  1
  Tb  Tb8  1  0.124692  0.374692  0.750000  1
  Tb  Tb9  1  0.624692  0.874692  0.750000  1
  Tb  Tb10  1  0.625308  0.250000  0.875308  1
  Tb  Tb11  1  0.750000  0.624692  0.874692  1
  Ta  Ta12  1  0.000000  0.000000  0.000000  1
  Ta  Ta13  1  0.500000  0.500000  0.000000  1
  Ta  Ta14  1  0.500000  0.000000  0.500000  1
  Ta  Ta15  1  0.000000  0.500000  0.500000  1
  Nb  Nb16  1  0.500000  0.000000  0.000000  1
  Nb  Nb17  1  0.000000  0.500000  0.000000  1
  Nb  Nb18  1  0.000000  0.000000  0.500000  1
  Nb  Nb19  1  0.500000  0.500000  0.500000  1
  Mo  Mo20  1  0.875307  0.250000  0.125307  1
  Mo  Mo21  1  0.750000  0.874693  0.124693  1
  Mo  Mo22  1  0.625307  0.375307  0.250000  1
  Mo  Mo23  1  0.125307  0.875307  0.250000  1
  Mo  Mo24  1  0.250000  0.625307  0.375307  1
  Mo  Mo25  1  0.624693  0.750000  0.374693  1
  Mo  Mo26  1  0.375307  0.250000  0.625307  1
  Mo  Mo27  1  0.750000  0.374693  0.624693  1
  Mo  Mo28  1  0.874693  0.124693  0.750000  1
  Mo  Mo29  1  0.374693  0.624693  0.750000  1
  Mo  Mo30  1  0.250000  0.125307  0.875307  1
  Mo  Mo31  1  0.124693  0.750000  0.874693  1
  N  N32  1  0.203900  0.118595  0.021541  1
  N  N33  1  0.315451  0.902239  0.021405  1
  N  N34  1  0.880834  0.402239  0.086788  1
  N  N35  1  0.703900  0.682360  0.085305  1
  N  N36  1  0.618595  0.414695  0.097055  1
  N  N37  1  0.978595  0.684549  0.097761  1
  N  N38  1  0.021541  0.203900  0.118595  1
  N  N39  1  0.597761  0.913212  0.119166  1
  N  N40  1  0.205953  0.586788  0.184549  1
  N  N41  1  0.478459  0.597055  0.182360  1
  N  N42  1  0.118595  0.021541  0.203900  1
  N  N43  1  0.586788  0.184549  0.205953  1
  N  N44  1  0.478595  0.380834  0.294047  1
  N  N45  1  0.317640  0.914695  0.296100  1
  N  N46  1  0.902239  0.021405  0.315451  1
  N  N47  1  0.914695  0.296100  0.317640  1
  N  N48  1  0.294047  0.478595  0.380834  1
  N  N49  1  0.585305  0.902945  0.381405  1
  N  N50  1  0.817640  0.521541  0.402945  1
  N  N51  1  0.086788  0.880834  0.402239  1
  N  N52  1  0.097055  0.618595  0.414695  1
  N  N53  1  0.815451  0.794047  0.413212  1
  N  N54  1  0.597055  0.182360  0.478459  1
  N  N55  1  0.380834  0.294047  0.478595  1
  N  N56  1  0.619166  0.705953  0.521405  1
  N  N57  1  0.402945  0.817640  0.521541  1
  N  N58  1  0.184549  0.205953  0.586788  1
  N  N59  1  0.902945  0.381405  0.585305  1
  N  N60  1  0.913212  0.119166  0.597761  1
  N  N61  1  0.182360  0.478459  0.597055  1
  N  N62  1  0.414695  0.097055  0.618595  1
  N  N63  1  0.705953  0.521405  0.619166  1
  N  N64  1  0.085305  0.703900  0.682360  1
  N  N65  1  0.097761  0.978595  0.684549  1
  N  N66  1  0.682360  0.085305  0.703900  1
  N  N67  1  0.521405  0.619166  0.705953  1
  N  N68  1  0.413212  0.815451  0.794047  1
  N  N69  1  0.881405  0.978459  0.796100  1
  N  N70  1  0.521541  0.402945  0.817640  1
  N  N71  1  0.794047  0.413212  0.815451  1
  N  N72  1  0.402239  0.086788  0.880834  1
  N  N73  1  0.978459  0.796100  0.881405  1
  N  N74  1  0.021405  0.315451  0.902239  1
  N  N75  1  0.381405  0.585305  0.902945  1
  N  N76  1  0.296100  0.317640  0.914695  1
  N  N77  1  0.119166  0.597761  0.913212  1
  N  N78  1  0.684549  0.097761  0.978595  1
  N  N79  1  0.796100  0.881405  0.978459  1
