# generated using pymatgen
data_Nd3Mg2InSn2Rh
_symmetry_space_group_name_H-M   'P 1'
_cell_length_a   7.52922265
_cell_length_b   7.56047576
_cell_length_c   4.67997100
_cell_angle_alpha   90.00000000
_cell_angle_beta   90.00000000
_cell_angle_gamma   120.13740351
_symmetry_Int_Tables_number   1
_chemical_formula_structural   Nd3Mg2InSn2Rh
_chemical_formula_sum   'Nd3 Mg2 In1 Sn2 Rh1'
_cell_volume   230.39342531
_cell_formula_units_Z   1
loop_
 _symmetry_equiv_pos_site_id
 _symmetry_equiv_pos_as_xyz
  1  'x, y, z'
loop_
 _atom_site_type_symbol
 _atom_site_label
 _atom_site_symmetry_multiplicity
 _atom_site_fract_x
 _atom_site_fract_y
 _atom_site_fract_z
 _atom_site_occupancy
  Nd  Nd0  1  0.608301  0.000081  0.500000  1
  Nd  Nd1  1  0.391699  0.391780  0.500000  1
  Nd  Nd2  1  0.000000  0.604969  0.500000  1
  Mg  Mg3  1  0.226357  0.995926  0.000000  1
  Mg  Mg4  1  0.773643  0.769570  0.000000  1
  In  In5  1  0.000000  0.227632  0.000000  1
  Sn  Sn6  1  0.337971  0.671713  0.000000  1
  Sn  Sn7  1  0.662029  0.333740  0.000000  1
  Rh  Rh8  1  0.000000  0.004589  0.500000  1
