# generated using pymatgen
data_Ho3Er9Ni5Bi
_symmetry_space_group_name_H-M   'P 1'
_cell_length_a   8.29365901
_cell_length_b   8.28217817
_cell_length_c   8.29438522
_cell_angle_alpha   111.70855057
_cell_angle_beta   109.42022202
_cell_angle_gamma   107.36883132
_symmetry_Int_Tables_number   1
_chemical_formula_structural   Ho3Er9Ni5Bi
_chemical_formula_sum   'Ho3 Er9 Ni5 Bi1'
_cell_volume   437.65725485
_cell_formula_units_Z   1
loop_
 _symmetry_equiv_pos_site_id
 _symmetry_equiv_pos_as_xyz
  1  'x, y, z'
loop_
 _atom_site_type_symbol
 _atom_site_label
 _atom_site_symmetry_multiplicity
 _atom_site_fract_x
 _atom_site_fract_y
 _atom_site_fract_z
 _atom_site_occupancy
  Ho  Ho0  1  0.821147  0.705991  0.527505  1
  Ho  Ho1  1  0.178808  0.293966  0.472405  1
  Ho  Ho2  1  0.178499  0.706015  0.884884  1
  Er  Er3  1  0.821530  0.293988  0.115149  1
  Er  Er4  1  0.679554  0.371156  0.691691  1
  Er  Er5  1  0.320435  0.628835  0.308361  1
  Er  Er6  1  0.679301  0.987348  0.308002  1
  Er  Er7  1  0.320762  0.012717  0.692050  1
  Er  Er8  1  0.599872  0.792848  0.807188  1
  Er  Er9  1  0.400190  0.207214  0.192842  1
  Er  Er10  1  0.985634  0.792729  0.192925  1
  Er  Er11  1  0.014339  0.207242  0.807111  1
  Ni  Ni12  1  0.633572  0.000045  0.633625  1
  Ni  Ni13  1  0.366463  0.999994  0.366452  1
  Ni  Ni14  1  0.124370  0.624776  0.500304  1
  Ni  Ni15  1  0.875535  0.375108  0.499489  1
  Ni  Ni16  1  0.999979  0.000031  0.000009  1
  Bi  Bi17  1  0.500011  0.499997  0.000008  1
