# generated using pymatgen
data_NpNi(SO5)2
_symmetry_space_group_name_H-M   'P 1'
_cell_length_a   5.74901345
_cell_length_b   5.36134153
_cell_length_c   7.55925900
_cell_angle_alpha   105.34185662
_cell_angle_beta   109.42913533
_cell_angle_gamma   98.38009290
_symmetry_Int_Tables_number   1
_chemical_formula_structural   NpNi(SO5)2
_chemical_formula_sum   'Np1 Ni1 S2 O10'
_cell_volume   204.77782052
_cell_formula_units_Z   1
loop_
 _symmetry_equiv_pos_site_id
 _symmetry_equiv_pos_as_xyz
  1  'x, y, z'
loop_
 _atom_site_type_symbol
 _atom_site_label
 _atom_site_symmetry_multiplicity
 _atom_site_fract_x
 _atom_site_fract_y
 _atom_site_fract_z
 _atom_site_occupancy
  Np  Np0  1  0.000000  0.000000  0.500000  1
  Ni  Ni1  1  0.000000  0.000000  0.000000  1
  S  S2  1  0.674066  0.345837  0.765733  1
  S  S3  1  0.325934  0.654163  0.234267  1
  O  O4  1  0.066453  0.924835  0.729713  1
  O  O5  1  0.933547  0.075165  0.270287  1
  O  O6  1  0.704127  0.153675  0.873869  1
  O  O7  1  0.823347  0.315667  0.632607  1
  O  O8  1  0.295873  0.846325  0.126131  1
  O  O9  1  0.176653  0.684333  0.367393  1
  O  O10  1  0.397947  0.278560  0.627540  1
  O  O11  1  0.748211  0.623972  0.896647  1
  O  O12  1  0.602053  0.721440  0.372460  1
  O  O13  1  0.251789  0.376028  0.103353  1
