# generated using pymatgen
data_Ho2V(Fe3P2)3
_symmetry_space_group_name_H-M   'P 1'
_cell_length_a   3.65819200
_cell_length_b   10.34742800
_cell_length_c   11.89074800
_cell_angle_alpha   90.00000000
_cell_angle_beta   90.00000000
_cell_angle_gamma   90.00000000
_symmetry_Int_Tables_number   1
_chemical_formula_structural   Ho2V(Fe3P2)3
_chemical_formula_sum   'Ho4 V2 Fe18 P12'
_cell_volume   450.09903730
_cell_formula_units_Z   2
loop_
 _symmetry_equiv_pos_site_id
 _symmetry_equiv_pos_as_xyz
  1  'x, y, z'
loop_
 _atom_site_type_symbol
 _atom_site_label
 _atom_site_symmetry_multiplicity
 _atom_site_fract_x
 _atom_site_fract_y
 _atom_site_fract_z
 _atom_site_occupancy
  Ho  Ho0  1  0.250000  0.577664  0.703312  1
  Ho  Ho1  1  0.250000  0.922336  0.203312  1
  Ho  Ho2  1  0.750000  0.418032  0.295131  1
  Ho  Ho3  1  0.750000  0.081968  0.795131  1
  V  V4  1  0.250000  0.700793  0.989553  1
  V  V5  1  0.250000  0.799207  0.489553  1
  Fe  Fe6  1  0.750000  0.295079  0.011439  1
  Fe  Fe7  1  0.750000  0.204921  0.511439  1
  Fe  Fe8  1  0.250000  0.400703  0.491250  1
  Fe  Fe9  1  0.250000  0.099297  0.991250  1
  Fe  Fe10  1  0.750000  0.590955  0.509546  1
  Fe  Fe11  1  0.750000  0.909045  0.009546  1
  Fe  Fe12  1  0.250000  0.222421  0.175742  1
  Fe  Fe13  1  0.250000  0.277579  0.675742  1
  Fe  Fe14  1  0.750000  0.783066  0.822381  1
  Fe  Fe15  1  0.750000  0.716934  0.322381  1
  Fe  Fe16  1  0.250000  0.874029  0.702570  1
  Fe  Fe17  1  0.250000  0.625971  0.202570  1
  Fe  Fe18  1  0.750000  0.123935  0.300008  1
  Fe  Fe19  1  0.750000  0.376065  0.800008  1
  Fe  Fe20  1  0.250000  0.461763  0.933420  1
  Fe  Fe21  1  0.250000  0.038237  0.433420  1
  Fe  Fe22  1  0.750000  0.535525  0.066531  1
  Fe  Fe23  1  0.750000  0.964475  0.566531  1
  P  P24  1  0.250000  0.423379  0.113260  1
  P  P25  1  0.250000  0.076621  0.613260  1
  P  P26  1  0.750000  0.574770  0.885315  1
  P  P27  1  0.750000  0.925230  0.385315  1
  P  P28  1  0.250000  0.265481  0.869824  1
  P  P29  1  0.250000  0.234519  0.369824  1
  P  P30  1  0.750000  0.736486  0.128650  1
  P  P31  1  0.750000  0.763514  0.628650  1
  P  P32  1  0.250000  0.591241  0.396856  1
  P  P33  1  0.250000  0.908759  0.896856  1
  P  P34  1  0.750000  0.394466  0.605212  1
  P  P35  1  0.750000  0.105534  0.105212  1
