# generated using pymatgen
data_Hf3Ga2SiTc3
_symmetry_space_group_name_H-M   'P 1'
_cell_length_a   7.12747800
_cell_length_b   7.12747849
_cell_length_c   3.37112100
_cell_angle_alpha   90.00000000
_cell_angle_beta   90.00000000
_cell_angle_gamma   120.00000701
_symmetry_Int_Tables_number   1
_chemical_formula_structural   Hf3Ga2SiTc3
_chemical_formula_sum   'Hf3 Ga2 Si1 Tc3'
_cell_volume   148.31215411
_cell_formula_units_Z   1
loop_
 _symmetry_equiv_pos_site_id
 _symmetry_equiv_pos_as_xyz
  1  'x, y, z'
loop_
 _atom_site_type_symbol
 _atom_site_label
 _atom_site_symmetry_multiplicity
 _atom_site_fract_x
 _atom_site_fract_y
 _atom_site_fract_z
 _atom_site_occupancy
  Hf  Hf0  1  0.386168  0.386168  0.500000  1
  Hf  Hf1  1  0.613832  0.000000  0.500000  1
  Hf  Hf2  1  0.000000  0.613832  0.500000  1
  Ga  Ga3  1  0.666667  0.333333  0.000000  1
  Ga  Ga4  1  0.333333  0.666667  0.000000  1
  Si  Si5  1  0.000000  0.000000  0.500000  1
  Tc  Tc6  1  0.746555  0.746555  0.000000  1
  Tc  Tc7  1  0.253445  0.000000  0.000000  1
  Tc  Tc8  1  0.000000  0.253445  0.000000  1
