# generated using pymatgen
data_CePr(DySe2)2
_symmetry_space_group_name_H-M   'P 1'
_cell_length_a   7.29820249
_cell_length_b   7.29820128
_cell_length_c   7.22584800
_cell_angle_alpha   80.20985641
_cell_angle_beta   80.20985805
_cell_angle_gamma   32.94359683
_symmetry_Int_Tables_number   1
_chemical_formula_structural   CePr(DySe2)2
_chemical_formula_sum   'Ce1 Pr1 Dy2 Se4'
_cell_volume   205.98388308
_cell_formula_units_Z   1
loop_
 _symmetry_equiv_pos_site_id
 _symmetry_equiv_pos_as_xyz
  1  'x, y, z'
loop_
 _atom_site_type_symbol
 _atom_site_label
 _atom_site_symmetry_multiplicity
 _atom_site_fract_x
 _atom_site_fract_y
 _atom_site_fract_z
 _atom_site_occupancy
  Ce  Ce0  1  0.000000  0.000000  0.000000  1
  Pr  Pr1  1  0.500000  0.500000  0.500000  1
  Dy  Dy2  1  0.753222  0.753222  0.750853  1
  Dy  Dy3  1  0.246778  0.246778  0.249147  1
  Se  Se4  1  0.368981  0.368981  0.880374  1
  Se  Se5  1  0.133188  0.133188  0.626018  1
  Se  Se6  1  0.866812  0.866812  0.373982  1
  Se  Se7  1  0.631019  0.631019  0.119626  1
