# generated using pymatgen
data_La6In8SnTe
_symmetry_space_group_name_H-M   'P 1'
_cell_length_a   8.70555164
_cell_length_b   8.70555221
_cell_length_c   8.70555200
_cell_angle_alpha   119.53227915
_cell_angle_beta   119.53228126
_cell_angle_gamma   90.81204879
_symmetry_Int_Tables_number   1
_chemical_formula_structural   La6In8SnTe
_chemical_formula_sum   'La6 In8 Sn1 Te1'
_cell_volume   469.77096164
_cell_formula_units_Z   1
loop_
 _symmetry_equiv_pos_site_id
 _symmetry_equiv_pos_as_xyz
  1  'x, y, z'
loop_
 _atom_site_type_symbol
 _atom_site_label
 _atom_site_symmetry_multiplicity
 _atom_site_fract_x
 _atom_site_fract_y
 _atom_site_fract_z
 _atom_site_occupancy
  La  La0  1  0.752182  0.752182  0.000000  1
  La  La1  1  0.247818  0.247818  0.000000  1
  La  La2  1  0.339822  0.839164  0.178986  1
  La  La3  1  0.660178  0.160836  0.821014  1
  La  La4  1  0.839164  0.660178  0.499342  1
  La  La5  1  0.160836  0.339822  0.500658  1
  In  In6  1  0.962427  0.456037  0.789060  1
  In  In7  1  0.666976  0.173368  0.210940  1
  In  In8  1  0.456037  0.666976  0.493610  1
  In  In9  1  0.173368  0.962427  0.506390  1
  In  In10  1  0.037573  0.543963  0.210940  1
  In  In11  1  0.333024  0.826632  0.789060  1
  In  In12  1  0.543963  0.333024  0.506390  1
  In  In13  1  0.826632  0.037573  0.493610  1
  Sn  Sn14  1  0.500000  0.500000  0.000000  1
  Te  Te15  1  0.000000  0.000000  0.000000  1
