# generated using pymatgen
data_Rb6YErF12
_symmetry_space_group_name_H-M   'P 1'
_cell_length_a   6.90090847
_cell_length_b   6.65939901
_cell_length_c   11.57599759
_cell_angle_alpha   55.21575122
_cell_angle_beta   90.02265034
_cell_angle_gamma   89.96932706
_symmetry_Int_Tables_number   1
_chemical_formula_structural   Rb6YErF12
_chemical_formula_sum   'Rb6 Y1 Er1 F12'
_cell_volume   436.92263755
_cell_formula_units_Z   1
loop_
 _symmetry_equiv_pos_site_id
 _symmetry_equiv_pos_as_xyz
  1  'x, y, z'
loop_
 _atom_site_type_symbol
 _atom_site_label
 _atom_site_symmetry_multiplicity
 _atom_site_fract_x
 _atom_site_fract_y
 _atom_site_fract_z
 _atom_site_occupancy
  Rb  Rb0  1  0.500000  0.500000  0.000000  1
  Rb  Rb1  1  0.000000  0.500000  0.500000  1
  Rb  Rb2  1  0.050211  0.732977  0.753644  1
  Rb  Rb3  1  0.949789  0.267023  0.246356  1
  Rb  Rb4  1  0.550430  0.266050  0.747596  1
  Rb  Rb5  1  0.449570  0.733950  0.252404  1
  Y  Y6  1  0.000000  0.000000  0.000000  1
  Er  Er7  1  0.500000  0.000000  0.500000  1
  F  F8  1  0.760208  0.776645  0.563946  1
  F  F9  1  0.239792  0.223355  0.436054  1
  F  F10  1  0.264093  0.227084  0.935901  1
  F  F11  1  0.735907  0.772916  0.064099  1
  F  F12  1  0.449637  0.889833  0.713971  1
  F  F13  1  0.550363  0.110167  0.286029  1
  F  F14  1  0.949494  0.112009  0.782959  1
  F  F15  1  0.050506  0.887991  0.217041  1
  F  F16  1  0.332667  0.686500  0.546844  1
  F  F17  1  0.667333  0.313500  0.453156  1
  F  F18  1  0.829010  0.316924  0.953209  1
  F  F19  1  0.170990  0.683076  0.046791  1
