# generated using pymatgen
data_Nd8Cd2IrRu
_symmetry_space_group_name_H-M   'P 1'
_cell_length_a   9.95380725
_cell_length_b   9.95380705
_cell_length_c   9.98719800
_cell_angle_alpha   59.88896885
_cell_angle_beta   59.88896950
_cell_angle_gamma   59.82240348
_symmetry_Int_Tables_number   1
_chemical_formula_structural   Nd8Cd2IrRu
_chemical_formula_sum   'Nd16 Cd4 Ir2 Ru2'
_cell_volume   697.57656271
_cell_formula_units_Z   2
loop_
 _symmetry_equiv_pos_site_id
 _symmetry_equiv_pos_as_xyz
  1  'x, y, z'
loop_
 _atom_site_type_symbol
 _atom_site_label
 _atom_site_symmetry_multiplicity
 _atom_site_fract_x
 _atom_site_fract_y
 _atom_site_fract_z
 _atom_site_occupancy
  Nd  Nd0  1  0.346684  0.346684  0.348545  1
  Nd  Nd1  1  0.346684  0.346684  0.958087  1
  Nd  Nd2  1  0.345501  0.958809  0.347845  1
  Nd  Nd3  1  0.958809  0.345501  0.347845  1
  Nd  Nd4  1  0.810798  0.190780  0.190400  1
  Nd  Nd5  1  0.190780  0.810798  0.808022  1
  Nd  Nd6  1  0.190780  0.810798  0.190400  1
  Nd  Nd7  1  0.810798  0.190780  0.808022  1
  Nd  Nd8  1  0.190821  0.190821  0.809179  1
  Nd  Nd9  1  0.809136  0.809136  0.190864  1
  Nd  Nd10  1  0.938889  0.560653  0.561545  1
  Nd  Nd11  1  0.560653  0.938889  0.938913  1
  Nd  Nd12  1  0.560653  0.938889  0.561545  1
  Nd  Nd13  1  0.938889  0.560653  0.938913  1
  Nd  Nd14  1  0.561576  0.561576  0.938424  1
  Nd  Nd15  1  0.939317  0.939317  0.560683  1
  Cd  Cd16  1  0.579770  0.579770  0.579786  1
  Cd  Cd17  1  0.579770  0.579770  0.260673  1
  Cd  Cd18  1  0.579779  0.260002  0.580109  1
  Cd  Cd19  1  0.260002  0.579779  0.580109  1
  Ir  Ir20  1  0.142492  0.577160  0.140173  1
  Ir  Ir21  1  0.577160  0.142492  0.140173  1
  Ru  Ru22  1  0.140129  0.140129  0.137265  1
  Ru  Ru23  1  0.140129  0.140129  0.582477  1
