# generated using pymatgen
data_Tb8Sc11Si16Os
_symmetry_space_group_name_H-M   'P 1'
_cell_length_a   7.03072139
_cell_length_b   7.36809541
_cell_length_c   13.91233600
_cell_angle_alpha   90.00000000
_cell_angle_beta   90.00000000
_cell_angle_gamma   90.03824153
_symmetry_Int_Tables_number   1
_chemical_formula_structural   Tb8Sc11Si16Os
_chemical_formula_sum   'Tb8 Sc11 Si16 Os1'
_cell_volume   720.70094322
_cell_formula_units_Z   1
loop_
 _symmetry_equiv_pos_site_id
 _symmetry_equiv_pos_as_xyz
  1  'x, y, z'
loop_
 _atom_site_type_symbol
 _atom_site_label
 _atom_site_symmetry_multiplicity
 _atom_site_fract_x
 _atom_site_fract_y
 _atom_site_fract_z
 _atom_site_occupancy
  Tb  Tb0  1  0.011431  0.176850  0.093098  1
  Tb  Tb1  1  0.994131  0.820212  0.900225  1
  Tb  Tb2  1  0.489646  0.671836  0.901327  1
  Tb  Tb3  1  0.994131  0.820212  0.599775  1
  Tb  Tb4  1  0.511391  0.324504  0.094877  1
  Tb  Tb5  1  0.011431  0.176850  0.406902  1
  Tb  Tb6  1  0.511391  0.324504  0.405123  1
  Tb  Tb7  1  0.489646  0.671836  0.598673  1
  Sc  Sc8  1  0.841278  0.496565  0.250000  1
  Sc  Sc9  1  0.341080  0.002860  0.250000  1
  Sc  Sc10  1  0.658406  0.996867  0.750000  1
  Sc  Sc11  1  0.326064  0.176625  0.627181  1
  Sc  Sc12  1  0.671782  0.824459  0.374987  1
  Sc  Sc13  1  0.171554  0.674643  0.377085  1
  Sc  Sc14  1  0.671782  0.824459  0.125013  1
  Sc  Sc15  1  0.826134  0.331529  0.628097  1
  Sc  Sc16  1  0.326064  0.176625  0.872819  1
  Sc  Sc17  1  0.826134  0.331529  0.871903  1
  Sc  Sc18  1  0.171554  0.674643  0.122915  1
  Si  Si19  1  0.029719  0.123496  0.750000  1
  Si  Si20  1  0.971020  0.883956  0.250000  1
  Si  Si21  1  0.467825  0.617141  0.250000  1
  Si  Si22  1  0.515546  0.391954  0.750000  1
  Si  Si23  1  0.287970  0.866044  0.750000  1
  Si  Si24  1  0.716391  0.127145  0.250000  1
  Si  Si25  1  0.214814  0.373320  0.250000  1
  Si  Si26  1  0.796817  0.628535  0.750000  1
  Si  Si27  1  0.155842  0.465240  0.549113  1
  Si  Si28  1  0.843348  0.536466  0.463835  1
  Si  Si29  1  0.346019  0.964369  0.463208  1
  Si  Si30  1  0.843348  0.536466  0.036165  1
  Si  Si31  1  0.658026  0.034303  0.540347  1
  Si  Si32  1  0.155842  0.465240  0.950887  1
  Si  Si33  1  0.658026  0.034303  0.959653  1
  Si  Si34  1  0.346019  0.964369  0.036792  1
  Os  Os35  1  0.148399  0.490045  0.750000  1
