# generated using pymatgen
data_K3Ba3LuSb4
_symmetry_space_group_name_H-M   'P 1'
_cell_length_a   11.35148900
_cell_length_b   11.35148988
_cell_length_c   8.61257400
_cell_angle_alpha   90.00000000
_cell_angle_beta   90.00000000
_cell_angle_gamma   120.00000617
_symmetry_Int_Tables_number   1
_chemical_formula_structural   K3Ba3LuSb4
_chemical_formula_sum   'K6 Ba6 Lu2 Sb8'
_cell_volume   961.10153363
_cell_formula_units_Z   2
loop_
 _symmetry_equiv_pos_site_id
 _symmetry_equiv_pos_as_xyz
  1  'x, y, z'
loop_
 _atom_site_type_symbol
 _atom_site_label
 _atom_site_symmetry_multiplicity
 _atom_site_fract_x
 _atom_site_fract_y
 _atom_site_fract_z
 _atom_site_occupancy
  K  K0  1  0.864379  0.135621  0.560615  1
  K  K1  1  0.271241  0.135621  0.560615  1
  K  K2  1  0.864379  0.728759  0.560615  1
  K  K3  1  0.135621  0.864379  0.060615  1
  K  K4  1  0.728759  0.864379  0.060615  1
  K  K5  1  0.135621  0.271241  0.060615  1
  Ba  Ba6  1  0.472507  0.527493  0.730263  1
  Ba  Ba7  1  0.054987  0.527493  0.730263  1
  Ba  Ba8  1  0.472507  0.945013  0.730263  1
  Ba  Ba9  1  0.527493  0.472507  0.230263  1
  Ba  Ba10  1  0.945013  0.472507  0.230263  1
  Ba  Ba11  1  0.527493  0.054987  0.230263  1
  Lu  Lu12  1  0.666667  0.333333  0.842174  1
  Lu  Lu13  1  0.333333  0.666667  0.342174  1
  Sb  Sb14  1  0.807272  0.192728  0.957964  1
  Sb  Sb15  1  0.385457  0.192728  0.957964  1
  Sb  Sb16  1  0.807272  0.614543  0.957964  1
  Sb  Sb17  1  0.192728  0.807272  0.457964  1
  Sb  Sb18  1  0.614543  0.807272  0.457964  1
  Sb  Sb19  1  0.192728  0.385457  0.457964  1
  Sb  Sb20  1  0.666667  0.333333  0.496663  1
  Sb  Sb21  1  0.333333  0.666667  0.996663  1
