# generated using pymatgen
data_Ho3TmTcRu7
_symmetry_space_group_name_H-M   'P 1'
_cell_length_a   5.19543830
_cell_length_b   5.38365954
_cell_length_c   8.97384401
_cell_angle_alpha   90.00000039
_cell_angle_beta   90.00469773
_cell_angle_gamma   121.20584271
_symmetry_Int_Tables_number   1
_chemical_formula_structural   Ho3TmTcRu7
_chemical_formula_sum   'Ho3 Tm1 Tc1 Ru7'
_cell_volume   214.68542862
_cell_formula_units_Z   1
loop_
 _symmetry_equiv_pos_site_id
 _symmetry_equiv_pos_as_xyz
  1  'x, y, z'
loop_
 _atom_site_type_symbol
 _atom_site_label
 _atom_site_symmetry_multiplicity
 _atom_site_fract_x
 _atom_site_fract_y
 _atom_site_fract_z
 _atom_site_occupancy
  Ho  Ho0  1  0.327768  0.663884  0.432702  1
  Ho  Ho1  1  0.655689  0.327844  0.565519  1
  Ho  Ho2  1  0.655785  0.327892  0.934983  1
  Tm  Tm3  1  0.328318  0.664159  0.067206  1
  Tc  Tc4  1  0.685242  0.842621  0.750461  1
  Ru  Ru5  1  0.979604  0.989802  0.499333  1
  Ru  Ru6  1  0.979095  0.989548  0.000839  1
  Ru  Ru7  1  0.836162  0.167513  0.249254  1
  Ru  Ru8  1  0.836162  0.668650  0.249254  1
  Ru  Ru9  1  0.355332  0.177666  0.249396  1
  Ru  Ru10  1  0.180421  0.827014  0.750527  1
  Ru  Ru11  1  0.180421  0.353407  0.750527  1
