# generated using pymatgen
data_Sc4Ga24Pt8Rh
_symmetry_space_group_name_H-M   'P 1'
_cell_length_a   7.48474495
_cell_length_b   7.48706807
_cell_length_c   13.18475127
_cell_angle_alpha   84.83115635
_cell_angle_beta   79.36584171
_cell_angle_gamma   60.02835191
_symmetry_Int_Tables_number   1
_chemical_formula_structural   Sc4Ga24Pt8Rh
_chemical_formula_sum   'Sc4 Ga24 Pt8 Rh1'
_cell_volume   629.05767344
_cell_formula_units_Z   1
loop_
 _symmetry_equiv_pos_site_id
 _symmetry_equiv_pos_as_xyz
  1  'x, y, z'
loop_
 _atom_site_type_symbol
 _atom_site_label
 _atom_site_symmetry_multiplicity
 _atom_site_fract_x
 _atom_site_fract_y
 _atom_site_fract_z
 _atom_site_occupancy
  Sc  Sc0  1  0.394738  0.167444  0.810087  1
  Sc  Sc1  1  0.605262  0.832556  0.189913  1
  Sc  Sc2  1  0.731425  0.499848  0.809796  1
  Sc  Sc3  1  0.268575  0.500152  0.190204  1
  Ga  Ga4  1  0.684929  0.829903  0.936430  1
  Ga  Ga5  1  0.315071  0.170097  0.063570  1
  Ga  Ga6  1  0.147478  0.831825  0.560423  1
  Ga  Ga7  1  0.852522  0.168175  0.439577  1
  Ga  Ga8  1  0.479630  0.166625  0.557986  1
  Ga  Ga9  1  0.520370  0.833375  0.442014  1
  Ga  Ga10  1  0.224600  0.165497  0.317732  1
  Ga  Ga11  1  0.775400  0.834503  0.682268  1
  Ga  Ga12  1  0.436653  0.502703  0.682166  1
  Ga  Ga13  1  0.563347  0.497297  0.317834  1
  Ga  Ga14  1  0.105419  0.164733  0.680585  1
  Ga  Ga15  1  0.894581  0.835267  0.319415  1
  Ga  Ga16  1  0.358052  0.493530  0.936386  1
  Ga  Ga17  1  0.641948  0.506470  0.063614  1
  Ga  Ga18  1  0.020586  0.178858  0.939909  1
  Ga  Ga19  1  0.979414  0.821142  0.060091  1
  Ga  Ga20  1  0.186245  0.498668  0.442029  1
  Ga  Ga21  1  0.813755  0.501332  0.557971  1
  Ga  Ga22  1  0.733142  0.162663  0.181715  1
  Ga  Ga23  1  0.266858  0.837337  0.818285  1
  Ga  Ga24  1  0.060274  0.623752  0.819460  1
  Ga  Ga25  1  0.939726  0.376248  0.180540  1
  Ga  Ga26  1  0.853219  0.044943  0.817816  1
  Ga  Ga27  1  0.146781  0.955057  0.182184  1
  Pt  Pt28  1  0.119282  0.493303  0.639814  1
  Pt  Pt29  1  0.880718  0.506697  0.360186  1
  Pt  Pt30  1  0.661025  0.169496  0.999525  1
  Pt  Pt31  1  0.338975  0.830504  0.000475  1
  Pt  Pt32  1  0.538666  0.166732  0.360280  1
  Pt  Pt33  1  0.461334  0.833268  0.639720  1
  Pt  Pt34  1  0.778745  0.174483  0.637905  1
  Pt  Pt35  1  0.221255  0.825517  0.362095  1
  Rh  Rh36  1  0.000000  0.500000  0.000000  1
