# generated using pymatgen
data_Tb6Zn23N
_symmetry_space_group_name_H-M   'P 1'
_cell_length_a   8.95069900
_cell_length_b   8.95069776
_cell_length_c   8.95069800
_cell_angle_alpha   59.99999911
_cell_angle_beta   60.00000368
_cell_angle_gamma   60.00000001
_symmetry_Int_Tables_number   1
_chemical_formula_structural   Tb6Zn23N
_chemical_formula_sum   'Tb6 Zn23 N1'
_cell_volume   507.05580643
_cell_formula_units_Z   1
loop_
 _symmetry_equiv_pos_site_id
 _symmetry_equiv_pos_as_xyz
  1  'x, y, z'
loop_
 _atom_site_type_symbol
 _atom_site_label
 _atom_site_symmetry_multiplicity
 _atom_site_fract_x
 _atom_site_fract_y
 _atom_site_fract_z
 _atom_site_occupancy
  Tb  Tb0  1  0.696760  0.303240  0.303240  1
  Tb  Tb1  1  0.303240  0.696760  0.696760  1
  Tb  Tb2  1  0.303240  0.696760  0.303240  1
  Tb  Tb3  1  0.696760  0.303240  0.696760  1
  Tb  Tb4  1  0.303240  0.303240  0.696760  1
  Tb  Tb5  1  0.696760  0.696760  0.303240  1
  Zn  Zn6  1  0.122372  0.122372  0.122372  1
  Zn  Zn7  1  0.877628  0.877628  0.877628  1
  Zn  Zn8  1  0.122372  0.122372  0.632887  1
  Zn  Zn9  1  0.122372  0.632887  0.122372  1
  Zn  Zn10  1  0.877628  0.877628  0.367113  1
  Zn  Zn11  1  0.877628  0.367113  0.877628  1
  Zn  Zn12  1  0.632887  0.122372  0.122372  1
  Zn  Zn13  1  0.367113  0.877628  0.877628  1
  Zn  Zn14  1  0.500000  0.000000  0.000000  1
  Zn  Zn15  1  0.000000  0.500000  0.500000  1
  Zn  Zn16  1  0.000000  0.500000  0.000000  1
  Zn  Zn17  1  0.500000  0.000000  0.500000  1
  Zn  Zn18  1  0.000000  0.000000  0.500000  1
  Zn  Zn19  1  0.500000  0.500000  0.000000  1
  Zn  Zn20  1  0.327284  0.327284  0.327284  1
  Zn  Zn21  1  0.672716  0.672716  0.672716  1
  Zn  Zn22  1  0.327284  0.327284  0.018147  1
  Zn  Zn23  1  0.327284  0.018147  0.327284  1
  Zn  Zn24  1  0.672716  0.672716  0.981853  1
  Zn  Zn25  1  0.672716  0.981853  0.672716  1
  Zn  Zn26  1  0.018147  0.327284  0.327284  1
  Zn  Zn27  1  0.981853  0.672716  0.672716  1
  Zn  Zn28  1  0.000000  0.000000  0.000000  1
  N  N29  1  0.500000  0.500000  0.500000  1
