# generated using pymatgen
data_Cs8Sm(US4)3
_symmetry_space_group_name_H-M   'P 1'
_cell_length_a   13.84795479
_cell_length_b   6.75887169
_cell_length_c   9.17471500
_cell_angle_alpha   71.95974452
_cell_angle_beta   89.85266381
_cell_angle_gamma   89.76229755
_symmetry_Int_Tables_number   1
_chemical_formula_structural   Cs8Sm(US4)3
_chemical_formula_sum   'Cs8 Sm1 U3 S12'
_cell_volume   816.49842232
_cell_formula_units_Z   1
loop_
 _symmetry_equiv_pos_site_id
 _symmetry_equiv_pos_as_xyz
  1  'x, y, z'
loop_
 _atom_site_type_symbol
 _atom_site_label
 _atom_site_symmetry_multiplicity
 _atom_site_fract_x
 _atom_site_fract_y
 _atom_site_fract_z
 _atom_site_occupancy
  Cs  Cs0  1  0.951812  0.674291  0.666206  1
  Cs  Cs1  1  0.455620  0.831299  0.333472  1
  Cs  Cs2  1  0.041850  0.328052  0.334174  1
  Cs  Cs3  1  0.549052  0.169901  0.663012  1
  Cs  Cs4  1  0.871513  0.089502  0.891411  1
  Cs  Cs5  1  0.374716  0.414734  0.110348  1
  Cs  Cs6  1  0.125643  0.912971  0.110412  1
  Cs  Cs7  1  0.629076  0.577800  0.891338  1
  Sm  Sm8  1  0.749279  0.156475  0.298651  1
  U  U9  1  0.750559  0.657591  0.296462  1
  U  U10  1  0.250524  0.842649  0.702858  1
  U  U11  1  0.249455  0.342811  0.702922  1
  S  S12  1  0.903509  0.897182  0.284911  1
  S  S13  1  0.400907  0.586021  0.715045  1
  S  S14  1  0.099015  0.088511  0.715128  1
  S  S15  1  0.596956  0.428713  0.284789  1
  S  S16  1  0.818473  0.333787  0.512620  1
  S  S17  1  0.317656  0.181230  0.489839  1
  S  S18  1  0.182452  0.681899  0.490158  1
  S  S19  1  0.681003  0.801355  0.512213  1
  S  S20  1  0.836410  0.510855  0.089530  1
  S  S21  1  0.334006  0.006015  0.907192  1
  S  S22  1  0.166171  0.506809  0.907985  1
  S  S23  1  0.664342  0.979541  0.089327  1
