# generated using pymatgen
data_SrTbCe3Pr2PtI12
_symmetry_space_group_name_H-M   'P 1'
_cell_length_a   10.08784162
_cell_length_b   10.07782932
_cell_length_c   10.11471153
_cell_angle_alpha   106.20764783
_cell_angle_beta   106.62587587
_cell_angle_gamma   106.49825372
_symmetry_Int_Tables_number   1
_chemical_formula_structural   SrTbCe3Pr2PtI12
_chemical_formula_sum   'Sr1 Tb1 Ce3 Pr2 Pt1 I12'
_cell_volume   869.02976466
_cell_formula_units_Z   1
loop_
 _symmetry_equiv_pos_site_id
 _symmetry_equiv_pos_as_xyz
  1  'x, y, z'
loop_
 _atom_site_type_symbol
 _atom_site_label
 _atom_site_symmetry_multiplicity
 _atom_site_fract_x
 _atom_site_fract_y
 _atom_site_fract_z
 _atom_site_occupancy
  Sr  Sr0  1  0.500955  0.500022  0.500546  1
  Tb  Tb1  1  0.976522  0.704354  0.903258  1
  Ce  Ce2  1  0.099649  0.021982  0.305850  1
  Ce  Ce3  1  0.306683  0.097114  0.023081  1
  Ce  Ce4  1  0.022929  0.305879  0.098187  1
  Pr  Pr5  1  0.900758  0.978825  0.695793  1
  Pr  Pr6  1  0.694089  0.898552  0.976462  1
  Pt  Pt7  1  0.000082  0.999515  0.000179  1
  I  I8  1  0.070044  0.675478  0.213621  1
  I  I9  1  0.225951  0.074497  0.677504  1
  I  I10  1  0.676870  0.224520  0.073844  1
  I  I11  1  0.927179  0.328770  0.776443  1
  I  I12  1  0.773293  0.924347  0.321744  1
  I  I13  1  0.311571  0.767301  0.922659  1
  I  I14  1  0.456558  0.145153  0.375151  1
  I  I15  1  0.375600  0.455276  0.145918  1
  I  I16  1  0.145352  0.374184  0.454831  1
  I  I17  1  0.542823  0.853365  0.625114  1
  I  I18  1  0.633929  0.544538  0.854721  1
  I  I19  1  0.859163  0.626328  0.555094  1
