# generated using pymatgen
data_LiLa8(IrPt2)2
_symmetry_space_group_name_H-M   'P 1'
_cell_length_a   7.82938730
_cell_length_b   7.85921907
_cell_length_c   7.87688340
_cell_angle_alpha   69.42569152
_cell_angle_beta   69.25118726
_cell_angle_gamma   69.75260259
_symmetry_Int_Tables_number   1
_chemical_formula_structural   LiLa8(IrPt2)2
_chemical_formula_sum   'Li1 La8 Ir2 Pt4'
_cell_volume   410.52707456
_cell_formula_units_Z   1
loop_
 _symmetry_equiv_pos_site_id
 _symmetry_equiv_pos_as_xyz
  1  'x, y, z'
loop_
 _atom_site_type_symbol
 _atom_site_label
 _atom_site_symmetry_multiplicity
 _atom_site_fract_x
 _atom_site_fract_y
 _atom_site_fract_z
 _atom_site_occupancy
  Li  Li0  1  0.000848  0.000483  0.001976  1
  La  La1  1  0.817409  0.821138  0.816721  1
  La  La2  1  0.190415  0.188276  0.189974  1
  La  La3  1  0.318640  0.617988  0.854400  1
  La  La4  1  0.860253  0.309682  0.621969  1
  La  La5  1  0.610688  0.865390  0.314725  1
  La  La6  1  0.681819  0.378560  0.130873  1
  La  La7  1  0.135944  0.688692  0.387646  1
  La  La8  1  0.381154  0.133510  0.686315  1
  Ir  Ir9  1  0.195256  0.943784  0.568846  1
  Ir  Ir10  1  0.572057  0.187625  0.945035  1
  Pt  Pt11  1  0.946136  0.574827  0.188240  1
  Pt  Pt12  1  0.812885  0.050591  0.426797  1
  Pt  Pt13  1  0.428114  0.811012  0.050382  1
  Pt  Pt14  1  0.048382  0.428441  0.816101  1
