# generated using pymatgen
data_Er7Tm(TcBr4)2
_symmetry_space_group_name_H-M   'P 1'
_cell_length_a   8.90099490
_cell_length_b   8.91017724
_cell_length_c   6.55488194
_cell_angle_alpha   89.43228760
_cell_angle_beta   89.49366293
_cell_angle_gamma   89.30610098
_symmetry_Int_Tables_number   1
_chemical_formula_structural   Er7Tm(TcBr4)2
_chemical_formula_sum   'Er7 Tm1 Tc2 Br8'
_cell_volume   519.78063404
_cell_formula_units_Z   1
loop_
 _symmetry_equiv_pos_site_id
 _symmetry_equiv_pos_as_xyz
  1  'x, y, z'
loop_
 _atom_site_type_symbol
 _atom_site_label
 _atom_site_symmetry_multiplicity
 _atom_site_fract_x
 _atom_site_fract_y
 _atom_site_fract_z
 _atom_site_occupancy
  Er  Er0  1  0.752215  0.098181  0.989126  1
  Er  Er1  1  0.098603  0.752240  0.489508  1
  Er  Er2  1  0.901887  0.247640  0.510732  1
  Er  Er3  1  0.752837  0.902971  0.508494  1
  Er  Er4  1  0.247436  0.096661  0.491917  1
  Er  Er5  1  0.097119  0.247078  0.991801  1
  Er  Er6  1  0.903009  0.752844  0.008439  1
  Tm  Tm7  1  0.246149  0.902279  0.011283  1
  Tc  Tc8  1  0.994138  0.005795  0.250132  1
  Tc  Tc9  1  0.006020  0.994042  0.750285  1
  Br  Br10  1  0.420042  0.817090  0.405817  1
  Br  Br11  1  0.580168  0.183088  0.592834  1
  Br  Br12  1  0.183556  0.580579  0.092698  1
  Br  Br13  1  0.817063  0.419891  0.907018  1
  Br  Br14  1  0.415358  0.190916  0.095285  1
  Br  Br15  1  0.583930  0.809011  0.904655  1
  Br  Br16  1  0.808728  0.584603  0.404767  1
  Br  Br17  1  0.191742  0.415093  0.595208  1
