# generated using pymatgen
data_Th3Ga2Ir2PdAu
_symmetry_space_group_name_H-M   'P 1'
_cell_length_a   7.42587300
_cell_length_b   7.42587227
_cell_length_c   3.93564200
_cell_angle_alpha   90.00000000
_cell_angle_beta   90.00000000
_cell_angle_gamma   117.55814577
_symmetry_Int_Tables_number   1
_chemical_formula_structural   Th3Ga2Ir2PdAu
_chemical_formula_sum   'Th3 Ga2 Ir2 Pd1 Au1'
_cell_volume   192.40208982
_cell_formula_units_Z   1
loop_
 _symmetry_equiv_pos_site_id
 _symmetry_equiv_pos_as_xyz
  1  'x, y, z'
loop_
 _atom_site_type_symbol
 _atom_site_label
 _atom_site_symmetry_multiplicity
 _atom_site_fract_x
 _atom_site_fract_y
 _atom_site_fract_z
 _atom_site_occupancy
  Th  Th0  1  0.415832  0.415832  0.500000  1
  Th  Th1  1  0.591436  0.994058  0.500000  1
  Th  Th2  1  0.994058  0.591436  0.500000  1
  Ga  Ga3  1  0.253950  0.001442  0.000000  1
  Ga  Ga4  1  0.001442  0.253950  0.000000  1
  Ir  Ir5  1  0.657562  0.307189  0.000000  1
  Ir  Ir6  1  0.307189  0.657562  0.000000  1
  Pd  Pd7  1  0.031175  0.031175  0.500000  1
  Au  Au8  1  0.747355  0.747355  0.000000  1
