# generated using pymatgen
data_Tb2Nd2Sn10IrRh5
_symmetry_space_group_name_H-M   'P 1'
_cell_length_a   13.55769915
_cell_length_b   13.55769938
_cell_length_c   7.22217601
_cell_angle_alpha   90.06174180
_cell_angle_beta   89.93825709
_cell_angle_gamma   160.83525513
_symmetry_Int_Tables_number   1
_chemical_formula_structural   Tb2Nd2Sn10IrRh5
_chemical_formula_sum   'Tb2 Nd2 Sn10 Ir1 Rh5'
_cell_volume   435.80428127
_cell_formula_units_Z   1
loop_
 _symmetry_equiv_pos_site_id
 _symmetry_equiv_pos_as_xyz
  1  'x, y, z'
loop_
 _atom_site_type_symbol
 _atom_site_label
 _atom_site_symmetry_multiplicity
 _atom_site_fract_x
 _atom_site_fract_y
 _atom_site_fract_z
 _atom_site_occupancy
  Tb  Tb0  1  0.476950  0.523050  0.735876  1
  Tb  Tb1  1  0.523970  0.476030  0.241056  1
  Nd  Nd2  1  0.171717  0.828283  0.754571  1
  Nd  Nd3  1  0.827890  0.172110  0.253730  1
  Sn  Sn4  1  0.879661  0.120339  0.733020  1
  Sn  Sn5  1  0.120089  0.879911  0.232542  1
  Sn  Sn6  1  0.704493  0.295507  0.047680  1
  Sn  Sn7  1  0.295666  0.704334  0.547653  1
  Sn  Sn8  1  0.596236  0.403764  0.610976  1
  Sn  Sn9  1  0.404408  0.595592  0.109454  1
  Sn  Sn10  1  0.952638  0.047362  0.400712  1
  Sn  Sn11  1  0.046900  0.953100  0.903012  1
  Sn  Sn12  1  0.290380  0.709620  0.975672  1
  Sn  Sn13  1  0.709624  0.290376  0.475995  1
  Ir  Ir14  1  0.049943  0.950057  0.517667  1
  Rh  Rh15  1  0.949313  0.050687  0.016901  1
  Rh  Rh16  1  0.777565  0.222435  0.763451  1
  Rh  Rh17  1  0.222308  0.777692  0.264244  1
  Rh  Rh18  1  0.395791  0.604209  0.485495  1
  Rh  Rh19  1  0.604457  0.395543  0.986292  1
