# generated using pymatgen
data_Dy5Tm6Th5(MgOs)4
_symmetry_space_group_name_H-M   'P 1'
_cell_length_a   9.73843196
_cell_length_b   9.76943515
_cell_length_c   9.76943357
_cell_angle_alpha   59.73545981
_cell_angle_beta   60.10491410
_cell_angle_gamma   60.10491811
_symmetry_Int_Tables_number   1
_chemical_formula_structural   Dy5Tm6Th5(MgOs)4
_chemical_formula_sum   'Dy5 Tm6 Th5 Mg4 Os4'
_cell_volume   656.93324430
_cell_formula_units_Z   1
loop_
 _symmetry_equiv_pos_site_id
 _symmetry_equiv_pos_as_xyz
  1  'x, y, z'
loop_
 _atom_site_type_symbol
 _atom_site_label
 _atom_site_symmetry_multiplicity
 _atom_site_fract_x
 _atom_site_fract_y
 _atom_site_fract_z
 _atom_site_occupancy
  Dy  Dy0  1  0.563388  0.936612  0.936612  1
  Dy  Dy1  1  0.561511  0.937298  0.562410  1
  Dy  Dy2  1  0.938782  0.562410  0.937298  1
  Dy  Dy3  1  0.561511  0.562410  0.937298  1
  Dy  Dy4  1  0.938782  0.937298  0.562410  1
  Tm  Tm5  1  0.185644  0.814356  0.814356  1
  Tm  Tm6  1  0.191118  0.810276  0.184404  1
  Tm  Tm7  1  0.814203  0.184404  0.810276  1
  Tm  Tm8  1  0.191118  0.184404  0.810276  1
  Tm  Tm9  1  0.814203  0.810276  0.184404  1
  Tm  Tm10  1  0.934782  0.565218  0.565218  1
  Th  Th11  1  0.340169  0.350144  0.350144  1
  Th  Th12  1  0.346962  0.347285  0.958791  1
  Th  Th13  1  0.346962  0.958791  0.347285  1
  Th  Th14  1  0.959544  0.350144  0.350144  1
  Th  Th15  1  0.817028  0.182972  0.182972  1
  Mg  Mg16  1  0.582182  0.579284  0.579284  1
  Mg  Mg17  1  0.579611  0.582514  0.258261  1
  Mg  Mg18  1  0.579611  0.258261  0.582514  1
  Mg  Mg19  1  0.259249  0.579284  0.579284  1
  Os  Os20  1  0.132084  0.145100  0.145100  1
  Os  Os21  1  0.141923  0.141723  0.574433  1
  Os  Os22  1  0.141923  0.574433  0.141723  1
  Os  Os23  1  0.577717  0.145100  0.145100  1
