# generated using pymatgen
data_TaTi7Mn2(B2P)2
_symmetry_space_group_name_H-M   'P 1'
_cell_length_a   7.03270791
_cell_length_b   7.03270817
_cell_length_c   7.01629400
_cell_angle_alpha   130.66216181
_cell_angle_beta   130.66216527
_cell_angle_gamma   72.32181742
_symmetry_Int_Tables_number   1
_chemical_formula_structural   TaTi7Mn2(B2P)2
_chemical_formula_sum   'Ta1 Ti7 Mn2 B4 P2'
_cell_volume   195.22381856
_cell_formula_units_Z   1
loop_
 _symmetry_equiv_pos_site_id
 _symmetry_equiv_pos_as_xyz
  1  'x, y, z'
loop_
 _atom_site_type_symbol
 _atom_site_label
 _atom_site_symmetry_multiplicity
 _atom_site_fract_x
 _atom_site_fract_y
 _atom_site_fract_z
 _atom_site_occupancy
  Ta  Ta0  1  0.191003  0.691003  0.154946  1
  Ti  Ti1  1  0.460376  0.960376  0.151998  1
  Ti  Ti2  1  0.540756  0.040756  0.850674  1
  Ti  Ti3  1  0.040096  0.190680  0.499796  1
  Ti  Ti4  1  0.690680  0.540096  0.499796  1
  Ti  Ti5  1  0.961257  0.807535  0.498458  1
  Ti  Ti6  1  0.307535  0.461257  0.498458  1
  Ti  Ti7  1  0.807945  0.307945  0.846869  1
  Mn  Mn8  1  0.000610  0.002232  0.999562  1
  Mn  Mn9  1  0.502232  0.500610  0.999562  1
  B  B10  1  0.885410  0.385410  0.271251  1
  B  B11  1  0.386270  0.117957  0.502092  1
  B  B12  1  0.617957  0.886270  0.502092  1
  B  B13  1  0.114748  0.614748  0.728745  1
  P  P14  1  0.744460  0.748665  0.997850  1
  P  P15  1  0.248665  0.244460  0.997850  1
