# generated using pymatgen
data_Tm2Sc2NiOs7
_symmetry_space_group_name_H-M   'P 1'
_cell_length_a   5.21838804
_cell_length_b   5.21838864
_cell_length_c   8.66009500
_cell_angle_alpha   89.52537974
_cell_angle_beta   90.47462032
_cell_angle_gamma   120.65434110
_symmetry_Int_Tables_number   1
_chemical_formula_structural   Tm2Sc2NiOs7
_chemical_formula_sum   'Tm2 Sc2 Ni1 Os7'
_cell_volume   202.86394034
_cell_formula_units_Z   1
loop_
 _symmetry_equiv_pos_site_id
 _symmetry_equiv_pos_as_xyz
  1  'x, y, z'
loop_
 _atom_site_type_symbol
 _atom_site_label
 _atom_site_symmetry_multiplicity
 _atom_site_fract_x
 _atom_site_fract_y
 _atom_site_fract_z
 _atom_site_occupancy
  Tm  Tm0  1  0.669528  0.330472  0.935549  1
  Tm  Tm1  1  0.334889  0.665111  0.067856  1
  Sc  Sc2  1  0.333471  0.666529  0.435897  1
  Sc  Sc3  1  0.668484  0.331516  0.561881  1
  Ni  Ni4  1  0.827894  0.172106  0.255131  1
  Os  Os5  1  0.005628  0.994372  0.497200  1
  Os  Os6  1  0.007028  0.992972  0.002637  1
  Os  Os7  1  0.821290  0.658608  0.253926  1
  Os  Os8  1  0.341392  0.178710  0.253926  1
  Os  Os9  1  0.166776  0.833224  0.746495  1
  Os  Os10  1  0.171055  0.347435  0.744751  1
  Os  Os11  1  0.652565  0.828945  0.744751  1
