# generated using pymatgen
data_Rb2B9PbSe9
_symmetry_space_group_name_H-M   'P 1'
_cell_length_a   9.97428755
_cell_length_b   10.75114009
_cell_length_c   11.31842500
_cell_angle_alpha   100.14274928
_cell_angle_beta   90.63083407
_cell_angle_gamma   116.28969081
_symmetry_Int_Tables_number   1
_chemical_formula_structural   Rb2B9PbSe9
_chemical_formula_sum   'Rb4 B18 Pb2 Se18'
_cell_volume   1065.72241217
_cell_formula_units_Z   2
loop_
 _symmetry_equiv_pos_site_id
 _symmetry_equiv_pos_as_xyz
  1  'x, y, z'
loop_
 _atom_site_type_symbol
 _atom_site_label
 _atom_site_symmetry_multiplicity
 _atom_site_fract_x
 _atom_site_fract_y
 _atom_site_fract_z
 _atom_site_occupancy
  Rb  Rb0  1  0.789338  0.173862  0.004213  1
  Rb  Rb1  1  0.210662  0.826138  0.995787  1
  Rb  Rb2  1  0.178840  0.347435  0.514599  1
  Rb  Rb3  1  0.821160  0.652565  0.485401  1
  B  B4  1  0.515992  0.163178  0.551849  1
  B  B5  1  0.484008  0.836822  0.448151  1
  B  B6  1  0.661584  0.119054  0.587982  1
  B  B7  1  0.338416  0.880946  0.412018  1
  B  B8  1  0.485065  0.041958  0.647556  1
  B  B9  1  0.514935  0.958042  0.352444  1
  B  B10  1  0.339068  0.009543  0.537276  1
  B  B11  1  0.660932  0.990457  0.462724  1
  B  B12  1  0.425181  0.065252  0.405611  1
  B  B13  1  0.574819  0.934748  0.594389  1
  B  B14  1  0.622930  0.131327  0.437874  1
  B  B15  1  0.377070  0.868673  0.562126  1
  B  B16  1  0.754186  0.418268  0.709851  1
  B  B17  1  0.245814  0.581732  0.290149  1
  B  B18  1  0.246749  0.079116  0.779668  1
  B  B19  1  0.753251  0.920884  0.220332  1
  B  B20  1  0.577751  0.283066  0.263317  1
  B  B21  1  0.422249  0.716934  0.736683  1
  Pb  Pb22  1  0.334082  0.370745  0.035872  1
  Pb  Pb23  1  0.665918  0.629255  0.964128  1
  Se  Se24  1  0.557270  0.362975  0.625598  1
  Se  Se25  1  0.442730  0.637025  0.374402  1
  Se  Se26  1  0.837720  0.280614  0.696330  1
  Se  Se27  1  0.162280  0.719386  0.303670  1
  Se  Se28  1  0.445670  0.093254  0.818933  1
  Se  Se29  1  0.554330  0.906746  0.181067  1
  Se  Se30  1  0.163032  0.028981  0.609414  1
  Se  Se31  1  0.836968  0.971019  0.390586  1
  Se  Se32  1  0.368514  0.159607  0.288930  1
  Se  Se33  1  0.631486  0.840393  0.711070  1
  Se  Se34  1  0.749772  0.285619  0.352291  1
  Se  Se35  1  0.250228  0.714381  0.647709  1
  Se  Se36  1  0.873145  0.612512  0.798562  1
  Se  Se37  1  0.126855  0.387488  0.201438  1
  Se  Se38  1  0.124100  0.100196  0.906831  1
  Se  Se39  1  0.875900  0.899804  0.093169  1
  Se  Se40  1  0.621500  0.403735  0.146727  1
  Se  Se41  1  0.378500  0.596265  0.853273  1
