# generated using pymatgen
data_BeAlGa(Ni10B3)2
_symmetry_space_group_name_H-M   'P 1'
_cell_length_a   7.37806549
_cell_length_b   7.37806540
_cell_length_c   7.37806600
_cell_angle_alpha   59.99999732
_cell_angle_beta   59.99999772
_cell_angle_gamma   59.99999808
_symmetry_Int_Tables_number   1
_chemical_formula_structural   BeAlGa(Ni10B3)2
_chemical_formula_sum   'Be1 Al1 Ga1 Ni20 B6'
_cell_volume   283.99619546
_cell_formula_units_Z   1
loop_
 _symmetry_equiv_pos_site_id
 _symmetry_equiv_pos_as_xyz
  1  'x, y, z'
loop_
 _atom_site_type_symbol
 _atom_site_label
 _atom_site_symmetry_multiplicity
 _atom_site_fract_x
 _atom_site_fract_y
 _atom_site_fract_z
 _atom_site_occupancy
  Be  Be0  1  0.000000  0.000000  0.000000  1
  Al  Al1  1  0.250000  0.250000  0.250000  1
  Ga  Ga2  1  0.750000  0.750000  0.750000  1
  Ni  Ni3  1  0.333991  0.000354  0.000354  1
  Ni  Ni4  1  0.000354  0.333991  0.665301  1
  Ni  Ni5  1  0.665301  0.000354  0.000354  1
  Ni  Ni6  1  0.000354  0.665301  0.333991  1
  Ni  Ni7  1  0.000354  0.333991  0.000354  1
  Ni  Ni8  1  0.000354  0.000354  0.333991  1
  Ni  Ni9  1  0.333991  0.000354  0.665301  1
  Ni  Ni10  1  0.333991  0.665301  0.000354  1
  Ni  Ni11  1  0.665301  0.000354  0.333991  1
  Ni  Ni12  1  0.000354  0.000354  0.665301  1
  Ni  Ni13  1  0.000354  0.665301  0.000354  1
  Ni  Ni14  1  0.665301  0.333991  0.000354  1
  Ni  Ni15  1  0.382484  0.382484  0.382484  1
  Ni  Ni16  1  0.382484  0.382484  0.852546  1
  Ni  Ni17  1  0.852546  0.382484  0.382484  1
  Ni  Ni18  1  0.382484  0.852546  0.382484  1
  Ni  Ni19  1  0.617578  0.617578  0.617578  1
  Ni  Ni20  1  0.617578  0.617578  0.147268  1
  Ni  Ni21  1  0.617578  0.147268  0.617578  1
  Ni  Ni22  1  0.147268  0.617578  0.617578  1
  B  B23  1  0.726044  0.726044  0.273956  1
  B  B24  1  0.273956  0.273956  0.726044  1
  B  B25  1  0.273956  0.726044  0.726044  1
  B  B26  1  0.726044  0.273956  0.726044  1
  B  B27  1  0.726044  0.273956  0.273956  1
  B  B28  1  0.273956  0.726044  0.273956  1
