# generated using pymatgen
data_Yb2Al6CoSi3Ir2
_symmetry_space_group_name_H-M   'P 1'
_cell_length_a   7.41098623
_cell_length_b   7.38828214
_cell_length_c   9.38181174
_cell_angle_alpha   90.00294637
_cell_angle_beta   89.94542796
_cell_angle_gamma   120.50622247
_symmetry_Int_Tables_number   1
_chemical_formula_structural   Yb2Al6CoSi3Ir2
_chemical_formula_sum   'Yb4 Al12 Co2 Si6 Ir4'
_cell_volume   442.58688778
_cell_formula_units_Z   2
loop_
 _symmetry_equiv_pos_site_id
 _symmetry_equiv_pos_as_xyz
  1  'x, y, z'
loop_
 _atom_site_type_symbol
 _atom_site_label
 _atom_site_symmetry_multiplicity
 _atom_site_fract_x
 _atom_site_fract_y
 _atom_site_fract_z
 _atom_site_occupancy
  Yb  Yb0  1  0.998459  0.651335  0.253659  1
  Yb  Yb1  1  0.001541  0.348665  0.746341  1
  Yb  Yb2  1  0.663132  0.006585  0.256920  1
  Yb  Yb3  1  0.336868  0.993415  0.743080  1
  Al  Al4  1  0.111059  0.111863  0.249275  1
  Al  Al5  1  0.888941  0.888137  0.750725  1
  Al  Al6  1  0.670880  0.997887  0.931533  1
  Al  Al7  1  0.329120  0.002113  0.068467  1
  Al  Al8  1  0.328778  0.326791  0.560449  1
  Al  Al9  1  0.671222  0.673209  0.439551  1
  Al  Al10  1  0.671674  0.675072  0.060371  1
  Al  Al11  1  0.328326  0.324928  0.939629  1
  Al  Al12  1  0.336093  0.542254  0.249774  1
  Al  Al13  1  0.663907  0.457746  0.750226  1
  Al  Al14  1  0.540463  0.340587  0.250723  1
  Al  Al15  1  0.459537  0.659413  0.749277  1
  Co  Co16  1  0.000000  0.000000  0.000000  1
  Co  Co17  1  0.000000  0.000000  0.500000  1
  Si  Si18  1  0.999713  0.314727  0.062837  1
  Si  Si19  1  0.000287  0.685273  0.937163  1
  Si  Si20  1  0.993233  0.679391  0.569827  1
  Si  Si21  1  0.321225  0.004865  0.423572  1
  Si  Si22  1  0.006767  0.320609  0.430173  1
  Si  Si23  1  0.678775  0.995135  0.576428  1
  Ir  Ir24  1  0.687602  0.338003  0.002265  1
  Ir  Ir25  1  0.312398  0.661997  0.997735  1
  Ir  Ir26  1  0.320563  0.678921  0.500041  1
  Ir  Ir27  1  0.679437  0.321079  0.499959  1
