# generated using pymatgen
data_Er8Ge(Pd5Pt3)3
_symmetry_space_group_name_H-M   'P 1'
_cell_length_a   8.33474100
_cell_length_b   8.32630000
_cell_length_c   8.30305200
_cell_angle_alpha   90.00000000
_cell_angle_beta   90.00000000
_cell_angle_gamma   90.00000000
_symmetry_Int_Tables_number   1
_chemical_formula_structural   Er8Ge(Pd5Pt3)3
_chemical_formula_sum   'Er8 Ge1 Pd15 Pt9'
_cell_volume   576.21149944
_cell_formula_units_Z   1
loop_
 _symmetry_equiv_pos_site_id
 _symmetry_equiv_pos_as_xyz
  1  'x, y, z'
loop_
 _atom_site_type_symbol
 _atom_site_label
 _atom_site_symmetry_multiplicity
 _atom_site_fract_x
 _atom_site_fract_y
 _atom_site_fract_z
 _atom_site_occupancy
  Er  Er0  1  0.253050  0.254338  0.253979  1
  Er  Er1  1  0.745833  0.745533  0.746445  1
  Er  Er2  1  0.745833  0.745533  0.253555  1
  Er  Er3  1  0.746950  0.254338  0.746021  1
  Er  Er4  1  0.253050  0.254338  0.746021  1
  Er  Er5  1  0.254167  0.745533  0.253555  1
  Er  Er6  1  0.254167  0.745533  0.746445  1
  Er  Er7  1  0.746950  0.254338  0.253979  1
  Ge  Ge8  1  0.000000  0.001298  0.000000  1
  Pd  Pd9  1  0.500000  0.257590  0.000000  1
  Pd  Pd10  1  0.000000  0.740410  0.500000  1
  Pd  Pd11  1  0.500000  0.742173  0.000000  1
  Pd  Pd12  1  0.500000  0.000198  0.259078  1
  Pd  Pd13  1  0.259493  0.000198  0.500000  1
  Pd  Pd14  1  0.500000  0.000198  0.740922  1
  Pd  Pd15  1  0.740507  0.000198  0.500000  1
  Pd  Pd16  1  0.000000  0.500632  0.258677  1
  Pd  Pd17  1  0.000000  0.500632  0.741323  1
  Pd  Pd18  1  0.287297  0.000102  0.000000  1
  Pd  Pd19  1  0.712703  0.000102  0.000000  1
  Pd  Pd20  1  0.000000  0.287488  0.000000  1
  Pd  Pd21  1  0.000000  0.714089  0.000000  1
  Pd  Pd22  1  0.000000  0.998914  0.287840  1
  Pd  Pd23  1  0.000000  0.998914  0.712160  1
  Pt  Pt24  1  0.258401  0.500145  0.000000  1
  Pt  Pt25  1  0.741599  0.500145  0.000000  1
  Pt  Pt26  1  0.000000  0.258208  0.500000  1
  Pt  Pt27  1  0.251905  0.499795  0.500000  1
  Pt  Pt28  1  0.748095  0.499795  0.500000  1
  Pt  Pt29  1  0.500000  0.251709  0.500000  1
  Pt  Pt30  1  0.500000  0.748136  0.500000  1
  Pt  Pt31  1  0.500000  0.499726  0.251150  1
  Pt  Pt32  1  0.500000  0.499726  0.748850  1
