# generated using pymatgen
data_Tb7Dy9MgIn3Ru4
_symmetry_space_group_name_H-M   'P 1'
_cell_length_a   9.64442331
_cell_length_b   9.69245144
_cell_length_c   9.67220700
_cell_angle_alpha   60.06906557
_cell_angle_beta   59.90465451
_cell_angle_gamma   59.96259017
_symmetry_Int_Tables_number   1
_chemical_formula_structural   Tb7Dy9MgIn3Ru4
_chemical_formula_sum   'Tb7 Dy9 Mg1 In3 Ru4'
_cell_volume   639.01274629
_cell_formula_units_Z   1
loop_
 _symmetry_equiv_pos_site_id
 _symmetry_equiv_pos_as_xyz
  1  'x, y, z'
loop_
 _atom_site_type_symbol
 _atom_site_label
 _atom_site_symmetry_multiplicity
 _atom_site_fract_x
 _atom_site_fract_y
 _atom_site_fract_z
 _atom_site_occupancy
  Tb  Tb0  1  0.057959  0.058351  0.441845  1
  Tb  Tb1  1  0.190789  0.808690  0.809145  1
  Tb  Tb2  1  0.809004  0.191093  0.190381  1
  Tb  Tb3  1  0.809004  0.191093  0.809523  1
  Tb  Tb4  1  0.190789  0.808690  0.191376  1
  Tb  Tb5  1  0.809273  0.808869  0.190930  1
  Tb  Tb6  1  0.189830  0.191726  0.809222  1
  Dy  Dy7  1  0.598311  0.595623  0.596020  1
  Dy  Dy8  1  0.598311  0.595623  0.210046  1
  Dy  Dy9  1  0.597425  0.210075  0.596250  1
  Dy  Dy10  1  0.206167  0.597493  0.598171  1
  Dy  Dy11  1  0.058104  0.442598  0.441427  1
  Dy  Dy12  1  0.439366  0.061156  0.060789  1
  Dy  Dy13  1  0.439366  0.061156  0.438689  1
  Dy  Dy14  1  0.058104  0.442598  0.057870  1
  Dy  Dy15  1  0.438418  0.439094  0.061244  1
  Mg  Mg16  1  0.520470  0.826721  0.826404  1
  In  In17  1  0.830495  0.832958  0.832957  1
  In  In18  1  0.830495  0.832958  0.503588  1
  In  In19  1  0.830606  0.503805  0.832794  1
  Ru  Ru20  1  0.389083  0.388935  0.389810  1
  Ru  Ru21  1  0.389083  0.388935  0.832170  1
  Ru  Ru22  1  0.388223  0.832993  0.389391  1
  Ru  Ru23  1  0.831316  0.388769  0.389957  1
