# generated using pymatgen
data_LuAg(AuO2)4
_symmetry_space_group_name_H-M   'P 1'
_cell_length_a   6.61786430
_cell_length_b   6.61786577
_cell_length_c   6.61786536
_cell_angle_alpha   125.50480902
_cell_angle_beta   125.50480655
_cell_angle_gamma   80.70356433
_symmetry_Int_Tables_number   1
_chemical_formula_structural   LuAg(AuO2)4
_chemical_formula_sum   'Lu1 Ag1 Au4 O8'
_cell_volume   185.19843621
_cell_formula_units_Z   1
loop_
 _symmetry_equiv_pos_site_id
 _symmetry_equiv_pos_as_xyz
  1  'x, y, z'
loop_
 _atom_site_type_symbol
 _atom_site_label
 _atom_site_symmetry_multiplicity
 _atom_site_fract_x
 _atom_site_fract_y
 _atom_site_fract_z
 _atom_site_occupancy
  Lu  Lu0  1  0.750000  0.250000  0.500000  1
  Ag  Ag1  1  0.000000  0.000000  0.000000  1
  Au  Au2  1  0.872673  0.638337  0.261980  1
  Au  Au3  1  0.376358  0.610694  0.738020  1
  Au  Au4  1  0.389306  0.127327  0.765664  1
  Au  Au5  1  0.361663  0.623642  0.234336  1
  O  O6  1  0.418544  0.246858  0.555613  1
  O  O7  1  0.020979  0.407743  0.026760  1
  O  O8  1  0.005782  0.979021  0.386765  1
  O  O9  1  0.137069  0.581456  0.828314  1
  O  O10  1  0.592257  0.619017  0.613235  1
  O  O11  1  0.753142  0.308756  0.171686  1
  O  O12  1  0.691244  0.862931  0.444387  1
  O  O13  1  0.380983  0.994218  0.973240  1
