# generated using pymatgen
data_YbDy2Tm4Sn23Ir6
_symmetry_space_group_name_H-M   'P 1'
_cell_length_a   9.86027280
_cell_length_b   9.86893996
_cell_length_c   10.09293556
_cell_angle_alpha   90.00000167
_cell_angle_beta   89.96219607
_cell_angle_gamma   120.02907636
_symmetry_Int_Tables_number   1
_chemical_formula_structural   YbDy2Tm4Sn23Ir6
_chemical_formula_sum   'Yb1 Dy2 Tm4 Sn23 Ir6'
_cell_volume   850.31555465
_cell_formula_units_Z   1
loop_
 _symmetry_equiv_pos_site_id
 _symmetry_equiv_pos_as_xyz
  1  'x, y, z'
loop_
 _atom_site_type_symbol
 _atom_site_label
 _atom_site_symmetry_multiplicity
 _atom_site_fract_x
 _atom_site_fract_y
 _atom_site_fract_z
 _atom_site_occupancy
  Yb  Yb0  1  0.000000  0.000000  0.000000  1
  Dy  Dy1  1  0.036825  0.518412  0.306814  1
  Dy  Dy2  1  0.963175  0.481588  0.693186  1
  Tm  Tm3  1  0.482469  0.517046  0.306150  1
  Tm  Tm4  1  0.517531  0.482954  0.693850  1
  Tm  Tm5  1  0.482469  0.965421  0.306150  1
  Tm  Tm6  1  0.517531  0.034579  0.693850  1
  Sn  Sn7  1  0.352524  0.000504  0.000167  1
  Sn  Sn8  1  0.647476  0.999496  0.999833  1
  Sn  Sn9  1  0.000000  0.352111  0.000000  1
  Sn  Sn10  1  0.000000  0.647889  0.000000  1
  Sn  Sn11  1  0.647476  0.647981  0.999833  1
  Sn  Sn12  1  0.352524  0.352019  0.000167  1
  Sn  Sn13  1  0.332938  0.666469  0.824801  1
  Sn  Sn14  1  0.667062  0.333531  0.175199  1
  Sn  Sn15  1  0.000000  0.000000  0.500000  1
  Sn  Sn16  1  0.776381  0.221066  0.459352  1
  Sn  Sn17  1  0.223619  0.778934  0.540648  1
  Sn  Sn18  1  0.776381  0.555315  0.459352  1
  Sn  Sn19  1  0.223619  0.444685  0.540648  1
  Sn  Sn20  1  0.444951  0.222475  0.459672  1
  Sn  Sn21  1  0.555049  0.777525  0.540328  1
  Sn  Sn22  1  0.335824  0.667913  0.124884  1
  Sn  Sn23  1  0.664176  0.332087  0.875116  1
  Sn  Sn24  1  0.118015  0.882346  0.282649  1
  Sn  Sn25  1  0.881985  0.117654  0.717351  1
  Sn  Sn26  1  0.118015  0.235670  0.282649  1
  Sn  Sn27  1  0.881985  0.764330  0.717351  1
  Sn  Sn28  1  0.762225  0.881112  0.283043  1
  Sn  Sn29  1  0.237775  0.118888  0.716957  1
  Ir  Ir30  1  0.828504  0.169496  0.200854  1
  Ir  Ir31  1  0.171496  0.830504  0.799146  1
  Ir  Ir32  1  0.828504  0.659005  0.200854  1
  Ir  Ir33  1  0.171496  0.340995  0.799146  1
  Ir  Ir34  1  0.341914  0.170956  0.201535  1
  Ir  Ir35  1  0.658086  0.829044  0.798465  1
