# generated using pymatgen
data_Na4Si12(As3P)3
_symmetry_space_group_name_H-M   'P 1'
_cell_length_a   3.63517600
_cell_length_b   10.10752777
_cell_length_c   18.11983516
_cell_angle_alpha   89.58884343
_cell_angle_beta   90.00000000
_cell_angle_gamma   90.00000000
_symmetry_Int_Tables_number   1
_chemical_formula_structural   Na4Si12(As3P)3
_chemical_formula_sum   'Na4 Si12 As9 P3'
_cell_volume   665.75348104
_cell_formula_units_Z   1
loop_
 _symmetry_equiv_pos_site_id
 _symmetry_equiv_pos_as_xyz
  1  'x, y, z'
loop_
 _atom_site_type_symbol
 _atom_site_label
 _atom_site_symmetry_multiplicity
 _atom_site_fract_x
 _atom_site_fract_y
 _atom_site_fract_z
 _atom_site_occupancy
  Na  Na0  1  0.000000  0.320742  0.298358  1
  Na  Na1  1  0.000000  0.678682  0.702007  1
  Na  Na2  1  0.000000  0.178817  0.798467  1
  Na  Na3  1  0.000000  0.818831  0.200011  1
  Si  Si4  1  0.500000  0.403860  0.037058  1
  Si  Si5  1  0.500000  0.595972  0.962936  1
  Si  Si6  1  0.500000  0.096183  0.539768  1
  Si  Si7  1  0.500000  0.906493  0.465641  1
  Si  Si8  1  0.000000  0.111835  0.013753  1
  Si  Si9  1  0.000000  0.888252  0.986138  1
  Si  Si10  1  0.000000  0.388056  0.513830  1
  Si  Si11  1  0.000000  0.611973  0.485463  1
  Si  Si12  1  0.000000  0.177563  0.137343  1
  Si  Si13  1  0.000000  0.822359  0.862538  1
  Si  Si14  1  0.000000  0.322677  0.637977  1
  Si  Si15  1  0.000000  0.674610  0.360884  1
  As  As16  1  0.500000  0.106648  0.210588  1
  As  As17  1  0.500000  0.893031  0.789270  1
  As  As18  1  0.500000  0.393376  0.710723  1
  As  As19  1  0.500000  0.601914  0.288735  1
  As  As20  1  0.500000  0.281193  0.452617  1
  As  As21  1  0.500000  0.715876  0.548171  1
  As  As22  1  0.500000  0.218786  0.951706  1
  As  As23  1  0.500000  0.781226  0.048162  1
  As  As24  1  0.000000  0.914159  0.380360  1
  P  P25  1  0.000000  0.403407  0.114709  1
  P  P26  1  0.000000  0.596602  0.885331  1
  P  P27  1  0.000000  0.096877  0.617455  1
