# generated using pymatgen
data_Hf3Al3GaIr2
_symmetry_space_group_name_H-M   'P 1'
_cell_length_a   6.73529300
_cell_length_b   6.73529289
_cell_length_c   4.00986300
_cell_angle_alpha   90.00000000
_cell_angle_beta   90.00000000
_cell_angle_gamma   119.99999564
_symmetry_Int_Tables_number   1
_chemical_formula_structural   Hf3Al3GaIr2
_chemical_formula_sum   'Hf3 Al3 Ga1 Ir2'
_cell_volume   157.53358811
_cell_formula_units_Z   1
loop_
 _symmetry_equiv_pos_site_id
 _symmetry_equiv_pos_as_xyz
  1  'x, y, z'
loop_
 _atom_site_type_symbol
 _atom_site_label
 _atom_site_symmetry_multiplicity
 _atom_site_fract_x
 _atom_site_fract_y
 _atom_site_fract_z
 _atom_site_occupancy
  Hf  Hf0  1  0.409578  0.419771  0.500000  1
  Hf  Hf1  1  0.580229  0.989806  0.500000  1
  Hf  Hf2  1  0.010194  0.590422  0.500000  1
  Al  Al3  1  0.752751  0.763111  0.000000  1
  Al  Al4  1  0.236889  0.989640  0.000000  1
  Al  Al5  1  0.010360  0.247249  0.000000  1
  Ga  Ga6  1  0.666667  0.333333  0.000000  1
  Ir  Ir7  1  0.333333  0.666667  0.000000  1
  Ir  Ir8  1  0.000000  0.000000  0.500000  1
