# generated using pymatgen
data_Dy16In3HgIr2PdRu
_symmetry_space_group_name_H-M   'P 1'
_cell_length_a   9.65610072
_cell_length_b   9.65610143
_cell_length_c   9.64982100
_cell_angle_alpha   59.81971301
_cell_angle_beta   59.81971059
_cell_angle_gamma   59.82078395
_symmetry_Int_Tables_number   1
_chemical_formula_structural   Dy16In3HgIr2PdRu
_chemical_formula_sum   'Dy16 In3 Hg1 Ir2 Pd1 Ru1'
_cell_volume   633.62243006
_cell_formula_units_Z   1
loop_
 _symmetry_equiv_pos_site_id
 _symmetry_equiv_pos_as_xyz
  1  'x, y, z'
loop_
 _atom_site_type_symbol
 _atom_site_label
 _atom_site_symmetry_multiplicity
 _atom_site_fract_x
 _atom_site_fract_y
 _atom_site_fract_z
 _atom_site_occupancy
  Dy  Dy0  1  0.599170  0.599170  0.599542  1
  Dy  Dy1  1  0.603697  0.603697  0.196868  1
  Dy  Dy2  1  0.602201  0.199237  0.603508  1
  Dy  Dy3  1  0.199237  0.602201  0.603508  1
  Dy  Dy4  1  0.054640  0.440819  0.440935  1
  Dy  Dy5  1  0.438766  0.061695  0.058638  1
  Dy  Dy6  1  0.440819  0.054640  0.440935  1
  Dy  Dy7  1  0.061695  0.438766  0.058638  1
  Dy  Dy8  1  0.440117  0.440117  0.052894  1
  Dy  Dy9  1  0.059524  0.059524  0.439402  1
  Dy  Dy10  1  0.186578  0.809753  0.812491  1
  Dy  Dy11  1  0.814282  0.186299  0.186655  1
  Dy  Dy12  1  0.809753  0.186578  0.812491  1
  Dy  Dy13  1  0.186299  0.814282  0.186655  1
  Dy  Dy14  1  0.811667  0.811667  0.186564  1
  Dy  Dy15  1  0.186885  0.186885  0.815029  1
  In  In16  1  0.832075  0.832075  0.504122  1
  In  In17  1  0.832689  0.502598  0.832644  1
  In  In18  1  0.502598  0.832689  0.832644  1
  Hg  Hg19  1  0.836327  0.836327  0.836781  1
  Ir  Ir20  1  0.392234  0.823941  0.391377  1
  Ir  Ir21  1  0.823941  0.392234  0.391377  1
  Pd  Pd22  1  0.392721  0.392721  0.391262  1
  Ru  Ru23  1  0.392085  0.392085  0.825040  1
