# generated using pymatgen
data_ScTaBe4Ru5
_symmetry_space_group_name_H-M   'P 1'
_cell_length_a   3.18480100
_cell_length_b   8.58245032
_cell_length_c   10.10811890
_cell_angle_alpha   90.59970485
_cell_angle_beta   90.00000000
_cell_angle_gamma   90.00000000
_symmetry_Int_Tables_number   1
_chemical_formula_structural   ScTaBe4Ru5
_chemical_formula_sum   'Sc2 Ta2 Be8 Ru10'
_cell_volume   276.27408601
_cell_formula_units_Z   2
loop_
 _symmetry_equiv_pos_site_id
 _symmetry_equiv_pos_as_xyz
  1  'x, y, z'
loop_
 _atom_site_type_symbol
 _atom_site_label
 _atom_site_symmetry_multiplicity
 _atom_site_fract_x
 _atom_site_fract_y
 _atom_site_fract_z
 _atom_site_occupancy
  Sc  Sc0  1  0.500000  0.657801  0.679384  1
  Sc  Sc1  1  0.500000  0.342199  0.320616  1
  Ta  Ta2  1  0.500000  0.841937  0.182364  1
  Ta  Ta3  1  0.500000  0.158063  0.817636  1
  Be  Be4  1  0.500000  0.963440  0.594285  1
  Be  Be5  1  0.500000  0.036560  0.405715  1
  Be  Be6  1  0.500000  0.842427  0.903572  1
  Be  Be7  1  0.500000  0.157573  0.096428  1
  Be  Be8  1  0.500000  0.657028  0.405130  1
  Be  Be9  1  0.500000  0.342972  0.594870  1
  Be  Be10  1  0.500000  0.465248  0.904765  1
  Be  Be11  1  0.500000  0.534752  0.095235  1
  Ru  Ru12  1  0.000000  0.661178  0.956884  1
  Ru  Ru13  1  0.000000  0.338822  0.043116  1
  Ru  Ru14  1  0.000000  0.842797  0.450045  1
  Ru  Ru15  1  0.000000  0.157203  0.549955  1
  Ru  Ru16  1  0.000000  0.000000  0.000000  1
  Ru  Ru17  1  0.000000  0.392042  0.758999  1
  Ru  Ru18  1  0.000000  0.607958  0.241001  1
  Ru  Ru19  1  0.000000  0.500000  0.500000  1
  Ru  Ru20  1  0.000000  0.910292  0.743478  1
  Ru  Ru21  1  0.000000  0.089708  0.256522  1
