# generated using pymatgen
data_Ac7La9Cd4(IrOs)2
_symmetry_space_group_name_H-M   'P 1'
_cell_length_a   10.26982005
_cell_length_b   10.26986064
_cell_length_c   10.32177481
_cell_angle_alpha   59.91302964
_cell_angle_beta   59.91270191
_cell_angle_gamma   60.11296716
_symmetry_Int_Tables_number   1
_chemical_formula_structural   Ac7La9Cd4(IrOs)2
_chemical_formula_sum   'Ac7 La9 Cd4 Ir2 Os2'
_cell_volume   769.41731163
_cell_formula_units_Z   1
loop_
 _symmetry_equiv_pos_site_id
 _symmetry_equiv_pos_as_xyz
  1  'x, y, z'
loop_
 _atom_site_type_symbol
 _atom_site_label
 _atom_site_symmetry_multiplicity
 _atom_site_fract_x
 _atom_site_fract_y
 _atom_site_fract_z
 _atom_site_occupancy
  Ac  Ac0  1  0.809123  0.809133  0.190976  1
  Ac  Ac1  1  0.942898  0.554699  0.561859  1
  Ac  Ac2  1  0.553036  0.943942  0.942847  1
  Ac  Ac3  1  0.554697  0.942897  0.561861  1
  Ac  Ac4  1  0.943938  0.553032  0.942855  1
  Ac  Ac5  1  0.556635  0.556631  0.944576  1
  Ac  Ac6  1  0.943646  0.943639  0.556511  1
  La  La7  1  0.344364  0.344358  0.347952  1
  La  La8  1  0.345065  0.345062  0.961026  1
  La  La9  1  0.342947  0.966580  0.344401  1
  La  La10  1  0.966576  0.342945  0.344406  1
  La  La11  1  0.813404  0.189208  0.188510  1
  La  La12  1  0.189298  0.813809  0.808411  1
  La  La13  1  0.189206  0.813404  0.188510  1
  La  La14  1  0.813815  0.189296  0.808403  1
  La  La15  1  0.187337  0.187340  0.812576  1
  Cd  Cd16  1  0.575875  0.575877  0.578787  1
  Cd  Cd17  1  0.576496  0.576503  0.266637  1
  Cd  Cd18  1  0.577950  0.266863  0.577071  1
  Cd  Cd19  1  0.266861  0.577954  0.577068  1
  Ir  Ir20  1  0.149342  0.577468  0.136957  1
  Ir  Ir21  1  0.577468  0.149339  0.136961  1
  Os  Os22  1  0.140155  0.140155  0.138876  1
  Os  Os23  1  0.139866  0.139868  0.581963  1
