# generated using pymatgen
data_Sm12B3SBr12
_symmetry_space_group_name_H-M   'P 1'
_cell_length_a   10.04069091
_cell_length_b   10.04069012
_cell_length_c   10.04069144
_cell_angle_alpha   109.78096381
_cell_angle_beta   109.78095982
_cell_angle_gamma   109.78096453
_symmetry_Int_Tables_number   1
_chemical_formula_structural   Sm12B3SBr12
_chemical_formula_sum   'Sm12 B3 S1 Br12'
_cell_volume   770.17003247
_cell_formula_units_Z   1
loop_
 _symmetry_equiv_pos_site_id
 _symmetry_equiv_pos_as_xyz
  1  'x, y, z'
loop_
 _atom_site_type_symbol
 _atom_site_label
 _atom_site_symmetry_multiplicity
 _atom_site_fract_x
 _atom_site_fract_y
 _atom_site_fract_z
 _atom_site_occupancy
  Sm  Sm0  1  0.466835  0.492017  0.225151  1
  Sm  Sm1  1  0.750000  0.229686  0.270314  1
  Sm  Sm2  1  0.750000  0.018344  0.481656  1
  Sm  Sm3  1  0.225151  0.466835  0.492017  1
  Sm  Sm4  1  0.270314  0.750000  0.229686  1
  Sm  Sm5  1  0.033165  0.274849  0.007983  1
  Sm  Sm6  1  0.007983  0.033165  0.274849  1
  Sm  Sm7  1  0.481656  0.750000  0.018344  1
  Sm  Sm8  1  0.492017  0.225151  0.466835  1
  Sm  Sm9  1  0.018344  0.481656  0.750000  1
  Sm  Sm10  1  0.274849  0.007983  0.033165  1
  Sm  Sm11  1  0.229686  0.270314  0.750000  1
  B  B12  1  0.498748  0.001252  0.250000  1
  B  B13  1  0.001252  0.250000  0.498748  1
  B  B14  1  0.250000  0.498748  0.001252  1
  S  S15  1  0.250000  0.250000  0.250000  1
  Br  Br16  1  0.250000  0.758603  0.741397  1
  Br  Br17  1  0.514199  0.506832  0.756445  1
  Br  Br18  1  0.985801  0.743555  0.993168  1
  Br  Br19  1  0.741397  0.250000  0.758603  1
  Br  Br20  1  0.993168  0.985801  0.743555  1
  Br  Br21  1  0.250000  0.993067  0.506933  1
  Br  Br22  1  0.756445  0.514199  0.506832  1
  Br  Br23  1  0.506933  0.250000  0.993067  1
  Br  Br24  1  0.758603  0.741397  0.250000  1
  Br  Br25  1  0.743555  0.993168  0.985801  1
  Br  Br26  1  0.993067  0.506933  0.250000  1
  Br  Br27  1  0.506832  0.756445  0.514199  1
