# generated using pymatgen
data_Ho10Tm5Sc5Bi12
_symmetry_space_group_name_H-M   'P 1'
_cell_length_a   8.07099136
_cell_length_b   9.35092651
_cell_length_c   11.89270588
_cell_angle_alpha   89.94687719
_cell_angle_beta   90.07811647
_cell_angle_gamma   89.97261537
_symmetry_Int_Tables_number   1
_chemical_formula_structural   Ho10Tm5Sc5Bi12
_chemical_formula_sum   'Ho10 Tm5 Sc5 Bi12'
_cell_volume   897.55601977
_cell_formula_units_Z   1
loop_
 _symmetry_equiv_pos_site_id
 _symmetry_equiv_pos_as_xyz
  1  'x, y, z'
loop_
 _atom_site_type_symbol
 _atom_site_label
 _atom_site_symmetry_multiplicity
 _atom_site_fract_x
 _atom_site_fract_y
 _atom_site_fract_z
 _atom_site_occupancy
  Ho  Ho0  1  0.353194  0.247544  0.282292  1
  Ho  Ho1  1  0.644133  0.749598  0.716751  1
  Ho  Ho2  1  0.144878  0.749009  0.784080  1
  Ho  Ho3  1  0.855314  0.249277  0.215835  1
  Ho  Ho4  1  0.184993  0.249274  0.781215  1
  Ho  Ho5  1  0.814324  0.749524  0.218955  1
  Ho  Ho6  1  0.314830  0.750483  0.280771  1
  Ho  Ho7  1  0.684693  0.249493  0.719973  1
  Ho  Ho8  1  0.805192  0.934915  0.941149  1
  Ho  Ho9  1  0.304321  0.934728  0.558836  1
  Tm  Tm10  1  0.806037  0.565748  0.941819  1
  Tm  Tm11  1  0.695512  0.065870  0.440913  1
  Tm  Tm12  1  0.195395  0.435123  0.058837  1
  Tm  Tm13  1  0.695854  0.433884  0.440997  1
  Tm  Tm14  1  0.304498  0.566001  0.559119  1
  Sc  Sc15  1  0.024164  0.249926  0.511835  1
  Sc  Sc16  1  0.975748  0.749610  0.486957  1
  Sc  Sc17  1  0.475512  0.750207  0.012329  1
  Sc  Sc18  1  0.522193  0.248147  0.988728  1
  Sc  Sc19  1  0.196291  0.068771  0.058227  1
  Bi  Bi20  1  0.401977  0.251169  0.542030  1
  Bi  Bi21  1  0.598787  0.749466  0.457258  1
  Bi  Bi22  1  0.100948  0.756645  0.043794  1
  Bi  Bi23  1  0.905253  0.248953  0.958723  1
  Bi  Bi24  1  0.066402  0.003868  0.329028  1
  Bi  Bi25  1  0.933607  0.995853  0.668991  1
  Bi  Bi26  1  0.432127  0.995905  0.832183  1
  Bi  Bi27  1  0.933719  0.503325  0.669255  1
  Bi  Bi28  1  0.563881  0.003698  0.168245  1
  Bi  Bi29  1  0.066320  0.495762  0.330203  1
  Bi  Bi30  1  0.566024  0.495139  0.169145  1
  Bi  Bi31  1  0.433881  0.503087  0.831530  1
