# generated using pymatgen
data_Pm4Mn(MoO4)3
_symmetry_space_group_name_H-M   'P 1'
_cell_length_a   5.58871216
_cell_length_b   5.89976276
_cell_length_c   8.12249718
_cell_angle_alpha   89.92265524
_cell_angle_beta   90.14078596
_cell_angle_gamma   89.78928476
_symmetry_Int_Tables_number   1
_chemical_formula_structural   Pm4Mn(MoO4)3
_chemical_formula_sum   'Pm4 Mn1 Mo3 O12'
_cell_volume   267.81272655
_cell_formula_units_Z   1
loop_
 _symmetry_equiv_pos_site_id
 _symmetry_equiv_pos_as_xyz
  1  'x, y, z'
loop_
 _atom_site_type_symbol
 _atom_site_label
 _atom_site_symmetry_multiplicity
 _atom_site_fract_x
 _atom_site_fract_y
 _atom_site_fract_z
 _atom_site_occupancy
  Pm  Pm0  1  0.983713  0.060416  0.249154  1
  Pm  Pm1  1  0.518767  0.568492  0.247764  1
  Pm  Pm2  1  0.481233  0.431508  0.752236  1
  Pm  Pm3  1  0.016286  0.939584  0.750846  1
  Mn  Mn4  1  0.500000  0.000000  0.000000  1
  Mo  Mo5  1  0.000000  0.500001  0.000000  1
  Mo  Mo6  1  0.500000  0.000000  0.500000  1
  Mo  Mo7  1  0.000000  0.500001  0.500000  1
  O  O8  1  0.700768  0.316817  0.056190  1
  O  O9  1  0.820452  0.793570  0.061594  1
  O  O10  1  0.124196  0.445956  0.248529  1
  O  O11  1  0.377553  0.947419  0.250123  1
  O  O12  1  0.689634  0.306065  0.431646  1
  O  O13  1  0.812329  0.805729  0.433515  1
  O  O14  1  0.187672  0.194271  0.566486  1
  O  O15  1  0.310367  0.693935  0.568355  1
  O  O16  1  0.622447  0.052581  0.749877  1
  O  O17  1  0.875805  0.554044  0.751471  1
  O  O18  1  0.179549  0.206430  0.938405  1
  O  O19  1  0.299233  0.683183  0.943809  1
