# generated using pymatgen
data_Sc4Cu2B4IrRh9
_symmetry_space_group_name_H-M   'P 1'
_cell_length_a   9.34300119
_cell_length_b   3.05418600
_cell_length_c   9.34300119
_cell_angle_alpha   90.00000000
_cell_angle_beta   89.89141827
_cell_angle_gamma   90.00000000
_symmetry_Int_Tables_number   1
_chemical_formula_structural   Sc4Cu2B4IrRh9
_chemical_formula_sum   'Sc4 Cu2 B4 Ir1 Rh9'
_cell_volume   266.60452171
_cell_formula_units_Z   1
loop_
 _symmetry_equiv_pos_site_id
 _symmetry_equiv_pos_as_xyz
  1  'x, y, z'
loop_
 _atom_site_type_symbol
 _atom_site_label
 _atom_site_symmetry_multiplicity
 _atom_site_fract_x
 _atom_site_fract_y
 _atom_site_fract_z
 _atom_site_occupancy
  Sc  Sc0  1  0.677308  0.000000  0.177308  1
  Sc  Sc1  1  0.175894  0.000000  0.324106  1
  Sc  Sc2  1  0.824106  0.000000  0.675894  1
  Sc  Sc3  1  0.322692  0.000000  0.822692  1
  Cu  Cu4  1  0.000000  0.000000  0.000000  1
  Cu  Cu5  1  0.500001  0.000000  0.500001  1
  B  B6  1  0.373326  0.000000  0.126674  1
  B  B7  1  0.873595  0.000000  0.373594  1
  B  B8  1  0.126406  0.000000  0.626406  1
  B  B9  1  0.626674  0.000000  0.873327  1
  Ir  Ir10  1  0.500001  0.499999  0.000000  1
  Rh  Rh11  1  0.215926  0.499999  0.071101  1
  Rh  Rh12  1  0.929913  0.499999  0.216672  1
  Rh  Rh13  1  0.428899  0.499999  0.284073  1
  Rh  Rh14  1  0.716673  0.499999  0.429913  1
  Rh  Rh15  1  0.000000  0.499999  0.500001  1
  Rh  Rh16  1  0.283327  0.499999  0.570088  1
  Rh  Rh17  1  0.571102  0.499999  0.715927  1
  Rh  Rh18  1  0.070087  0.499999  0.783328  1
  Rh  Rh19  1  0.784074  0.499999  0.928899  1
