# generated using pymatgen
data_HoTh(ReO4)6
_symmetry_space_group_name_H-M   'P 1'
_cell_length_a   10.36298100
_cell_length_b   10.36298069
_cell_length_c   6.24017400
_cell_angle_alpha   90.00000000
_cell_angle_beta   90.00000000
_cell_angle_gamma   119.99999484
_symmetry_Int_Tables_number   1
_chemical_formula_structural   HoTh(ReO4)6
_chemical_formula_sum   'Ho1 Th1 Re6 O24'
_cell_volume   580.35902789
_cell_formula_units_Z   1
loop_
 _symmetry_equiv_pos_site_id
 _symmetry_equiv_pos_as_xyz
  1  'x, y, z'
loop_
 _atom_site_type_symbol
 _atom_site_label
 _atom_site_symmetry_multiplicity
 _atom_site_fract_x
 _atom_site_fract_y
 _atom_site_fract_z
 _atom_site_occupancy
  Ho  Ho0  1  0.333333  0.666667  0.250000  1
  Th  Th1  1  0.666667  0.333333  0.750000  1
  Re  Re2  1  0.096676  0.400692  0.750000  1
  Re  Re3  1  0.390062  0.304684  0.250000  1
  Re  Re4  1  0.599308  0.695982  0.750000  1
  Re  Re5  1  0.914621  0.609938  0.250000  1
  Re  Re6  1  0.304018  0.903324  0.750000  1
  Re  Re7  1  0.695316  0.085379  0.250000  1
  O  O8  1  0.485733  0.651838  0.520646  1
  O  O9  1  0.348162  0.833896  0.520646  1
  O  O10  1  0.859404  0.741867  0.250000  1
  O  O11  1  0.115550  0.842785  0.750000  1
  O  O12  1  0.258133  0.117537  0.250000  1
  O  O13  1  0.157215  0.272766  0.750000  1
  O  O14  1  0.507475  0.344592  0.021023  1
  O  O15  1  0.882463  0.140596  0.250000  1
  O  O16  1  0.109722  0.690503  0.250000  1
  O  O17  1  0.166104  0.514267  0.979354  1
  O  O18  1  0.166104  0.514267  0.520646  1
  O  O19  1  0.900132  0.309794  0.750000  1
  O  O20  1  0.309497  0.419219  0.250000  1
  O  O21  1  0.690206  0.590339  0.750000  1
  O  O22  1  0.837117  0.492525  0.478977  1
  O  O23  1  0.409661  0.099868  0.750000  1
  O  O24  1  0.655408  0.162883  0.021023  1
  O  O25  1  0.485733  0.651838  0.979354  1
  O  O26  1  0.348162  0.833896  0.979354  1
  O  O27  1  0.655408  0.162883  0.478977  1
  O  O28  1  0.507475  0.344592  0.478977  1
  O  O29  1  0.837117  0.492525  0.021023  1
  O  O30  1  0.727234  0.884450  0.750000  1
  O  O31  1  0.580781  0.890278  0.250000  1
