# generated using pymatgen
data_Er6Ga7Rh16
_symmetry_space_group_name_H-M   'P 1'
_cell_length_a   8.82713375
_cell_length_b   8.82713338
_cell_length_c   8.82713400
_cell_angle_alpha   59.99999766
_cell_angle_beta   59.99999907
_cell_angle_gamma   59.99999797
_symmetry_Int_Tables_number   1
_chemical_formula_structural   Er6Ga7Rh16
_chemical_formula_sum   'Er6 Ga7 Rh16'
_cell_volume   486.34460224
_cell_formula_units_Z   1
loop_
 _symmetry_equiv_pos_site_id
 _symmetry_equiv_pos_as_xyz
  1  'x, y, z'
loop_
 _atom_site_type_symbol
 _atom_site_label
 _atom_site_symmetry_multiplicity
 _atom_site_fract_x
 _atom_site_fract_y
 _atom_site_fract_z
 _atom_site_occupancy
  Er  Er0  1  0.718158  0.718158  0.281842  1
  Er  Er1  1  0.281842  0.718158  0.281842  1
  Er  Er2  1  0.718158  0.281842  0.281842  1
  Er  Er3  1  0.281842  0.281842  0.718158  1
  Er  Er4  1  0.718158  0.281842  0.718158  1
  Er  Er5  1  0.281842  0.718158  0.718158  1
  Ga  Ga6  1  0.000000  0.000000  0.000000  1
  Ga  Ga7  1  0.000000  0.000000  0.500000  1
  Ga  Ga8  1  0.500000  0.000000  0.500000  1
  Ga  Ga9  1  0.000000  0.500000  0.500000  1
  Ga  Ga10  1  0.500000  0.500000  0.000000  1
  Ga  Ga11  1  0.000000  0.500000  0.000000  1
  Ga  Ga12  1  0.500000  0.000000  0.000000  1
  Rh  Rh13  1  0.879380  0.879380  0.361860  1
  Rh  Rh14  1  0.879380  0.361860  0.879380  1
  Rh  Rh15  1  0.361860  0.879380  0.879380  1
  Rh  Rh16  1  0.879380  0.879380  0.879380  1
  Rh  Rh17  1  0.120620  0.120620  0.638140  1
  Rh  Rh18  1  0.120620  0.638140  0.120620  1
  Rh  Rh19  1  0.638140  0.120620  0.120620  1
  Rh  Rh20  1  0.120620  0.120620  0.120620  1
  Rh  Rh21  1  0.665302  0.665302  0.004092  1
  Rh  Rh22  1  0.665302  0.004092  0.665302  1
  Rh  Rh23  1  0.004092  0.665302  0.665302  1
  Rh  Rh24  1  0.665302  0.665302  0.665302  1
  Rh  Rh25  1  0.334698  0.334698  0.995908  1
  Rh  Rh26  1  0.334698  0.995908  0.334698  1
  Rh  Rh27  1  0.995908  0.334698  0.334698  1
  Rh  Rh28  1  0.334698  0.334698  0.334698  1
