# generated using pymatgen
data_Y8Hg3BiAu8
_symmetry_space_group_name_H-M   'P 1'
_cell_length_a   8.07371300
_cell_length_b   8.07371300
_cell_length_c   7.39536800
_cell_angle_alpha   90.00000000
_cell_angle_beta   90.00000000
_cell_angle_gamma   90.00000000
_symmetry_Int_Tables_number   1
_chemical_formula_structural   Y8Hg3BiAu8
_chemical_formula_sum   'Y8 Hg3 Bi1 Au8'
_cell_volume   482.06589170
_cell_formula_units_Z   1
loop_
 _symmetry_equiv_pos_site_id
 _symmetry_equiv_pos_as_xyz
  1  'x, y, z'
loop_
 _atom_site_type_symbol
 _atom_site_label
 _atom_site_symmetry_multiplicity
 _atom_site_fract_x
 _atom_site_fract_y
 _atom_site_fract_z
 _atom_site_occupancy
  Y  Y0  1  0.838778  0.158138  0.501996  1
  Y  Y1  1  0.161222  0.841862  0.501996  1
  Y  Y2  1  0.341862  0.338778  0.998004  1
  Y  Y3  1  0.658138  0.661222  0.998004  1
  Y  Y4  1  0.681568  0.686378  0.501394  1
  Y  Y5  1  0.318432  0.313622  0.501394  1
  Y  Y6  1  0.186378  0.818432  0.998606  1
  Y  Y7  1  0.813622  0.181568  0.998606  1
  Hg  Hg8  1  0.500000  0.000000  0.250000  1
  Hg  Hg9  1  0.000000  0.500000  0.750000  1
  Hg  Hg10  1  0.500000  0.000000  0.750000  1
  Bi  Bi11  1  0.000000  0.500000  0.250000  1
  Au  Au12  1  0.621673  0.369855  0.275774  1
  Au  Au13  1  0.378327  0.630145  0.275774  1
  Au  Au14  1  0.126873  0.126340  0.774215  1
  Au  Au15  1  0.873127  0.873660  0.774215  1
  Au  Au16  1  0.373660  0.626873  0.725785  1
  Au  Au17  1  0.626340  0.373127  0.725785  1
  Au  Au18  1  0.869855  0.878327  0.224226  1
  Au  Au19  1  0.130145  0.121673  0.224226  1
