# generated using pymatgen
data_YbTm3Ga2Co6(NiB)6
_symmetry_space_group_name_H-M   'P 1'
_cell_length_a   5.09897500
_cell_length_b   5.09897399
_cell_length_c   12.46283400
_cell_angle_alpha   90.00000000
_cell_angle_beta   90.00000000
_cell_angle_gamma   120.00000010
_symmetry_Int_Tables_number   1
_chemical_formula_structural   YbTm3Ga2Co6(NiB)6
_chemical_formula_sum   'Yb1 Tm3 Ga2 Co6 Ni6 B6'
_cell_volume   280.61644636
_cell_formula_units_Z   1
loop_
 _symmetry_equiv_pos_site_id
 _symmetry_equiv_pos_as_xyz
  1  'x, y, z'
loop_
 _atom_site_type_symbol
 _atom_site_label
 _atom_site_symmetry_multiplicity
 _atom_site_fract_x
 _atom_site_fract_y
 _atom_site_fract_z
 _atom_site_occupancy
  Yb  Yb0  1  0.000000  0.000000  0.000000  1
  Tm  Tm1  1  0.000000  0.000000  0.500000  1
  Tm  Tm2  1  0.000000  0.000000  0.738296  1
  Tm  Tm3  1  0.000000  0.000000  0.261704  1
  Ga  Ga4  1  0.666667  0.333333  0.000000  1
  Ga  Ga5  1  0.333333  0.666667  0.000000  1
  Co  Co6  1  0.500000  0.500000  0.615355  1
  Co  Co7  1  0.500000  0.000000  0.615355  1
  Co  Co8  1  0.000000  0.500000  0.615355  1
  Co  Co9  1  0.500000  0.500000  0.384645  1
  Co  Co10  1  0.500000  0.000000  0.384645  1
  Co  Co11  1  0.000000  0.500000  0.384645  1
  Ni  Ni12  1  0.500000  0.500000  0.840580  1
  Ni  Ni13  1  0.500000  0.000000  0.840580  1
  Ni  Ni14  1  0.000000  0.500000  0.840580  1
  Ni  Ni15  1  0.500000  0.500000  0.159420  1
  Ni  Ni16  1  0.500000  0.000000  0.159420  1
  Ni  Ni17  1  0.000000  0.500000  0.159420  1
  B  B18  1  0.666667  0.333333  0.500000  1
  B  B19  1  0.333333  0.666667  0.500000  1
  B  B20  1  0.666667  0.333333  0.728839  1
  B  B21  1  0.333333  0.666667  0.728839  1
  B  B22  1  0.333333  0.666667  0.271161  1
  B  B23  1  0.666667  0.333333  0.271161  1
