# generated using pymatgen
data_BaPr(Cu3Pt2)2
_symmetry_space_group_name_H-M   'P 1'
_cell_length_a   4.10070600
_cell_length_b   5.64399900
_cell_length_c   8.98310800
_cell_angle_alpha   90.00000000
_cell_angle_beta   90.00000000
_cell_angle_gamma   90.00000000
_symmetry_Int_Tables_number   1
_chemical_formula_structural   BaPr(Cu3Pt2)2
_chemical_formula_sum   'Ba1 Pr1 Cu6 Pt4'
_cell_volume   207.90847019
_cell_formula_units_Z   1
loop_
 _symmetry_equiv_pos_site_id
 _symmetry_equiv_pos_as_xyz
  1  'x, y, z'
loop_
 _atom_site_type_symbol
 _atom_site_label
 _atom_site_symmetry_multiplicity
 _atom_site_fract_x
 _atom_site_fract_y
 _atom_site_fract_z
 _atom_site_occupancy
  Ba  Ba0  1  0.000000  0.000000  0.000000  1
  Pr  Pr1  1  0.000000  0.500000  0.500000  1
  Cu  Cu2  1  0.000000  0.000000  0.346105  1
  Cu  Cu3  1  0.000000  0.500000  0.836408  1
  Cu  Cu4  1  0.000000  0.500000  0.163592  1
  Cu  Cu5  1  0.000000  0.000000  0.653895  1
  Cu  Cu6  1  0.500000  0.000000  0.500000  1
  Cu  Cu7  1  0.500000  0.500000  0.000000  1
  Pt  Pt8  1  0.500000  0.258305  0.263384  1
  Pt  Pt9  1  0.500000  0.741695  0.736616  1
  Pt  Pt10  1  0.500000  0.741695  0.263384  1
  Pt  Pt11  1  0.500000  0.258305  0.736616  1
