# generated using pymatgen
data_Yb7Tl2SiN2
_symmetry_space_group_name_H-M   'P 1'
_cell_length_a   12.19009600
_cell_length_b   12.19009577
_cell_length_c   4.71951300
_cell_angle_alpha   90.00000000
_cell_angle_beta   90.00000000
_cell_angle_gamma   157.37993837
_symmetry_Int_Tables_number   1
_chemical_formula_structural   Yb7Tl2SiN2
_chemical_formula_sum   'Yb7 Tl2 Si1 N2'
_cell_volume   269.73770627
_cell_formula_units_Z   1
loop_
 _symmetry_equiv_pos_site_id
 _symmetry_equiv_pos_as_xyz
  1  'x, y, z'
loop_
 _atom_site_type_symbol
 _atom_site_label
 _atom_site_symmetry_multiplicity
 _atom_site_fract_x
 _atom_site_fract_y
 _atom_site_fract_z
 _atom_site_occupancy
  Yb  Yb0  1  0.000000  0.000000  0.000000  1
  Yb  Yb1  1  0.803682  0.196319  0.000000  1
  Yb  Yb2  1  0.590596  0.409405  0.000000  1
  Yb  Yb3  1  0.409405  0.590596  0.000000  1
  Yb  Yb4  1  0.196319  0.803682  0.000000  1
  Yb  Yb5  1  0.907688  0.092313  0.500000  1
  Yb  Yb6  1  0.092313  0.907688  0.500000  1
  Tl  Tl7  1  0.699522  0.300479  0.500000  1
  Tl  Tl8  1  0.300479  0.699522  0.500000  1
  Si  Si9  1  0.500000  0.500000  0.500000  1
  N  N10  1  0.897125  0.102876  0.000000  1
  N  N11  1  0.102876  0.897125  0.000000  1
