# generated using pymatgen
data_Th3GaIr2RhAu2
_symmetry_space_group_name_H-M   'P 1'
_cell_length_a   7.50703800
_cell_length_b   7.58727982
_cell_length_c   3.89973200
_cell_angle_alpha   90.00000000
_cell_angle_beta   90.00000000
_cell_angle_gamma   119.65078391
_symmetry_Int_Tables_number   1
_chemical_formula_structural   Th3GaIr2RhAu2
_chemical_formula_sum   'Th3 Ga1 Ir2 Rh1 Au2'
_cell_volume   193.03569863
_cell_formula_units_Z   1
loop_
 _symmetry_equiv_pos_site_id
 _symmetry_equiv_pos_as_xyz
  1  'x, y, z'
loop_
 _atom_site_type_symbol
 _atom_site_label
 _atom_site_symmetry_multiplicity
 _atom_site_fract_x
 _atom_site_fract_y
 _atom_site_fract_z
 _atom_site_occupancy
  Th  Th0  1  0.003895  0.397999  0.500000  1
  Th  Th1  1  0.605897  0.602001  0.500000  1
  Th  Th2  1  0.400355  0.000000  0.500000  1
  Ga  Ga3  1  0.740726  0.000000  0.000000  1
  Ir  Ir4  1  0.357255  0.680528  0.000000  1
  Ir  Ir5  1  0.676728  0.319472  0.000000  1
  Rh  Rh6  1  0.955033  0.000000  0.500000  1
  Au  Au7  1  0.005105  0.750100  0.000000  1
  Au  Au8  1  0.255005  0.249900  0.000000  1
