# generated using pymatgen
data_TiNb4Si(B2Ru5)2
_symmetry_space_group_name_H-M   'P 1'
_cell_length_a   9.33439200
_cell_length_b   9.33439200
_cell_length_c   2.98780200
_cell_angle_alpha   90.00000000
_cell_angle_beta   90.00000000
_cell_angle_gamma   90.00000000
_symmetry_Int_Tables_number   1
_chemical_formula_structural   TiNb4Si(B2Ru5)2
_chemical_formula_sum   'Ti1 Nb4 Si1 B4 Ru10'
_cell_volume   260.32979963
_cell_formula_units_Z   1
loop_
 _symmetry_equiv_pos_site_id
 _symmetry_equiv_pos_as_xyz
  1  'x, y, z'
loop_
 _atom_site_type_symbol
 _atom_site_label
 _atom_site_symmetry_multiplicity
 _atom_site_fract_x
 _atom_site_fract_y
 _atom_site_fract_z
 _atom_site_occupancy
  Ti  Ti0  1  0.000000  0.000000  0.000000  1
  Nb  Nb1  1  0.822627  0.677367  0.000000  1
  Nb  Nb2  1  0.177373  0.322633  0.000000  1
  Nb  Nb3  1  0.322633  0.822627  0.000000  1
  Nb  Nb4  1  0.677367  0.177373  0.000000  1
  Si  Si5  1  0.500000  0.500000  0.000000  1
  B  B6  1  0.620355  0.872321  0.000000  1
  B  B7  1  0.379645  0.127679  0.000000  1
  B  B8  1  0.127679  0.620355  0.000000  1
  B  B9  1  0.872321  0.379645  0.000000  1
  Ru  Ru10  1  0.565752  0.710354  0.500000  1
  Ru  Ru11  1  0.434248  0.289646  0.500000  1
  Ru  Ru12  1  0.071610  0.782701  0.500000  1
  Ru  Ru13  1  0.928390  0.217299  0.500000  1
  Ru  Ru14  1  0.289646  0.565752  0.500000  1
  Ru  Ru15  1  0.710354  0.434248  0.500000  1
  Ru  Ru16  1  0.217299  0.071610  0.500000  1
  Ru  Ru17  1  0.782701  0.928390  0.500000  1
  Ru  Ru18  1  0.500000  0.000000  0.500000  1
  Ru  Ru19  1  0.000000  0.500000  0.500000  1
