# generated using pymatgen
data_Tb3Bi4SbO14
_symmetry_space_group_name_H-M   'P 1'
_cell_length_a   6.56258798
_cell_length_b   6.77237095
_cell_length_c   7.74417755
_cell_angle_alpha   107.13937920
_cell_angle_beta   89.19113117
_cell_angle_gamma   98.55624293
_symmetry_Int_Tables_number   1
_chemical_formula_structural   Tb3Bi4SbO14
_chemical_formula_sum   'Tb3 Bi4 Sb1 O14'
_cell_volume   325.07786606
_cell_formula_units_Z   1
loop_
 _symmetry_equiv_pos_site_id
 _symmetry_equiv_pos_as_xyz
  1  'x, y, z'
loop_
 _atom_site_type_symbol
 _atom_site_label
 _atom_site_symmetry_multiplicity
 _atom_site_fract_x
 _atom_site_fract_y
 _atom_site_fract_z
 _atom_site_occupancy
  Tb  Tb0  1  0.458856  0.003444  0.256075  1
  Tb  Tb1  1  0.541857  0.994679  0.747544  1
  Tb  Tb2  1  0.260198  0.531814  0.881209  1
  Bi  Bi3  1  0.002789  0.001628  0.999504  1
  Bi  Bi4  1  0.742311  0.483525  0.118763  1
  Bi  Bi5  1  0.726381  0.462228  0.615295  1
  Bi  Bi6  1  0.266050  0.529888  0.386689  1
  Sb  Sb7  1  0.002421  0.006934  0.501720  1
  O  O8  1  0.445742  0.650264  0.169649  1
  O  O9  1  0.543648  0.345979  0.822165  1
  O  O10  1  0.302873  0.919055  0.954292  1
  O  O11  1  0.694779  0.049499  0.043045  1
  O  O12  1  0.286703  0.927344  0.517348  1
  O  O13  1  0.713807  0.078508  0.485340  1
  O  O14  1  0.532271  0.355067  0.348185  1
  O  O15  1  0.456888  0.642994  0.657841  1
  O  O16  1  0.929700  0.666696  0.946271  1
  O  O17  1  0.089511  0.328322  0.047502  1
  O  O18  1  0.091274  0.309902  0.630126  1
  O  O19  1  0.908643  0.703506  0.370788  1
  O  O20  1  0.890490  0.937133  0.723930  1
  O  O21  1  0.112808  0.071595  0.276718  1
