# generated using pymatgen
data_La2PrCoSn3Pt2
_symmetry_space_group_name_H-M   'P 1'
_cell_length_a   7.67733606
_cell_length_b   7.67733578
_cell_length_c   4.10870700
_cell_angle_alpha   90.00000000
_cell_angle_beta   90.00000000
_cell_angle_gamma   120.06017249
_symmetry_Int_Tables_number   1
_chemical_formula_structural   La2PrCoSn3Pt2
_chemical_formula_sum   'La2 Pr1 Co1 Sn3 Pt2'
_cell_volume   209.60094758
_cell_formula_units_Z   1
loop_
 _symmetry_equiv_pos_site_id
 _symmetry_equiv_pos_as_xyz
  1  'x, y, z'
loop_
 _atom_site_type_symbol
 _atom_site_label
 _atom_site_symmetry_multiplicity
 _atom_site_fract_x
 _atom_site_fract_y
 _atom_site_fract_z
 _atom_site_occupancy
  La  La0  1  0.589829  0.999920  0.000000  1
  La  La1  1  0.999920  0.589829  0.000000  1
  Pr  Pr2  1  0.408911  0.408911  0.000000  1
  Co  Co3  1  0.000074  0.000074  0.000000  1
  Sn  Sn4  1  0.001291  0.240102  0.500000  1
  Sn  Sn5  1  0.759467  0.759467  0.500000  1
  Sn  Sn6  1  0.240102  0.001291  0.500000  1
  Pt  Pt7  1  0.333318  0.667089  0.500000  1
  Pt  Pt8  1  0.667089  0.333318  0.500000  1
