# generated using pymatgen
data_Tb4Al17Ga(PtRh2)2
_symmetry_space_group_name_H-M   'P 1'
_cell_length_a   7.57701259
_cell_length_b   7.57701281
_cell_length_c   9.48622646
_cell_angle_alpha   89.95849578
_cell_angle_beta   89.95849812
_cell_angle_gamma   119.47599928
_symmetry_Int_Tables_number   1
_chemical_formula_structural   Tb4Al17Ga(PtRh2)2
_chemical_formula_sum   'Tb4 Al17 Ga1 Pt2 Rh4'
_cell_volume   474.12048720
_cell_formula_units_Z   1
loop_
 _symmetry_equiv_pos_site_id
 _symmetry_equiv_pos_as_xyz
  1  'x, y, z'
loop_
 _atom_site_type_symbol
 _atom_site_label
 _atom_site_symmetry_multiplicity
 _atom_site_fract_x
 _atom_site_fract_y
 _atom_site_fract_z
 _atom_site_occupancy
  Tb  Tb0  1  0.994487  0.672725  0.249934  1
  Tb  Tb1  1  0.004563  0.329690  0.749993  1
  Tb  Tb2  1  0.672725  0.994487  0.249934  1
  Tb  Tb3  1  0.329690  0.004563  0.749993  1
  Al  Al4  1  0.872547  0.872547  0.748964  1
  Al  Al5  1  0.001400  0.331686  0.077475  1
  Al  Al6  1  0.998628  0.668393  0.922346  1
  Al  Al7  1  0.999905  0.664879  0.574350  1
  Al  Al8  1  0.335684  0.000047  0.425807  1
  Al  Al9  1  0.000047  0.335684  0.425807  1
  Al  Al10  1  0.664879  0.999905  0.574350  1
  Al  Al11  1  0.668393  0.998628  0.922346  1
  Al  Al12  1  0.331686  0.001400  0.077475  1
  Al  Al13  1  0.331669  0.331669  0.551754  1
  Al  Al14  1  0.667117  0.667117  0.450685  1
  Al  Al15  1  0.668522  0.668522  0.054308  1
  Al  Al16  1  0.330414  0.330414  0.943022  1
  Al  Al17  1  0.339992  0.548673  0.253945  1
  Al  Al18  1  0.659798  0.452376  0.746164  1
  Al  Al19  1  0.548673  0.339992  0.253945  1
  Al  Al20  1  0.452376  0.659798  0.746164  1
  Ga  Ga21  1  0.131408  0.131408  0.251099  1
  Pt  Pt22  1  0.671307  0.327144  0.999983  1
  Pt  Pt23  1  0.327144  0.671307  0.999983  1
  Rh  Rh24  1  0.327190  0.671216  0.500132  1
  Rh  Rh25  1  0.671216  0.327190  0.500132  1
  Rh  Rh26  1  0.999250  0.999250  0.998055  1
  Rh  Rh27  1  0.999285  0.999285  0.501856  1
