# generated using pymatgen
data_La2PaOs3
_symmetry_space_group_name_H-M   'P 1'
_cell_length_a   5.93385733
_cell_length_b   5.43230242
_cell_length_c   5.93385800
_cell_angle_alpha   56.89574440
_cell_angle_beta   59.99999628
_cell_angle_gamma   56.89574580
_symmetry_Int_Tables_number   1
_chemical_formula_structural   La2PaOs3
_chemical_formula_sum   'La2 Pa1 Os3'
_cell_volume   128.55396692
_cell_formula_units_Z   1
loop_
 _symmetry_equiv_pos_site_id
 _symmetry_equiv_pos_as_xyz
  1  'x, y, z'
loop_
 _atom_site_type_symbol
 _atom_site_label
 _atom_site_symmetry_multiplicity
 _atom_site_fract_x
 _atom_site_fract_y
 _atom_site_fract_z
 _atom_site_occupancy
  La  La0  1  0.003759  0.988723  0.003759  1
  La  La1  1  0.246241  0.261277  0.246241  1
  Pa  Pa2  1  0.625000  0.125000  0.625000  1
  Os  Os3  1  0.625000  0.625000  0.625000  1
  Os  Os4  1  0.125000  0.625000  0.625000  1
  Os  Os5  1  0.625000  0.625000  0.125000  1
