# generated using pymatgen
data_Er9Lu(Ga2Sb)2
_symmetry_space_group_name_H-M   'P 1'
_cell_length_a   8.60075061
_cell_length_b   8.61387026
_cell_length_c   6.46618302
_cell_angle_alpha   89.99138477
_cell_angle_beta   90.00431905
_cell_angle_gamma   120.05048057
_symmetry_Int_Tables_number   1
_chemical_formula_structural   Er9Lu(Ga2Sb)2
_chemical_formula_sum   'Er9 Lu1 Ga4 Sb2'
_cell_volume   414.66001646
_cell_formula_units_Z   1
loop_
 _symmetry_equiv_pos_site_id
 _symmetry_equiv_pos_as_xyz
  1  'x, y, z'
loop_
 _atom_site_type_symbol
 _atom_site_label
 _atom_site_symmetry_multiplicity
 _atom_site_fract_x
 _atom_site_fract_y
 _atom_site_fract_z
 _atom_site_occupancy
  Er  Er0  1  0.987042  0.750809  0.749845  1
  Er  Er1  1  0.987042  0.236233  0.250155  1
  Er  Er2  1  0.765757  0.766282  0.250207  1
  Er  Er3  1  0.765757  0.999476  0.749793  1
  Er  Er4  1  0.236064  0.249181  0.749795  1
  Er  Er5  1  0.236064  0.986882  0.250205  1
  Er  Er6  1  0.684884  0.342442  0.000000  1
  Er  Er7  1  0.684554  0.342277  0.500000  1
  Er  Er8  1  0.331783  0.665892  0.000000  1
  Lu  Lu9  1  0.331746  0.665874  0.500000  1
  Ga  Ga10  1  0.001973  0.601560  0.250351  1
  Ga  Ga11  1  0.001973  0.400413  0.749649  1
  Ga  Ga12  1  0.597779  0.601601  0.749538  1
  Ga  Ga13  1  0.597779  0.996177  0.250462  1
  Sb  Sb14  1  0.394901  0.003857  0.749465  1
  Sb  Sb15  1  0.394901  0.391044  0.250535  1
