# generated using pymatgen
data_Y16In6CoOs
_symmetry_space_group_name_H-M   'P 1'
_cell_length_a   10.42088300
_cell_length_b   10.42088376
_cell_length_c   7.08265900
_cell_angle_alpha   90.00000000
_cell_angle_beta   90.00000000
_cell_angle_gamma   120.00000075
_symmetry_Int_Tables_number   1
_chemical_formula_structural   Y16In6CoOs
_chemical_formula_sum   'Y16 In6 Co1 Os1'
_cell_volume   666.09478404
_cell_formula_units_Z   1
loop_
 _symmetry_equiv_pos_site_id
 _symmetry_equiv_pos_as_xyz
  1  'x, y, z'
loop_
 _atom_site_type_symbol
 _atom_site_label
 _atom_site_symmetry_multiplicity
 _atom_site_fract_x
 _atom_site_fract_y
 _atom_site_fract_z
 _atom_site_occupancy
  Y  Y0  1  0.465891  0.534109  0.480739  1
  Y  Y1  1  0.068219  0.534109  0.480739  1
  Y  Y2  1  0.465891  0.931781  0.480739  1
  Y  Y3  1  0.535688  0.464312  0.981448  1
  Y  Y4  1  0.928624  0.464312  0.981448  1
  Y  Y5  1  0.535688  0.071376  0.981448  1
  Y  Y6  1  0.822195  0.177805  0.275902  1
  Y  Y7  1  0.355610  0.177805  0.275902  1
  Y  Y8  1  0.822195  0.644390  0.275902  1
  Y  Y9  1  0.176553  0.823447  0.776409  1
  Y  Y10  1  0.646893  0.823447  0.776409  1
  Y  Y11  1  0.176553  0.353107  0.776409  1
  Y  Y12  1  0.333333  0.666667  0.101630  1
  Y  Y13  1  0.666667  0.333333  0.592395  1
  Y  Y14  1  0.000000  0.000000  0.496322  1
  Y  Y15  1  0.000000  0.000000  0.998591  1
  In  In16  1  0.162517  0.837483  0.233318  1
  In  In17  1  0.674967  0.837483  0.233318  1
  In  In18  1  0.162517  0.325033  0.233318  1
  In  In19  1  0.836393  0.163607  0.733174  1
  In  In20  1  0.327213  0.163607  0.733174  1
  In  In21  1  0.836393  0.672787  0.733174  1
  Co  Co22  1  0.666667  0.333333  0.207533  1
  Os  Os23  1  0.333333  0.666667  0.705111  1
