# generated using pymatgen
data_Ba3(CuO3)2
_symmetry_space_group_name_H-M   'P 1'
_cell_length_a   7.25735715
_cell_length_b   6.68050653
_cell_length_c   8.58285514
_cell_angle_alpha   112.91007052
_cell_angle_beta   104.01418481
_cell_angle_gamma   89.97281814
_symmetry_Int_Tables_number   1
_chemical_formula_structural   Ba3(CuO3)2
_chemical_formula_sum   'Ba6 Cu4 O12'
_cell_volume   369.83382055
_cell_formula_units_Z   2
loop_
 _symmetry_equiv_pos_site_id
 _symmetry_equiv_pos_as_xyz
  1  'x, y, z'
loop_
 _atom_site_type_symbol
 _atom_site_label
 _atom_site_symmetry_multiplicity
 _atom_site_fract_x
 _atom_site_fract_y
 _atom_site_fract_z
 _atom_site_occupancy
  Ba  Ba0  1  0.250099  0.053394  0.000034  1
  Ba  Ba1  1  0.750063  0.946576  0.999993  1
  Ba  Ba2  1  0.732112  0.403485  0.411601  1
  Ba  Ba3  1  0.232132  0.008004  0.411577  1
  Ba  Ba4  1  0.267793  0.596511  0.588421  1
  Ba  Ba5  1  0.767803  0.992021  0.588563  1
  Cu  Cu6  1  0.998828  0.490788  0.161278  1
  Cu  Cu7  1  0.499114  0.670646  0.161421  1
  Cu  Cu8  1  0.001132  0.508845  0.838622  1
  Cu  Cu9  1  0.501049  0.329564  0.838439  1
  O  O10  1  0.014095  0.702657  0.070092  1
  O  O11  1  0.514173  0.367497  0.070107  1
  O  O12  1  0.032274  0.265613  0.241682  1
  O  O13  1  0.532452  0.976199  0.241953  1
  O  O14  1  0.976262  0.693451  0.375515  1
  O  O15  1  0.476405  0.682071  0.375648  1
  O  O16  1  0.023744  0.306277  0.624370  1
  O  O17  1  0.523645  0.318181  0.624393  1
  O  O18  1  0.967728  0.734112  0.758302  1
  O  O19  1  0.467642  0.024225  0.758312  1
  O  O20  1  0.485636  0.632945  0.929893  1
  O  O21  1  0.985820  0.296942  0.929787  1
