# generated using pymatgen
data_Ho7Er6Tm7(CoBi2)4
_symmetry_space_group_name_H-M   'P 1'
_cell_length_a   7.91574754
_cell_length_b   8.86337334
_cell_length_c   12.36354505
_cell_angle_alpha   89.98898721
_cell_angle_beta   90.01593530
_cell_angle_gamma   90.01055361
_symmetry_Int_Tables_number   1
_chemical_formula_structural   Ho7Er6Tm7(CoBi2)4
_chemical_formula_sum   'Ho7 Er6 Tm7 Co4 Bi8'
_cell_volume   867.42904751
_cell_formula_units_Z   1
loop_
 _symmetry_equiv_pos_site_id
 _symmetry_equiv_pos_as_xyz
  1  'x, y, z'
loop_
 _atom_site_type_symbol
 _atom_site_label
 _atom_site_symmetry_multiplicity
 _atom_site_fract_x
 _atom_site_fract_y
 _atom_site_fract_z
 _atom_site_occupancy
  Ho  Ho0  1  0.653528  0.749864  0.699345  1
  Ho  Ho1  1  0.346466  0.250074  0.300666  1
  Ho  Ho2  1  0.153359  0.249958  0.800772  1
  Ho  Ho3  1  0.846506  0.750056  0.199313  1
  Ho  Ho4  1  0.119850  0.750202  0.813732  1
  Ho  Ho5  1  0.880450  0.249873  0.186361  1
  Ho  Ho6  1  0.620080  0.250275  0.686419  1
  Er  Er7  1  0.381162  0.749627  0.313985  1
  Er  Er8  1  0.553843  0.749975  0.997144  1
  Er  Er9  1  0.446003  0.249995  0.002906  1
  Er  Er10  1  0.053018  0.250370  0.502756  1
  Er  Er11  1  0.945638  0.749779  0.497149  1
  Er  Er12  1  0.325600  0.963385  0.563543  1
  Tm  Tm13  1  0.827141  0.463364  0.936342  1
  Tm  Tm14  1  0.172980  0.536721  0.063814  1
  Tm  Tm15  1  0.327023  0.536824  0.563421  1
  Tm  Tm16  1  0.173009  0.963241  0.063832  1
  Tm  Tm17  1  0.672748  0.463370  0.435937  1
  Tm  Tm18  1  0.827091  0.036602  0.936381  1
  Tm  Tm19  1  0.672788  0.036409  0.436065  1
  Co  Co20  1  0.936960  0.749994  0.993060  1
  Co  Co21  1  0.063171  0.249960  0.007088  1
  Co  Co22  1  0.437312  0.250204  0.506913  1
  Co  Co23  1  0.563666  0.749682  0.492651  1
  Bi  Bi24  1  0.932114  0.007741  0.672999  1
  Bi  Bi25  1  0.068017  0.992065  0.327292  1
  Bi  Bi26  1  0.432901  0.992509  0.827160  1
  Bi  Bi27  1  0.067791  0.507901  0.327074  1
  Bi  Bi28  1  0.567021  0.007413  0.172941  1
  Bi  Bi29  1  0.932849  0.492506  0.673013  1
  Bi  Bi30  1  0.567229  0.492484  0.172817  1
  Bi  Bi31  1  0.432686  0.507575  0.827111  1
