# generated using pymatgen
data_RuI13
_symmetry_space_group_name_H-M   'P 1'
_cell_length_a   12.19578473
_cell_length_b   10.93389128
_cell_length_c   14.69385131
_cell_angle_alpha   117.11577017
_cell_angle_beta   90.38672573
_cell_angle_gamma   106.26895091
_symmetry_Int_Tables_number   1
_chemical_formula_structural   RuI13
_chemical_formula_sum   'Ru2 I26'
_cell_volume   1653.33716938
_cell_formula_units_Z   2
loop_
 _symmetry_equiv_pos_site_id
 _symmetry_equiv_pos_as_xyz
  1  'x, y, z'
loop_
 _atom_site_type_symbol
 _atom_site_label
 _atom_site_symmetry_multiplicity
 _atom_site_fract_x
 _atom_site_fract_y
 _atom_site_fract_z
 _atom_site_occupancy
  Ru  Ru0  1  0.336584  0.875988  0.928271  1
  Ru  Ru1  1  0.663416  0.124012  0.071729  1
  I  I2  1  0.368200  0.664724  0.963423  1
  I  I3  1  0.631800  0.335276  0.036577  1
  I  I4  1  0.570458  0.807335  0.391677  1
  I  I5  1  0.429542  0.192665  0.608323  1
  I  I6  1  0.724194  0.684630  0.000267  1
  I  I7  1  0.275806  0.315370  0.999733  1
  I  I8  1  0.700037  0.952129  0.145627  1
  I  I9  1  0.299963  0.047871  0.854373  1
  I  I10  1  0.444601  0.088407  0.116259  1
  I  I11  1  0.555399  0.911593  0.883741  1
  I  I12  1  0.239195  0.673753  0.727712  1
  I  I13  1  0.760805  0.326247  0.272288  1
  I  I14  1  0.129913  0.835788  0.988313  1
  I  I15  1  0.870087  0.164212  0.011687  1
  I  I16  1  0.106414  0.075184  0.197952  1
  I  I17  1  0.893586  0.924816  0.802048  1
  I  I18  1  0.271142  0.910617  0.459083  1
  I  I19  1  0.728858  0.089383  0.540917  1
  I  I20  1  0.332908  0.431586  0.662814  1
  I  I21  1  0.667092  0.568414  0.337186  1
  I  I22  1  0.864536  0.386647  0.695065  1
  I  I23  1  0.135464  0.613353  0.304935  1
  I  I24  1  0.944465  0.726773  0.615663  1
  I  I25  1  0.055535  0.273227  0.384337  1
  I  I26  1  0.247198  0.634637  0.128912  1
  I  I27  1  0.752802  0.365363  0.871088  1
