# generated using pymatgen
data_Tb2Ce2CdTc
_symmetry_space_group_name_H-M   'P 1'
_cell_length_a   9.65096600
_cell_length_b   9.65096609
_cell_length_c   9.73046100
_cell_angle_alpha   59.72714301
_cell_angle_beta   59.72714268
_cell_angle_gamma   60.54570557
_symmetry_Int_Tables_number   1
_chemical_formula_structural   Tb2Ce2CdTc
_chemical_formula_sum   'Tb8 Ce8 Cd4 Tc4'
_cell_volume   640.76759162
_cell_formula_units_Z   4
loop_
 _symmetry_equiv_pos_site_id
 _symmetry_equiv_pos_as_xyz
  1  'x, y, z'
loop_
 _atom_site_type_symbol
 _atom_site_label
 _atom_site_symmetry_multiplicity
 _atom_site_fract_x
 _atom_site_fract_y
 _atom_site_fract_z
 _atom_site_occupancy
  Tb  Tb0  1  0.195837  0.195837  0.804163  1
  Tb  Tb1  1  0.804163  0.804163  0.195837  1
  Tb  Tb2  1  0.936680  0.563320  0.563320  1
  Tb  Tb3  1  0.563320  0.936680  0.936680  1
  Tb  Tb4  1  0.563320  0.936680  0.563320  1
  Tb  Tb5  1  0.936680  0.563320  0.936680  1
  Tb  Tb6  1  0.560877  0.560877  0.939123  1
  Tb  Tb7  1  0.939123  0.939123  0.560877  1
  Ce  Ce8  1  0.346632  0.346632  0.347237  1
  Ce  Ce9  1  0.346632  0.346632  0.959501  1
  Ce  Ce10  1  0.347237  0.959501  0.346632  1
  Ce  Ce11  1  0.959501  0.347237  0.346632  1
  Ce  Ce12  1  0.813656  0.186344  0.186344  1
  Ce  Ce13  1  0.186344  0.813656  0.813656  1
  Ce  Ce14  1  0.186344  0.813656  0.186344  1
  Ce  Ce15  1  0.813656  0.186344  0.813656  1
  Cd  Cd16  1  0.581219  0.581219  0.580638  1
  Cd  Cd17  1  0.581219  0.581219  0.256922  1
  Cd  Cd18  1  0.580638  0.256922  0.581219  1
  Cd  Cd19  1  0.256922  0.580638  0.581219  1
  Tc  Tc20  1  0.123887  0.123887  0.160248  1
  Tc  Tc21  1  0.123887  0.123887  0.591978  1
  Tc  Tc22  1  0.160248  0.591978  0.123887  1
  Tc  Tc23  1  0.591978  0.160248  0.123887  1
