# generated using pymatgen
data_AlTlFeF6
_symmetry_space_group_name_H-M   'P 1'
_cell_length_a   7.21157300
_cell_length_b   7.16009100
_cell_length_c   10.08640700
_cell_angle_alpha   90.00000000
_cell_angle_beta   90.00000000
_cell_angle_gamma   90.00000000
_symmetry_Int_Tables_number   1
_chemical_formula_structural   AlTlFeF6
_chemical_formula_sum   'Al4 Tl4 Fe4 F24'
_cell_volume   520.81685962
_cell_formula_units_Z   4
loop_
 _symmetry_equiv_pos_site_id
 _symmetry_equiv_pos_as_xyz
  1  'x, y, z'
loop_
 _atom_site_type_symbol
 _atom_site_label
 _atom_site_symmetry_multiplicity
 _atom_site_fract_x
 _atom_site_fract_y
 _atom_site_fract_z
 _atom_site_occupancy
  Al  Al0  1  0.000000  0.500000  0.500000  1
  Al  Al1  1  0.000000  0.000000  0.000000  1
  Al  Al2  1  0.500000  0.500000  0.500000  1
  Al  Al3  1  0.500000  0.000000  0.000000  1
  Tl  Tl4  1  0.250000  0.503229  0.115786  1
  Tl  Tl5  1  0.750000  0.496771  0.884214  1
  Tl  Tl6  1  0.750000  0.996771  0.615786  1
  Tl  Tl7  1  0.250000  0.003229  0.384214  1
  Fe  Fe8  1  0.250000  0.719477  0.760789  1
  Fe  Fe9  1  0.750000  0.280523  0.239211  1
  Fe  Fe10  1  0.750000  0.780523  0.260789  1
  Fe  Fe11  1  0.250000  0.219477  0.739211  1
  F  F12  1  0.048098  0.787144  0.907129  1
  F  F13  1  0.951902  0.212856  0.092871  1
  F  F14  1  0.951902  0.712856  0.407129  1
  F  F15  1  0.548098  0.212856  0.092871  1
  F  F16  1  0.048098  0.287144  0.592871  1
  F  F17  1  0.451902  0.787144  0.907129  1
  F  F18  1  0.451902  0.287144  0.592871  1
  F  F19  1  0.548098  0.712856  0.407129  1
  F  F20  1  0.250000  0.040542  0.027594  1
  F  F21  1  0.750000  0.959458  0.972406  1
  F  F22  1  0.750000  0.459458  0.527594  1
  F  F23  1  0.250000  0.540542  0.472406  1
  F  F24  1  0.488477  0.635829  0.651932  1
  F  F25  1  0.511523  0.364171  0.348068  1
  F  F26  1  0.511523  0.864171  0.151932  1
  F  F27  1  0.988477  0.364171  0.348068  1
  F  F28  1  0.488477  0.135829  0.848068  1
  F  F29  1  0.011523  0.635829  0.651932  1
  F  F30  1  0.011523  0.135829  0.848068  1
  F  F31  1  0.988477  0.864171  0.151932  1
  F  F32  1  0.250000  0.957494  0.649506  1
  F  F33  1  0.750000  0.042506  0.350494  1
  F  F34  1  0.750000  0.542506  0.149506  1
  F  F35  1  0.250000  0.457494  0.850494  1
