# generated using pymatgen
data_Th8Sc12Si15Sn
_symmetry_space_group_name_H-M   'P 1'
_cell_length_a   7.28835198
_cell_length_b   7.51956808
_cell_length_c   14.27251754
_cell_angle_alpha   89.86283944
_cell_angle_beta   89.68889255
_cell_angle_gamma   89.96022223
_symmetry_Int_Tables_number   1
_chemical_formula_structural   Th8Sc12Si15Sn
_chemical_formula_sum   'Th8 Sc12 Si15 Sn1'
_cell_volume   782.19506498
_cell_formula_units_Z   1
loop_
 _symmetry_equiv_pos_site_id
 _symmetry_equiv_pos_as_xyz
  1  'x, y, z'
loop_
 _atom_site_type_symbol
 _atom_site_label
 _atom_site_symmetry_multiplicity
 _atom_site_fract_x
 _atom_site_fract_y
 _atom_site_fract_z
 _atom_site_occupancy
  Th  Th0  1  0.007374  0.172792  0.096191  1
  Th  Th1  1  0.992559  0.828400  0.904692  1
  Th  Th2  1  0.494054  0.672790  0.904523  1
  Th  Th3  1  0.992792  0.835303  0.598801  1
  Th  Th4  1  0.506625  0.327641  0.096437  1
  Th  Th5  1  0.000442  0.166279  0.398727  1
  Th  Th6  1  0.510024  0.323858  0.398863  1
  Th  Th7  1  0.505366  0.681570  0.599899  1
  Sc  Sc8  1  0.162341  0.502785  0.755589  1
  Sc  Sc9  1  0.838226  0.497475  0.248143  1
  Sc  Sc10  1  0.338893  0.001218  0.248476  1
  Sc  Sc11  1  0.662496  0.997612  0.753150  1
  Sc  Sc12  1  0.344500  0.160835  0.630037  1
  Sc  Sc13  1  0.663168  0.826516  0.373416  1
  Sc  Sc14  1  0.162875  0.680157  0.370032  1
  Sc  Sc15  1  0.667320  0.825095  0.123366  1
  Sc  Sc16  1  0.822610  0.325439  0.626890  1
  Sc  Sc17  1  0.331501  0.174112  0.876038  1
  Sc  Sc18  1  0.832748  0.326073  0.876083  1
  Sc  Sc19  1  0.167763  0.673889  0.124212  1
  Si  Si20  1  0.035190  0.125208  0.750896  1
  Si  Si21  1  0.963253  0.877419  0.246975  1
  Si  Si22  1  0.464940  0.622509  0.248653  1
  Si  Si23  1  0.532683  0.378717  0.751780  1
  Si  Si24  1  0.291467  0.873222  0.752637  1
  Si  Si25  1  0.707500  0.121327  0.246874  1
  Si  Si26  1  0.207844  0.376659  0.249200  1
  Si  Si27  1  0.795223  0.624843  0.751785  1
  Si  Si28  1  0.830899  0.538674  0.458452  1
  Si  Si29  1  0.337159  0.963708  0.459656  1
  Si  Si30  1  0.840780  0.534811  0.040503  1
  Si  Si31  1  0.662963  0.039617  0.537861  1
  Si  Si32  1  0.159276  0.464714  0.960247  1
  Si  Si33  1  0.657979  0.035927  0.959694  1
  Si  Si34  1  0.341326  0.964662  0.040626  1
  Sn  Sn35  1  0.167842  0.458144  0.540599  1
