# generated using pymatgen
data_CaTi(NbS2)6
_symmetry_space_group_name_H-M   'P 1'
_cell_length_a   5.77184500
_cell_length_b   5.77184491
_cell_length_c   13.18193800
_cell_angle_alpha   90.00000000
_cell_angle_beta   90.00000000
_cell_angle_gamma   120.00000627
_symmetry_Int_Tables_number   1
_chemical_formula_structural   CaTi(NbS2)6
_chemical_formula_sum   'Ca1 Ti1 Nb6 S12'
_cell_volume   380.31125791
_cell_formula_units_Z   1
loop_
 _symmetry_equiv_pos_site_id
 _symmetry_equiv_pos_as_xyz
  1  'x, y, z'
loop_
 _atom_site_type_symbol
 _atom_site_label
 _atom_site_symmetry_multiplicity
 _atom_site_fract_x
 _atom_site_fract_y
 _atom_site_fract_z
 _atom_site_occupancy
  Ca  Ca0  1  0.333333  0.666667  0.250000  1
  Ti  Ti1  1  0.666667  0.333333  0.750000  1
  Nb  Nb2  1  0.333333  0.666667  0.979479  1
  Nb  Nb3  1  0.000000  0.000000  0.979311  1
  Nb  Nb4  1  0.000000  0.000000  0.520689  1
  Nb  Nb5  1  0.333333  0.666667  0.520521  1
  Nb  Nb6  1  0.666667  0.333333  0.980371  1
  Nb  Nb7  1  0.666667  0.333333  0.519629  1
  S  S8  1  0.332409  0.003204  0.099772  1
  S  S9  1  0.666604  0.996890  0.640462  1
  S  S10  1  0.996796  0.329205  0.099772  1
  S  S11  1  0.670795  0.003204  0.400228  1
  S  S12  1  0.332409  0.329205  0.400228  1
  S  S13  1  0.996796  0.667591  0.400228  1
  S  S14  1  0.670795  0.667591  0.099772  1
  S  S15  1  0.330285  0.333396  0.640462  1
  S  S16  1  0.003110  0.669715  0.640462  1
  S  S17  1  0.330285  0.996890  0.859538  1
  S  S18  1  0.666604  0.669715  0.859538  1
  S  S19  1  0.003110  0.333396  0.859538  1
