# generated using pymatgen
data_Sc8Ti12Si15Ir
_symmetry_space_group_name_H-M   'P 1'
_cell_length_a   6.88708452
_cell_length_b   6.88153635
_cell_length_c   12.63857911
_cell_angle_alpha   89.88760517
_cell_angle_beta   89.73376564
_cell_angle_gamma   90.12150500
_symmetry_Int_Tables_number   1
_chemical_formula_structural   Sc8Ti12Si15Ir
_chemical_formula_sum   'Sc8 Ti12 Si15 Ir1'
_cell_volume   598.98033370
_cell_formula_units_Z   1
loop_
 _symmetry_equiv_pos_site_id
 _symmetry_equiv_pos_as_xyz
  1  'x, y, z'
loop_
 _atom_site_type_symbol
 _atom_site_label
 _atom_site_symmetry_multiplicity
 _atom_site_fract_x
 _atom_site_fract_y
 _atom_site_fract_z
 _atom_site_occupancy
  Sc  Sc0  1  0.339594  0.000120  0.466121  1
  Sc  Sc1  1  0.503239  0.839015  0.717693  1
  Sc  Sc2  1  0.500801  0.159157  0.217183  1
  Sc  Sc3  1  0.841411  0.498196  0.282837  1
  Sc  Sc4  1  0.155444  0.503215  0.783444  1
  Sc  Sc5  1  0.660610  0.999137  0.968279  1
  Sc  Sc6  1  0.000640  0.339797  0.533808  1
  Sc  Sc7  1  0.999304  0.658215  0.033058  1
  Ti  Ti8  1  0.328277  0.327280  0.001562  1
  Ti  Ti9  1  0.172260  0.827474  0.249640  1
  Ti  Ti10  1  0.833902  0.173707  0.747433  1
  Ti  Ti11  1  0.671316  0.670896  0.499012  1
  Ti  Ti12  1  0.154933  0.008089  0.874668  1
  Ti  Ti13  1  0.494397  0.649349  0.124809  1
  Ti  Ti14  1  0.496439  0.345377  0.626271  1
  Ti  Ti15  1  0.653594  0.497984  0.876319  1
  Ti  Ti16  1  0.350393  0.504816  0.374299  1
  Ti  Ti17  1  0.848489  0.993754  0.373883  1
  Ti  Ti18  1  0.005872  0.149142  0.126690  1
  Ti  Ti19  1  0.993659  0.851983  0.620650  1
  Si  Si20  1  0.364762  0.704259  0.930718  1
  Si  Si21  1  0.636659  0.294856  0.429730  1
  Si  Si22  1  0.705710  0.363706  0.070921  1
  Si  Si23  1  0.298014  0.638014  0.567926  1
  Si  Si24  1  0.794371  0.863185  0.178497  1
  Si  Si25  1  0.136447  0.204410  0.319841  1
  Si  Si26  1  0.863318  0.798916  0.820102  1
  Si  Si27  1  0.298104  0.954108  0.065731  1
  Si  Si28  1  0.545482  0.796666  0.314184  1
  Si  Si29  1  0.460482  0.205853  0.817882  1
  Si  Si30  1  0.791612  0.548509  0.685482  1
  Si  Si31  1  0.202292  0.454516  0.185367  1
  Si  Si32  1  0.698478  0.044432  0.562327  1
  Si  Si33  1  0.953822  0.296721  0.937737  1
  Si  Si34  1  0.045522  0.701820  0.433344  1
  Ir  Ir35  1  0.200353  0.133328  0.682552  1
