# generated using pymatgen
data_Ho2Sc3GaSn3
_symmetry_space_group_name_H-M   'P 1'
_cell_length_a   7.51061700
_cell_length_b   7.86894100
_cell_length_c   14.75739300
_cell_angle_alpha   90.00000000
_cell_angle_beta   90.00000000
_cell_angle_gamma   90.00000000
_symmetry_Int_Tables_number   1
_chemical_formula_structural   Ho2Sc3GaSn3
_chemical_formula_sum   'Ho8 Sc12 Ga4 Sn12'
_cell_volume   872.17081094
_cell_formula_units_Z   4
loop_
 _symmetry_equiv_pos_site_id
 _symmetry_equiv_pos_as_xyz
  1  'x, y, z'
loop_
 _atom_site_type_symbol
 _atom_site_label
 _atom_site_symmetry_multiplicity
 _atom_site_fract_x
 _atom_site_fract_y
 _atom_site_fract_z
 _atom_site_occupancy
  Ho  Ho0  1  0.997247  0.175747  0.095304  1
  Ho  Ho1  1  0.002753  0.824253  0.904696  1
  Ho  Ho2  1  0.502753  0.675747  0.904696  1
  Ho  Ho3  1  0.002753  0.824253  0.595304  1
  Ho  Ho4  1  0.497247  0.324253  0.095304  1
  Ho  Ho5  1  0.997247  0.175747  0.404696  1
  Ho  Ho6  1  0.497247  0.324253  0.404696  1
  Ho  Ho7  1  0.502753  0.675747  0.595304  1
  Sc  Sc8  1  0.180925  0.490443  0.750000  1
  Sc  Sc9  1  0.819075  0.509557  0.250000  1
  Sc  Sc10  1  0.319075  0.990443  0.250000  1
  Sc  Sc11  1  0.680925  0.009557  0.750000  1
  Sc  Sc12  1  0.337494  0.169305  0.631211  1
  Sc  Sc13  1  0.662506  0.830695  0.368789  1
  Sc  Sc14  1  0.162506  0.669305  0.368789  1
  Sc  Sc15  1  0.662506  0.830695  0.131211  1
  Sc  Sc16  1  0.837494  0.330695  0.631211  1
  Sc  Sc17  1  0.337494  0.169305  0.868789  1
  Sc  Sc18  1  0.837494  0.330695  0.868789  1
  Sc  Sc19  1  0.162506  0.669305  0.131211  1
  Ga  Ga20  1  0.034478  0.124017  0.750000  1
  Ga  Ga21  1  0.965522  0.875983  0.250000  1
  Ga  Ga22  1  0.465522  0.624017  0.250000  1
  Ga  Ga23  1  0.534478  0.375983  0.750000  1
  Sn  Sn24  1  0.302293  0.859928  0.750000  1
  Sn  Sn25  1  0.697707  0.140072  0.250000  1
  Sn  Sn26  1  0.197707  0.359928  0.250000  1
  Sn  Sn27  1  0.802293  0.640072  0.750000  1
  Sn  Sn28  1  0.179156  0.458823  0.540067  1
  Sn  Sn29  1  0.820844  0.541177  0.459933  1
  Sn  Sn30  1  0.320844  0.958823  0.459933  1
  Sn  Sn31  1  0.820844  0.541177  0.040067  1
  Sn  Sn32  1  0.679156  0.041177  0.540067  1
  Sn  Sn33  1  0.179156  0.458823  0.959933  1
  Sn  Sn34  1  0.679156  0.041177  0.959933  1
  Sn  Sn35  1  0.320844  0.958823  0.040067  1
