# generated using pymatgen
data_ZnGa11MoIr3
_symmetry_space_group_name_H-M   'P 1'
_cell_length_a   6.60093961
_cell_length_b   6.64450077
_cell_length_c   6.81353300
_cell_angle_alpha   90.00000000
_cell_angle_beta   90.00000000
_cell_angle_gamma   90.29579944
_symmetry_Int_Tables_number   1
_chemical_formula_structural   ZnGa11MoIr3
_chemical_formula_sum   'Zn1 Ga11 Mo1 Ir3'
_cell_volume   298.83722288
_cell_formula_units_Z   1
loop_
 _symmetry_equiv_pos_site_id
 _symmetry_equiv_pos_as_xyz
  1  'x, y, z'
loop_
 _atom_site_type_symbol
 _atom_site_label
 _atom_site_symmetry_multiplicity
 _atom_site_fract_x
 _atom_site_fract_y
 _atom_site_fract_z
 _atom_site_occupancy
  Zn  Zn0  1  0.506374  0.000678  0.000000  1
  Ga  Ga1  1  0.000501  0.501049  0.500000  1
  Ga  Ga2  1  0.498650  0.998991  0.500000  1
  Ga  Ga3  1  0.000285  0.497293  0.000000  1
  Ga  Ga4  1  0.349692  0.662312  0.235291  1
  Ga  Ga5  1  0.648030  0.340057  0.230781  1
  Ga  Ga6  1  0.164424  0.151153  0.735769  1
  Ga  Ga7  1  0.844161  0.839419  0.735038  1
  Ga  Ga8  1  0.648030  0.340057  0.769219  1
  Ga  Ga9  1  0.349692  0.662312  0.764709  1
  Ga  Ga10  1  0.844161  0.839419  0.264962  1
  Ga  Ga11  1  0.164424  0.151153  0.264231  1
  Mo  Mo12  1  0.152796  0.847140  0.500000  1
  Ir  Ir13  1  0.830728  0.168890  0.500000  1
  Ir  Ir14  1  0.336628  0.346552  0.000000  1
  Ir  Ir15  1  0.661426  0.653523  0.000000  1
