# generated using pymatgen
data_La5U5O19
_symmetry_space_group_name_H-M   'P 1'
_cell_length_a   6.89326005
_cell_length_b   7.79159666
_cell_length_c   8.74964906
_cell_angle_alpha   101.13731213
_cell_angle_beta   97.58215457
_cell_angle_gamma   107.17092965
_symmetry_Int_Tables_number   1
_chemical_formula_structural   La5U5O19
_chemical_formula_sum   'La5 U5 O19'
_cell_volume   431.49360435
_cell_formula_units_Z   1
loop_
 _symmetry_equiv_pos_site_id
 _symmetry_equiv_pos_as_xyz
  1  'x, y, z'
loop_
 _atom_site_type_symbol
 _atom_site_label
 _atom_site_symmetry_multiplicity
 _atom_site_fract_x
 _atom_site_fract_y
 _atom_site_fract_z
 _atom_site_occupancy
  La  La0  1  0.998514  0.499839  0.997568  1
  La  La1  1  0.207472  0.910561  0.389838  1
  La  La2  1  0.801104  0.101205  0.603746  1
  La  La3  1  0.387590  0.296075  0.799355  1
  La  La4  1  0.604893  0.701055  0.202482  1
  U  U5  1  0.778982  0.597464  0.600568  1
  U  U6  1  0.602680  0.202235  0.194992  1
  U  U7  1  0.998153  0.005777  0.000075  1
  U  U8  1  0.411043  0.808981  0.814984  1
  U  U9  1  0.200369  0.387639  0.390168  1
  O  O10  1  0.339924  0.055549  0.954205  1
  O  O11  1  0.432681  0.988764  0.654384  1
  O  O12  1  0.040223  0.215088  0.859804  1
  O  O13  1  0.726027  0.388652  0.733678  1
  O  O14  1  0.149373  0.183418  0.532916  1
  O  O15  1  0.359536  0.597026  0.950749  1
  O  O16  1  0.951038  0.267531  0.163015  1
  O  O17  1  0.909403  0.400784  0.467084  1
  O  O18  1  0.750316  0.860055  0.765830  1
  O  O19  1  0.547093  0.452158  0.361936  1
  O  O20  1  0.407688  0.556488  0.629897  1
  O  O21  1  0.252855  0.133069  0.235128  1
  O  O22  1  0.065915  0.713592  0.787042  1
  O  O23  1  0.643238  0.406914  0.058186  1
  O  O24  1  0.861861  0.800149  0.465754  1
  O  O25  1  0.248908  0.615085  0.275617  1
  O  O26  1  0.955266  0.787525  0.125522  1
  O  O27  1  0.573289  0.008637  0.346260  1
  O  O28  1  0.658477  0.946327  0.047455  1
