# generated using pymatgen
data_Yb12Tm7LuSi16
_symmetry_space_group_name_H-M   'P 1'
_cell_length_a   7.33737109
_cell_length_b   7.77047805
_cell_length_c   14.99455008
_cell_angle_alpha   90.00139906
_cell_angle_beta   89.98816979
_cell_angle_gamma   89.98668091
_symmetry_Int_Tables_number   1
_chemical_formula_structural   Yb12Tm7LuSi16
_chemical_formula_sum   'Yb12 Tm7 Lu1 Si16'
_cell_volume   854.91244712
_cell_formula_units_Z   1
loop_
 _symmetry_equiv_pos_site_id
 _symmetry_equiv_pos_as_xyz
  1  'x, y, z'
loop_
 _atom_site_type_symbol
 _atom_site_label
 _atom_site_symmetry_multiplicity
 _atom_site_fract_x
 _atom_site_fract_y
 _atom_site_fract_z
 _atom_site_occupancy
  Yb  Yb0  1  0.974000  0.817039  0.404005  1
  Yb  Yb1  1  0.474044  0.682993  0.095954  1
  Yb  Yb2  1  0.526012  0.317036  0.596014  1
  Yb  Yb3  1  0.025915  0.182898  0.903989  1
  Yb  Yb4  1  0.025986  0.182929  0.596021  1
  Yb  Yb5  1  0.526085  0.317009  0.904001  1
  Yb  Yb6  1  0.473977  0.682974  0.404002  1
  Yb  Yb7  1  0.973936  0.817072  0.095964  1
  Yb  Yb8  1  0.351746  0.020005  0.750042  1
  Yb  Yb9  1  0.851603  0.480029  0.750055  1
  Yb  Yb10  1  0.148340  0.520067  0.250010  1
  Yb  Yb11  1  0.648366  0.979913  0.249993  1
  Tm  Tm12  1  0.314940  0.176549  0.120993  1
  Tm  Tm13  1  0.814886  0.323421  0.378959  1
  Tm  Tm14  1  0.185108  0.676694  0.878923  1
  Tm  Tm15  1  0.685100  0.823381  0.621104  1
  Tm  Tm16  1  0.314879  0.176577  0.378961  1
  Tm  Tm17  1  0.814886  0.323422  0.121023  1
  Tm  Tm18  1  0.185134  0.676623  0.621075  1
  Lu  Lu19  1  0.685088  0.823535  0.878943  1
  Si  Si20  1  0.856216  0.534028  0.538297  1
  Si  Si21  1  0.356546  0.965778  0.961577  1
  Si  Si22  1  0.643794  0.034047  0.461705  1
  Si  Si23  1  0.143751  0.466051  0.038279  1
  Si  Si24  1  0.143801  0.465964  0.461700  1
  Si  Si25  1  0.643978  0.033805  0.038103  1
  Si  Si26  1  0.356168  0.965946  0.538291  1
  Si  Si27  1  0.855810  0.534288  0.961568  1
  Si  Si28  1  0.976931  0.878536  0.750168  1
  Si  Si29  1  0.477418  0.621607  0.750092  1
  Si  Si30  1  0.522839  0.378663  0.249992  1
  Si  Si31  1  0.022843  0.121337  0.249992  1
  Si  Si32  1  0.248792  0.396868  0.750037  1
  Si  Si33  1  0.748552  0.102926  0.750178  1
  Si  Si34  1  0.251270  0.896829  0.249994  1
  Si  Si35  1  0.751262  0.603162  0.249996  1
