# generated using pymatgen
data_TbCe3(InRh2)2
_symmetry_space_group_name_H-M   'P 1'
_cell_length_a   7.67004790
_cell_length_b   7.67004790
_cell_length_c   3.72378100
_cell_angle_alpha   90.00000000
_cell_angle_beta   90.00000000
_cell_angle_gamma   88.45303639
_symmetry_Int_Tables_number   1
_chemical_formula_structural   TbCe3(InRh2)2
_chemical_formula_sum   'Tb1 Ce3 In2 Rh4'
_cell_volume   218.98883302
_cell_formula_units_Z   1
loop_
 _symmetry_equiv_pos_site_id
 _symmetry_equiv_pos_as_xyz
  1  'x, y, z'
loop_
 _atom_site_type_symbol
 _atom_site_label
 _atom_site_symmetry_multiplicity
 _atom_site_fract_x
 _atom_site_fract_y
 _atom_site_fract_z
 _atom_site_occupancy
  Tb  Tb0  1  0.668738  0.168738  0.500000  1
  Ce  Ce1  1  0.330901  0.830901  0.500000  1
  Ce  Ce2  1  0.167572  0.328570  0.500000  1
  Ce  Ce3  1  0.828570  0.667572  0.500000  1
  In  In4  1  0.994827  0.000698  0.000000  1
  In  In5  1  0.500698  0.494827  0.000000  1
  Rh  Rh6  1  0.143240  0.643240  0.000000  1
  Rh  Rh7  1  0.876587  0.376587  0.000000  1
  Rh  Rh8  1  0.633173  0.855693  0.000000  1
  Rh  Rh9  1  0.355693  0.133173  0.000000  1
