# generated using pymatgen
data_Tb3Yb3(Si3Os)8
_symmetry_space_group_name_H-M   'P 1'
_cell_length_a   10.16681600
_cell_length_b   10.16681529
_cell_length_c   8.17033437
_cell_angle_alpha   89.98794498
_cell_angle_beta   89.98794884
_cell_angle_gamma   132.60622021
_symmetry_Int_Tables_number   1
_chemical_formula_structural   Tb3Yb3(Si3Os)8
_chemical_formula_sum   'Tb3 Yb3 Si24 Os8'
_cell_volume   621.58626186
_cell_formula_units_Z   1
loop_
 _symmetry_equiv_pos_site_id
 _symmetry_equiv_pos_as_xyz
  1  'x, y, z'
loop_
 _atom_site_type_symbol
 _atom_site_label
 _atom_site_symmetry_multiplicity
 _atom_site_fract_x
 _atom_site_fract_y
 _atom_site_fract_z
 _atom_site_occupancy
  Tb  Tb0  1  0.000023  0.999977  0.000000  1
  Tb  Tb1  1  0.500191  0.000196  0.250122  1
  Tb  Tb2  1  0.999804  0.499809  0.749878  1
  Yb  Yb3  1  0.499996  0.500004  0.500000  1
  Yb  Yb4  1  0.499602  0.999523  0.749811  1
  Yb  Yb5  1  0.000477  0.500398  0.250189  1
  Si  Si6  1  0.795588  0.204412  0.500000  1
  Si  Si7  1  0.294928  0.705072  0.000000  1
  Si  Si8  1  0.204950  0.795050  0.500000  1
  Si  Si9  1  0.704555  0.295445  0.000000  1
  Si  Si10  1  0.330460  0.338590  0.830835  1
  Si  Si11  1  0.661410  0.669540  0.169165  1
  Si  Si12  1  0.172650  0.164921  0.334272  1
  Si  Si13  1  0.835079  0.827350  0.665728  1
  Si  Si14  1  0.123479  0.889041  0.728172  1
  Si  Si15  1  0.110959  0.876521  0.271828  1
  Si  Si16  1  0.609954  0.376957  0.230048  1
  Si  Si17  1  0.623043  0.390046  0.769952  1
  Si  Si18  1  0.876072  0.110645  0.271792  1
  Si  Si19  1  0.889355  0.123928  0.728208  1
  Si  Si20  1  0.389534  0.622715  0.770007  1
  Si  Si21  1  0.377285  0.610466  0.229993  1
  Si  Si22  1  0.346784  0.113475  0.505981  1
  Si  Si23  1  0.886525  0.653216  0.494019  1
  Si  Si24  1  0.388862  0.154683  0.005732  1
  Si  Si25  1  0.845317  0.611138  0.994268  1
  Si  Si26  1  0.653055  0.885678  0.493361  1
  Si  Si27  1  0.114322  0.346945  0.506639  1
  Si  Si28  1  0.610522  0.844981  0.995477  1
  Si  Si29  1  0.155019  0.389478  0.004523  1
  Os  Os30  1  0.670949  0.329051  0.500000  1
  Os  Os31  1  0.169452  0.830548  0.000000  1
  Os  Os32  1  0.329895  0.670105  0.500000  1
  Os  Os33  1  0.829651  0.170349  0.000000  1
  Os  Os34  1  0.124341  0.125903  0.627652  1
  Os  Os35  1  0.874097  0.875659  0.372348  1
  Os  Os36  1  0.372992  0.371176  0.125017  1
  Os  Os37  1  0.628824  0.627008  0.874983  1
