# generated using pymatgen
data_Li2ZrH6
_symmetry_space_group_name_H-M   'P 1'
_cell_length_a   3.18298551
_cell_length_b   5.09950791
_cell_length_c   5.10123567
_cell_angle_alpha   60.02413685
_cell_angle_beta   89.99968274
_cell_angle_gamma   89.99515748
_symmetry_Int_Tables_number   1
_chemical_formula_structural   Li2ZrH6
_chemical_formula_sum   'Li2 Zr1 H6'
_cell_volume   71.72565558
_cell_formula_units_Z   1
loop_
 _symmetry_equiv_pos_site_id
 _symmetry_equiv_pos_as_xyz
  1  'x, y, z'
loop_
 _atom_site_type_symbol
 _atom_site_label
 _atom_site_symmetry_multiplicity
 _atom_site_fract_x
 _atom_site_fract_y
 _atom_site_fract_z
 _atom_site_occupancy
  Li  Li0  1  0.143411  0.862100  0.202774  1
  Li  Li1  1  0.114510  0.195449  0.536141  1
  Zr  Zr2  1  0.628728  0.528945  0.869410  1
  H  H3  1  0.128678  0.280847  0.117550  1
  H  H4  1  0.628771  0.142848  0.869289  1
  H  H5  1  0.128658  0.528931  0.621362  1
  H  H6  1  0.628473  0.915027  0.483448  1
  H  H7  1  0.128676  0.777025  0.869418  1
  H  H8  1  0.628552  0.529180  0.255324  1
