# generated using pymatgen
data_Nd2Ho2Zn4Si3Ge
_symmetry_space_group_name_H-M   'P 1'
_cell_length_a   4.21478300
_cell_length_b   4.21478139
_cell_length_c   15.90891400
_cell_angle_alpha   90.00000000
_cell_angle_beta   90.00000000
_cell_angle_gamma   120.00002050
_symmetry_Int_Tables_number   1
_chemical_formula_structural   Nd2Ho2Zn4Si3Ge
_chemical_formula_sum   'Nd2 Ho2 Zn4 Si3 Ge1'
_cell_volume   244.74923864
_cell_formula_units_Z   1
loop_
 _symmetry_equiv_pos_site_id
 _symmetry_equiv_pos_as_xyz
  1  'x, y, z'
loop_
 _atom_site_type_symbol
 _atom_site_label
 _atom_site_symmetry_multiplicity
 _atom_site_fract_x
 _atom_site_fract_y
 _atom_site_fract_z
 _atom_site_occupancy
  Nd  Nd0  1  0.000000  0.000000  0.001790  1
  Nd  Nd1  1  0.000000  0.000000  0.499445  1
  Ho  Ho2  1  0.000000  0.000000  0.250586  1
  Ho  Ho3  1  0.000000  0.000000  0.747962  1
  Zn  Zn4  1  0.333333  0.666667  0.148126  1
  Zn  Zn5  1  0.666667  0.333333  0.848983  1
  Zn  Zn6  1  0.666667  0.333333  0.645519  1
  Zn  Zn7  1  0.333333  0.666667  0.353743  1
  Si  Si8  1  0.333333  0.666667  0.621314  1
  Si  Si9  1  0.666667  0.333333  0.378210  1
  Si  Si10  1  0.666667  0.333333  0.122732  1
  Ge  Ge11  1  0.333333  0.666667  0.881589  1
