# generated using pymatgen
data_Ho3Lu2Bi2Os
_symmetry_space_group_name_H-M   'P 1'
_cell_length_a   7.87100000
_cell_length_b   8.97238800
_cell_length_c   12.45886600
_cell_angle_alpha   90.00000000
_cell_angle_beta   90.00000000
_cell_angle_gamma   90.00000000
_symmetry_Int_Tables_number   1
_chemical_formula_structural   Ho3Lu2Bi2Os
_chemical_formula_sum   'Ho12 Lu8 Bi8 Os4'
_cell_volume   879.86587274
_cell_formula_units_Z   4
loop_
 _symmetry_equiv_pos_site_id
 _symmetry_equiv_pos_as_xyz
  1  'x, y, z'
loop_
 _atom_site_type_symbol
 _atom_site_label
 _atom_site_symmetry_multiplicity
 _atom_site_fract_x
 _atom_site_fract_y
 _atom_site_fract_z
 _atom_site_occupancy
  Ho  Ho0  1  0.840074  0.750000  0.791731  1
  Ho  Ho1  1  0.159926  0.250000  0.208269  1
  Ho  Ho2  1  0.340074  0.250000  0.708269  1
  Ho  Ho3  1  0.659926  0.750000  0.291731  1
  Ho  Ho4  1  0.375478  0.750000  0.689357  1
  Ho  Ho5  1  0.624522  0.250000  0.310643  1
  Ho  Ho6  1  0.875478  0.250000  0.810643  1
  Ho  Ho7  1  0.124522  0.750000  0.189357  1
  Ho  Ho8  1  0.942660  0.750000  0.504678  1
  Ho  Ho9  1  0.057340  0.250000  0.495322  1
  Ho  Ho10  1  0.442660  0.250000  0.995322  1
  Ho  Ho11  1  0.557340  0.750000  0.004678  1
  Lu  Lu12  1  0.670630  0.042076  0.564570  1
  Lu  Lu13  1  0.329370  0.957924  0.435430  1
  Lu  Lu14  1  0.170630  0.957924  0.935430  1
  Lu  Lu15  1  0.329370  0.542076  0.435430  1
  Lu  Lu16  1  0.829370  0.042076  0.064570  1
  Lu  Lu17  1  0.670630  0.457924  0.564570  1
  Lu  Lu18  1  0.829370  0.457924  0.064570  1
  Lu  Lu19  1  0.170630  0.542076  0.935430  1
  Bi  Bi20  1  0.564562  0.494101  0.827618  1
  Bi  Bi21  1  0.435438  0.505899  0.172382  1
  Bi  Bi22  1  0.064562  0.505899  0.672382  1
  Bi  Bi23  1  0.435438  0.994101  0.172382  1
  Bi  Bi24  1  0.935438  0.494101  0.327618  1
  Bi  Bi25  1  0.564562  0.005899  0.827618  1
  Bi  Bi26  1  0.935438  0.005899  0.327618  1
  Bi  Bi27  1  0.064562  0.994101  0.672382  1
  Os  Os28  1  0.573520  0.750000  0.508383  1
  Os  Os29  1  0.426480  0.250000  0.491617  1
  Os  Os30  1  0.073520  0.250000  0.991617  1
  Os  Os31  1  0.926480  0.750000  0.008383  1
