# generated using pymatgen
data_DyThTe4
_symmetry_space_group_name_H-M   'P 1'
_cell_length_a   8.08437027
_cell_length_b   8.08436917
_cell_length_c   8.08436973
_cell_angle_alpha   148.97468655
_cell_angle_beta   135.55532074
_cell_angle_gamma   55.18932758
_symmetry_Int_Tables_number   1
_chemical_formula_structural   DyThTe4
_chemical_formula_sum   'Dy1 Th1 Te4'
_cell_volume   189.46163727
_cell_formula_units_Z   1
loop_
 _symmetry_equiv_pos_site_id
 _symmetry_equiv_pos_as_xyz
  1  'x, y, z'
loop_
 _atom_site_type_symbol
 _atom_site_label
 _atom_site_symmetry_multiplicity
 _atom_site_fract_x
 _atom_site_fract_y
 _atom_site_fract_z
 _atom_site_occupancy
  Dy  Dy0  1  0.138010  0.138010  0.000000  1
  Th  Th1  1  0.861966  0.861966  0.000000  1
  Te  Te2  1  0.703190  0.203190  0.500000  1
  Te  Te3  1  0.292862  0.792862  0.500000  1
  Te  Te4  1  0.756090  0.501986  0.254103  1
  Te  Te5  1  0.247883  0.501986  0.745897  1
