# generated using pymatgen
data_Tm20Cd6CoRu
_symmetry_space_group_name_H-M   'P 1'
_cell_length_a   9.45423300
_cell_length_b   9.45423329
_cell_length_c   9.66330000
_cell_angle_alpha   90.00000000
_cell_angle_beta   90.00000000
_cell_angle_gamma   120.00000248
_symmetry_Int_Tables_number   1
_chemical_formula_structural   Tm20Cd6CoRu
_chemical_formula_sum   'Tm20 Cd6 Co1 Ru1'
_cell_volume   748.01223138
_cell_formula_units_Z   1
loop_
 _symmetry_equiv_pos_site_id
 _symmetry_equiv_pos_as_xyz
  1  'x, y, z'
loop_
 _atom_site_type_symbol
 _atom_site_label
 _atom_site_symmetry_multiplicity
 _atom_site_fract_x
 _atom_site_fract_y
 _atom_site_fract_z
 _atom_site_occupancy
  Tm  Tm0  1  0.000000  0.000000  0.499886  1
  Tm  Tm1  1  0.000000  0.000000  0.000114  1
  Tm  Tm2  1  0.212088  0.787912  0.436208  1
  Tm  Tm3  1  0.212088  0.424176  0.436208  1
  Tm  Tm4  1  0.575824  0.787912  0.436208  1
  Tm  Tm5  1  0.790614  0.209386  0.559434  1
  Tm  Tm6  1  0.790614  0.581229  0.559434  1
  Tm  Tm7  1  0.418771  0.209386  0.559434  1
  Tm  Tm8  1  0.790614  0.209386  0.940566  1
  Tm  Tm9  1  0.790614  0.581229  0.940566  1
  Tm  Tm10  1  0.418771  0.209386  0.940566  1
  Tm  Tm11  1  0.212088  0.787912  0.063792  1
  Tm  Tm12  1  0.212088  0.424176  0.063792  1
  Tm  Tm13  1  0.575824  0.787912  0.063792  1
  Tm  Tm14  1  0.541476  0.458524  0.250000  1
  Tm  Tm15  1  0.541476  0.082951  0.250000  1
  Tm  Tm16  1  0.917049  0.458524  0.250000  1
  Tm  Tm17  1  0.458457  0.541543  0.750000  1
  Tm  Tm18  1  0.458457  0.916915  0.750000  1
  Tm  Tm19  1  0.083085  0.541543  0.750000  1
  Cd  Cd20  1  0.885402  0.114598  0.250000  1
  Cd  Cd21  1  0.885402  0.770804  0.250000  1
  Cd  Cd22  1  0.229196  0.114598  0.250000  1
  Cd  Cd23  1  0.114467  0.885533  0.750000  1
  Cd  Cd24  1  0.114467  0.228934  0.750000  1
  Cd  Cd25  1  0.771066  0.885533  0.750000  1
  Co  Co26  1  0.333333  0.666667  0.250000  1
  Ru  Ru27  1  0.666667  0.333333  0.750000  1
