# generated using pymatgen
data_ZrNb3(Al3Au)2
_symmetry_space_group_name_H-M   'P 1'
_cell_length_a   5.28208000
_cell_length_b   5.28208096
_cell_length_c   8.26741900
_cell_angle_alpha   90.00000000
_cell_angle_beta   90.00000000
_cell_angle_gamma   120.00000649
_symmetry_Int_Tables_number   1
_chemical_formula_structural   ZrNb3(Al3Au)2
_chemical_formula_sum   'Zr1 Nb3 Al6 Au2'
_cell_volume   199.76094333
_cell_formula_units_Z   1
loop_
 _symmetry_equiv_pos_site_id
 _symmetry_equiv_pos_as_xyz
  1  'x, y, z'
loop_
 _atom_site_type_symbol
 _atom_site_label
 _atom_site_symmetry_multiplicity
 _atom_site_fract_x
 _atom_site_fract_y
 _atom_site_fract_z
 _atom_site_occupancy
  Zr  Zr0  1  0.666666  0.333333  0.067877  1
  Nb  Nb1  1  0.666666  0.333333  0.432632  1
  Nb  Nb2  1  0.333333  0.666666  0.572866  1
  Nb  Nb3  1  0.333333  0.666666  0.919424  1
  Al  Al4  1  0.172801  0.345603  0.252833  1
  Al  Al5  1  0.172802  0.827198  0.252833  1
  Al  Al6  1  0.654396  0.827198  0.252833  1
  Al  Al7  1  0.345803  0.172901  0.748647  1
  Al  Al8  1  0.827098  0.172901  0.748647  1
  Al  Al9  1  0.827098  0.654196  0.748647  1
  Au  Au10  1  0.000000  0.000000  0.000741  1
  Au  Au11  1  0.000000  0.000000  0.502022  1
