# generated using pymatgen
data_TaTi6Al5Ru12
_symmetry_space_group_name_H-M   'P 1'
_cell_length_a   4.32734600
_cell_length_b   6.14966000
_cell_length_c   12.95839701
_cell_angle_alpha   90.00000000
_cell_angle_beta   89.99656762
_cell_angle_gamma   90.00000000
_symmetry_Int_Tables_number   1
_chemical_formula_structural   TaTi6Al5Ru12
_chemical_formula_sum   'Ta1 Ti6 Al5 Ru12'
_cell_volume   344.84505869
_cell_formula_units_Z   1
loop_
 _symmetry_equiv_pos_site_id
 _symmetry_equiv_pos_as_xyz
  1  'x, y, z'
loop_
 _atom_site_type_symbol
 _atom_site_label
 _atom_site_symmetry_multiplicity
 _atom_site_fract_x
 _atom_site_fract_y
 _atom_site_fract_z
 _atom_site_occupancy
  Ta  Ta0  1  0.000000  0.000000  0.000000  1
  Ti  Ti1  1  0.000000  0.499999  0.000000  1
  Ti  Ti2  1  0.499893  0.000000  0.175834  1
  Ti  Ti3  1  0.999870  0.499999  0.335786  1
  Ti  Ti4  1  0.500000  0.000000  0.500000  1
  Ti  Ti5  1  0.000131  0.499999  0.664214  1
  Ti  Ti6  1  0.500108  0.000000  0.824166  1
  Al  Al7  1  0.499851  0.499999  0.167795  1
  Al  Al8  1  0.999876  0.000000  0.334843  1
  Al  Al9  1  0.500000  0.499999  0.500000  1
  Al  Al10  1  0.000125  0.000000  0.665157  1
  Al  Al11  1  0.500149  0.499999  0.832205  1
  Ru  Ru12  1  0.500000  0.251651  0.000000  1
  Ru  Ru13  1  0.500000  0.748348  0.000000  1
  Ru  Ru14  1  0.999905  0.249764  0.166165  1
  Ru  Ru15  1  0.999905  0.750236  0.166165  1
  Ru  Ru16  1  0.499866  0.251754  0.333827  1
  Ru  Ru17  1  0.499866  0.748247  0.333827  1
  Ru  Ru18  1  0.000000  0.249258  0.500000  1
  Ru  Ru19  1  0.000000  0.750742  0.500000  1
  Ru  Ru20  1  0.500132  0.251754  0.666173  1
  Ru  Ru21  1  0.500132  0.748247  0.666173  1
  Ru  Ru22  1  0.000096  0.249764  0.833835  1
  Ru  Ru23  1  0.000096  0.750236  0.833835  1
