# generated using pymatgen
data_Tb3Nd(Ir2O7)2
_symmetry_space_group_name_H-M   'P 1'
_cell_length_a   7.31893409
_cell_length_b   7.27927069
_cell_length_c   7.27927000
_cell_angle_alpha   60.00000314
_cell_angle_beta   60.17911032
_cell_angle_gamma   60.17911602
_symmetry_Int_Tables_number   1
_chemical_formula_structural   Tb3Nd(Ir2O7)2
_chemical_formula_sum   'Tb3 Nd1 Ir4 O14'
_cell_volume   274.96601504
_cell_formula_units_Z   1
loop_
 _symmetry_equiv_pos_site_id
 _symmetry_equiv_pos_as_xyz
  1  'x, y, z'
loop_
 _atom_site_type_symbol
 _atom_site_label
 _atom_site_symmetry_multiplicity
 _atom_site_fract_x
 _atom_site_fract_y
 _atom_site_fract_z
 _atom_site_occupancy
  Tb  Tb0  1  0.125000  0.625000  0.125000  1
  Tb  Tb1  1  0.125000  0.125000  0.625000  1
  Tb  Tb2  1  0.125000  0.125000  0.125000  1
  Nd  Nd3  1  0.625000  0.125000  0.125000  1
  Ir  Ir4  1  0.125000  0.625000  0.625000  1
  Ir  Ir5  1  0.625000  0.125000  0.625000  1
  Ir  Ir6  1  0.625000  0.625000  0.125000  1
  Ir  Ir7  1  0.625000  0.625000  0.625000  1
  O  O8  1  0.717836  0.703442  0.289361  1
  O  O9  1  0.289034  0.289714  0.710626  1
  O  O10  1  0.717836  0.289361  0.703442  1
  O  O11  1  0.289034  0.710626  0.289714  1
  O  O12  1  0.289034  0.710626  0.710626  1
  O  O13  1  0.717836  0.289361  0.289361  1
  O  O14  1  0.532164  0.546558  0.960639  1
  O  O15  1  0.960966  0.960286  0.539374  1
  O  O16  1  0.532164  0.960639  0.546558  1
  O  O17  1  0.960966  0.539374  0.960286  1
  O  O18  1  0.960966  0.539374  0.539374  1
  O  O19  1  0.532164  0.960639  0.960639  1
  O  O20  1  0.241904  0.252699  0.252699  1
  O  O21  1  0.008096  0.997301  0.997301  1
