# generated using pymatgen
data_Nd4As7Ir7Rh
_symmetry_space_group_name_H-M   'P 1'
_cell_length_a   4.13702000
_cell_length_b   13.22997271
_cell_length_c   13.62658146
_cell_angle_alpha   81.72909638
_cell_angle_beta   90.00000000
_cell_angle_gamma   90.00000000
_symmetry_Int_Tables_number   1
_chemical_formula_structural   Nd4As7Ir7Rh
_chemical_formula_sum   'Nd8 As14 Ir14 Rh2'
_cell_volume   738.06178604
_cell_formula_units_Z   2
loop_
 _symmetry_equiv_pos_site_id
 _symmetry_equiv_pos_as_xyz
  1  'x, y, z'
loop_
 _atom_site_type_symbol
 _atom_site_label
 _atom_site_symmetry_multiplicity
 _atom_site_fract_x
 _atom_site_fract_y
 _atom_site_fract_z
 _atom_site_occupancy
  Nd  Nd0  1  0.250000  0.098629  0.793991  1
  Nd  Nd1  1  0.750000  0.901371  0.206009  1
  Nd  Nd2  1  0.250000  0.287236  0.102805  1
  Nd  Nd3  1  0.750000  0.712764  0.897195  1
  Nd  Nd4  1  0.250000  0.519699  0.293769  1
  Nd  Nd5  1  0.750000  0.480301  0.706231  1
  Nd  Nd6  1  0.250000  0.208667  0.437841  1
  Nd  Nd7  1  0.750000  0.791333  0.562159  1
  As  As8  1  0.250000  0.057814  0.099825  1
  As  As9  1  0.750000  0.942186  0.900175  1
  As  As10  1  0.250000  0.310229  0.688702  1
  As  As11  1  0.750000  0.689771  0.311298  1
  As  As12  1  0.250000  0.607414  0.566968  1
  As  As13  1  0.750000  0.392586  0.433032  1
  As  As14  1  0.250000  0.848300  0.718938  1
  As  As15  1  0.750000  0.151700  0.281062  1
  As  As16  1  0.750000  0.256435  0.917890  1
  As  As17  1  0.250000  0.743565  0.082110  1
  As  As18  1  0.750000  0.095616  0.586450  1
  As  As19  1  0.250000  0.904384  0.413550  1
  As  As20  1  0.750000  0.471712  0.128990  1
  As  As21  1  0.250000  0.528288  0.871010  1
  Ir  Ir22  1  0.250000  0.665583  0.733431  1
  Ir  Ir23  1  0.750000  0.334417  0.266569  1
  Ir  Ir24  1  0.250000  0.555592  0.045217  1
  Ir  Ir25  1  0.750000  0.444408  0.954783  1
  Ir  Ir26  1  0.250000  0.052595  0.278414  1
  Ir  Ir27  1  0.750000  0.947405  0.721586  1
  Ir  Ir28  1  0.250000  0.424832  0.526322  1
  Ir  Ir29  1  0.750000  0.575168  0.473678  1
  Ir  Ir30  1  0.250000  0.918457  0.997806  1
  Ir  Ir31  1  0.750000  0.081543  0.002194  1
  Ir  Ir32  1  0.250000  0.722211  0.400335  1
  Ir  Ir33  1  0.750000  0.277789  0.599665  1
  Ir  Ir34  1  0.250000  0.343624  0.860279  1
  Ir  Ir35  1  0.750000  0.656376  0.139721  1
  Rh  Rh36  1  0.250000  0.989019  0.573776  1
  Rh  Rh37  1  0.750000  0.010981  0.426224  1
