# generated using pymatgen
data_YTm15CdIn3(NiIr)2
_symmetry_space_group_name_H-M   'P 1'
_cell_length_a   9.47373769
_cell_length_b   9.47373661
_cell_length_c   9.53129500
_cell_angle_alpha   59.79882080
_cell_angle_beta   59.79882458
_cell_angle_gamma   59.43070176
_symmetry_Int_Tables_number   1
_chemical_formula_structural   YTm15CdIn3(NiIr)2
_chemical_formula_sum   'Y1 Tm15 Cd1 In3 Ni2 Ir2'
_cell_volume   600.42690985
_cell_formula_units_Z   1
loop_
 _symmetry_equiv_pos_site_id
 _symmetry_equiv_pos_as_xyz
  1  'x, y, z'
loop_
 _atom_site_type_symbol
 _atom_site_label
 _atom_site_symmetry_multiplicity
 _atom_site_fract_x
 _atom_site_fract_y
 _atom_site_fract_z
 _atom_site_occupancy
  Y  Y0  1  0.189316  0.188211  0.811236  1
  Tm  Tm1  1  0.600163  0.600285  0.594272  1
  Tm  Tm2  1  0.600163  0.600285  0.205279  1
  Tm  Tm3  1  0.603685  0.202184  0.597065  1
  Tm  Tm4  1  0.202046  0.603745  0.597104  1
  Tm  Tm5  1  0.058956  0.438223  0.439399  1
  Tm  Tm6  1  0.437986  0.059275  0.063687  1
  Tm  Tm7  1  0.437986  0.059275  0.439051  1
  Tm  Tm8  1  0.058956  0.438223  0.063422  1
  Tm  Tm9  1  0.438626  0.439022  0.061176  1
  Tm  Tm10  1  0.061242  0.061298  0.438730  1
  Tm  Tm11  1  0.187847  0.809842  0.815616  1
  Tm  Tm12  1  0.810018  0.187481  0.187236  1
  Tm  Tm13  1  0.810018  0.187481  0.815265  1
  Tm  Tm14  1  0.187847  0.809842  0.186694  1
  Tm  Tm15  1  0.815883  0.815792  0.184162  1
  Cd  Cd16  1  0.503558  0.830010  0.833216  1
  In  In17  1  0.831249  0.832144  0.834709  1
  In  In18  1  0.831249  0.832144  0.501895  1
  In  In19  1  0.829785  0.502907  0.833654  1
  Ni  Ni20  1  0.391838  0.825614  0.391274  1
  Ni  Ni21  1  0.825638  0.391454  0.391454  1
  Ir  Ir22  1  0.392970  0.392627  0.390740  1
  Ir  Ir23  1  0.392970  0.392627  0.823664  1
