# generated using pymatgen
data_LaSm11(SiI3)4
_symmetry_space_group_name_H-M   'P 1'
_cell_length_a   10.71580875
_cell_length_b   10.71580842
_cell_length_c   10.74286309
_cell_angle_alpha   109.40082961
_cell_angle_beta   109.40082987
_cell_angle_gamma   109.58495836
_symmetry_Int_Tables_number   1
_chemical_formula_structural   LaSm11(SiI3)4
_chemical_formula_sum   'La1 Sm11 Si4 I12'
_cell_volume   949.93040405
_cell_formula_units_Z   1
loop_
 _symmetry_equiv_pos_site_id
 _symmetry_equiv_pos_as_xyz
  1  'x, y, z'
loop_
 _atom_site_type_symbol
 _atom_site_label
 _atom_site_symmetry_multiplicity
 _atom_site_fract_x
 _atom_site_fract_y
 _atom_site_fract_z
 _atom_site_occupancy
  La  La0  1  0.235471  0.264529  0.750000  1
  Sm  Sm1  1  0.462477  0.481983  0.232475  1
  Sm  Sm2  1  0.748651  0.230968  0.268017  1
  Sm  Sm3  1  0.748463  0.018410  0.479827  1
  Sm  Sm4  1  0.230837  0.462252  0.479695  1
  Sm  Sm5  1  0.269032  0.751349  0.231983  1
  Sm  Sm6  1  0.037748  0.269163  0.020305  1
  Sm  Sm7  1  0.018017  0.037523  0.267525  1
  Sm  Sm8  1  0.481590  0.751537  0.020173  1
  Sm  Sm9  1  0.480790  0.231473  0.461670  1
  Sm  Sm10  1  0.018930  0.481070  0.750000  1
  Sm  Sm11  1  0.268527  0.019210  0.038330  1
  Si  Si12  1  0.249952  0.250048  0.250000  1
  Si  Si13  1  0.499615  0.000385  0.250000  1
  Si  Si14  1  0.998992  0.249975  0.498596  1
  Si  Si15  1  0.250025  0.501008  0.001404  1
  I  I16  1  0.250160  0.756465  0.744514  1
  I  I17  1  0.517733  0.513882  0.754957  1
  I  I18  1  0.988025  0.744008  0.994359  1
  I  I19  1  0.743535  0.249840  0.755486  1
  I  I20  1  0.986118  0.982267  0.745043  1
  I  I21  1  0.248762  0.988239  0.500457  1
  I  I22  1  0.755992  0.511975  0.505641  1
  I  I23  1  0.511761  0.251238  0.999543  1
  I  I24  1  0.755870  0.744130  0.250000  1
  I  I25  1  0.743583  0.994445  0.988193  1
  I  I26  1  0.993785  0.506215  0.250000  1
  I  I27  1  0.505555  0.756417  0.511807  1
