# generated using pymatgen
data_Tm3Pa(Ga3Rh)6
_symmetry_space_group_name_H-M   'P 1'
_cell_length_a   7.58826286
_cell_length_b   7.57995862
_cell_length_c   9.45572100
_cell_angle_alpha   90.00000000
_cell_angle_beta   90.00000000
_cell_angle_gamma   119.86458287
_symmetry_Int_Tables_number   1
_chemical_formula_structural   Tm3Pa(Ga3Rh)6
_chemical_formula_sum   'Tm3 Pa1 Ga18 Rh6'
_cell_volume   471.65613104
_cell_formula_units_Z   1
loop_
 _symmetry_equiv_pos_site_id
 _symmetry_equiv_pos_as_xyz
  1  'x, y, z'
loop_
 _atom_site_type_symbol
 _atom_site_label
 _atom_site_symmetry_multiplicity
 _atom_site_fract_x
 _atom_site_fract_y
 _atom_site_fract_z
 _atom_site_occupancy
  Tm  Tm0  1  0.003809  0.331683  0.750000  1
  Tm  Tm1  1  0.669204  0.996941  0.250000  1
  Tm  Tm2  1  0.331347  0.003033  0.750000  1
  Pa  Pa3  1  0.997308  0.668364  0.250000  1
  Ga  Ga4  1  0.127208  0.127403  0.250000  1
  Ga  Ga5  1  0.875891  0.876303  0.750000  1
  Ga  Ga6  1  0.998439  0.330856  0.079101  1
  Ga  Ga7  1  0.001130  0.665808  0.917454  1
  Ga  Ga8  1  0.001130  0.665808  0.582546  1
  Ga  Ga9  1  0.337472  0.001957  0.420852  1
  Ga  Ga10  1  0.998439  0.330856  0.420899  1
  Ga  Ga11  1  0.665876  0.001393  0.580829  1
  Ga  Ga12  1  0.665876  0.001393  0.919171  1
  Ga  Ga13  1  0.337472  0.001957  0.079148  1
  Ga  Ga14  1  0.332048  0.332105  0.567455  1
  Ga  Ga15  1  0.664720  0.667955  0.434881  1
  Ga  Ga16  1  0.664720  0.667955  0.065119  1
  Ga  Ga17  1  0.332048  0.332105  0.932545  1
  Ga  Ga18  1  0.338617  0.545651  0.250000  1
  Ga  Ga19  1  0.661195  0.451225  0.750000  1
  Ga  Ga20  1  0.544899  0.338207  0.250000  1
  Ga  Ga21  1  0.451950  0.661418  0.750000  1
  Rh  Rh22  1  0.672487  0.329751  0.001378  1
  Rh  Rh23  1  0.327272  0.671533  0.001682  1
  Rh  Rh24  1  0.327272  0.671533  0.498318  1
  Rh  Rh25  1  0.672487  0.329751  0.498622  1
  Rh  Rh26  1  0.999842  0.998529  0.001484  1
  Rh  Rh27  1  0.999842  0.998529  0.498516  1
