# generated using pymatgen
data_Tb3Ce2(B3Os)2
_symmetry_space_group_name_H-M   'P 1'
_cell_length_a   5.52329165
_cell_length_b   5.52329181
_cell_length_c   8.45795529
_cell_angle_alpha   70.94264767
_cell_angle_beta   70.94264619
_cell_angle_gamma   60.00000798
_symmetry_Int_Tables_number   1
_chemical_formula_structural   Tb3Ce2(B3Os)2
_chemical_formula_sum   'Tb3 Ce2 B6 Os2'
_cell_volume   206.96550405
_cell_formula_units_Z   1
loop_
 _symmetry_equiv_pos_site_id
 _symmetry_equiv_pos_as_xyz
  1  'x, y, z'
loop_
 _atom_site_type_symbol
 _atom_site_label
 _atom_site_symmetry_multiplicity
 _atom_site_fract_x
 _atom_site_fract_y
 _atom_site_fract_z
 _atom_site_occupancy
  Tb  Tb0  1  0.749622  0.749622  0.751133  1
  Tb  Tb1  1  0.250217  0.250217  0.249348  1
  Tb  Tb2  1  0.584618  0.584618  0.246145  1
  Ce  Ce3  1  0.998369  0.998369  0.004894  1
  Ce  Ce4  1  0.414078  0.414078  0.757767  1
  B  B5  1  0.499748  0.174746  0.498487  1
  B  B6  1  0.827020  0.499748  0.498487  1
  B  B7  1  0.174746  0.827020  0.498487  1
  B  B8  1  0.174746  0.499748  0.498487  1
  B  B9  1  0.827020  0.174746  0.498487  1
  B  B10  1  0.499748  0.827020  0.498487  1
  Os  Os11  1  0.889093  0.889093  0.332723  1
  Os  Os12  1  0.110976  0.110976  0.667071  1
