# generated using pymatgen
data_Hf3Zr5(NbGa3)4
_symmetry_space_group_name_H-M   'P 1'
_cell_length_a   5.53338400
_cell_length_b   8.52122005
_cell_length_c   9.22674106
_cell_angle_alpha   90.01299381
_cell_angle_beta   90.00000000
_cell_angle_gamma   90.00000000
_symmetry_Int_Tables_number   1
_chemical_formula_structural   Hf3Zr5(NbGa3)4
_chemical_formula_sum   'Hf3 Zr5 Nb4 Ga12'
_cell_volume   435.05174233
_cell_formula_units_Z   1
loop_
 _symmetry_equiv_pos_site_id
 _symmetry_equiv_pos_as_xyz
  1  'x, y, z'
loop_
 _atom_site_type_symbol
 _atom_site_label
 _atom_site_symmetry_multiplicity
 _atom_site_fract_x
 _atom_site_fract_y
 _atom_site_fract_z
 _atom_site_occupancy
  Hf  Hf0  1  0.250000  0.634345  0.818722  1
  Hf  Hf1  1  0.750000  0.865671  0.818928  1
  Hf  Hf2  1  0.250000  0.133007  0.181311  1
  Zr  Zr3  1  0.750000  0.467504  0.620188  1
  Zr  Zr4  1  0.250000  0.532605  0.379262  1
  Zr  Zr5  1  0.750000  0.968067  0.378654  1
  Zr  Zr6  1  0.250000  0.032263  0.621276  1
  Zr  Zr7  1  0.750000  0.366902  0.183563  1
  Nb  Nb8  1  0.000113  0.750211  0.110010  1
  Nb  Nb9  1  0.499695  0.249448  0.888502  1
  Nb  Nb10  1  0.000305  0.249448  0.888502  1
  Nb  Nb11  1  0.499887  0.750211  0.110010  1
  Ga  Ga12  1  0.999971  0.750209  0.573752  1
  Ga  Ga13  1  0.498670  0.249374  0.427158  1
  Ga  Ga14  1  0.001330  0.249374  0.427158  1
  Ga  Ga15  1  0.500029  0.750209  0.573752  1
  Ga  Ga16  1  0.750000  0.044616  0.079768  1
  Ga  Ga17  1  0.250000  0.955572  0.919792  1
  Ga  Ga18  1  0.750000  0.544198  0.919419  1
  Ga  Ga19  1  0.250000  0.455124  0.080002  1
  Ga  Ga20  1  0.750000  0.130379  0.653389  1
  Ga  Ga21  1  0.250000  0.869004  0.346508  1
  Ga  Ga22  1  0.750000  0.632635  0.346932  1
  Ga  Ga23  1  0.250000  0.369624  0.653439  1
