# generated using pymatgen
data_NdTl2Zn(Ir2O7)2
_symmetry_space_group_name_H-M   'P 1'
_cell_length_a   7.30284484
_cell_length_b   7.20945614
_cell_length_c   7.20945537
_cell_angle_alpha   60.60346967
_cell_angle_beta   60.92500411
_cell_angle_gamma   60.92500286
_symmetry_Int_Tables_number   1
_chemical_formula_structural   NdTl2Zn(Ir2O7)2
_chemical_formula_sum   'Nd1 Tl2 Zn1 Ir4 O14'
_cell_volume   273.34448292
_cell_formula_units_Z   1
loop_
 _symmetry_equiv_pos_site_id
 _symmetry_equiv_pos_as_xyz
  1  'x, y, z'
loop_
 _atom_site_type_symbol
 _atom_site_label
 _atom_site_symmetry_multiplicity
 _atom_site_fract_x
 _atom_site_fract_y
 _atom_site_fract_z
 _atom_site_occupancy
  Nd  Nd0  1  0.625000  0.125000  0.125000  1
  Tl  Tl1  1  0.125000  0.625000  0.125000  1
  Tl  Tl2  1  0.125000  0.125000  0.625000  1
  Zn  Zn3  1  0.125000  0.125000  0.125000  1
  Ir  Ir4  1  0.125000  0.625000  0.625000  1
  Ir  Ir5  1  0.625000  0.125000  0.625000  1
  Ir  Ir6  1  0.625000  0.625000  0.125000  1
  Ir  Ir7  1  0.625000  0.625000  0.625000  1
  O  O8  1  0.708444  0.702596  0.295639  1
  O  O9  1  0.302343  0.303256  0.689449  1
  O  O10  1  0.708444  0.295639  0.702596  1
  O  O11  1  0.302343  0.689449  0.303256  1
  O  O12  1  0.296391  0.705450  0.705450  1
  O  O13  1  0.700608  0.299759  0.299759  1
  O  O14  1  0.541556  0.547404  0.954361  1
  O  O15  1  0.947657  0.946744  0.560551  1
  O  O16  1  0.541556  0.954361  0.547404  1
  O  O17  1  0.947657  0.560551  0.946744  1
  O  O18  1  0.953609  0.544550  0.544550  1
  O  O19  1  0.549392  0.950241  0.950241  1
  O  O20  1  0.238167  0.229861  0.229861  1
  O  O21  1  0.011833  0.020139  0.020139  1
