# generated using pymatgen
data_TbDy2Al12Ir3Ru
_symmetry_space_group_name_H-M   'P 1'
_cell_length_a   8.82691065
_cell_length_b   8.82105016
_cell_length_c   9.49746600
_cell_angle_alpha   90.00000000
_cell_angle_beta   90.00000000
_cell_angle_gamma   119.97804772
_symmetry_Int_Tables_number   1
_chemical_formula_structural   TbDy2Al12Ir3Ru
_chemical_formula_sum   'Tb2 Dy4 Al24 Ir6 Ru2'
_cell_volume   640.56532736
_cell_formula_units_Z   2
loop_
 _symmetry_equiv_pos_site_id
 _symmetry_equiv_pos_as_xyz
  1  'x, y, z'
loop_
 _atom_site_type_symbol
 _atom_site_label
 _atom_site_symmetry_multiplicity
 _atom_site_fract_x
 _atom_site_fract_y
 _atom_site_fract_z
 _atom_site_occupancy
  Tb  Tb0  1  0.192287  0.807724  0.250000  1
  Tb  Tb1  1  0.192287  0.384562  0.250000  1
  Dy  Dy2  1  0.615196  0.807598  0.250000  1
  Dy  Dy3  1  0.807395  0.192710  0.750000  1
  Dy  Dy4  1  0.807395  0.614686  0.750000  1
  Dy  Dy5  1  0.385191  0.192596  0.750000  1
  Al  Al6  1  0.562534  0.437959  0.250000  1
  Al  Al7  1  0.562534  0.124575  0.250000  1
  Al  Al8  1  0.875123  0.437561  0.250000  1
  Al  Al9  1  0.437693  0.562099  0.750000  1
  Al  Al10  1  0.437693  0.875594  0.750000  1
  Al  Al11  1  0.124476  0.562238  0.750000  1
  Al  Al12  1  0.325930  0.162966  0.424170  1
  Al  Al13  1  0.836852  0.162864  0.424075  1
  Al  Al14  1  0.836852  0.673989  0.424075  1
  Al  Al15  1  0.674149  0.837074  0.575998  1
  Al  Al16  1  0.163011  0.837070  0.576180  1
  Al  Al17  1  0.163011  0.325941  0.576180  1
  Al  Al18  1  0.674149  0.837074  0.924002  1
  Al  Al19  1  0.163011  0.837070  0.923820  1
  Al  Al20  1  0.163011  0.325941  0.923820  1
  Al  Al21  1  0.325930  0.162966  0.075830  1
  Al  Al22  1  0.836852  0.162864  0.075925  1
  Al  Al23  1  0.836852  0.673989  0.075925  1
  Al  Al24  1  0.666801  0.333400  0.528785  1
  Al  Al25  1  0.333455  0.666728  0.471577  1
  Al  Al26  1  0.333455  0.666728  0.028423  1
  Al  Al27  1  0.666801  0.333400  0.971215  1
  Al  Al28  1  0.999836  0.999918  0.250000  1
  Al  Al29  1  0.999995  0.999998  0.750000  1
  Ir  Ir30  1  0.500212  0.500026  0.500232  1
  Ir  Ir31  1  0.500212  0.000186  0.500232  1
  Ir  Ir32  1  0.999771  0.499885  0.500311  1
  Ir  Ir33  1  0.500212  0.500026  0.999768  1
  Ir  Ir34  1  0.500212  0.000186  0.999768  1
  Ir  Ir35  1  0.999771  0.499885  0.999689  1
  Ru  Ru36  1  0.999927  0.999964  0.500224  1
  Ru  Ru37  1  0.999927  0.999964  0.999776  1
