# generated using pymatgen
data_Ba2LuUSe6
_symmetry_space_group_name_H-M   'P 1'
_cell_length_a   7.46333481
_cell_length_b   7.75632401
_cell_length_c   13.09919709
_cell_angle_alpha   89.99948823
_cell_angle_beta   124.86719213
_cell_angle_gamma   90.00178452
_symmetry_Int_Tables_number   1
_chemical_formula_structural   Ba2LuUSe6
_chemical_formula_sum   'Ba4 Lu2 U2 Se12'
_cell_volume   622.15873392
_cell_formula_units_Z   2
loop_
 _symmetry_equiv_pos_site_id
 _symmetry_equiv_pos_as_xyz
  1  'x, y, z'
loop_
 _atom_site_type_symbol
 _atom_site_label
 _atom_site_symmetry_multiplicity
 _atom_site_fract_x
 _atom_site_fract_y
 _atom_site_fract_z
 _atom_site_occupancy
  Ba  Ba0  1  0.766288  0.934956  0.248979  1
  Ba  Ba1  1  0.233692  0.434952  0.251008  1
  Ba  Ba2  1  0.766308  0.565049  0.748992  1
  Ba  Ba3  1  0.233712  0.065044  0.751021  1
  Lu  Lu4  1  0.500000  0.500001  0.000000  1
  Lu  Lu5  1  0.500000  0.000000  0.500000  1
  U  U6  1  0.000000  0.000000  0.000000  1
  U  U7  1  0.000000  0.500001  0.500000  1
  Se  Se8  1  0.844613  0.704155  0.042600  1
  Se  Se9  1  0.744742  0.200499  0.042302  1
  Se  Se10  1  0.329311  0.013858  0.248520  1
  Se  Se11  1  0.670705  0.513844  0.251502  1
  Se  Se12  1  0.255210  0.700488  0.457679  1
  Se  Se13  1  0.155378  0.204163  0.457381  1
  Se  Se14  1  0.844623  0.795836  0.542619  1
  Se  Se15  1  0.744790  0.299512  0.542322  1
  Se  Se16  1  0.329295  0.486156  0.748498  1
  Se  Se17  1  0.670689  0.986142  0.751479  1
  Se  Se18  1  0.255257  0.799501  0.957698  1
  Se  Se19  1  0.155386  0.295846  0.957400  1
