# generated using pymatgen
data_Nd3Th(In2Pd3)4
_symmetry_space_group_name_H-M   'P 1'
_cell_length_a   4.67138900
_cell_length_b   9.95060020
_cell_length_c   10.42534400
_cell_angle_alpha   89.96190492
_cell_angle_beta   90.00000000
_cell_angle_gamma   90.00000000
_symmetry_Int_Tables_number   1
_chemical_formula_structural   Nd3Th(In2Pd3)4
_chemical_formula_sum   'Nd3 Th1 In8 Pd12'
_cell_volume   484.60245406
_cell_formula_units_Z   1
loop_
 _symmetry_equiv_pos_site_id
 _symmetry_equiv_pos_as_xyz
  1  'x, y, z'
loop_
 _atom_site_type_symbol
 _atom_site_label
 _atom_site_symmetry_multiplicity
 _atom_site_fract_x
 _atom_site_fract_y
 _atom_site_fract_z
 _atom_site_occupancy
  Nd  Nd0  1  0.250000  0.444128  0.728524  1
  Nd  Nd1  1  0.250000  0.056018  0.229533  1
  Nd  Nd2  1  0.750000  0.554996  0.270793  1
  Th  Th3  1  0.750000  0.943735  0.772891  1
  In  In4  1  0.250000  0.883998  0.512767  1
  In  In5  1  0.250000  0.615034  0.014876  1
  In  In6  1  0.750000  0.116100  0.485137  1
  In  In7  1  0.750000  0.385418  0.984213  1
  In  In8  1  0.250000  0.164510  0.898903  1
  In  In9  1  0.250000  0.339187  0.395858  1
  In  In10  1  0.750000  0.838425  0.105997  1
  In  In11  1  0.750000  0.659708  0.602898  1
  Pd  Pd12  1  0.250000  0.138077  0.626026  1
  Pd  Pd13  1  0.250000  0.357299  0.122012  1
  Pd  Pd14  1  0.750000  0.857140  0.377360  1
  Pd  Pd15  1  0.750000  0.648784  0.877575  1
  Pd  Pd16  1  0.250000  0.746560  0.741083  1
  Pd  Pd17  1  0.250000  0.758664  0.241099  1
  Pd  Pd18  1  0.750000  0.257612  0.258461  1
  Pd  Pd19  1  0.750000  0.236196  0.758196  1
  Pd  Pd20  1  0.250000  0.895043  0.970766  1
  Pd  Pd21  1  0.250000  0.605379  0.473718  1
  Pd  Pd22  1  0.750000  0.103516  0.024468  1
  Pd  Pd23  1  0.750000  0.394472  0.526844  1
