# generated using pymatgen
data_Li3Ta2Ni9As7
_symmetry_space_group_name_H-M   'P 1'
_cell_length_a   9.44967401
_cell_length_b   9.50347093
_cell_length_c   3.72610500
_cell_angle_alpha   90.00000000
_cell_angle_beta   90.00000000
_cell_angle_gamma   119.80760887
_symmetry_Int_Tables_number   1
_chemical_formula_structural   Li3Ta2Ni9As7
_chemical_formula_sum   'Li3 Ta2 Ni9 As7'
_cell_volume   290.35110761
_cell_formula_units_Z   1
loop_
 _symmetry_equiv_pos_site_id
 _symmetry_equiv_pos_as_xyz
  1  'x, y, z'
loop_
 _atom_site_type_symbol
 _atom_site_label
 _atom_site_symmetry_multiplicity
 _atom_site_fract_x
 _atom_site_fract_y
 _atom_site_fract_z
 _atom_site_occupancy
  Li  Li0  1  0.794245  0.228658  0.500000  1
  Li  Li1  1  0.329607  0.666526  0.000000  1
  Li  Li2  1  0.997020  0.998523  0.500000  1
  Ta  Ta3  1  0.760711  0.557259  0.500000  1
  Ta  Ta4  1  0.445356  0.210968  0.500000  1
  Ni  Ni5  1  0.279028  0.381639  0.500000  1
  Ni  Ni6  1  0.625920  0.905453  0.500000  1
  Ni  Ni7  1  0.099783  0.715994  0.500000  1
  Ni  Ni8  1  0.504684  0.456632  0.000000  1
  Ni  Ni9  1  0.548287  0.047101  0.000000  1
  Ni  Ni10  1  0.951841  0.495179  0.000000  1
  Ni  Ni11  1  0.720584  0.760979  0.000000  1
  Ni  Ni12  1  0.240538  0.964464  0.000000  1
  Ni  Ni13  1  0.038336  0.277642  0.000000  1
  As  As14  1  0.968762  0.761317  0.000000  1
  As  As15  1  0.239467  0.208835  0.000000  1
  As  As16  1  0.794334  0.033609  0.000000  1
  As  As17  1  0.671313  0.330205  0.000000  1
  As  As18  1  0.528499  0.627405  0.500000  1
  As  As19  1  0.374087  0.907944  0.500000  1
  As  As20  1  0.087601  0.463668  0.500000  1
