# generated using pymatgen
data_Yb3SmSi10PdPt5
_symmetry_space_group_name_H-M   'P 1'
_cell_length_a   8.24514411
_cell_length_b   8.25473551
_cell_length_c   8.25599483
_cell_angle_alpha   138.12320653
_cell_angle_beta   104.47469079
_cell_angle_gamma   90.32606152
_symmetry_Int_Tables_number   1
_chemical_formula_structural   Yb3SmSi10PdPt5
_chemical_formula_sum   'Yb3 Sm1 Si10 Pd1 Pt5'
_cell_volume   346.83005498
_cell_formula_units_Z   1
loop_
 _symmetry_equiv_pos_site_id
 _symmetry_equiv_pos_as_xyz
  1  'x, y, z'
loop_
 _atom_site_type_symbol
 _atom_site_label
 _atom_site_symmetry_multiplicity
 _atom_site_fract_x
 _atom_site_fract_y
 _atom_site_fract_z
 _atom_site_occupancy
  Yb  Yb0  1  0.637393  0.870653  0.767821  1
  Yb  Yb1  1  0.362212  0.129516  0.233667  1
  Yb  Yb2  1  0.105028  0.371220  0.732742  1
  Sm  Sm3  1  0.896807  0.628320  0.267018  1
  Si  Si4  1  0.272894  0.022388  0.751414  1
  Si  Si5  1  0.726480  0.977248  0.248353  1
  Si  Si6  1  0.726722  0.478629  0.749365  1
  Si  Si7  1  0.273067  0.521667  0.250479  1
  Si  Si8  1  0.460238  0.613140  0.848998  1
  Si  Si9  1  0.538824  0.387752  0.152034  1
  Si  Si10  1  0.761814  0.110998  0.649882  1
  Si  Si11  1  0.237347  0.887626  0.347948  1
  Si  Si12  1  0.001051  0.751059  0.751580  1
  Si  Si13  1  0.000982  0.249684  0.249950  1
  Pd  Pd14  1  0.499975  0.250418  0.750845  1
  Pt  Pt15  1  0.250514  0.636805  0.614377  1
  Pt  Pt16  1  0.748815  0.363528  0.386173  1
  Pt  Pt17  1  0.021706  0.136665  0.884134  1
  Pt  Pt18  1  0.978044  0.863641  0.113837  1
  Pt  Pt19  1  0.500086  0.749043  0.249382  1
