# generated using pymatgen
data_DyHoGa9Ru5
_symmetry_space_group_name_H-M   'P 1'
_cell_length_a   8.04827891
_cell_length_b   8.04827892
_cell_length_c   8.04827910
_cell_angle_alpha   134.93429479
_cell_angle_beta   134.90753044
_cell_angle_gamma   65.65311368
_symmetry_Int_Tables_number   1
_chemical_formula_structural   DyHoGa9Ru5
_chemical_formula_sum   'Dy1 Ho1 Ga9 Ru5'
_cell_volume   257.47586025
_cell_formula_units_Z   1
loop_
 _symmetry_equiv_pos_site_id
 _symmetry_equiv_pos_as_xyz
  1  'x, y, z'
loop_
 _atom_site_type_symbol
 _atom_site_label
 _atom_site_symmetry_multiplicity
 _atom_site_fract_x
 _atom_site_fract_y
 _atom_site_fract_z
 _atom_site_occupancy
  Dy  Dy0  1  0.000000  0.500000  0.500000  1
  Ho  Ho1  1  0.500000  0.000000  0.500000  1
  Ga  Ga2  1  0.438008  0.858321  0.000076  1
  Ga  Ga3  1  0.141754  0.141679  0.579687  1
  Ga  Ga4  1  0.858246  0.437932  0.999924  1
  Ga  Ga5  1  0.858246  0.858321  0.420313  1
  Ga  Ga6  1  0.561992  0.141679  0.999924  1
  Ga  Ga7  1  0.141754  0.562068  0.000076  1
  Ga  Ga8  1  0.561992  0.562068  0.420313  1
  Ga  Ga9  1  0.000000  0.000000  0.000000  1
  Ga  Ga10  1  0.438008  0.437932  0.579687  1
  Ru  Ru11  1  0.180901  0.180901  0.000000  1
  Ru  Ru12  1  0.819099  0.819099  0.000000  1
  Ru  Ru13  1  0.250021  0.750021  0.500000  1
  Ru  Ru14  1  0.749979  0.249979  0.500000  1
  Ru  Ru15  1  0.500000  0.500000  0.000000  1
