# generated using pymatgen
data_Pr6Fe2Co11P12Rh5
_symmetry_space_group_name_H-M   'P 1'
_cell_length_a   3.83625900
_cell_length_b   10.85929438
_cell_length_c   12.56958158
_cell_angle_alpha   89.91668523
_cell_angle_beta   90.00000000
_cell_angle_gamma   90.00000000
_symmetry_Int_Tables_number   1
_chemical_formula_structural   Pr6Fe2Co11P12Rh5
_chemical_formula_sum   'Pr6 Fe2 Co11 P12 Rh5'
_cell_volume   523.63647250
_cell_formula_units_Z   1
loop_
 _symmetry_equiv_pos_site_id
 _symmetry_equiv_pos_as_xyz
  1  'x, y, z'
loop_
 _atom_site_type_symbol
 _atom_site_label
 _atom_site_symmetry_multiplicity
 _atom_site_fract_x
 _atom_site_fract_y
 _atom_site_fract_z
 _atom_site_occupancy
  Pr  Pr0  1  0.000000  0.500051  0.520047  1
  Pr  Pr1  1  0.500000  0.000196  0.480207  1
  Pr  Pr2  1  0.500000  0.815270  0.206778  1
  Pr  Pr3  1  0.500000  0.182266  0.207664  1
  Pr  Pr4  1  0.000000  0.686840  0.792992  1
  Pr  Pr5  1  0.000000  0.314858  0.792207  1
  Fe  Fe6  1  0.000000  0.503632  0.991576  1
  Fe  Fe7  1  0.500000  0.997455  0.008915  1
  Co  Co8  1  0.500000  0.670534  0.996088  1
  Co  Co9  1  0.000000  0.163679  0.004386  1
  Co  Co10  1  0.000000  0.831053  0.004560  1
  Co  Co11  1  0.500000  0.301590  0.427962  1
  Co  Co12  1  0.500000  0.698972  0.428394  1
  Co  Co13  1  0.000000  0.198442  0.571682  1
  Co  Co14  1  0.000000  0.801247  0.571327  1
  Co  Co15  1  0.500000  0.883727  0.712097  1
  Co  Co16  1  0.500000  0.114789  0.711444  1
  Co  Co17  1  0.000000  0.616608  0.288494  1
  Co  Co18  1  0.000000  0.384905  0.287999  1
  P  P19  1  0.500000  0.507413  0.892870  1
  P  P20  1  0.000000  0.998463  0.105036  1
  P  P21  1  0.500000  0.500887  0.344685  1
  P  P22  1  0.000000  0.999029  0.655507  1
  P  P23  1  0.500000  0.295896  0.610805  1
  P  P24  1  0.500000  0.704142  0.610717  1
  P  P25  1  0.000000  0.204249  0.389246  1
  P  P26  1  0.000000  0.795955  0.389071  1
  P  P27  1  0.500000  0.845260  0.898952  1
  P  P28  1  0.500000  0.145539  0.893850  1
  P  P29  1  0.000000  0.655288  0.102010  1
  P  P30  1  0.000000  0.349120  0.106510  1
  Rh  Rh31  1  0.500000  0.504463  0.158018  1
  Rh  Rh32  1  0.000000  0.998820  0.843481  1
  Rh  Rh33  1  0.500000  0.500136  0.703368  1
  Rh  Rh34  1  0.000000  0.999797  0.296692  1
  Rh  Rh35  1  0.500000  0.329426  0.994365  1
