# generated using pymatgen
data_Pr11Sm(GaI3)4
_symmetry_space_group_name_H-M   'P 1'
_cell_length_a   10.94121770
_cell_length_b   10.93858452
_cell_length_c   10.92494937
_cell_angle_alpha   109.41628269
_cell_angle_beta   109.45497290
_cell_angle_gamma   109.50355998
_symmetry_Int_Tables_number   1
_chemical_formula_structural   Pr11Sm(GaI3)4
_chemical_formula_sum   'Pr11 Sm1 Ga4 I12'
_cell_volume   1007.00626294
_cell_formula_units_Z   1
loop_
 _symmetry_equiv_pos_site_id
 _symmetry_equiv_pos_as_xyz
  1  'x, y, z'
loop_
 _atom_site_type_symbol
 _atom_site_label
 _atom_site_symmetry_multiplicity
 _atom_site_fract_x
 _atom_site_fract_y
 _atom_site_fract_z
 _atom_site_occupancy
  Pr  Pr0  1  0.750202  0.013729  0.486751  1
  Pr  Pr1  1  0.263147  0.749326  0.236152  1
  Pr  Pr2  1  0.485174  0.748637  0.013036  1
  Pr  Pr3  1  0.750201  0.236476  0.263445  1
  Pr  Pr4  1  0.013553  0.486409  0.750354  1
  Pr  Pr5  1  0.236536  0.263437  0.750394  1
  Pr  Pr6  1  0.485157  0.236542  0.472131  1
  Pr  Pr7  1  0.471658  0.485819  0.235833  1
  Pr  Pr8  1  0.263155  0.013847  0.027015  1
  Pr  Pr9  1  0.013575  0.027156  0.263196  1
  Pr  Pr10  1  0.236535  0.473083  0.486119  1
  Sm  Sm11  1  0.031078  0.265532  0.015555  1
  Ga  Ga12  1  0.499922  0.999959  0.249960  1
  Ga  Ga13  1  0.248021  0.498345  0.000073  1
  Ga  Ga14  1  0.248052  0.249678  0.247970  1
  Ga  Ga15  1  0.999697  0.249851  0.499849  1
  I  I16  1  0.757657  0.742280  0.250080  1
  I  I17  1  0.991724  0.503806  0.245851  1
  I  I18  1  0.249871  0.757743  0.742164  1
  I  I19  1  0.757653  0.515374  0.507579  1
  I  I20  1  0.507747  0.250112  0.992358  1
  I  I21  1  0.745202  0.995371  0.984639  1
  I  I22  1  0.991727  0.987928  0.745879  1
  I  I23  1  0.515372  0.507688  0.757683  1
  I  I24  1  0.249873  0.992128  0.507710  1
  I  I25  1  0.745196  0.249827  0.760562  1
  I  I26  1  0.507742  0.757626  0.515378  1
  I  I27  1  0.984572  0.742289  0.992285  1
