# generated using pymatgen
data_Dy2HfVF14
_symmetry_space_group_name_H-M   'P 1'
_cell_length_a   5.59253000
_cell_length_b   8.92082932
_cell_length_c   11.96723442
_cell_angle_alpha   63.16846196
_cell_angle_beta   90.00000000
_cell_angle_gamma   90.00000000
_symmetry_Int_Tables_number   1
_chemical_formula_structural   Dy2HfVF14
_chemical_formula_sum   'Dy4 Hf2 V2 F28'
_cell_volume   532.76599311
_cell_formula_units_Z   2
loop_
 _symmetry_equiv_pos_site_id
 _symmetry_equiv_pos_as_xyz
  1  'x, y, z'
loop_
 _atom_site_type_symbol
 _atom_site_label
 _atom_site_symmetry_multiplicity
 _atom_site_fract_x
 _atom_site_fract_y
 _atom_site_fract_z
 _atom_site_occupancy
  Dy  Dy0  1  0.756596  0.811912  0.761893  1
  Dy  Dy1  1  0.256596  0.188088  0.738107  1
  Dy  Dy2  1  0.241850  0.190418  0.224991  1
  Dy  Dy3  1  0.741850  0.809582  0.275009  1
  Hf  Hf4  1  0.245528  0.729399  0.042434  1
  Hf  Hf5  1  0.745528  0.270601  0.457566  1
  V  V6  1  0.754609  0.276886  0.953072  1
  V  V7  1  0.254609  0.723114  0.546928  1
  F  F8  1  0.455896  0.708299  0.915620  1
  F  F9  1  0.955896  0.291701  0.584380  1
  F  F10  1  0.545870  0.292644  0.072934  1
  F  F11  1  0.045870  0.707356  0.427066  1
  F  F12  1  0.446649  0.279033  0.548786  1
  F  F13  1  0.946649  0.720967  0.951214  1
  F  F14  1  0.532454  0.716769  0.454383  1
  F  F15  1  0.032454  0.283231  0.045617  1
  F  F16  1  0.770241  0.507762  0.864269  1
  F  F17  1  0.270241  0.492238  0.635731  1
  F  F18  1  0.231021  0.479024  0.141968  1
  F  F19  1  0.731021  0.520976  0.358032  1
  F  F20  1  0.756226  0.049026  0.043815  1
  F  F21  1  0.256226  0.950974  0.456185  1
  F  F22  1  0.242260  0.979300  0.944171  1
  F  F23  1  0.742260  0.020700  0.555829  1
  F  F24  1  0.989119  0.724779  0.645273  1
  F  F25  1  0.489119  0.275221  0.854727  1
  F  F26  1  0.031013  0.261379  0.358864  1
  F  F27  1  0.531013  0.738621  0.141136  1
  F  F28  1  0.040046  0.754565  0.172071  1
  F  F29  1  0.540046  0.245435  0.327929  1
  F  F30  1  0.959418  0.259726  0.831223  1
  F  F31  1  0.459418  0.740274  0.668777  1
  F  F32  1  0.424326  0.972337  0.231405  1
  F  F33  1  0.924326  0.027663  0.268595  1
  F  F34  1  0.576878  0.027097  0.765950  1
  F  F35  1  0.076878  0.972903  0.734050  1
