# generated using pymatgen
data_Hf4Al2VFe5
_symmetry_space_group_name_H-M   'P 1'
_cell_length_a   5.00548940
_cell_length_b   5.00548968
_cell_length_c   8.21134500
_cell_angle_alpha   90.00000000
_cell_angle_beta   90.00000000
_cell_angle_gamma   119.34621370
_symmetry_Int_Tables_number   1
_chemical_formula_structural   Hf4Al2VFe5
_chemical_formula_sum   'Hf4 Al2 V1 Fe5'
_cell_volume   179.33358819
_cell_formula_units_Z   1
loop_
 _symmetry_equiv_pos_site_id
 _symmetry_equiv_pos_as_xyz
  1  'x, y, z'
loop_
 _atom_site_type_symbol
 _atom_site_label
 _atom_site_symmetry_multiplicity
 _atom_site_fract_x
 _atom_site_fract_y
 _atom_site_fract_z
 _atom_site_occupancy
  Hf  Hf0  1  0.666761  0.333240  0.937010  1
  Hf  Hf1  1  0.333320  0.666679  0.069549  1
  Hf  Hf2  1  0.333320  0.666679  0.430451  1
  Hf  Hf3  1  0.666761  0.333240  0.562990  1
  Al  Al4  1  0.997088  0.002912  0.003664  1
  Al  Al5  1  0.997088  0.002912  0.496336  1
  V  V6  1  0.180707  0.819293  0.750000  1
  Fe  Fe7  1  0.826516  0.173484  0.250000  1
  Fe  Fe8  1  0.658812  0.830767  0.750000  1
  Fe  Fe9  1  0.345117  0.174725  0.250000  1
  Fe  Fe10  1  0.169233  0.341188  0.750000  1
  Fe  Fe11  1  0.825275  0.654883  0.250000  1
