# generated using pymatgen
data_BaCuPdF7
_symmetry_space_group_name_H-M   'P 1'
_cell_length_a   6.72370651
_cell_length_b   6.72370660
_cell_length_c   7.95191356
_cell_angle_alpha   65.57104142
_cell_angle_beta   65.57104149
_cell_angle_gamma   89.84419444
_symmetry_Int_Tables_number   1
_chemical_formula_structural   BaCuPdF7
_chemical_formula_sum   'Ba2 Cu2 Pd2 F14'
_cell_volume   291.79837867
_cell_formula_units_Z   2
loop_
 _symmetry_equiv_pos_site_id
 _symmetry_equiv_pos_as_xyz
  1  'x, y, z'
loop_
 _atom_site_type_symbol
 _atom_site_label
 _atom_site_symmetry_multiplicity
 _atom_site_fract_x
 _atom_site_fract_y
 _atom_site_fract_z
 _atom_site_occupancy
  Ba  Ba0  1  0.384902  0.615098  0.250000  1
  Ba  Ba1  1  0.615098  0.384902  0.750000  1
  Cu  Cu2  1  0.000000  0.500000  0.000000  1
  Cu  Cu3  1  0.500000  0.000000  0.500000  1
  Pd  Pd4  1  0.000000  0.000000  0.500000  1
  Pd  Pd5  1  0.000000  0.000000  0.000000  1
  F  F6  1  0.086634  0.335644  0.827919  1
  F  F7  1  0.335644  0.086634  0.327919  1
  F  F8  1  0.913366  0.664356  0.172081  1
  F  F9  1  0.664356  0.913366  0.672081  1
  F  F10  1  0.095971  0.904029  0.750000  1
  F  F11  1  0.904029  0.095971  0.250000  1
  F  F12  1  0.723751  0.500945  0.996074  1
  F  F13  1  0.276249  0.499055  0.003926  1
  F  F14  1  0.500945  0.723751  0.496074  1
  F  F15  1  0.004091  0.710022  0.498728  1
  F  F16  1  0.710022  0.004091  0.998728  1
  F  F17  1  0.289978  0.995909  0.001272  1
  F  F18  1  0.499055  0.276249  0.503926  1
  F  F19  1  0.995909  0.289978  0.501272  1
