# generated using pymatgen
data_Te10IrPt4
_symmetry_space_group_name_H-M   'P 1'
_cell_length_a   4.07782831
_cell_length_b   6.88038879
_cell_length_c   14.83177582
_cell_angle_alpha   103.37958928
_cell_angle_beta   89.81174134
_cell_angle_gamma   106.93937330
_symmetry_Int_Tables_number   1
_chemical_formula_structural   Te10IrPt4
_chemical_formula_sum   'Te10 Ir1 Pt4'
_cell_volume   386.35585733
_cell_formula_units_Z   1
loop_
 _symmetry_equiv_pos_site_id
 _symmetry_equiv_pos_as_xyz
  1  'x, y, z'
loop_
 _atom_site_type_symbol
 _atom_site_label
 _atom_site_symmetry_multiplicity
 _atom_site_fract_x
 _atom_site_fract_y
 _atom_site_fract_z
 _atom_site_occupancy
  Te  Te0  1  0.824855  0.673576  0.089266  1
  Te  Te1  1  0.440161  0.859416  0.887396  1
  Te  Te2  1  0.040735  0.059683  0.687802  1
  Te  Te3  1  0.625541  0.262517  0.485128  1
  Te  Te4  1  0.217796  0.467532  0.291981  1
  Te  Te5  1  0.562293  0.146783  0.116620  1
  Te  Te6  1  0.175822  0.327524  0.912288  1
  Te  Te7  1  0.780719  0.523737  0.710286  1
  Te  Te8  1  0.368368  0.731582  0.509820  1
  Te  Te9  1  0.963461  0.947744  0.309524  1
  Ir  Ir10  1  0.590565  0.207693  0.300951  1
  Pt  Pt11  1  0.808611  0.593388  0.898818  1
  Pt  Pt12  1  0.410508  0.791201  0.699207  1
  Pt  Pt13  1  0.997836  0.997918  0.498414  1
  Pt  Pt14  1  0.192730  0.409706  0.102500  1
