# generated using pymatgen
data_YHo(AlRh)2
_symmetry_space_group_name_H-M   'P 1'
_cell_length_a   4.23572000
_cell_length_b   6.88346294
_cell_length_c   7.91679202
_cell_angle_alpha   89.67125298
_cell_angle_beta   90.00000000
_cell_angle_gamma   90.00000000
_symmetry_Int_Tables_number   1
_chemical_formula_structural   YHo(AlRh)2
_chemical_formula_sum   'Y2 Ho2 Al4 Rh4'
_cell_volume   230.82152686
_cell_formula_units_Z   2
loop_
 _symmetry_equiv_pos_site_id
 _symmetry_equiv_pos_as_xyz
  1  'x, y, z'
loop_
 _atom_site_type_symbol
 _atom_site_label
 _atom_site_symmetry_multiplicity
 _atom_site_fract_x
 _atom_site_fract_y
 _atom_site_fract_z
 _atom_site_occupancy
  Y  Y0  1  0.250000  0.533687  0.181198  1
  Y  Y1  1  0.750000  0.466313  0.818802  1
  Ho  Ho2  1  0.750000  0.966273  0.680401  1
  Ho  Ho3  1  0.250000  0.033727  0.319599  1
  Al  Al4  1  0.250000  0.638778  0.561339  1
  Al  Al5  1  0.750000  0.361222  0.438661  1
  Al  Al6  1  0.750000  0.861430  0.060809  1
  Al  Al7  1  0.250000  0.138570  0.939191  1
  Rh  Rh8  1  0.250000  0.769239  0.879124  1
  Rh  Rh9  1  0.750000  0.230761  0.120876  1
  Rh  Rh10  1  0.750000  0.735321  0.382539  1
  Rh  Rh11  1  0.250000  0.264679  0.617461  1
