# generated using pymatgen
data_La6Tb3Tm(In3Br)2
_symmetry_space_group_name_H-M   'P 1'
_cell_length_a   9.61331200
_cell_length_b   9.61331251
_cell_length_c   6.85572900
_cell_angle_alpha   90.00000000
_cell_angle_beta   90.00000000
_cell_angle_gamma   119.99999823
_symmetry_Int_Tables_number   1
_chemical_formula_structural   La6Tb3Tm(In3Br)2
_chemical_formula_sum   'La6 Tb3 Tm1 In6 Br2'
_cell_volume   548.69421306
_cell_formula_units_Z   1
loop_
 _symmetry_equiv_pos_site_id
 _symmetry_equiv_pos_as_xyz
  1  'x, y, z'
loop_
 _atom_site_type_symbol
 _atom_site_label
 _atom_site_symmetry_multiplicity
 _atom_site_fract_x
 _atom_site_fract_y
 _atom_site_fract_z
 _atom_site_occupancy
  La  La0  1  0.731280  0.732174  0.250753  1
  La  La1  1  0.000894  0.732174  0.749247  1
  La  La2  1  0.731280  0.999106  0.749247  1
  La  La3  1  0.267826  0.268720  0.749247  1
  La  La4  1  0.000894  0.268720  0.250753  1
  La  La5  1  0.267826  0.999106  0.250753  1
  Tb  Tb6  1  0.666667  0.333333  0.500000  1
  Tb  Tb7  1  0.333333  0.666667  0.000000  1
  Tb  Tb8  1  0.666667  0.333333  0.000000  1
  Tm  Tm9  1  0.333333  0.666667  0.500000  1
  In  In10  1  0.394228  0.999490  0.749561  1
  In  In11  1  0.000510  0.605772  0.250439  1
  In  In12  1  0.605261  0.999490  0.250439  1
  In  In13  1  0.000510  0.394739  0.749561  1
  In  In14  1  0.394228  0.394739  0.250439  1
  In  In15  1  0.605261  0.605772  0.749561  1
  Br  Br16  1  0.000000  0.000000  0.500000  1
  Br  Br17  1  0.000000  0.000000  0.000000  1
