# generated using pymatgen
data_TbSmRe7Si4W
_symmetry_space_group_name_H-M   'P 1'
_cell_length_a   7.72551651
_cell_length_b   7.17287097
_cell_length_c   4.17068500
_cell_angle_alpha   90.00000000
_cell_angle_beta   90.00000000
_cell_angle_gamma   90.15254108
_symmetry_Int_Tables_number   1
_chemical_formula_structural   TbSmRe7Si4W
_chemical_formula_sum   'Tb1 Sm1 Re7 Si4 W1'
_cell_volume   231.11407457
_cell_formula_units_Z   1
loop_
 _symmetry_equiv_pos_site_id
 _symmetry_equiv_pos_as_xyz
  1  'x, y, z'
loop_
 _atom_site_type_symbol
 _atom_site_label
 _atom_site_symmetry_multiplicity
 _atom_site_fract_x
 _atom_site_fract_y
 _atom_site_fract_z
 _atom_site_occupancy
  Tb  Tb0  1  0.501940  0.499288  0.000000  1
  Sm  Sm1  1  0.000213  0.000566  0.500000  1
  Re  Re2  1  0.606285  0.153888  0.500000  1
  Re  Re3  1  0.395046  0.844221  0.500000  1
  Re  Re4  1  0.892295  0.657280  0.000000  1
  Re  Re5  1  0.161438  0.579944  0.500000  1
  Re  Re6  1  0.835233  0.419769  0.500000  1
  Re  Re7  1  0.341742  0.081113  0.000000  1
  Re  Re8  1  0.658486  0.917726  0.000000  1
  Si  Si9  1  0.692984  0.722681  0.500000  1
  Si  Si10  1  0.309490  0.276500  0.500000  1
  Si  Si11  1  0.194835  0.774702  0.000000  1
  Si  Si12  1  0.803148  0.222693  0.000000  1
  W  W13  1  0.106864  0.349630  0.000000  1
