# generated using pymatgen
data_Ba4Sb4Pt3Au
_symmetry_space_group_name_H-M   'P 1'
_cell_length_a   9.96666400
_cell_length_b   4.63898000
_cell_length_c   8.04983600
_cell_angle_alpha   90.00000000
_cell_angle_beta   89.99999754
_cell_angle_gamma   90.00000000
_symmetry_Int_Tables_number   1
_chemical_formula_structural   Ba4Sb4Pt3Au
_chemical_formula_sum   'Ba4 Sb4 Pt3 Au1'
_cell_volume   372.18541489
_cell_formula_units_Z   1
loop_
 _symmetry_equiv_pos_site_id
 _symmetry_equiv_pos_as_xyz
  1  'x, y, z'
loop_
 _atom_site_type_symbol
 _atom_site_label
 _atom_site_symmetry_multiplicity
 _atom_site_fract_x
 _atom_site_fract_y
 _atom_site_fract_z
 _atom_site_occupancy
  Ba  Ba0  1  0.507101  0.749999  0.252413  1
  Ba  Ba1  1  0.992581  0.749999  0.253196  1
  Ba  Ba2  1  0.993107  0.250000  0.745322  1
  Ba  Ba3  1  0.507296  0.250000  0.746232  1
  Sb  Sb4  1  0.249482  0.250000  0.092730  1
  Sb  Sb5  1  0.749512  0.250000  0.415982  1
  Sb  Sb6  1  0.250544  0.749999  0.575321  1
  Sb  Sb7  1  0.750517  0.749999  0.916910  1
  Pt  Pt8  1  0.750076  0.250000  0.084585  1
  Pt  Pt9  1  0.250254  0.250000  0.418226  1
  Pt  Pt10  1  0.749887  0.749999  0.585129  1
  Au  Au11  1  0.249645  0.749999  0.913952  1
