# generated using pymatgen
data_TbLu7(Ta3Si4)4
_symmetry_space_group_name_H-M   'P 1'
_cell_length_a   6.99798606
_cell_length_b   6.99937060
_cell_length_c   12.89958701
_cell_angle_alpha   89.94749998
_cell_angle_beta   90.00705936
_cell_angle_gamma   89.96989899
_symmetry_Int_Tables_number   1
_chemical_formula_structural   TbLu7(Ta3Si4)4
_chemical_formula_sum   'Tb1 Lu7 Ta12 Si16'
_cell_volume   631.84073695
_cell_formula_units_Z   1
loop_
 _symmetry_equiv_pos_site_id
 _symmetry_equiv_pos_as_xyz
  1  'x, y, z'
loop_
 _atom_site_type_symbol
 _atom_site_label
 _atom_site_symmetry_multiplicity
 _atom_site_fract_x
 _atom_site_fract_y
 _atom_site_fract_z
 _atom_site_occupancy
  Tb  Tb0  1  0.996259  0.658320  0.031731  1
  Lu  Lu1  1  0.342171  0.002097  0.468612  1
  Lu  Lu2  1  0.497935  0.842129  0.718090  1
  Lu  Lu3  1  0.501625  0.158154  0.219089  1
  Lu  Lu4  1  0.842079  0.498078  0.281924  1
  Lu  Lu5  1  0.158298  0.501594  0.781045  1
  Lu  Lu6  1  0.657531  0.998145  0.968083  1
  Lu  Lu7  1  0.002042  0.342310  0.531518  1
  Ta  Ta8  1  0.328659  0.328007  0.999861  1
  Ta  Ta9  1  0.171902  0.829247  0.250670  1
  Ta  Ta10  1  0.828650  0.171473  0.749507  1
  Ta  Ta11  1  0.671668  0.671625  0.500100  1
  Ta  Ta12  1  0.153150  0.005229  0.873218  1
  Ta  Ta13  1  0.494341  0.652448  0.124421  1
  Ta  Ta14  1  0.505710  0.347911  0.623787  1
  Ta  Ta15  1  0.651796  0.493025  0.875013  1
  Ta  Ta16  1  0.347944  0.505744  0.376461  1
  Ta  Ta17  1  0.847850  0.994845  0.374680  1
  Ta  Ta18  1  0.005855  0.152669  0.126375  1
  Ta  Ta19  1  0.994547  0.848061  0.625590  1
  Si  Si20  1  0.204173  0.135838  0.680377  1
  Si  Si21  1  0.366225  0.704007  0.930302  1
  Si  Si22  1  0.635892  0.296138  0.430858  1
  Si  Si23  1  0.702057  0.362707  0.068966  1
  Si  Si24  1  0.296051  0.635883  0.569352  1
  Si  Si25  1  0.794395  0.866404  0.182348  1
  Si  Si26  1  0.135813  0.204046  0.319659  1
  Si  Si27  1  0.864060  0.796214  0.818155  1
  Si  Si28  1  0.297142  0.955523  0.064426  1
  Si  Si29  1  0.545105  0.796744  0.314815  1
  Si  Si30  1  0.454254  0.203420  0.813918  1
  Si  Si31  1  0.796538  0.545538  0.685328  1
  Si  Si32  1  0.204948  0.453513  0.186702  1
  Si  Si33  1  0.703502  0.045588  0.564372  1
  Si  Si34  1  0.954308  0.293615  0.934986  1
  Si  Si35  1  0.045522  0.703712  0.435659  1
