# generated using pymatgen
data_MnAl2VCo4
_symmetry_space_group_name_H-M   'P 1'
_cell_length_a   7.01475528
_cell_length_b   7.01475561
_cell_length_c   7.01475706
_cell_angle_alpha   33.61297659
_cell_angle_beta   33.61297131
_cell_angle_gamma   33.61297231
_symmetry_Int_Tables_number   1
_chemical_formula_structural   MnAl2VCo4
_chemical_formula_sum   'Mn1 Al2 V1 Co4'
_cell_volume   94.22831184
_cell_formula_units_Z   1
loop_
 _symmetry_equiv_pos_site_id
 _symmetry_equiv_pos_as_xyz
  1  'x, y, z'
loop_
 _atom_site_type_symbol
 _atom_site_label
 _atom_site_symmetry_multiplicity
 _atom_site_fract_x
 _atom_site_fract_y
 _atom_site_fract_z
 _atom_site_occupancy
  Mn  Mn0  1  0.500000  0.500000  0.500000  1
  Al  Al1  1  0.248301  0.248301  0.248301  1
  Al  Al2  1  0.751699  0.751699  0.751699  1
  V  V3  1  0.000000  0.000000  0.000000  1
  Co  Co4  1  0.627111  0.627111  0.627111  1
  Co  Co5  1  0.122583  0.122583  0.122583  1
  Co  Co6  1  0.877417  0.877417  0.877417  1
  Co  Co7  1  0.372889  0.372889  0.372889  1
