# generated using pymatgen
data_HoEr3Sn6Rh7
_symmetry_space_group_name_H-M   'P 1'
_cell_length_a   7.58771731
_cell_length_b   7.58579965
_cell_length_c   7.58771703
_cell_angle_alpha   109.46610298
_cell_angle_beta   109.47635017
_cell_angle_gamma   109.46610223
_symmetry_Int_Tables_number   1
_chemical_formula_structural   HoEr3Sn6Rh7
_chemical_formula_sum   'Ho1 Er3 Sn6 Rh7'
_cell_volume   336.22430903
_cell_formula_units_Z   1
loop_
 _symmetry_equiv_pos_site_id
 _symmetry_equiv_pos_as_xyz
  1  'x, y, z'
loop_
 _atom_site_type_symbol
 _atom_site_label
 _atom_site_symmetry_multiplicity
 _atom_site_fract_x
 _atom_site_fract_y
 _atom_site_fract_z
 _atom_site_occupancy
  Ho  Ho0  1  0.000000  0.500000  0.000000  1
  Er  Er1  1  0.000000  0.000000  0.500000  1
  Er  Er2  1  0.500000  0.000000  0.000000  1
  Er  Er3  1  0.500000  0.500000  0.500000  1
  Sn  Sn4  1  0.684881  0.684979  0.000000  1
  Sn  Sn5  1  0.315119  0.000098  0.315119  1
  Sn  Sn6  1  0.000000  0.315021  0.315119  1
  Sn  Sn7  1  0.315119  0.315021  0.000000  1
  Sn  Sn8  1  0.684881  0.999902  0.684881  1
  Sn  Sn9  1  0.000000  0.684979  0.684881  1
  Rh  Rh10  1  0.749947  0.249947  0.499895  1
  Rh  Rh11  1  0.749947  0.500000  0.250053  1
  Rh  Rh12  1  0.499895  0.249947  0.749947  1
  Rh  Rh13  1  0.250053  0.500000  0.749947  1
  Rh  Rh14  1  0.250053  0.750053  0.500105  1
  Rh  Rh15  1  0.500105  0.750053  0.250053  1
  Rh  Rh16  1  0.000000  0.000000  0.000000  1
