# generated using pymatgen
data_Th2Ga3SiAu4
_symmetry_space_group_name_H-M   'P 1'
_cell_length_a   4.38342900
_cell_length_b   4.38342900
_cell_length_c   10.60321900
_cell_angle_alpha   90.00000000
_cell_angle_beta   90.00000000
_cell_angle_gamma   90.00000000
_symmetry_Int_Tables_number   1
_chemical_formula_structural   Th2Ga3SiAu4
_chemical_formula_sum   'Th2 Ga3 Si1 Au4'
_cell_volume   203.73501917
_cell_formula_units_Z   1
loop_
 _symmetry_equiv_pos_site_id
 _symmetry_equiv_pos_as_xyz
  1  'x, y, z'
loop_
 _atom_site_type_symbol
 _atom_site_label
 _atom_site_symmetry_multiplicity
 _atom_site_fract_x
 _atom_site_fract_y
 _atom_site_fract_z
 _atom_site_occupancy
  Th  Th0  1  0.000000  0.500000  0.246187  1
  Th  Th1  1  0.500000  0.000000  0.752322  1
  Ga  Ga2  1  0.000000  0.000000  0.501905  1
  Ga  Ga3  1  0.500000  0.500000  0.501905  1
  Ga  Ga4  1  0.500000  0.000000  0.133676  1
  Si  Si5  1  0.000000  0.500000  0.868993  1
  Au  Au6  1  0.000000  0.000000  0.993408  1
  Au  Au7  1  0.500000  0.500000  0.993408  1
  Au  Au8  1  0.000000  0.500000  0.639943  1
  Au  Au9  1  0.500000  0.000000  0.368255  1
