# generated using pymatgen
data_Lu4Ge2B4(IrRh)5
_symmetry_space_group_name_H-M   'P 1'
_cell_length_a   9.36031717
_cell_length_b   9.35186118
_cell_length_c   3.23986000
_cell_angle_alpha   90.00000000
_cell_angle_beta   90.00000000
_cell_angle_gamma   89.97783758
_symmetry_Int_Tables_number   1
_chemical_formula_structural   Lu4Ge2B4(IrRh)5
_chemical_formula_sum   'Lu4 Ge2 B4 Ir5 Rh5'
_cell_volume   283.60561684
_cell_formula_units_Z   1
loop_
 _symmetry_equiv_pos_site_id
 _symmetry_equiv_pos_as_xyz
  1  'x, y, z'
loop_
 _atom_site_type_symbol
 _atom_site_label
 _atom_site_symmetry_multiplicity
 _atom_site_fract_x
 _atom_site_fract_y
 _atom_site_fract_z
 _atom_site_occupancy
  Lu  Lu0  1  0.822524  0.324698  0.000000  1
  Lu  Lu1  1  0.325228  0.178135  0.000000  1
  Lu  Lu2  1  0.676347  0.822071  0.000000  1
  Lu  Lu3  1  0.176982  0.675674  0.000000  1
  Ge  Ge4  1  0.999624  0.998075  0.000000  1
  Ge  Ge5  1  0.499390  0.500164  0.000000  1
  B  B6  1  0.624632  0.118291  0.000000  1
  B  B7  1  0.118355  0.375305  0.000000  1
  B  B8  1  0.880497  0.620071  0.000000  1
  B  B9  1  0.376105  0.881918  0.000000  1
  Ir  Ir10  1  0.069284  0.217791  0.500000  1
  Ir  Ir11  1  0.218299  0.931477  0.500000  1
  Ir  Ir12  1  0.782772  0.070372  0.500000  1
  Ir  Ir13  1  0.500911  0.999817  0.500000  1
  Ir  Ir14  1  0.999319  0.501041  0.500000  1
  Rh  Rh15  1  0.930513  0.783505  0.500000  1
  Rh  Rh16  1  0.429704  0.716220  0.500000  1
  Rh  Rh17  1  0.569812  0.284474  0.500000  1
  Rh  Rh18  1  0.716506  0.570636  0.500000  1
  Rh  Rh19  1  0.283196  0.430265  0.500000  1
