# generated using pymatgen
data_Pr16Ho4Si15Ru
_symmetry_space_group_name_H-M   'P 1'
_cell_length_a   7.86536399
_cell_length_b   7.83911860
_cell_length_c   15.30852200
_cell_angle_alpha   90.22839089
_cell_angle_beta   89.84713316
_cell_angle_gamma   90.15995887
_symmetry_Int_Tables_number   1
_chemical_formula_structural   Pr16Ho4Si15Ru
_chemical_formula_sum   'Pr16 Ho4 Si15 Ru1'
_cell_volume   943.87101038
_cell_formula_units_Z   1
loop_
 _symmetry_equiv_pos_site_id
 _symmetry_equiv_pos_as_xyz
  1  'x, y, z'
loop_
 _atom_site_type_symbol
 _atom_site_label
 _atom_site_symmetry_multiplicity
 _atom_site_fract_x
 _atom_site_fract_y
 _atom_site_fract_z
 _atom_site_occupancy
  Pr  Pr0  1  0.375394  0.013754  0.447980  1
  Pr  Pr1  1  0.484779  0.881520  0.695727  1
  Pr  Pr2  1  0.513457  0.121395  0.196077  1
  Pr  Pr3  1  0.878529  0.485649  0.302966  1
  Pr  Pr4  1  0.124241  0.504828  0.800454  1
  Pr  Pr5  1  0.622802  0.987093  0.945648  1
  Pr  Pr6  1  0.008635  0.380226  0.554968  1
  Pr  Pr7  1  0.986068  0.622250  0.053669  1
  Pr  Pr8  1  0.132265  0.980728  0.873740  1
  Pr  Pr9  1  0.522358  0.627755  0.127582  1
  Pr  Pr10  1  0.468786  0.362642  0.631467  1
  Pr  Pr11  1  0.625704  0.520379  0.872758  1
  Pr  Pr12  1  0.375940  0.477997  0.371824  1
  Pr  Pr13  1  0.875242  0.025909  0.378115  1
  Pr  Pr14  1  0.976693  0.125029  0.122595  1
  Pr  Pr15  1  0.029916  0.884135  0.624922  1
  Ho  Ho16  1  0.306650  0.306939  0.999293  1
  Ho  Ho17  1  0.190625  0.808241  0.250357  1
  Ho  Ho18  1  0.822926  0.189758  0.749277  1
  Ho  Ho19  1  0.693859  0.690813  0.501554  1
  Si  Si20  1  0.328234  0.687553  0.956717  1
  Si  Si21  1  0.669013  0.311912  0.458679  1
  Si  Si22  1  0.689192  0.329452  0.043823  1
  Si  Si23  1  0.311498  0.671350  0.542011  1
  Si  Si24  1  0.813419  0.827507  0.209153  1
  Si  Si25  1  0.173036  0.188736  0.291870  1
  Si  Si26  1  0.828539  0.808904  0.793382  1
  Si  Si27  1  0.285880  0.921166  0.062219  1
  Si  Si28  1  0.580462  0.785022  0.314013  1
  Si  Si29  1  0.422927  0.210946  0.815531  1
  Si  Si30  1  0.776755  0.584429  0.686419  1
  Si  Si31  1  0.213421  0.421350  0.186491  1
  Si  Si32  1  0.708353  0.074398  0.561795  1
  Si  Si33  1  0.919650  0.285283  0.937770  1
  Si  Si34  1  0.081104  0.717921  0.437053  1
  Ru  Ru35  1  0.183650  0.177026  0.702097  1
