# generated using pymatgen
data_Y2Er4FeBi2
_symmetry_space_group_name_H-M   'P 1'
_cell_length_a   8.28970014
_cell_length_b   8.30563159
_cell_length_c   4.18424300
_cell_angle_alpha   90.00000000
_cell_angle_beta   90.00000000
_cell_angle_gamma   119.91548034
_symmetry_Int_Tables_number   1
_chemical_formula_structural   Y2Er4FeBi2
_chemical_formula_sum   'Y2 Er4 Fe1 Bi2'
_cell_volume   249.70558910
_cell_formula_units_Z   1
loop_
 _symmetry_equiv_pos_site_id
 _symmetry_equiv_pos_as_xyz
  1  'x, y, z'
loop_
 _atom_site_type_symbol
 _atom_site_label
 _atom_site_symmetry_multiplicity
 _atom_site_fract_x
 _atom_site_fract_y
 _atom_site_fract_z
 _atom_site_occupancy
  Y  Y0  1  0.000417  0.608010  0.000000  1
  Y  Y1  1  0.392440  0.392033  0.000000  1
  Er  Er2  1  0.227927  0.999947  0.500000  1
  Er  Er3  1  0.999310  0.229116  0.500000  1
  Er  Er4  1  0.770220  0.770856  0.500000  1
  Er  Er5  1  0.611225  0.999998  0.000000  1
  Fe  Fe6  1  0.997100  0.000050  0.000000  1
  Bi  Bi7  1  0.334631  0.667892  0.500000  1
  Bi  Bi8  1  0.666730  0.332098  0.500000  1
