# generated using pymatgen
data_Y7Mg(Si3Pt)4
_symmetry_space_group_name_H-M   'P 1'
_cell_length_a   8.11845982
_cell_length_b   8.19936492
_cell_length_c   8.10935400
_cell_angle_alpha   90.00000000
_cell_angle_beta   90.00000000
_cell_angle_gamma   120.33021106
_symmetry_Int_Tables_number   1
_chemical_formula_structural   Y7Mg(Si3Pt)4
_chemical_formula_sum   'Y7 Mg1 Si12 Pt4'
_cell_volume   465.92501862
_cell_formula_units_Z   1
loop_
 _symmetry_equiv_pos_site_id
 _symmetry_equiv_pos_as_xyz
  1  'x, y, z'
loop_
 _atom_site_type_symbol
 _atom_site_label
 _atom_site_symmetry_multiplicity
 _atom_site_fract_x
 _atom_site_fract_y
 _atom_site_fract_z
 _atom_site_occupancy
  Y  Y0  1  0.999894  0.999947  0.250000  1
  Y  Y1  1  0.000136  0.000068  0.750000  1
  Y  Y2  1  0.499134  0.500433  0.250000  1
  Y  Y3  1  0.500284  0.000802  0.750000  1
  Y  Y4  1  0.499134  0.998699  0.250000  1
  Y  Y5  1  0.500284  0.499484  0.750000  1
  Y  Y6  1  0.999170  0.499586  0.750000  1
  Mg  Mg7  1  0.002166  0.501082  0.250000  1
  Si  Si8  1  0.165473  0.330183  0.999916  1
  Si  Si9  1  0.668249  0.834124  0.999306  1
  Si  Si10  1  0.165473  0.330183  0.500084  1
  Si  Si11  1  0.331758  0.165880  0.000446  1
  Si  Si12  1  0.165473  0.835289  0.999916  1
  Si  Si13  1  0.668249  0.834124  0.500694  1
  Si  Si14  1  0.834410  0.669759  0.001015  1
  Si  Si15  1  0.331758  0.165880  0.499554  1
  Si  Si16  1  0.165473  0.835289  0.500084  1
  Si  Si17  1  0.834410  0.669759  0.498985  1
  Si  Si18  1  0.834410  0.164652  0.001015  1
  Si  Si19  1  0.834410  0.164652  0.498985  1
  Pt  Pt20  1  0.328876  0.664439  0.005982  1
  Pt  Pt21  1  0.328876  0.664439  0.494018  1
  Pt  Pt22  1  0.671251  0.335625  0.008423  1
  Pt  Pt23  1  0.671251  0.335625  0.491577  1
