# generated using pymatgen
data_ErLu11CoTc3
_symmetry_space_group_name_H-M   'P 1'
_cell_length_a   6.13613000
_cell_length_b   7.33002301
_cell_length_c   8.89033100
_cell_angle_alpha   90.00000000
_cell_angle_beta   90.00000000
_cell_angle_gamma   89.99665450
_symmetry_Int_Tables_number   1
_chemical_formula_structural   ErLu11CoTc3
_chemical_formula_sum   'Er1 Lu11 Co1 Tc3'
_cell_volume   399.86907684
_cell_formula_units_Z   1
loop_
 _symmetry_equiv_pos_site_id
 _symmetry_equiv_pos_as_xyz
  1  'x, y, z'
loop_
 _atom_site_type_symbol
 _atom_site_label
 _atom_site_symmetry_multiplicity
 _atom_site_fract_x
 _atom_site_fract_y
 _atom_site_fract_z
 _atom_site_occupancy
  Er  Er0  1  0.875994  0.538362  0.250000  1
  Lu  Lu1  1  0.337796  0.676678  0.062290  1
  Lu  Lu2  1  0.157774  0.174124  0.438899  1
  Lu  Lu3  1  0.658913  0.327904  0.564656  1
  Lu  Lu4  1  0.837916  0.823849  0.936961  1
  Lu  Lu5  1  0.658913  0.327904  0.935344  1
  Lu  Lu6  1  0.837916  0.823849  0.563039  1
  Lu  Lu7  1  0.337796  0.676678  0.437710  1
  Lu  Lu8  1  0.157774  0.174124  0.061101  1
  Lu  Lu9  1  0.624835  0.039379  0.250000  1
  Lu  Lu10  1  0.138351  0.458947  0.750000  1
  Lu  Lu11  1  0.375898  0.953805  0.750000  1
  Co  Co12  1  0.537280  0.620376  0.750000  1
  Tc  Tc13  1  0.042054  0.881846  0.250000  1
  Tc  Tc14  1  0.458292  0.383852  0.250000  1
  Tc  Tc15  1  0.962497  0.118320  0.750000  1
