# generated using pymatgen
data_Ho6Lu4Si5Bi
_symmetry_space_group_name_H-M   'P 1'
_cell_length_a   8.44557100
_cell_length_b   8.47334422
_cell_length_c   6.24303400
_cell_angle_alpha   90.00000000
_cell_angle_beta   90.00000000
_cell_angle_gamma   119.89163701
_symmetry_Int_Tables_number   1
_chemical_formula_structural   Ho6Lu4Si5Bi
_chemical_formula_sum   'Ho6 Lu4 Si5 Bi1'
_cell_volume   387.33200689
_cell_formula_units_Z   1
loop_
 _symmetry_equiv_pos_site_id
 _symmetry_equiv_pos_as_xyz
  1  'x, y, z'
loop_
 _atom_site_type_symbol
 _atom_site_label
 _atom_site_symmetry_multiplicity
 _atom_site_fract_x
 _atom_site_fract_y
 _atom_site_fract_z
 _atom_site_occupancy
  Ho  Ho0  1  0.767721  0.000000  0.750000  1
  Ho  Ho1  1  0.754943  0.756248  0.250000  1
  Ho  Ho2  1  0.998694  0.243752  0.250000  1
  Ho  Ho3  1  0.984539  0.744918  0.750000  1
  Ho  Ho4  1  0.239621  0.255082  0.750000  1
  Ho  Ho5  1  0.239900  0.000000  0.250000  1
  Lu  Lu6  1  0.676997  0.346229  0.004722  1
  Lu  Lu7  1  0.330767  0.653771  0.495278  1
  Lu  Lu8  1  0.330767  0.653771  0.004722  1
  Lu  Lu9  1  0.676997  0.346229  0.495278  1
  Si  Si10  1  0.394511  0.391725  0.250000  1
  Si  Si11  1  0.002786  0.608275  0.250000  1
  Si  Si12  1  0.998427  0.395651  0.750000  1
  Si  Si13  1  0.602776  0.604349  0.750000  1
  Si  Si14  1  0.606139  0.000000  0.250000  1
  Bi  Bi15  1  0.394417  0.000000  0.750000  1
