# generated using pymatgen
data_Li4TiSb3Rh8
_symmetry_space_group_name_H-M   'P 1'
_cell_length_a   6.14730700
_cell_length_b   6.16009800
_cell_length_c   6.14730400
_cell_angle_alpha   90.00015829
_cell_angle_beta   90.00074564
_cell_angle_gamma   89.99975792
_symmetry_Int_Tables_number   1
_chemical_formula_structural   Li4TiSb3Rh8
_chemical_formula_sum   'Li4 Ti1 Sb3 Rh8'
_cell_volume   232.78619119
_cell_formula_units_Z   1
loop_
 _symmetry_equiv_pos_site_id
 _symmetry_equiv_pos_as_xyz
  1  'x, y, z'
loop_
 _atom_site_type_symbol
 _atom_site_label
 _atom_site_symmetry_multiplicity
 _atom_site_fract_x
 _atom_site_fract_y
 _atom_site_fract_z
 _atom_site_occupancy
  Li  Li0  1  0.500000  0.750083  0.249941  1
  Li  Li1  1  0.000006  0.249916  0.249943  1
  Li  Li2  1  0.000005  0.750089  0.750064  1
  Li  Li3  1  0.499988  0.249919  0.750055  1
  Ti  Ti4  1  0.499999  0.250009  0.250013  1
  Sb  Sb5  1  0.999998  0.749991  0.250007  1
  Sb  Sb6  1  0.000000  0.250012  0.749992  1
  Sb  Sb7  1  0.500002  0.749991  0.749994  1
  Rh  Rh8  1  0.254341  0.004457  0.004339  1
  Rh  Rh9  1  0.745659  0.004456  0.004343  1
  Rh  Rh10  1  0.745655  0.495538  0.004343  1
  Rh  Rh11  1  0.254339  0.495549  0.004336  1
  Rh  Rh12  1  0.254345  0.495540  0.495656  1
  Rh  Rh13  1  0.254344  0.004453  0.495660  1
  Rh  Rh14  1  0.745658  0.495537  0.495658  1
  Rh  Rh15  1  0.745657  0.004458  0.495657  1
