# generated using pymatgen
data_Nd3(PdAu2)2
_symmetry_space_group_name_H-M   'P 1'
_cell_length_a   7.72183800
_cell_length_b   7.72183811
_cell_length_c   3.93147700
_cell_angle_alpha   90.00000000
_cell_angle_beta   90.00000000
_cell_angle_gamma   119.99999952
_symmetry_Int_Tables_number   1
_chemical_formula_structural   Nd3(PdAu2)2
_chemical_formula_sum   'Nd3 Pd2 Au4'
_cell_volume   203.01482428
_cell_formula_units_Z   1
loop_
 _symmetry_equiv_pos_site_id
 _symmetry_equiv_pos_as_xyz
  1  'x, y, z'
loop_
 _atom_site_type_symbol
 _atom_site_label
 _atom_site_symmetry_multiplicity
 _atom_site_fract_x
 _atom_site_fract_y
 _atom_site_fract_z
 _atom_site_occupancy
  Nd  Nd0  1  0.990141  0.609752  0.000000  1
  Nd  Nd1  1  0.390248  0.380390  0.000000  1
  Nd  Nd2  1  0.619610  0.009859  0.000000  1
  Pd  Pd3  1  0.000000  0.000000  0.000000  1
  Pd  Pd4  1  0.666667  0.333333  0.500000  1
  Au  Au5  1  0.736370  0.732887  0.500000  1
  Au  Au6  1  0.996516  0.263630  0.500000  1
  Au  Au7  1  0.267113  0.003484  0.500000  1
  Au  Au8  1  0.333333  0.666667  0.500000  1
