# generated using pymatgen
data_Ho12Tl2GaFe2
_symmetry_space_group_name_H-M   'P 1'
_cell_length_a   8.38683517
_cell_length_b   8.38683473
_cell_length_c   8.38683547
_cell_angle_alpha   109.70159945
_cell_angle_beta   109.86438923
_cell_angle_gamma   108.84949554
_symmetry_Int_Tables_number   1
_chemical_formula_structural   Ho12Tl2GaFe2
_chemical_formula_sum   'Ho12 Tl2 Ga1 Fe2'
_cell_volume   454.08091298
_cell_formula_units_Z   1
loop_
 _symmetry_equiv_pos_site_id
 _symmetry_equiv_pos_as_xyz
  1  'x, y, z'
loop_
 _atom_site_type_symbol
 _atom_site_label
 _atom_site_symmetry_multiplicity
 _atom_site_fract_x
 _atom_site_fract_y
 _atom_site_fract_z
 _atom_site_occupancy
  Ho  Ho0  1  0.443641  0.201294  0.242347  1
  Ho  Ho1  1  0.556359  0.798706  0.757653  1
  Ho  Ho2  1  0.958944  0.201294  0.757653  1
  Ho  Ho3  1  0.201019  0.958008  0.756991  1
  Ho  Ho4  1  0.041056  0.798706  0.242347  1
  Ho  Ho5  1  0.798981  0.041992  0.243009  1
  Ho  Ho6  1  0.201019  0.444028  0.243009  1
  Ho  Ho7  1  0.798981  0.555972  0.756991  1
  Ho  Ho8  1  0.306623  0.306825  0.613448  1
  Ho  Ho9  1  0.693377  0.693175  0.386552  1
  Ho  Ho10  1  0.306623  0.693175  0.999798  1
  Ho  Ho11  1  0.693377  0.306825  0.000202  1
  Tl  Tl12  1  0.000000  0.500000  0.500000  1
  Tl  Tl13  1  0.500000  0.000000  0.500000  1
  Ga  Ga14  1  0.000000  0.000000  0.000000  1
  Fe  Fe15  1  0.387633  0.387633  0.000000  1
  Fe  Fe16  1  0.612367  0.612367  0.000000  1
