# generated using pymatgen
data_NdHo2Fe2Co7P6
_symmetry_space_group_name_H-M   'P 1'
_cell_length_a   3.71518100
_cell_length_b   10.58133900
_cell_length_c   12.14929200
_cell_angle_alpha   90.00000000
_cell_angle_beta   90.00000000
_cell_angle_gamma   90.00000000
_symmetry_Int_Tables_number   1
_chemical_formula_structural   NdHo2Fe2Co7P6
_chemical_formula_sum   'Nd2 Ho4 Fe4 Co14 P12'
_cell_volume   477.60798112
_cell_formula_units_Z   2
loop_
 _symmetry_equiv_pos_site_id
 _symmetry_equiv_pos_as_xyz
  1  'x, y, z'
loop_
 _atom_site_type_symbol
 _atom_site_label
 _atom_site_symmetry_multiplicity
 _atom_site_fract_x
 _atom_site_fract_y
 _atom_site_fract_z
 _atom_site_occupancy
  Nd  Nd0  1  0.000000  0.500000  0.523401  1
  Nd  Nd1  1  0.500000  0.000000  0.476599  1
  Ho  Ho2  1  0.500000  0.818849  0.203466  1
  Ho  Ho3  1  0.500000  0.181151  0.203466  1
  Ho  Ho4  1  0.000000  0.681151  0.796534  1
  Ho  Ho5  1  0.000000  0.318849  0.796534  1
  Fe  Fe6  1  0.000000  0.500000  0.988749  1
  Fe  Fe7  1  0.500000  0.000000  0.011251  1
  Fe  Fe8  1  0.500000  0.500000  0.153903  1
  Fe  Fe9  1  0.000000  0.000000  0.846097  1
  Co  Co10  1  0.500000  0.295901  0.429106  1
  Co  Co11  1  0.500000  0.704099  0.429106  1
  Co  Co12  1  0.000000  0.204099  0.570894  1
  Co  Co13  1  0.000000  0.795901  0.570894  1
  Co  Co14  1  0.500000  0.879369  0.711621  1
  Co  Co15  1  0.500000  0.120631  0.711621  1
  Co  Co16  1  0.000000  0.620631  0.288379  1
  Co  Co17  1  0.000000  0.379369  0.288379  1
  Co  Co18  1  0.500000  0.331549  0.994813  1
  Co  Co19  1  0.500000  0.668451  0.994813  1
  Co  Co20  1  0.000000  0.168451  0.005187  1
  Co  Co21  1  0.000000  0.831549  0.005187  1
  Co  Co22  1  0.500000  0.500000  0.705151  1
  Co  Co23  1  0.000000  0.000000  0.294849  1
  P  P24  1  0.500000  0.307004  0.618192  1
  P  P25  1  0.500000  0.692996  0.618192  1
  P  P26  1  0.000000  0.192996  0.381808  1
  P  P27  1  0.000000  0.807004  0.381808  1
  P  P28  1  0.500000  0.500000  0.885870  1
  P  P29  1  0.000000  0.000000  0.114130  1
  P  P30  1  0.500000  0.847014  0.894005  1
  P  P31  1  0.500000  0.152986  0.894005  1
  P  P32  1  0.000000  0.652986  0.105995  1
  P  P33  1  0.000000  0.347014  0.105995  1
  P  P34  1  0.500000  0.500000  0.338220  1
  P  P35  1  0.000000  0.000000  0.661780  1
