# generated using pymatgen
data_Hf8Tc4NiRu3
_symmetry_space_group_name_H-M   'P 1'
_cell_length_a   6.47044100
_cell_length_b   6.48003900
_cell_length_c   6.51472400
_cell_angle_alpha   90.00003527
_cell_angle_beta   90.00142964
_cell_angle_gamma   90.00014157
_symmetry_Int_Tables_number   1
_chemical_formula_structural   Hf8Tc4NiRu3
_chemical_formula_sum   'Hf8 Tc4 Ni1 Ru3'
_cell_volume   273.15397346
_cell_formula_units_Z   1
loop_
 _symmetry_equiv_pos_site_id
 _symmetry_equiv_pos_as_xyz
  1  'x, y, z'
loop_
 _atom_site_type_symbol
 _atom_site_label
 _atom_site_symmetry_multiplicity
 _atom_site_fract_x
 _atom_site_fract_y
 _atom_site_fract_z
 _atom_site_occupancy
  Hf  Hf0  1  0.499770  0.999972  0.250535  1
  Hf  Hf1  1  0.499768  0.499985  0.250534  1
  Hf  Hf2  1  0.999956  0.999989  0.250564  1
  Hf  Hf3  1  0.999954  0.500054  0.250563  1
  Hf  Hf4  1  0.000224  0.999966  0.749437  1
  Hf  Hf5  1  0.000226  0.499991  0.749437  1
  Hf  Hf6  1  0.500047  0.999983  0.749468  1
  Hf  Hf7  1  0.500049  0.500060  0.749467  1
  Tc  Tc8  1  0.749979  0.250000  0.000181  1
  Tc  Tc9  1  0.249973  0.750000  0.499815  1
  Tc  Tc10  1  0.750027  0.249999  0.500187  1
  Tc  Tc11  1  0.250027  0.750000  0.999816  1
  Ni  Ni12  1  0.249946  0.249999  0.000000  1
  Ru  Ru13  1  0.750048  0.750000  0.999996  1
  Ru  Ru14  1  0.749954  0.750000  0.499942  1
  Ru  Ru15  1  0.250050  0.250000  0.500060  1
