# generated using pymatgen
data_YTm9In3Ru
_symmetry_space_group_name_H-M   'P 1'
_cell_length_a   9.60012428
_cell_length_b   9.60012331
_cell_length_c   9.64436400
_cell_angle_alpha   90.00006906
_cell_angle_beta   89.99992855
_cell_angle_gamma   119.97241989
_symmetry_Int_Tables_number   1
_chemical_formula_structural   YTm9In3Ru
_chemical_formula_sum   'Y2 Tm18 In6 Ru2'
_cell_volume   769.97836357
_cell_formula_units_Z   2
loop_
 _symmetry_equiv_pos_site_id
 _symmetry_equiv_pos_as_xyz
  1  'x, y, z'
loop_
 _atom_site_type_symbol
 _atom_site_label
 _atom_site_symmetry_multiplicity
 _atom_site_fract_x
 _atom_site_fract_y
 _atom_site_fract_z
 _atom_site_occupancy
  Y  Y0  1  0.461544  0.922504  0.750000  1
  Y  Y1  1  0.077496  0.538456  0.750000  1
  Tm  Tm2  1  0.999986  0.000014  0.499866  1
  Tm  Tm3  1  0.999986  0.000014  0.000134  1
  Tm  Tm4  1  0.209766  0.790234  0.437373  1
  Tm  Tm5  1  0.210361  0.419772  0.438048  1
  Tm  Tm6  1  0.580228  0.789639  0.438048  1
  Tm  Tm7  1  0.789809  0.210191  0.560983  1
  Tm  Tm8  1  0.789166  0.579814  0.561135  1
  Tm  Tm9  1  0.420186  0.210834  0.561135  1
  Tm  Tm10  1  0.789809  0.210191  0.939016  1
  Tm  Tm11  1  0.789166  0.579815  0.938865  1
  Tm  Tm12  1  0.420185  0.210834  0.938865  1
  Tm  Tm13  1  0.209766  0.790234  0.062627  1
  Tm  Tm14  1  0.210361  0.419772  0.061952  1
  Tm  Tm15  1  0.580228  0.789639  0.061952  1
  Tm  Tm16  1  0.538869  0.461131  0.250000  1
  Tm  Tm17  1  0.539027  0.077803  0.250000  1
  Tm  Tm18  1  0.922197  0.460973  0.250000  1
  Tm  Tm19  1  0.461908  0.538092  0.750000  1
  In  In20  1  0.884426  0.115574  0.250000  1
  In  In21  1  0.884378  0.768804  0.250000  1
  In  In22  1  0.231196  0.115622  0.250000  1
  In  In23  1  0.114708  0.885292  0.750000  1
  In  In24  1  0.116139  0.230438  0.750000  1
  In  In25  1  0.769562  0.883861  0.750000  1
  Ru  Ru26  1  0.333250  0.666750  0.250000  1
  Ru  Ru27  1  0.666296  0.333704  0.750000  1
