# generated using pymatgen
data_Nb8FeCo4Si14Ni3
_symmetry_space_group_name_H-M   'P 1'
_cell_length_a   9.26852538
_cell_length_b   9.26815841
_cell_length_c   9.26895709
_cell_angle_alpha   94.19778580
_cell_angle_beta   94.19965924
_cell_angle_gamma   148.58356414
_symmetry_Int_Tables_number   1
_chemical_formula_structural   Nb8FeCo4Si14Ni3
_chemical_formula_sum   'Nb8 Fe1 Co4 Si14 Ni3'
_cell_volume   399.57060802
_cell_formula_units_Z   1
loop_
 _symmetry_equiv_pos_site_id
 _symmetry_equiv_pos_as_xyz
  1  'x, y, z'
loop_
 _atom_site_type_symbol
 _atom_site_label
 _atom_site_symmetry_multiplicity
 _atom_site_fract_x
 _atom_site_fract_y
 _atom_site_fract_z
 _atom_site_occupancy
  Nb  Nb0  1  0.132693  0.133231  0.267545  1
  Nb  Nb1  1  0.867102  0.867463  0.732961  1
  Nb  Nb2  1  0.865748  0.133611  0.000808  1
  Nb  Nb3  1  0.134815  0.867487  0.000468  1
  Nb  Nb4  1  0.498979  0.690149  0.191216  1
  Nb  Nb5  1  0.497343  0.306783  0.808538  1
  Nb  Nb6  1  0.310980  0.501252  0.808866  1
  Nb  Nb7  1  0.692296  0.501434  0.190714  1
  Fe  Fe8  1  0.599780  0.098637  0.199433  1
  Co  Co9  1  0.396341  0.604808  0.499109  1
  Co  Co10  1  0.600037  0.400858  0.501112  1
  Co  Co11  1  0.902142  0.099251  0.501289  1
  Co  Co12  1  0.900685  0.399331  0.799872  1
  Si  Si13  1  0.295849  0.297027  0.584193  1
  Si  Si14  1  0.703585  0.704587  0.416034  1
  Si  Si15  1  0.706589  0.291689  0.999569  1
  Si  Si16  1  0.292545  0.707471  0.999503  1
  Si  Si17  1  0.992705  0.288109  0.297425  1
  Si  Si18  1  0.990514  0.695411  0.705205  1
  Si  Si19  1  0.710398  0.005437  0.703452  1
  Si  Si20  1  0.307402  0.011906  0.295379  1
  Si  Si21  1  0.517145  0.922630  0.407343  1
  Si  Si22  1  0.517211  0.110968  0.593875  1
  Si  Si23  1  0.084269  0.488790  0.592353  1
  Si  Si24  1  0.882818  0.475566  0.405925  1
  Si  Si25  1  0.750852  0.750836  0.999902  1
  Si  Si26  1  0.249058  0.249257  0.000190  1
  Ni  Ni27  1  0.395994  0.897281  0.793638  1
  Ni  Ni28  1  0.101876  0.603255  0.205263  1
  Ni  Ni29  1  0.102247  0.895485  0.498817  1
