# generated using pymatgen
data_Pr4Al15(ZnPd2)3
_symmetry_space_group_name_H-M   'P 1'
_cell_length_a   7.64802700
_cell_length_b   7.66477379
_cell_length_c   9.64818900
_cell_angle_alpha   90.00000000
_cell_angle_beta   90.00000000
_cell_angle_gamma   119.07703489
_symmetry_Int_Tables_number   1
_chemical_formula_structural   Pr4Al15(ZnPd2)3
_chemical_formula_sum   'Pr4 Al15 Zn3 Pd6'
_cell_volume   494.29888770
_cell_formula_units_Z   1
loop_
 _symmetry_equiv_pos_site_id
 _symmetry_equiv_pos_as_xyz
  1  'x, y, z'
loop_
 _atom_site_type_symbol
 _atom_site_label
 _atom_site_symmetry_multiplicity
 _atom_site_fract_x
 _atom_site_fract_y
 _atom_site_fract_z
 _atom_site_occupancy
  Pr  Pr0  1  0.995824  0.671622  0.250000  1
  Pr  Pr1  1  0.005609  0.328632  0.750000  1
  Pr  Pr2  1  0.669988  0.993017  0.250000  1
  Pr  Pr3  1  0.329342  0.006255  0.750000  1
  Al  Al4  1  0.007937  0.334835  0.078815  1
  Al  Al5  1  0.994687  0.666964  0.922906  1
  Al  Al6  1  0.994687  0.666964  0.577094  1
  Al  Al7  1  0.332931  0.004552  0.423061  1
  Al  Al8  1  0.007937  0.334835  0.421185  1
  Al  Al9  1  0.667388  0.995354  0.577269  1
  Al  Al10  1  0.667388  0.995354  0.922731  1
  Al  Al11  1  0.332931  0.004552  0.076939  1
  Al  Al12  1  0.334661  0.335130  0.550033  1
  Al  Al13  1  0.662388  0.663852  0.448168  1
  Al  Al14  1  0.662388  0.663852  0.051832  1
  Al  Al15  1  0.334661  0.335130  0.949967  1
  Al  Al16  1  0.660379  0.456628  0.750000  1
  Al  Al17  1  0.541736  0.341852  0.250000  1
  Al  Al18  1  0.457275  0.659788  0.750000  1
  Zn  Zn19  1  0.141551  0.140832  0.250000  1
  Zn  Zn20  1  0.860517  0.859783  0.750000  1
  Zn  Zn21  1  0.340208  0.539106  0.250000  1
  Pd  Pd22  1  0.672165  0.327640  0.999905  1
  Pd  Pd23  1  0.327392  0.673590  0.994950  1
  Pd  Pd24  1  0.327392  0.673590  0.505050  1
  Pd  Pd25  1  0.672165  0.327640  0.500095  1
  Pd  Pd26  1  0.999237  0.999328  0.000320  1
  Pd  Pd27  1  0.999237  0.999328  0.499680  1
