# generated using pymatgen
data_Nd5Y11(NiAg)4
_symmetry_space_group_name_H-M   'P 1'
_cell_length_a   9.57734159
_cell_length_b   9.58257645
_cell_length_c   9.58257592
_cell_angle_alpha   59.93482365
_cell_angle_beta   60.01806410
_cell_angle_gamma   60.01807131
_symmetry_Int_Tables_number   1
_chemical_formula_structural   Nd5Y11(NiAg)4
_chemical_formula_sum   'Nd5 Y11 Ni4 Ag4'
_cell_volume   621.72537977
_cell_formula_units_Z   1
loop_
 _symmetry_equiv_pos_site_id
 _symmetry_equiv_pos_as_xyz
  1  'x, y, z'
loop_
 _atom_site_type_symbol
 _atom_site_label
 _atom_site_symmetry_multiplicity
 _atom_site_fract_x
 _atom_site_fract_y
 _atom_site_fract_z
 _atom_site_occupancy
  Nd  Nd0  1  0.600029  0.602561  0.602561  1
  Nd  Nd1  1  0.601951  0.602071  0.194027  1
  Nd  Nd2  1  0.601951  0.194027  0.602071  1
  Nd  Nd3  1  0.194849  0.602561  0.602561  1
  Nd  Nd4  1  0.061645  0.438355  0.438355  1
  Y  Y5  1  0.437939  0.062061  0.062061  1
  Y  Y6  1  0.439275  0.060812  0.437381  1
  Y  Y7  1  0.062532  0.437381  0.060812  1
  Y  Y8  1  0.439275  0.437381  0.060812  1
  Y  Y9  1  0.062532  0.060812  0.437381  1
  Y  Y10  1  0.184446  0.815554  0.815554  1
  Y  Y11  1  0.815558  0.184442  0.184442  1
  Y  Y12  1  0.814869  0.183776  0.816230  1
  Y  Y13  1  0.185125  0.816230  0.183776  1
  Y  Y14  1  0.814869  0.816230  0.183776  1
  Y  Y15  1  0.185125  0.183776  0.816230  1
  Ni  Ni16  1  0.393153  0.391991  0.391991  1
  Ni  Ni17  1  0.391759  0.392157  0.824324  1
  Ni  Ni18  1  0.391759  0.824324  0.392157  1
  Ni  Ni19  1  0.822864  0.391991  0.391991  1
  Ag  Ag20  1  0.831936  0.832163  0.832163  1
  Ag  Ag21  1  0.831411  0.833295  0.503884  1
  Ag  Ag22  1  0.831411  0.503884  0.833295  1
  Ag  Ag23  1  0.503737  0.832163  0.832163  1
