# generated using pymatgen
data_Ba8YEr3(CoO5)4
_symmetry_space_group_name_H-M   'P 1'
_cell_length_a   6.14836703
_cell_length_b   7.94251703
_cell_length_c   12.45908872
_cell_angle_alpha   91.60013861
_cell_angle_beta   90.00606223
_cell_angle_gamma   89.99055253
_symmetry_Int_Tables_number   1
_chemical_formula_structural   Ba8YEr3(CoO5)4
_chemical_formula_sum   'Ba8 Y1 Er3 Co4 O20'
_cell_volume   608.18376490
_cell_formula_units_Z   1
loop_
 _symmetry_equiv_pos_site_id
 _symmetry_equiv_pos_as_xyz
  1  'x, y, z'
loop_
 _atom_site_type_symbol
 _atom_site_label
 _atom_site_symmetry_multiplicity
 _atom_site_fract_x
 _atom_site_fract_y
 _atom_site_fract_z
 _atom_site_occupancy
  Ba  Ba0  1  0.758240  0.492642  0.360443  1
  Ba  Ba1  1  0.742065  0.991970  0.860748  1
  Ba  Ba2  1  0.241856  0.508388  0.639259  1
  Ba  Ba3  1  0.258061  0.007496  0.139476  1
  Ba  Ba4  1  0.753376  0.991900  0.383946  1
  Ba  Ba5  1  0.746863  0.492740  0.884423  1
  Ba  Ba6  1  0.246596  0.007054  0.615689  1
  Ba  Ba7  1  0.253276  0.507694  0.115987  1
  Y  Y8  1  0.747946  0.263757  0.628931  1
  Er  Er9  1  0.752075  0.763022  0.129490  1
  Er  Er10  1  0.252088  0.736858  0.370549  1
  Er  Er11  1  0.248004  0.236869  0.871012  1
  Co  Co12  1  0.741397  0.745839  0.591964  1
  Co  Co13  1  0.758647  0.245923  0.092317  1
  Co  Co14  1  0.258593  0.253876  0.406884  1
  Co  Co15  1  0.241438  0.754019  0.907777  1
  O  O16  1  0.755001  0.971063  0.632922  1
  O  O17  1  0.745319  0.472704  0.132797  1
  O  O18  1  0.245147  0.026898  0.367303  1
  O  O19  1  0.254725  0.527538  0.867250  1
  O  O20  1  0.738447  0.054065  0.170511  1
  O  O21  1  0.761869  0.556043  0.671343  1
  O  O22  1  0.261599  0.945632  0.829500  1
  O  O23  1  0.238414  0.446345  0.329427  1
  O  O24  1  0.538738  0.746728  0.269025  1
  O  O25  1  0.962070  0.246441  0.770437  1
  O  O26  1  0.458332  0.253268  0.731362  1
  O  O27  1  0.038303  0.753355  0.231100  1
  O  O28  1  0.528165  0.229478  0.988100  1
  O  O29  1  0.972396  0.729284  0.487824  1
  O  O30  1  0.472178  0.770511  0.012201  1
  O  O31  1  0.029737  0.270728  0.511125  1
  O  O32  1  0.029808  0.233567  0.017610  1
  O  O33  1  0.469914  0.733282  0.517141  1
  O  O34  1  0.970157  0.766466  0.982914  1
  O  O35  1  0.529159  0.266555  0.481212  1
