# generated using pymatgen
data_SmDyYRh9
_symmetry_space_group_name_H-M   'P 1'
_cell_length_a   5.29090329
_cell_length_b   5.29213610
_cell_length_c   17.56327800
_cell_angle_alpha   89.99872262
_cell_angle_beta   90.00080177
_cell_angle_gamma   120.02749065
_symmetry_Int_Tables_number   1
_chemical_formula_structural   SmDyYRh9
_chemical_formula_sum   'Sm2 Dy2 Y2 Rh18'
_cell_volume   425.77157420
_cell_formula_units_Z   2
loop_
 _symmetry_equiv_pos_site_id
 _symmetry_equiv_pos_as_xyz
  1  'x, y, z'
loop_
 _atom_site_type_symbol
 _atom_site_label
 _atom_site_symmetry_multiplicity
 _atom_site_fract_x
 _atom_site_fract_y
 _atom_site_fract_z
 _atom_site_occupancy
  Sm  Sm0  1  0.333335  0.666666  0.749994  1
  Sm  Sm1  1  0.666665  0.333334  0.250006  1
  Dy  Dy2  1  0.666675  0.333332  0.457838  1
  Dy  Dy3  1  0.333325  0.666668  0.542162  1
  Y  Y4  1  0.333324  0.666670  0.957842  1
  Y  Y5  1  0.666676  0.333330  0.042158  1
  Rh  Rh6  1  0.167340  0.832659  0.374356  1
  Rh  Rh7  1  0.167334  0.334672  0.374365  1
  Rh  Rh8  1  0.665330  0.832667  0.374371  1
  Rh  Rh9  1  0.832660  0.167341  0.625644  1
  Rh  Rh10  1  0.832666  0.665328  0.625635  1
  Rh  Rh11  1  0.334670  0.167333  0.625629  1
  Rh  Rh12  1  0.832678  0.167320  0.874317  1
  Rh  Rh13  1  0.832685  0.665372  0.874323  1
  Rh  Rh14  1  0.334626  0.167313  0.874330  1
  Rh  Rh15  1  0.167322  0.832680  0.125683  1
  Rh  Rh16  1  0.167315  0.334628  0.125677  1
  Rh  Rh17  1  0.665374  0.832687  0.125670  1
  Rh  Rh18  1  0.333379  0.666655  0.249988  1
  Rh  Rh19  1  0.666621  0.333345  0.750012  1
  Rh  Rh20  1  0.999996  0.000004  0.249990  1
  Rh  Rh21  1  0.000004  0.999996  0.750010  1
  Rh  Rh22  1  0.000000  0.000000  0.500000  1
  Rh  Rh23  1  0.000000  0.000000  0.000000  1
