# generated using pymatgen
data_Ce5Lu3(P3Ir4)4
_symmetry_space_group_name_H-M   'P 1'
_cell_length_a   12.99002900
_cell_length_b   12.99002915
_cell_length_c   4.02097000
_cell_angle_alpha   90.00000000
_cell_angle_beta   90.00000000
_cell_angle_gamma   120.00000215
_symmetry_Int_Tables_number   1
_chemical_formula_structural   Ce5Lu3(P3Ir4)4
_chemical_formula_sum   'Ce5 Lu3 P12 Ir16'
_cell_volume   587.59988430
_cell_formula_units_Z   1
loop_
 _symmetry_equiv_pos_site_id
 _symmetry_equiv_pos_as_xyz
  1  'x, y, z'
loop_
 _atom_site_type_symbol
 _atom_site_label
 _atom_site_symmetry_multiplicity
 _atom_site_fract_x
 _atom_site_fract_y
 _atom_site_fract_z
 _atom_site_occupancy
  Ce  Ce0  1  0.333333  0.666667  0.500000  1
  Ce  Ce1  1  0.666667  0.333333  0.500000  1
  Ce  Ce2  1  0.000000  0.816720  0.000000  1
  Ce  Ce3  1  0.183280  0.183280  0.000000  1
  Ce  Ce4  1  0.816720  0.000000  0.000000  1
  Lu  Lu5  1  0.000000  0.445186  0.500000  1
  Lu  Lu6  1  0.554814  0.554814  0.500000  1
  Lu  Lu7  1  0.445186  0.000000  0.500000  1
  P  P8  1  0.000000  0.649545  0.500000  1
  P  P9  1  0.350455  0.350455  0.500000  1
  P  P10  1  0.649545  0.000000  0.500000  1
  P  P11  1  0.518780  0.687117  0.000000  1
  P  P12  1  0.312883  0.831664  0.000000  1
  P  P13  1  0.168336  0.481220  0.000000  1
  P  P14  1  0.481220  0.168336  0.000000  1
  P  P15  1  0.687117  0.518780  0.000000  1
  P  P16  1  0.831664  0.312883  0.000000  1
  P  P17  1  0.000000  0.177825  0.500000  1
  P  P18  1  0.822175  0.822175  0.500000  1
  P  P19  1  0.177825  0.000000  0.500000  1
  Ir  Ir20  1  0.510087  0.865579  0.000000  1
  Ir  Ir21  1  0.134421  0.644509  0.000000  1
  Ir  Ir22  1  0.355491  0.489913  0.000000  1
  Ir  Ir23  1  0.489913  0.355491  0.000000  1
  Ir  Ir24  1  0.865579  0.510087  0.000000  1
  Ir  Ir25  1  0.644509  0.134421  0.000000  1
  Ir  Ir26  1  0.000000  0.278366  0.000000  1
  Ir  Ir27  1  0.721634  0.721634  0.000000  1
  Ir  Ir28  1  0.278366  0.000000  0.000000  1
  Ir  Ir29  1  0.628490  0.807374  0.500000  1
  Ir  Ir30  1  0.192626  0.821117  0.500000  1
  Ir  Ir31  1  0.178883  0.371510  0.500000  1
  Ir  Ir32  1  0.371510  0.178883  0.500000  1
  Ir  Ir33  1  0.807374  0.628490  0.500000  1
  Ir  Ir34  1  0.821117  0.192626  0.500000  1
  Ir  Ir35  1  0.000000  0.000000  0.500000  1
