# generated using pymatgen
data_Sr2Zn21Rh
_symmetry_space_group_name_H-M   'P 1'
_cell_length_a   8.40280791
_cell_length_b   8.39924111
_cell_length_c   8.40280734
_cell_angle_alpha   100.24024487
_cell_angle_beta   99.06576446
_cell_angle_gamma   131.68337437
_symmetry_Int_Tables_number   1
_chemical_formula_structural   Sr2Zn21Rh
_chemical_formula_sum   'Sr2 Zn21 Rh1'
_cell_volume   403.99860111
_cell_formula_units_Z   1
loop_
 _symmetry_equiv_pos_site_id
 _symmetry_equiv_pos_as_xyz
  1  'x, y, z'
loop_
 _atom_site_type_symbol
 _atom_site_label
 _atom_site_symmetry_multiplicity
 _atom_site_fract_x
 _atom_site_fract_y
 _atom_site_fract_z
 _atom_site_occupancy
  Sr  Sr0  1  0.997977  0.997148  0.999171  1
  Sr  Sr1  1  0.252023  0.752852  0.500829  1
  Zn  Zn2  1  0.064449  0.648792  0.826526  1
  Zn  Zn3  1  0.820813  0.233474  0.169551  1
  Zn  Zn4  1  0.741279  0.230173  0.488894  1
  Zn  Zn5  1  0.508721  0.519827  0.011106  1
  Zn  Zn6  1  0.625000  0.375000  0.750000  1
  Zn  Zn7  1  0.625000  0.375000  0.250000  1
  Zn  Zn8  1  0.125000  0.375000  0.750000  1
  Zn  Zn9  1  0.822266  0.648792  0.584344  1
  Zn  Zn10  1  0.895750  0.816492  0.326454  1
  Zn  Zn11  1  0.484685  0.569638  0.668492  1
  Zn  Zn12  1  0.063923  0.233474  0.412661  1
  Zn  Zn13  1  0.759962  0.933508  0.579258  1
  Zn  Zn14  1  0.348854  0.180362  0.415047  1
  Zn  Zn15  1  0.429187  0.516526  0.330449  1
  Zn  Zn16  1  0.185551  0.101208  0.673474  1
  Zn  Zn17  1  0.427734  0.101208  0.915656  1
  Zn  Zn18  1  0.354250  0.933508  0.173546  1
  Zn  Zn19  1  0.765315  0.180362  0.831508  1
  Zn  Zn20  1  0.186077  0.516526  0.087339  1
  Zn  Zn21  1  0.490038  0.816492  0.920742  1
  Zn  Zn22  1  0.901146  0.569638  0.084953  1
  Rh  Rh23  1  0.625000  0.875000  0.250000  1
