# generated using pymatgen
data_Yb20Si11Pb
_symmetry_space_group_name_H-M   'P 1'
_cell_length_a   7.60401800
_cell_length_b   7.60401800
_cell_length_c   14.86134400
_cell_angle_alpha   90.00000000
_cell_angle_beta   90.00000000
_cell_angle_gamma   90.00000000
_symmetry_Int_Tables_number   1
_chemical_formula_structural   Yb20Si11Pb
_chemical_formula_sum   'Yb20 Si11 Pb1'
_cell_volume   859.29910515
_cell_formula_units_Z   1
loop_
 _symmetry_equiv_pos_site_id
 _symmetry_equiv_pos_as_xyz
  1  'x, y, z'
loop_
 _atom_site_type_symbol
 _atom_site_label
 _atom_site_symmetry_multiplicity
 _atom_site_fract_x
 _atom_site_fract_y
 _atom_site_fract_z
 _atom_site_occupancy
  Yb  Yb0  1  0.327383  0.684884  0.112216  1
  Yb  Yb1  1  0.184884  0.172617  0.112216  1
  Yb  Yb2  1  0.500000  0.000000  0.732325  1
  Yb  Yb3  1  0.320578  0.679478  0.393447  1
  Yb  Yb4  1  0.668684  0.689411  0.887652  1
  Yb  Yb5  1  0.179478  0.179422  0.393447  1
  Yb  Yb6  1  0.679422  0.320522  0.393447  1
  Yb  Yb7  1  0.174518  0.816075  0.606865  1
  Yb  Yb8  1  0.331316  0.310589  0.887652  1
  Yb  Yb9  1  0.189411  0.831316  0.887652  1
  Yb  Yb10  1  0.500000  0.000000  0.257613  1
  Yb  Yb11  1  0.825482  0.183925  0.606865  1
  Yb  Yb12  1  0.316075  0.325482  0.606865  1
  Yb  Yb13  1  0.820522  0.820578  0.393447  1
  Yb  Yb14  1  0.810589  0.168684  0.887652  1
  Yb  Yb15  1  0.815116  0.827383  0.112216  1
  Yb  Yb16  1  0.000000  0.500000  0.253825  1
  Yb  Yb17  1  0.000000  0.500000  0.753951  1
  Yb  Yb18  1  0.672617  0.315116  0.112216  1
  Yb  Yb19  1  0.683925  0.674518  0.606865  1
  Si  Si20  1  0.113168  0.112863  0.747112  1
  Si  Si21  1  0.387137  0.613168  0.747112  1
  Si  Si22  1  0.612738  0.612553  0.253008  1
  Si  Si23  1  0.500000  0.000000  0.002654  1
  Si  Si24  1  0.112553  0.887262  0.253008  1
  Si  Si25  1  0.612863  0.386832  0.747112  1
  Si  Si26  1  0.886832  0.887137  0.747112  1
  Si  Si27  1  0.387262  0.387447  0.253008  1
  Si  Si28  1  0.887447  0.112738  0.253008  1
  Si  Si29  1  0.500000  0.000000  0.501077  1
  Si  Si30  1  0.000000  0.500000  0.498642  1
  Pb  Pb31  1  0.000000  0.500000  0.998712  1
