# generated using pymatgen
data_TmBeB14
_symmetry_space_group_name_H-M   'P 1'
_cell_length_a   7.18296280
_cell_length_b   7.18296131
_cell_length_c   7.18296153
_cell_angle_alpha   132.65854771
_cell_angle_beta   110.40280382
_cell_angle_gamma   88.49605681
_symmetry_Int_Tables_number   1
_chemical_formula_structural   TmBeB14
_chemical_formula_sum   'Tm2 Be2 B28'
_cell_volume   243.30333756
_cell_formula_units_Z   2
loop_
 _symmetry_equiv_pos_site_id
 _symmetry_equiv_pos_as_xyz
  1  'x, y, z'
loop_
 _atom_site_type_symbol
 _atom_site_label
 _atom_site_symmetry_multiplicity
 _atom_site_fract_x
 _atom_site_fract_y
 _atom_site_fract_z
 _atom_site_occupancy
  Tm  Tm0  1  0.607333  0.250000  0.357333  1
  Tm  Tm1  1  0.392667  0.750000  0.642667  1
  Be  Be2  1  0.000000  0.000000  0.500000  1
  Be  Be3  1  0.000000  0.500000  0.000000  1
  B  B4  1  0.632201  0.666626  0.965575  1
  B  B5  1  0.367799  0.333374  0.034425  1
  B  B6  1  0.201051  0.166626  0.034425  1
  B  B7  1  0.798949  0.833374  0.965575  1
  B  B8  1  0.789784  0.156083  0.633699  1
  B  B9  1  0.210216  0.843917  0.366301  1
  B  B10  1  0.022384  0.656083  0.366301  1
  B  B11  1  0.977616  0.343917  0.633699  1
  B  B12  1  0.924384  0.092371  0.832013  1
  B  B13  1  0.075616  0.907629  0.167987  1
  B  B14  1  0.760360  0.592371  0.167987  1
  B  B15  1  0.239640  0.407629  0.832013  1
  B  B16  1  0.398841  0.396594  0.675878  1
  B  B17  1  0.601159  0.277038  0.997754  1
  B  B18  1  0.220715  0.896594  0.997754  1
  B  B19  1  0.779285  0.777038  0.675878  1
  B  B20  1  0.601159  0.603406  0.324122  1
  B  B21  1  0.398841  0.722962  0.002246  1
  B  B22  1  0.779285  0.103406  0.002246  1
  B  B23  1  0.220715  0.222962  0.324122  1
  B  B24  1  0.033232  0.828204  0.698629  1
  B  B25  1  0.966768  0.665397  0.794971  1
  B  B26  1  0.629575  0.328204  0.794971  1
  B  B27  1  0.370425  0.165397  0.698629  1
  B  B28  1  0.966768  0.171796  0.301371  1
  B  B29  1  0.033232  0.334603  0.205029  1
  B  B30  1  0.370425  0.671796  0.205029  1
  B  B31  1  0.629575  0.834603  0.301371  1
