# generated using pymatgen
data_Eu4Mn2CrNiO12
_symmetry_space_group_name_H-M   'P 1'
_cell_length_a   5.44541821
_cell_length_b   5.52751816
_cell_length_c   7.73703012
_cell_angle_alpha   89.93819399
_cell_angle_beta   89.99387790
_cell_angle_gamma   89.93461533
_symmetry_Int_Tables_number   1
_chemical_formula_structural   Eu4Mn2CrNiO12
_chemical_formula_sum   'Eu4 Mn2 Cr1 Ni1 O12'
_cell_volume   232.88159513
_cell_formula_units_Z   1
loop_
 _symmetry_equiv_pos_site_id
 _symmetry_equiv_pos_as_xyz
  1  'x, y, z'
loop_
 _atom_site_type_symbol
 _atom_site_label
 _atom_site_symmetry_multiplicity
 _atom_site_fract_x
 _atom_site_fract_y
 _atom_site_fract_z
 _atom_site_occupancy
  Eu  Eu0  1  0.005626  0.958302  0.755350  1
  Eu  Eu1  1  0.507955  0.546384  0.243764  1
  Eu  Eu2  1  0.492045  0.453616  0.756236  1
  Eu  Eu3  1  0.994374  0.041698  0.244650  1
  Mn  Mn4  1  0.500000  0.000000  0.500000  1
  Mn  Mn5  1  0.000000  0.500000  0.000000  1
  Cr  Cr6  1  0.000000  0.500000  0.500000  1
  Ni  Ni7  1  0.500000  0.000000  0.000000  1
  O  O8  1  0.699447  0.292309  0.456852  1
  O  O9  1  0.207917  0.200548  0.541986  1
  O  O10  1  0.806106  0.787227  0.038436  1
  O  O11  1  0.287847  0.695302  0.962329  1
  O  O12  1  0.300553  0.707691  0.543148  1
  O  O13  1  0.792083  0.799452  0.458014  1
  O  O14  1  0.193894  0.212773  0.961564  1
  O  O15  1  0.712153  0.304698  0.037671  1
  O  O16  1  0.079280  0.479057  0.246829  1
  O  O17  1  0.578174  0.020236  0.741121  1
  O  O18  1  0.421826  0.979764  0.258879  1
  O  O19  1  0.920720  0.520943  0.753171  1
