# generated using pymatgen
data_YbY2Mg3AgPb2
_symmetry_space_group_name_H-M   'P 1'
_cell_length_a   7.64679799
_cell_length_b   7.64679690
_cell_length_c   4.59189000
_cell_angle_alpha   90.00000000
_cell_angle_beta   90.00000000
_cell_angle_gamma   120.37522969
_symmetry_Int_Tables_number   1
_chemical_formula_structural   YbY2Mg3AgPb2
_chemical_formula_sum   'Yb1 Y2 Mg3 Ag1 Pb2'
_cell_volume   231.64703006
_cell_formula_units_Z   1
loop_
 _symmetry_equiv_pos_site_id
 _symmetry_equiv_pos_as_xyz
  1  'x, y, z'
loop_
 _atom_site_type_symbol
 _atom_site_label
 _atom_site_symmetry_multiplicity
 _atom_site_fract_x
 _atom_site_fract_y
 _atom_site_fract_z
 _atom_site_occupancy
  Yb  Yb0  1  0.413383  0.413383  0.500000  1
  Y  Y1  1  0.002241  0.586168  0.500000  1
  Y  Y2  1  0.586168  0.002241  0.500000  1
  Mg  Mg3  1  0.768433  0.768433  0.000000  1
  Mg  Mg4  1  0.233545  0.998938  0.000000  1
  Mg  Mg5  1  0.998938  0.233545  0.000000  1
  Ag  Ag6  1  0.997142  0.997142  0.500000  1
  Pb  Pb7  1  0.668870  0.331281  0.000000  1
  Pb  Pb8  1  0.331281  0.668870  0.000000  1
