# generated using pymatgen
data_Y5NpCdO12
_symmetry_space_group_name_H-M   'P 1'
_cell_length_a   6.62830292
_cell_length_b   6.63733341
_cell_length_c   6.52718700
_cell_angle_alpha   97.96641517
_cell_angle_beta   98.90222720
_cell_angle_gamma   99.27280009
_symmetry_Int_Tables_number   1
_chemical_formula_structural   Y5NpCdO12
_chemical_formula_sum   'Y5 Np1 Cd1 O12'
_cell_volume   276.02640751
_cell_formula_units_Z   1
loop_
 _symmetry_equiv_pos_site_id
 _symmetry_equiv_pos_as_xyz
  1  'x, y, z'
loop_
 _atom_site_type_symbol
 _atom_site_label
 _atom_site_symmetry_multiplicity
 _atom_site_fract_x
 _atom_site_fract_y
 _atom_site_fract_z
 _atom_site_occupancy
  Y  Y0  1  0.860590  0.389472  0.677252  1
  Y  Y1  1  0.672223  0.852729  0.392243  1
  Y  Y2  1  0.610706  0.328206  0.148220  1
  Y  Y3  1  0.146966  0.610717  0.319989  1
  Y  Y4  1  0.327169  0.145141  0.614623  1
  Np  Np5  1  0.997907  0.004254  0.003819  1
  Cd  Cd6  1  0.402940  0.661715  0.845205  1
  O  O7  1  0.170803  0.411502  0.570612  1
  O  O8  1  0.594695  0.174665  0.428230  1
  O  O9  1  0.429634  0.594134  0.174637  1
  O  O10  1  0.822607  0.574308  0.408382  1
  O  O11  1  0.405965  0.821557  0.571713  1
  O  O12  1  0.581042  0.386572  0.820121  1
  O  O13  1  0.919761  0.040833  0.696260  1
  O  O14  1  0.960047  0.306394  0.076139  1
  O  O15  1  0.293206  0.098831  0.968281  1
  O  O16  1  0.081180  0.956748  0.306642  1
  O  O17  1  0.019459  0.704398  0.926711  1
  O  O18  1  0.703100  0.937824  0.050923  1
