# generated using pymatgen
data_Tm3Pa3Co17P12W
_symmetry_space_group_name_H-M   'P 1'
_cell_length_a   3.72724000
_cell_length_b   10.48965781
_cell_length_c   12.21076897
_cell_angle_alpha   89.99711356
_cell_angle_beta   90.00000000
_cell_angle_gamma   90.00000000
_symmetry_Int_Tables_number   1
_chemical_formula_structural   Tm3Pa3Co17P12W
_chemical_formula_sum   'Tm3 Pa3 Co17 P12 W1'
_cell_volume   477.41019960
_cell_formula_units_Z   1
loop_
 _symmetry_equiv_pos_site_id
 _symmetry_equiv_pos_as_xyz
  1  'x, y, z'
loop_
 _atom_site_type_symbol
 _atom_site_label
 _atom_site_symmetry_multiplicity
 _atom_site_fract_x
 _atom_site_fract_y
 _atom_site_fract_z
 _atom_site_occupancy
  Tm  Tm0  1  0.500000  0.185928  0.203917  1
  Tm  Tm1  1  0.000000  0.683558  0.794104  1
  Tm  Tm2  1  0.000000  0.316922  0.792238  1
  Pa  Pa3  1  0.000000  0.499465  0.528758  1
  Pa  Pa4  1  0.500000  0.001002  0.471994  1
  Pa  Pa5  1  0.500000  0.818277  0.206402  1
  Co  Co6  1  0.500000  0.499975  0.161421  1
  Co  Co7  1  0.500000  0.499050  0.696726  1
  Co  Co8  1  0.000000  0.995038  0.300671  1
  Co  Co9  1  0.000000  0.499272  0.980039  1
  Co  Co10  1  0.500000  0.000365  0.014419  1
  Co  Co11  1  0.500000  0.336161  0.992138  1
  Co  Co12  1  0.500000  0.664960  0.993491  1
  Co  Co13  1  0.000000  0.170116  0.009859  1
  Co  Co14  1  0.000000  0.832767  0.012128  1
  Co  Co15  1  0.500000  0.299770  0.431796  1
  Co  Co16  1  0.500000  0.697457  0.431385  1
  Co  Co17  1  0.000000  0.198716  0.566448  1
  Co  Co18  1  0.000000  0.800308  0.570544  1
  Co  Co19  1  0.500000  0.879097  0.710928  1
  Co  Co20  1  0.500000  0.121016  0.709864  1
  Co  Co21  1  0.000000  0.621981  0.287557  1
  Co  Co22  1  0.000000  0.379944  0.288982  1
  P  P23  1  0.500000  0.500013  0.876597  1
  P  P24  1  0.000000  0.004709  0.120424  1
  P  P25  1  0.500000  0.498683  0.344384  1
  P  P26  1  0.000000  0.999414  0.652520  1
  P  P27  1  0.500000  0.307134  0.616784  1
  P  P28  1  0.500000  0.691733  0.618466  1
  P  P29  1  0.000000  0.191117  0.380056  1
  P  P30  1  0.000000  0.806116  0.387963  1
  P  P31  1  0.500000  0.842123  0.894775  1
  P  P32  1  0.500000  0.159421  0.894210  1
  P  P33  1  0.000000  0.646645  0.104675  1
  P  P34  1  0.000000  0.351404  0.107205  1
  W  W35  1  0.000000  0.000340  0.846130  1
