# generated using pymatgen
data_Ac4Pr2InSn9
_symmetry_space_group_name_H-M   'P 1'
_cell_length_a   6.79947009
_cell_length_b   6.79947024
_cell_length_c   10.93734143
_cell_angle_alpha   89.55366254
_cell_angle_beta   89.55366378
_cell_angle_gamma   102.78681549
_symmetry_Int_Tables_number   1
_chemical_formula_structural   Ac4Pr2InSn9
_chemical_formula_sum   'Ac4 Pr2 In1 Sn9'
_cell_volume   493.08512009
_cell_formula_units_Z   1
loop_
 _symmetry_equiv_pos_site_id
 _symmetry_equiv_pos_as_xyz
  1  'x, y, z'
loop_
 _atom_site_type_symbol
 _atom_site_label
 _atom_site_symmetry_multiplicity
 _atom_site_fract_x
 _atom_site_fract_y
 _atom_site_fract_z
 _atom_site_occupancy
  Ac  Ac0  1  0.201019  0.799383  0.500256  1
  Ac  Ac1  1  0.200105  0.800057  0.999676  1
  Ac  Ac2  1  0.799383  0.201019  0.500256  1
  Ac  Ac3  1  0.800057  0.200105  0.999676  1
  Pr  Pr4  1  0.639771  0.639771  0.249687  1
  Pr  Pr5  1  0.363232  0.363232  0.751239  1
  In  In6  1  0.322188  0.322188  0.048810  1
  Sn  Sn7  1  0.026715  0.026715  0.250179  1
  Sn  Sn8  1  0.973176  0.973176  0.749630  1
  Sn  Sn9  1  0.672643  0.672643  0.952075  1
  Sn  Sn10  1  0.329288  0.329288  0.450879  1
  Sn  Sn11  1  0.670627  0.670627  0.549599  1
  Sn  Sn12  1  0.487931  0.074539  0.248600  1
  Sn  Sn13  1  0.927570  0.511755  0.750419  1
  Sn  Sn14  1  0.511755  0.927570  0.750419  1
  Sn  Sn15  1  0.074539  0.487931  0.248600  1
