# generated using pymatgen
data_LiLa6(NdPt3)2
_symmetry_space_group_name_H-M   'P 1'
_cell_length_a   7.80195531
_cell_length_b   7.80195561
_cell_length_c   7.80195576
_cell_angle_alpha   70.80046154
_cell_angle_beta   70.80045918
_cell_angle_gamma   70.80046064
_symmetry_Int_Tables_number   1
_chemical_formula_structural   LiLa6(NdPt3)2
_chemical_formula_sum   'Li1 La6 Nd2 Pt6'
_cell_volume   410.37367340
_cell_formula_units_Z   1
loop_
 _symmetry_equiv_pos_site_id
 _symmetry_equiv_pos_as_xyz
  1  'x, y, z'
loop_
 _atom_site_type_symbol
 _atom_site_label
 _atom_site_symmetry_multiplicity
 _atom_site_fract_x
 _atom_site_fract_y
 _atom_site_fract_z
 _atom_site_occupancy
  Li  Li0  1  0.000000  0.000000  0.000000  1
  La  La1  1  0.317287  0.612897  0.857500  1
  La  La2  1  0.857500  0.317287  0.612897  1
  La  La3  1  0.612897  0.857500  0.317287  1
  La  La4  1  0.682713  0.387103  0.142500  1
  La  La5  1  0.142500  0.682713  0.387103  1
  La  La6  1  0.387103  0.142500  0.682713  1
  Nd  Nd7  1  0.815014  0.815014  0.815014  1
  Nd  Nd8  1  0.184986  0.184986  0.184986  1
  Pt  Pt9  1  0.177463  0.954572  0.577449  1
  Pt  Pt10  1  0.577449  0.177463  0.954572  1
  Pt  Pt11  1  0.954572  0.577449  0.177463  1
  Pt  Pt12  1  0.822537  0.045428  0.422551  1
  Pt  Pt13  1  0.422551  0.822537  0.045428  1
  Pt  Pt14  1  0.045428  0.422551  0.822537  1
