# generated using pymatgen
data_Sr5Ge2BiF
_symmetry_space_group_name_H-M   'P 1'
_cell_length_a   9.79441289
_cell_length_b   9.79441394
_cell_length_c   9.79441354
_cell_angle_alpha   129.19408473
_cell_angle_beta   129.19408666
_cell_angle_gamma   74.69847520
_symmetry_Int_Tables_number   1
_chemical_formula_structural   Sr5Ge2BiF
_chemical_formula_sum   'Sr10 Ge4 Bi2 F2'
_cell_volume   549.81182332
_cell_formula_units_Z   2
loop_
 _symmetry_equiv_pos_site_id
 _symmetry_equiv_pos_as_xyz
  1  'x, y, z'
loop_
 _atom_site_type_symbol
 _atom_site_label
 _atom_site_symmetry_multiplicity
 _atom_site_fract_x
 _atom_site_fract_y
 _atom_site_fract_z
 _atom_site_occupancy
  Sr  Sr0  1  0.500000  0.500000  0.000000  1
  Sr  Sr1  1  0.000000  0.000000  0.000000  1
  Sr  Sr2  1  0.517767  0.017767  0.818590  1
  Sr  Sr3  1  0.199177  0.699177  0.181410  1
  Sr  Sr4  1  0.017767  0.199177  0.500000  1
  Sr  Sr5  1  0.699177  0.517767  0.500000  1
  Sr  Sr6  1  0.482233  0.982233  0.181410  1
  Sr  Sr7  1  0.800823  0.300823  0.818590  1
  Sr  Sr8  1  0.982233  0.800823  0.500000  1
  Sr  Sr9  1  0.300823  0.482233  0.500000  1
  Ge  Ge10  1  0.880110  0.380110  0.260221  1
  Ge  Ge11  1  0.119890  0.619890  0.739780  1
  Ge  Ge12  1  0.380110  0.119890  0.500000  1
  Ge  Ge13  1  0.619890  0.880110  0.500000  1
  Bi  Bi14  1  0.250000  0.250000  0.000000  1
  Bi  Bi15  1  0.750000  0.750000  0.000000  1
  F  F16  1  0.250000  0.750000  0.500000  1
  F  F17  1  0.750000  0.250000  0.500000  1
