# generated using pymatgen
data_Pr2Er2Al17GaIr6
_symmetry_space_group_name_H-M   'P 1'
_cell_length_a   7.57596140
_cell_length_b   7.57596023
_cell_length_c   9.55700600
_cell_angle_alpha   90.00000000
_cell_angle_beta   90.00000000
_cell_angle_gamma   119.31389371
_symmetry_Int_Tables_number   1
_chemical_formula_structural   Pr2Er2Al17GaIr6
_chemical_formula_sum   'Pr2 Er2 Al17 Ga1 Ir6'
_cell_volume   478.28764963
_cell_formula_units_Z   1
loop_
 _symmetry_equiv_pos_site_id
 _symmetry_equiv_pos_as_xyz
  1  'x, y, z'
loop_
 _atom_site_type_symbol
 _atom_site_label
 _atom_site_symmetry_multiplicity
 _atom_site_fract_x
 _atom_site_fract_y
 _atom_site_fract_z
 _atom_site_occupancy
  Pr  Pr0  1  0.993549  0.674515  0.250000  1
  Pr  Pr1  1  0.674515  0.993549  0.250000  1
  Er  Er2  1  0.005374  0.326714  0.750000  1
  Er  Er3  1  0.326714  0.005374  0.750000  1
  Al  Al4  1  0.870665  0.870665  0.750000  1
  Al  Al5  1  0.003234  0.336019  0.068002  1
  Al  Al6  1  0.999428  0.663713  0.921717  1
  Al  Al7  1  0.999428  0.663713  0.578283  1
  Al  Al8  1  0.336019  0.003234  0.431998  1
  Al  Al9  1  0.003234  0.336019  0.431998  1
  Al  Al10  1  0.663713  0.999428  0.578283  1
  Al  Al11  1  0.663713  0.999428  0.921717  1
  Al  Al12  1  0.336019  0.003234  0.068002  1
  Al  Al13  1  0.332501  0.332501  0.556129  1
  Al  Al14  1  0.664629  0.664629  0.458101  1
  Al  Al15  1  0.664629  0.664629  0.041899  1
  Al  Al16  1  0.332501  0.332501  0.943871  1
  Al  Al17  1  0.338572  0.546540  0.250000  1
  Al  Al18  1  0.659635  0.449084  0.750000  1
  Al  Al19  1  0.546540  0.338572  0.250000  1
  Al  Al20  1  0.449084  0.659635  0.750000  1
  Ga  Ga21  1  0.138735  0.138735  0.250000  1
  Ir  Ir22  1  0.670272  0.327313  0.997388  1
  Ir  Ir23  1  0.327313  0.670272  0.997388  1
  Ir  Ir24  1  0.327313  0.670272  0.502612  1
  Ir  Ir25  1  0.670272  0.327313  0.502612  1
  Ir  Ir26  1  0.001200  0.001200  0.994140  1
  Ir  Ir27  1  0.001200  0.001200  0.505860  1
