# generated using pymatgen
data_TmU(FeB4)2
_symmetry_space_group_name_H-M   'P 1'
_cell_length_a   3.35940900
_cell_length_b   5.86596386
_cell_length_c   11.34975659
_cell_angle_alpha   89.90882045
_cell_angle_beta   90.00000000
_cell_angle_gamma   90.00000000
_symmetry_Int_Tables_number   1
_chemical_formula_structural   TmU(FeB4)2
_chemical_formula_sum   'Tm2 U2 Fe4 B16'
_cell_volume   223.65996981
_cell_formula_units_Z   2
loop_
 _symmetry_equiv_pos_site_id
 _symmetry_equiv_pos_as_xyz
  1  'x, y, z'
loop_
 _atom_site_type_symbol
 _atom_site_label
 _atom_site_symmetry_multiplicity
 _atom_site_fract_x
 _atom_site_fract_y
 _atom_site_fract_z
 _atom_site_occupancy
  Tm  Tm0  1  0.500000  0.126922  0.648592  1
  Tm  Tm1  1  0.500000  0.873078  0.351408  1
  U  U2  1  0.500000  0.373481  0.151204  1
  U  U3  1  0.500000  0.626519  0.848796  1
  Fe  Fe4  1  0.500000  0.366618  0.408962  1
  Fe  Fe5  1  0.500000  0.633382  0.591038  1
  Fe  Fe6  1  0.500000  0.134143  0.910341  1
  Fe  Fe7  1  0.500000  0.865857  0.089659  1
  B  B8  1  0.000000  0.112392  0.046350  1
  B  B9  1  0.000000  0.887608  0.953650  1
  B  B10  1  0.000000  0.387120  0.545597  1
  B  B11  1  0.000000  0.612880  0.454403  1
  B  B12  1  0.000000  0.138292  0.468064  1
  B  B13  1  0.000000  0.861708  0.531936  1
  B  B14  1  0.000000  0.363774  0.966211  1
  B  B15  1  0.000000  0.636226  0.033789  1
  B  B16  1  0.000000  0.023777  0.191521  1
  B  B17  1  0.000000  0.976223  0.808479  1
  B  B18  1  0.000000  0.474785  0.690173  1
  B  B19  1  0.000000  0.525215  0.309827  1
  B  B20  1  0.000000  0.216812  0.315317  1
  B  B21  1  0.000000  0.783188  0.684683  1
  B  B22  1  0.000000  0.283305  0.814622  1
  B  B23  1  0.000000  0.716695  0.185378  1
