# generated using pymatgen
data_Pm4Ge3Cl
_symmetry_space_group_name_H-M   'P 1'
_cell_length_a   5.98000297
_cell_length_b   5.97968939
_cell_length_c   7.32180921
_cell_angle_alpha   65.83694147
_cell_angle_beta   65.82966938
_cell_angle_gamma   90.13475949
_symmetry_Int_Tables_number   1
_chemical_formula_structural   Pm4Ge3Cl
_chemical_formula_sum   'Pm4 Ge3 Cl1'
_cell_volume   213.34519469
_cell_formula_units_Z   1
loop_
 _symmetry_equiv_pos_site_id
 _symmetry_equiv_pos_as_xyz
  1  'x, y, z'
loop_
 _atom_site_type_symbol
 _atom_site_label
 _atom_site_symmetry_multiplicity
 _atom_site_fract_x
 _atom_site_fract_y
 _atom_site_fract_z
 _atom_site_occupancy
  Pm  Pm0  1  0.687337  0.882441  0.182863  1
  Pm  Pm1  1  0.431127  0.132337  0.684500  1
  Pm  Pm2  1  0.185318  0.382166  0.182805  1
  Pm  Pm3  1  0.935762  0.634531  0.680327  1
  Ge  Ge4  1  0.930711  0.133529  0.682939  1
  Ge  Ge5  1  0.434447  0.633091  0.682828  1
  Ge  Ge6  1  0.188360  0.882210  0.182393  1
  Cl  Cl7  1  0.685894  0.382675  0.182282  1
