# generated using pymatgen
data_La2Fe3CoP4
_symmetry_space_group_name_H-M   'P 1'
_cell_length_a   5.35274800
_cell_length_b   6.16881564
_cell_length_c   5.35339964
_cell_angle_alpha   64.31398034
_cell_angle_beta   89.99990366
_cell_angle_gamma   89.99993975
_symmetry_Int_Tables_number   1
_chemical_formula_structural   La2Fe3CoP4
_chemical_formula_sum   'La2 Fe3 Co1 P4'
_cell_volume   159.30197226
_cell_formula_units_Z   1
loop_
 _symmetry_equiv_pos_site_id
 _symmetry_equiv_pos_as_xyz
  1  'x, y, z'
loop_
 _atom_site_type_symbol
 _atom_site_label
 _atom_site_symmetry_multiplicity
 _atom_site_fract_x
 _atom_site_fract_y
 _atom_site_fract_z
 _atom_site_occupancy
  La  La0  1  0.499493  0.000000  0.500000  1
  La  La1  1  0.000421  0.000000  0.999999  1
  Fe  Fe2  1  0.749950  0.500000  0.000000  1
  Fe  Fe3  1  0.749825  0.500001  0.500000  1
  Fe  Fe4  1  0.250220  0.499999  0.500001  1
  Co  Co5  1  0.250119  0.500001  0.000000  1
  P  P6  1  0.502213  0.702984  0.150846  1
  P  P7  1  0.997773  0.702836  0.646514  1
  P  P8  1  0.997773  0.297163  0.353486  1
  P  P9  1  0.502213  0.297016  0.849154  1
