# generated using pymatgen
data_BaNd2Ho(AsPt)4
_symmetry_space_group_name_H-M   'P 1'
_cell_length_a   4.34618100
_cell_length_b   4.34618198
_cell_length_c   16.70849000
_cell_angle_alpha   90.00000000
_cell_angle_beta   90.00000000
_cell_angle_gamma   120.00000014
_symmetry_Int_Tables_number   1
_chemical_formula_structural   BaNd2Ho(AsPt)4
_chemical_formula_sum   'Ba1 Nd2 Ho1 As4 Pt4'
_cell_volume   273.32763903
_cell_formula_units_Z   1
loop_
 _symmetry_equiv_pos_site_id
 _symmetry_equiv_pos_as_xyz
  1  'x, y, z'
loop_
 _atom_site_type_symbol
 _atom_site_label
 _atom_site_symmetry_multiplicity
 _atom_site_fract_x
 _atom_site_fract_y
 _atom_site_fract_z
 _atom_site_occupancy
  Ba  Ba0  1  0.000000  0.000000  0.250000  1
  Nd  Nd1  1  0.000000  0.000000  0.514134  1
  Nd  Nd2  1  0.000000  0.000000  0.985866  1
  Ho  Ho3  1  0.000000  0.000000  0.750000  1
  As  As4  1  0.333333  0.666667  0.870377  1
  As  As5  1  0.666667  0.333333  0.105547  1
  As  As6  1  0.666667  0.333333  0.394453  1
  As  As7  1  0.333333  0.666667  0.629623  1
  Pt  Pt8  1  0.333333  0.666667  0.398020  1
  Pt  Pt9  1  0.666667  0.333333  0.647478  1
  Pt  Pt10  1  0.666667  0.333333  0.852522  1
  Pt  Pt11  1  0.333333  0.666667  0.101980  1
