# generated using pymatgen
data_Ho4Nb2IrRu5
_symmetry_space_group_name_H-M   'P 1'
_cell_length_a   5.65026101
_cell_length_b   5.68671102
_cell_length_c   8.07414200
_cell_angle_alpha   90.00000000
_cell_angle_beta   90.00000000
_cell_angle_gamma   119.78617802
_symmetry_Int_Tables_number   1
_chemical_formula_structural   Ho4Nb2IrRu5
_chemical_formula_sum   'Ho4 Nb2 Ir1 Ru5'
_cell_volume   225.15852444
_cell_formula_units_Z   1
loop_
 _symmetry_equiv_pos_site_id
 _symmetry_equiv_pos_as_xyz
  1  'x, y, z'
loop_
 _atom_site_type_symbol
 _atom_site_label
 _atom_site_symmetry_multiplicity
 _atom_site_fract_x
 _atom_site_fract_y
 _atom_site_fract_z
 _atom_site_occupancy
  Ho  Ho0  1  0.666804  0.333638  0.561904  1
  Ho  Ho1  1  0.333332  0.666634  0.439469  1
  Ho  Ho2  1  0.333332  0.666634  0.060531  1
  Ho  Ho3  1  0.666804  0.333638  0.938096  1
  Nb  Nb4  1  0.998297  0.996606  0.497396  1
  Nb  Nb5  1  0.998297  0.996606  0.002604  1
  Ir  Ir6  1  0.172829  0.345705  0.750000  1
  Ru  Ru7  1  0.173930  0.831248  0.750000  1
  Ru  Ru8  1  0.657291  0.831260  0.750000  1
  Ru  Ru9  1  0.827156  0.654242  0.250000  1
  Ru  Ru10  1  0.825740  0.171898  0.250000  1
  Ru  Ru11  1  0.346189  0.171891  0.250000  1
