# generated using pymatgen
data_K8AlTl10
_symmetry_space_group_name_H-M   'P 1'
_cell_length_a   10.50487300
_cell_length_b   10.50487300
_cell_length_c   14.17887400
_cell_angle_alpha   90.00000000
_cell_angle_beta   90.00000000
_cell_angle_gamma   90.00000000
_symmetry_Int_Tables_number   1
_chemical_formula_structural   K8AlTl10
_chemical_formula_sum   'K16 Al2 Tl20'
_cell_volume   1564.67216191
_cell_formula_units_Z   2
loop_
 _symmetry_equiv_pos_site_id
 _symmetry_equiv_pos_as_xyz
  1  'x, y, z'
loop_
 _atom_site_type_symbol
 _atom_site_label
 _atom_site_symmetry_multiplicity
 _atom_site_fract_x
 _atom_site_fract_y
 _atom_site_fract_z
 _atom_site_occupancy
  K  K0  1  0.957640  0.177273  0.107126  1
  K  K1  1  0.542359  0.322727  0.107126  1
  K  K2  1  0.177273  0.542359  0.107126  1
  K  K3  1  0.322727  0.957640  0.107126  1
  K  K4  1  0.542359  0.177273  0.392875  1
  K  K5  1  0.957640  0.322727  0.392875  1
  K  K6  1  0.322727  0.542359  0.392875  1
  K  K7  1  0.177273  0.957640  0.392875  1
  K  K8  1  0.822727  0.042359  0.607125  1
  K  K9  1  0.677273  0.457640  0.607125  1
  K  K10  1  0.042359  0.677273  0.607125  1
  K  K11  1  0.457640  0.822727  0.607125  1
  K  K12  1  0.677273  0.042359  0.892875  1
  K  K13  1  0.822727  0.457640  0.892875  1
  K  K14  1  0.457640  0.677273  0.892875  1
  K  K15  1  0.042359  0.822727  0.892875  1
  Al  Al16  1  0.750000  0.750000  0.250000  1
  Al  Al17  1  0.250000  0.250000  0.750000  1
  Tl  Tl18  1  0.750000  0.750000  0.031303  1
  Tl  Tl19  1  0.844806  0.511336  0.157859  1
  Tl  Tl20  1  0.511336  0.655195  0.157859  1
  Tl  Tl21  1  0.988664  0.844806  0.157859  1
  Tl  Tl22  1  0.655195  0.988664  0.157859  1
  Tl  Tl23  1  0.655195  0.511336  0.342140  1
  Tl  Tl24  1  0.988664  0.655195  0.342140  1
  Tl  Tl25  1  0.511336  0.844806  0.342140  1
  Tl  Tl26  1  0.844806  0.988664  0.342140  1
  Tl  Tl27  1  0.750000  0.750000  0.468697  1
  Tl  Tl28  1  0.250000  0.250000  0.531303  1
  Tl  Tl29  1  0.155195  0.011336  0.657859  1
  Tl  Tl30  1  0.488664  0.155195  0.657859  1
  Tl  Tl31  1  0.011336  0.344805  0.657859  1
  Tl  Tl32  1  0.344805  0.488664  0.657859  1
  Tl  Tl33  1  0.344805  0.011336  0.842140  1
  Tl  Tl34  1  0.011336  0.155195  0.842140  1
  Tl  Tl35  1  0.488664  0.344805  0.842140  1
  Tl  Tl36  1  0.155195  0.488664  0.842140  1
  Tl  Tl37  1  0.250000  0.250000  0.968697  1
