# generated using pymatgen
data_YbNb9Se16
_symmetry_space_group_name_H-M   'P 1'
_cell_length_a   7.00561100
_cell_length_b   7.00561167
_cell_length_c   14.09545200
_cell_angle_alpha   90.00000000
_cell_angle_beta   90.00000000
_cell_angle_gamma   120.00001101
_symmetry_Int_Tables_number   1
_chemical_formula_structural   YbNb9Se16
_chemical_formula_sum   'Yb1 Nb9 Se16'
_cell_volume   599.10324113
_cell_formula_units_Z   1
loop_
 _symmetry_equiv_pos_site_id
 _symmetry_equiv_pos_as_xyz
  1  'x, y, z'
loop_
 _atom_site_type_symbol
 _atom_site_label
 _atom_site_symmetry_multiplicity
 _atom_site_fract_x
 _atom_site_fract_y
 _atom_site_fract_z
 _atom_site_occupancy
  Yb  Yb0  1  0.000000  0.000000  0.000000  1
  Nb  Nb1  1  0.000000  0.000000  0.266123  1
  Nb  Nb2  1  0.000000  0.000000  0.733877  1
  Nb  Nb3  1  0.505838  0.011677  0.265951  1
  Nb  Nb4  1  0.494162  0.988323  0.734049  1
  Nb  Nb5  1  0.988323  0.494162  0.265951  1
  Nb  Nb6  1  0.011677  0.505838  0.734049  1
  Nb  Nb7  1  0.505838  0.494162  0.265951  1
  Nb  Nb8  1  0.494162  0.505838  0.734049  1
  Nb  Nb9  1  0.000000  0.000000  0.500000  1
  Se  Se10  1  0.333333  0.666667  0.612918  1
  Se  Se11  1  0.666667  0.333333  0.387082  1
  Se  Se12  1  0.666667  0.333333  0.143400  1
  Se  Se13  1  0.333333  0.666667  0.856600  1
  Se  Se14  1  0.168153  0.336305  0.147565  1
  Se  Se15  1  0.831847  0.663695  0.852435  1
  Se  Se16  1  0.663695  0.831847  0.147565  1
  Se  Se17  1  0.831486  0.662972  0.615488  1
  Se  Se18  1  0.336305  0.168153  0.852435  1
  Se  Se19  1  0.168514  0.337028  0.384512  1
  Se  Se20  1  0.168153  0.831847  0.147565  1
  Se  Se21  1  0.337028  0.168514  0.615488  1
  Se  Se22  1  0.831847  0.168153  0.852435  1
  Se  Se23  1  0.662972  0.831486  0.384512  1
  Se  Se24  1  0.831486  0.168514  0.615488  1
  Se  Se25  1  0.168514  0.831486  0.384512  1
