# generated using pymatgen
data_Sm3CI3
_symmetry_space_group_name_H-M   'P 1'
_cell_length_a   3.98632300
_cell_length_b   8.88768759
_cell_length_c   12.00715021
_cell_angle_alpha   92.40871035
_cell_angle_beta   90.00000000
_cell_angle_gamma   90.00000000
_symmetry_Int_Tables_number   1
_chemical_formula_structural   Sm3CI3
_chemical_formula_sum   'Sm6 C2 I6'
_cell_volume   425.02778318
_cell_formula_units_Z   2
loop_
 _symmetry_equiv_pos_site_id
 _symmetry_equiv_pos_as_xyz
  1  'x, y, z'
loop_
 _atom_site_type_symbol
 _atom_site_label
 _atom_site_symmetry_multiplicity
 _atom_site_fract_x
 _atom_site_fract_y
 _atom_site_fract_z
 _atom_site_occupancy
  Sm  Sm0  1  0.250000  0.916617  0.601708  1
  Sm  Sm1  1  0.750000  0.083383  0.398292  1
  Sm  Sm2  1  0.250000  0.886188  0.180960  1
  Sm  Sm3  1  0.750000  0.113812  0.819040  1
  Sm  Sm4  1  0.250000  0.296778  0.616559  1
  Sm  Sm5  1  0.750000  0.703222  0.383441  1
  C  C6  1  0.250000  0.881478  0.384567  1
  C  C7  1  0.750000  0.118522  0.615433  1
  I  I8  1  0.250000  0.856154  0.875309  1
  I  I9  1  0.750000  0.143846  0.124691  1
  I  I10  1  0.250000  0.378673  0.873864  1
  I  I11  1  0.750000  0.621327  0.126136  1
  I  I12  1  0.250000  0.382425  0.365249  1
  I  I13  1  0.750000  0.617575  0.634751  1
