# generated using pymatgen
data_Y3Zn3C
_symmetry_space_group_name_H-M   'P 1'
_cell_length_a   9.20163550
_cell_length_b   9.20160845
_cell_length_c   9.20162200
_cell_angle_alpha   59.99995129
_cell_angle_beta   60.00004854
_cell_angle_gamma   59.99991507
_symmetry_Int_Tables_number   1
_chemical_formula_structural   Y3Zn3C
_chemical_formula_sum   'Y12 Zn12 C4'
_cell_volume   550.90648735
_cell_formula_units_Z   4
loop_
 _symmetry_equiv_pos_site_id
 _symmetry_equiv_pos_as_xyz
  1  'x, y, z'
loop_
 _atom_site_type_symbol
 _atom_site_label
 _atom_site_symmetry_multiplicity
 _atom_site_fract_x
 _atom_site_fract_y
 _atom_site_fract_z
 _atom_site_occupancy
  Y  Y0  1  0.447125  0.447125  0.052875  1
  Y  Y1  1  0.052875  0.447125  0.052875  1
  Y  Y2  1  0.447125  0.052875  0.052876  1
  Y  Y3  1  0.052876  0.052875  0.447125  1
  Y  Y4  1  0.447125  0.052875  0.447125  1
  Y  Y5  1  0.052875  0.447125  0.447125  1
  Y  Y6  1  0.802875  0.802875  0.197125  1
  Y  Y7  1  0.197125  0.802875  0.197125  1
  Y  Y8  1  0.802875  0.197125  0.197124  1
  Y  Y9  1  0.197124  0.197125  0.802875  1
  Y  Y10  1  0.802875  0.197125  0.802875  1
  Y  Y11  1  0.197125  0.802875  0.802875  1
  Zn  Zn12  1  0.825668  0.825667  0.522998  1
  Zn  Zn13  1  0.825667  0.522998  0.825668  1
  Zn  Zn14  1  0.522998  0.825667  0.825668  1
  Zn  Zn15  1  0.825668  0.825667  0.825667  1
  Zn  Zn16  1  0.424332  0.424333  0.727002  1
  Zn  Zn17  1  0.424333  0.727002  0.424332  1
  Zn  Zn18  1  0.727002  0.424333  0.424332  1
  Zn  Zn19  1  0.424332  0.424333  0.424333  1
  Zn  Zn20  1  0.625000  0.625000  0.125000  1
  Zn  Zn21  1  0.625000  0.125000  0.625000  1
  Zn  Zn22  1  0.125000  0.625000  0.625000  1
  Zn  Zn23  1  0.625000  0.625000  0.625000  1
  C  C24  1  0.125000  0.125000  0.625000  1
  C  C25  1  0.125000  0.625000  0.125000  1
  C  C26  1  0.625000  0.125000  0.125000  1
  C  C27  1  0.125000  0.125000  0.125000  1
