# generated using pymatgen
data_HoZr7(Nb3Ge4)4
_symmetry_space_group_name_H-M   'P 1'
_cell_length_a   6.87005379
_cell_length_b   7.00596461
_cell_length_c   13.38451608
_cell_angle_alpha   90.07042267
_cell_angle_beta   89.95272313
_cell_angle_gamma   90.00536626
_symmetry_Int_Tables_number   1
_chemical_formula_structural   HoZr7(Nb3Ge4)4
_chemical_formula_sum   'Ho1 Zr7 Nb12 Ge16'
_cell_volume   644.21416902
_cell_formula_units_Z   1
loop_
 _symmetry_equiv_pos_site_id
 _symmetry_equiv_pos_as_xyz
  1  'x, y, z'
loop_
 _atom_site_type_symbol
 _atom_site_label
 _atom_site_symmetry_multiplicity
 _atom_site_fract_x
 _atom_site_fract_y
 _atom_site_fract_z
 _atom_site_occupancy
  Ho  Ho0  1  0.993641  0.173236  0.091660  1
  Zr  Zr1  1  0.493134  0.326607  0.091833  1
  Zr  Zr2  1  0.990088  0.175614  0.407626  1
  Zr  Zr3  1  0.508845  0.674785  0.591385  1
  Zr  Zr4  1  0.009310  0.822599  0.905915  1
  Zr  Zr5  1  0.509087  0.676154  0.907031  1
  Zr  Zr6  1  0.009513  0.825710  0.591508  1
  Zr  Zr7  1  0.491242  0.324556  0.409068  1
  Nb  Nb8  1  0.663255  0.008925  0.749344  1
  Nb  Nb9  1  0.163170  0.492765  0.749948  1
  Nb  Nb10  1  0.337159  0.990881  0.251598  1
  Nb  Nb11  1  0.836122  0.508964  0.252280  1
  Nb  Nb12  1  0.839707  0.334434  0.624453  1
  Nb  Nb13  1  0.339473  0.165846  0.875198  1
  Nb  Nb14  1  0.160430  0.665774  0.125549  1
  Nb  Nb15  1  0.658742  0.832210  0.375890  1
  Nb  Nb16  1  0.160426  0.666346  0.376663  1
  Nb  Nb17  1  0.657678  0.831653  0.125544  1
  Nb  Nb18  1  0.837300  0.336191  0.874367  1
  Nb  Nb19  1  0.340191  0.165877  0.624728  1
  Ge  Ge20  1  0.804727  0.648721  0.749023  1
  Ge  Ge21  1  0.305492  0.852041  0.749554  1
  Ge  Ge22  1  0.196661  0.352777  0.251167  1
  Ge  Ge23  1  0.693123  0.148437  0.250475  1
  Ge  Ge24  1  0.536978  0.386426  0.749653  1
  Ge  Ge25  1  0.037261  0.114822  0.750260  1
  Ge  Ge26  1  0.461829  0.613073  0.250623  1
  Ge  Ge27  1  0.961581  0.884135  0.251248  1
  Ge  Ge28  1  0.681814  0.039543  0.539632  1
  Ge  Ge29  1  0.182414  0.462990  0.958857  1
  Ge  Ge30  1  0.323693  0.957459  0.039110  1
  Ge  Ge31  1  0.819192  0.539241  0.460657  1
  Ge  Ge32  1  0.317964  0.961613  0.460367  1
  Ge  Ge33  1  0.818206  0.541933  0.039088  1
  Ge  Ge34  1  0.679483  0.038194  0.958686  1
  Ge  Ge35  1  0.181067  0.459467  0.540009  1
