# generated using pymatgen
data_YP2IrRu2
_symmetry_space_group_name_H-M   'P 1'
_cell_length_a   3.97948700
_cell_length_b   11.27781500
_cell_length_c   12.56985700
_cell_angle_alpha   90.00000000
_cell_angle_beta   90.00000000
_cell_angle_gamma   90.00000000
_symmetry_Int_Tables_number   1
_chemical_formula_structural   YP2IrRu2
_chemical_formula_sum   'Y6 P12 Ir6 Ru12'
_cell_volume   564.13415371
_cell_formula_units_Z   6
loop_
 _symmetry_equiv_pos_site_id
 _symmetry_equiv_pos_as_xyz
  1  'x, y, z'
loop_
 _atom_site_type_symbol
 _atom_site_label
 _atom_site_symmetry_multiplicity
 _atom_site_fract_x
 _atom_site_fract_y
 _atom_site_fract_z
 _atom_site_occupancy
  Y  Y0  1  0.000000  0.500000  0.523079  1
  Y  Y1  1  0.500000  0.000000  0.476921  1
  Y  Y2  1  0.500000  0.819541  0.204483  1
  Y  Y3  1  0.500000  0.180459  0.204483  1
  Y  Y4  1  0.000000  0.680459  0.795517  1
  Y  Y5  1  0.000000  0.319541  0.795517  1
  P  P6  1  0.500000  0.500000  0.883160  1
  P  P7  1  0.000000  0.000000  0.116840  1
  P  P8  1  0.500000  0.500000  0.345051  1
  P  P9  1  0.000000  0.000000  0.654949  1
  P  P10  1  0.500000  0.305919  0.616049  1
  P  P11  1  0.500000  0.694081  0.616049  1
  P  P12  1  0.000000  0.194081  0.383951  1
  P  P13  1  0.000000  0.805919  0.383951  1
  P  P14  1  0.500000  0.842738  0.897149  1
  P  P15  1  0.500000  0.157262  0.897149  1
  P  P16  1  0.000000  0.657262  0.102851  1
  P  P17  1  0.000000  0.342738  0.102851  1
  Ir  Ir18  1  0.500000  0.500000  0.695250  1
  Ir  Ir19  1  0.000000  0.000000  0.304750  1
  Ir  Ir20  1  0.500000  0.875718  0.715357  1
  Ir  Ir21  1  0.500000  0.124282  0.715357  1
  Ir  Ir22  1  0.000000  0.624282  0.284643  1
  Ir  Ir23  1  0.000000  0.375718  0.284643  1
  Ru  Ru24  1  0.500000  0.500000  0.159788  1
  Ru  Ru25  1  0.000000  0.000000  0.840212  1
  Ru  Ru26  1  0.000000  0.500000  0.988769  1
  Ru  Ru27  1  0.500000  0.000000  0.011231  1
  Ru  Ru28  1  0.500000  0.332987  0.992369  1
  Ru  Ru29  1  0.500000  0.667013  0.992369  1
  Ru  Ru30  1  0.000000  0.167013  0.007631  1
  Ru  Ru31  1  0.000000  0.832987  0.007631  1
  Ru  Ru32  1  0.500000  0.298310  0.428424  1
  Ru  Ru33  1  0.500000  0.701690  0.428424  1
  Ru  Ru34  1  0.000000  0.201690  0.571576  1
  Ru  Ru35  1  0.000000  0.798310  0.571576  1
