# generated using pymatgen
data_Zr5Ti3(Fe4As3)4
_symmetry_space_group_name_H-M   'P 1'
_cell_length_a   12.46162700
_cell_length_b   12.46162664
_cell_length_c   3.77864300
_cell_angle_alpha   90.00000000
_cell_angle_beta   90.00000000
_cell_angle_gamma   119.99999300
_symmetry_Int_Tables_number   1
_chemical_formula_structural   Zr5Ti3(Fe4As3)4
_chemical_formula_sum   'Zr5 Ti3 Fe16 As12'
_cell_volume   508.17817328
_cell_formula_units_Z   1
loop_
 _symmetry_equiv_pos_site_id
 _symmetry_equiv_pos_as_xyz
  1  'x, y, z'
loop_
 _atom_site_type_symbol
 _atom_site_label
 _atom_site_symmetry_multiplicity
 _atom_site_fract_x
 _atom_site_fract_y
 _atom_site_fract_z
 _atom_site_occupancy
  Zr  Zr0  1  0.666667  0.333333  0.000000  1
  Zr  Zr1  1  0.333333  0.666667  0.000000  1
  Zr  Zr2  1  0.821873  0.821873  0.500000  1
  Zr  Zr3  1  0.178127  0.000000  0.500000  1
  Zr  Zr4  1  0.000000  0.178127  0.500000  1
  Ti  Ti5  1  0.438851  0.438851  0.000000  1
  Ti  Ti6  1  0.561149  0.000000  0.000000  1
  Ti  Ti7  1  0.000000  0.561149  0.000000  1
  Fe  Fe8  1  0.200163  0.380615  0.000000  1
  Fe  Fe9  1  0.180452  0.799837  0.000000  1
  Fe  Fe10  1  0.819548  0.619385  0.000000  1
  Fe  Fe11  1  0.799837  0.180452  0.000000  1
  Fe  Fe12  1  0.380615  0.200163  0.000000  1
  Fe  Fe13  1  0.119218  0.472727  0.500000  1
  Fe  Fe14  1  0.353510  0.880782  0.500000  1
  Fe  Fe15  1  0.527273  0.646490  0.500000  1
  Fe  Fe16  1  0.646490  0.527273  0.500000  1
  Fe  Fe17  1  0.880782  0.353510  0.500000  1
  Fe  Fe18  1  0.472727  0.119218  0.500000  1
  Fe  Fe19  1  0.000000  0.000000  0.000000  1
  Fe  Fe20  1  0.715210  0.000000  0.500000  1
  Fe  Fe21  1  0.000000  0.715210  0.500000  1
  Fe  Fe22  1  0.619385  0.819548  0.000000  1
  Fe  Fe23  1  0.284790  0.284790  0.500000  1
  As  As24  1  0.650970  0.650970  0.000000  1
  As  As25  1  0.349030  0.000000  0.000000  1
  As  As26  1  0.000000  0.349030  0.000000  1
  As  As27  1  0.486544  0.316907  0.500000  1
  As  As28  1  0.683093  0.169635  0.500000  1
  As  As29  1  0.830365  0.513456  0.500000  1
  As  As30  1  0.513456  0.830365  0.500000  1
  As  As31  1  0.169635  0.683093  0.500000  1
  As  As32  1  0.819016  0.000000  0.000000  1
  As  As33  1  0.000000  0.819016  0.000000  1
  As  As34  1  0.316907  0.486544  0.500000  1
  As  As35  1  0.180984  0.180984  0.000000  1
