# generated using pymatgen
data_Ba2CoTcN4
_symmetry_space_group_name_H-M   'P 1'
_cell_length_a   5.95653500
_cell_length_b   6.54194029
_cell_length_c   8.01660797
_cell_angle_alpha   65.34407685
_cell_angle_beta   90.00000000
_cell_angle_gamma   90.00000000
_symmetry_Int_Tables_number   1
_chemical_formula_structural   Ba2CoTcN4
_chemical_formula_sum   'Ba4 Co2 Tc2 N8'
_cell_volume   283.90515134
_cell_formula_units_Z   2
loop_
 _symmetry_equiv_pos_site_id
 _symmetry_equiv_pos_as_xyz
  1  'x, y, z'
loop_
 _atom_site_type_symbol
 _atom_site_label
 _atom_site_symmetry_multiplicity
 _atom_site_fract_x
 _atom_site_fract_y
 _atom_site_fract_z
 _atom_site_occupancy
  Ba  Ba0  1  0.250000  0.261284  0.049554  1
  Ba  Ba1  1  0.750000  0.738716  0.950446  1
  Ba  Ba2  1  0.750000  0.850730  0.399540  1
  Ba  Ba3  1  0.250000  0.149270  0.600460  1
  Co  Co4  1  0.750000  0.358490  0.392210  1
  Co  Co5  1  0.250000  0.641510  0.607790  1
  Tc  Tc6  1  0.250000  0.675182  0.224537  1
  Tc  Tc7  1  0.750000  0.324818  0.775463  1
  N  N8  1  0.500099  0.514857  0.724454  1
  N  N9  1  0.000099  0.485143  0.275546  1
  N  N10  1  0.499901  0.485143  0.275546  1
  N  N11  1  0.999901  0.514857  0.724454  1
  N  N12  1  0.750000  0.156745  0.626434  1
  N  N13  1  0.250000  0.843255  0.373566  1
  N  N14  1  0.750000  0.127777  0.014867  1
  N  N15  1  0.250000  0.872223  0.985133  1
