# generated using pymatgen
data_Li5Zr(TiIr2)6
_symmetry_space_group_name_H-M   'P 1'
_cell_length_a   4.33814100
_cell_length_b   6.11019400
_cell_length_c   12.94212500
_cell_angle_alpha   90.00000000
_cell_angle_beta   89.99704212
_cell_angle_gamma   90.00000000
_symmetry_Int_Tables_number   1
_chemical_formula_structural   Li5Zr(TiIr2)6
_chemical_formula_sum   'Li5 Zr1 Ti6 Ir12'
_cell_volume   343.05539433
_cell_formula_units_Z   1
loop_
 _symmetry_equiv_pos_site_id
 _symmetry_equiv_pos_as_xyz
  1  'x, y, z'
loop_
 _atom_site_type_symbol
 _atom_site_label
 _atom_site_symmetry_multiplicity
 _atom_site_fract_x
 _atom_site_fract_y
 _atom_site_fract_z
 _atom_site_occupancy
  Li  Li0  1  0.499612  0.500000  0.168879  1
  Li  Li1  1  0.999591  0.000000  0.335465  1
  Li  Li2  1  0.499999  0.500000  0.499995  1
  Li  Li3  1  0.000416  0.000000  0.664528  1
  Li  Li4  1  0.500385  0.500000  0.831128  1
  Zr  Zr5  1  0.999999  0.000000  0.999993  1
  Ti  Ti6  1  0.999996  0.500000  0.999998  1
  Ti  Ti7  1  0.499745  0.000000  0.179446  1
  Ti  Ti8  1  0.999664  0.500000  0.339967  1
  Ti  Ti9  1  0.499999  0.000000  0.500004  1
  Ti  Ti10  1  0.000334  0.500000  0.660037  1
  Ti  Ti11  1  0.500257  0.000000  0.820560  1
  Ir  Ir12  1  0.500000  0.258937  0.000005  1
  Ir  Ir13  1  0.500000  0.741063  0.000005  1
  Ir  Ir14  1  0.999697  0.255317  0.171112  1
  Ir  Ir15  1  0.999697  0.744682  0.171112  1
  Ir  Ir16  1  0.499664  0.252140  0.335521  1
  Ir  Ir17  1  0.499664  0.747861  0.335521  1
  Ir  Ir18  1  0.999998  0.248284  0.499997  1
  Ir  Ir19  1  0.999998  0.751715  0.499997  1
  Ir  Ir20  1  0.500336  0.252143  0.664473  1
  Ir  Ir21  1  0.500336  0.747858  0.664473  1
  Ir  Ir22  1  0.000302  0.255337  0.828890  1
  Ir  Ir23  1  0.000302  0.744662  0.828890  1
