# generated using pymatgen
data_AcDySn5Rh3
_symmetry_space_group_name_H-M   'P 1'
_cell_length_a   13.72345054
_cell_length_b   13.72344981
_cell_length_c   7.35311500
_cell_angle_alpha   90.00000000
_cell_angle_beta   90.00000000
_cell_angle_gamma   160.93164291
_symmetry_Int_Tables_number   1
_chemical_formula_structural   AcDySn5Rh3
_chemical_formula_sum   'Ac2 Dy2 Sn10 Rh6'
_cell_volume   452.41997079
_cell_formula_units_Z   2
loop_
 _symmetry_equiv_pos_site_id
 _symmetry_equiv_pos_as_xyz
  1  'x, y, z'
loop_
 _atom_site_type_symbol
 _atom_site_label
 _atom_site_symmetry_multiplicity
 _atom_site_fract_x
 _atom_site_fract_y
 _atom_site_fract_z
 _atom_site_occupancy
  Ac  Ac0  1  0.171158  0.828842  0.754987  1
  Ac  Ac1  1  0.828842  0.171158  0.254987  1
  Dy  Dy2  1  0.475087  0.524913  0.736451  1
  Dy  Dy3  1  0.524913  0.475087  0.236451  1
  Sn  Sn4  1  0.881525  0.118475  0.733552  1
  Sn  Sn5  1  0.118475  0.881525  0.233552  1
  Sn  Sn6  1  0.704385  0.295615  0.057619  1
  Sn  Sn7  1  0.295615  0.704385  0.557619  1
  Sn  Sn8  1  0.591489  0.408511  0.613149  1
  Sn  Sn9  1  0.408511  0.591489  0.113149  1
  Sn  Sn10  1  0.953943  0.046057  0.396739  1
  Sn  Sn11  1  0.046057  0.953943  0.896739  1
  Sn  Sn12  1  0.289302  0.710698  0.970675  1
  Sn  Sn13  1  0.710698  0.289302  0.470675  1
  Rh  Rh14  1  0.048908  0.951092  0.515742  1
  Rh  Rh15  1  0.951092  0.048908  0.015742  1
  Rh  Rh16  1  0.778755  0.221245  0.762484  1
  Rh  Rh17  1  0.221245  0.778755  0.262484  1
  Rh  Rh18  1  0.396558  0.603442  0.486600  1
  Rh  Rh19  1  0.603442  0.396558  0.986600  1
