# generated using pymatgen
data_Nd11Er(GePd)12
_symmetry_space_group_name_H-M   'P 1'
_cell_length_a   4.50994800
_cell_length_b   7.68799805
_cell_length_c   21.84884714
_cell_angle_alpha   90.00030974
_cell_angle_beta   90.00000000
_cell_angle_gamma   90.00000000
_symmetry_Int_Tables_number   1
_chemical_formula_structural   Nd11Er(GePd)12
_chemical_formula_sum   'Nd11 Er1 Ge12 Pd12'
_cell_volume   757.55352844
_cell_formula_units_Z   1
loop_
 _symmetry_equiv_pos_site_id
 _symmetry_equiv_pos_as_xyz
  1  'x, y, z'
loop_
 _atom_site_type_symbol
 _atom_site_label
 _atom_site_symmetry_multiplicity
 _atom_site_fract_x
 _atom_site_fract_y
 _atom_site_fract_z
 _atom_site_occupancy
  Nd  Nd0  1  0.250000  0.709774  0.334100  1
  Nd  Nd1  1  0.750000  0.291720  0.666271  1
  Nd  Nd2  1  0.750000  0.207823  0.167149  1
  Nd  Nd3  1  0.250000  0.791869  0.832787  1
  Nd  Nd4  1  0.250000  0.791087  0.166600  1
  Nd  Nd5  1  0.750000  0.208987  0.833514  1
  Nd  Nd6  1  0.750000  0.291189  0.334887  1
  Nd  Nd7  1  0.250000  0.710396  0.664921  1
  Nd  Nd8  1  0.250000  0.714992  0.001551  1
  Nd  Nd9  1  0.750000  0.284952  0.998594  1
  Nd  Nd10  1  0.750000  0.211831  0.498912  1
  Er  Er11  1  0.250000  0.778745  0.501324  1
  Ge  Ge12  1  0.250000  0.088920  0.071414  1
  Ge  Ge13  1  0.750000  0.911170  0.928576  1
  Ge  Ge14  1  0.750000  0.591412  0.430506  1
  Ge  Ge15  1  0.250000  0.413231  0.571185  1
  Ge  Ge16  1  0.250000  0.084106  0.269862  1
  Ge  Ge17  1  0.750000  0.915473  0.729989  1
  Ge  Ge18  1  0.750000  0.583869  0.231059  1
  Ge  Ge19  1  0.250000  0.416220  0.768923  1
  Ge  Ge20  1  0.250000  0.085111  0.398493  1
  Ge  Ge21  1  0.750000  0.913341  0.601060  1
  Ge  Ge22  1  0.750000  0.585920  0.103459  1
  Ge  Ge23  1  0.250000  0.414144  0.896612  1
  Pd  Pd24  1  0.250000  0.417209  0.237818  1
  Pd  Pd25  1  0.750000  0.582819  0.762382  1
  Pd  Pd26  1  0.750000  0.917017  0.263368  1
  Pd  Pd27  1  0.250000  0.082954  0.736613  1
  Pd  Pd28  1  0.250000  0.420294  0.436999  1
  Pd  Pd29  1  0.750000  0.588808  0.560893  1
  Pd  Pd30  1  0.750000  0.916696  0.064432  1
  Pd  Pd31  1  0.250000  0.083071  0.935609  1
  Pd  Pd32  1  0.250000  0.420108  0.094158  1
  Pd  Pd33  1  0.750000  0.579741  0.906022  1
  Pd  Pd34  1  0.750000  0.918915  0.408735  1
  Pd  Pd35  1  0.250000  0.076089  0.591227  1
