# generated using pymatgen
data_Tb5Dy3Sc12Si15Ru
_symmetry_space_group_name_H-M   'P 1'
_cell_length_a   7.08986999
_cell_length_b   7.45486484
_cell_length_c   13.96546701
_cell_angle_alpha   89.99680042
_cell_angle_beta   89.99584593
_cell_angle_gamma   90.15805574
_symmetry_Int_Tables_number   1
_chemical_formula_structural   Tb5Dy3Sc12Si15Ru
_chemical_formula_sum   'Tb5 Dy3 Sc12 Si15 Ru1'
_cell_volume   738.12829651
_cell_formula_units_Z   1
loop_
 _symmetry_equiv_pos_site_id
 _symmetry_equiv_pos_as_xyz
  1  'x, y, z'
loop_
 _atom_site_type_symbol
 _atom_site_label
 _atom_site_symmetry_multiplicity
 _atom_site_fract_x
 _atom_site_fract_y
 _atom_site_fract_z
 _atom_site_occupancy
  Tb  Tb0  1  0.991049  0.826985  0.595907  1
  Tb  Tb1  1  0.511120  0.323276  0.095924  1
  Tb  Tb2  1  0.011205  0.178343  0.404045  1
  Tb  Tb3  1  0.511025  0.323283  0.403964  1
  Tb  Tb4  1  0.489071  0.676159  0.595824  1
  Dy  Dy5  1  0.011287  0.178478  0.096008  1
  Dy  Dy6  1  0.991051  0.826799  0.904052  1
  Dy  Dy7  1  0.488988  0.676470  0.904071  1
  Sc  Sc8  1  0.157226  0.500819  0.750082  1
  Sc  Sc9  1  0.838569  0.495555  0.249971  1
  Sc  Sc10  1  0.338925  0.005304  0.249939  1
  Sc  Sc11  1  0.669570  0.999279  0.750092  1
  Sc  Sc12  1  0.316717  0.171729  0.628157  1
  Sc  Sc13  1  0.671815  0.825828  0.373904  1
  Sc  Sc14  1  0.171403  0.677748  0.373998  1
  Sc  Sc15  1  0.671772  0.825801  0.126004  1
  Sc  Sc16  1  0.837138  0.319847  0.627733  1
  Sc  Sc17  1  0.316444  0.171636  0.871939  1
  Sc  Sc18  1  0.837300  0.319700  0.872315  1
  Sc  Sc19  1  0.171360  0.677815  0.125905  1
  Si  Si20  1  0.968506  0.884181  0.249899  1
  Si  Si21  1  0.469233  0.614987  0.249962  1
  Si  Si22  1  0.529299  0.387609  0.750135  1
  Si  Si23  1  0.286715  0.867973  0.750286  1
  Si  Si24  1  0.713417  0.128532  0.249848  1
  Si  Si25  1  0.213674  0.371841  0.249841  1
  Si  Si26  1  0.779873  0.626463  0.750269  1
  Si  Si27  1  0.159153  0.468169  0.537409  1
  Si  Si28  1  0.844814  0.536095  0.461462  1
  Si  Si29  1  0.345106  0.965431  0.460240  1
  Si  Si30  1  0.844841  0.536071  0.038505  1
  Si  Si31  1  0.655277  0.034907  0.538791  1
  Si  Si32  1  0.159390  0.468402  0.962541  1
  Si  Si33  1  0.655631  0.034466  0.961130  1
  Si  Si34  1  0.344681  0.965327  0.039723  1
  Ru  Ru35  1  0.027354  0.108692  0.750125  1
