# generated using pymatgen
data_Lu4GaTc4Ru3
_symmetry_space_group_name_H-M   'P 1'
_cell_length_a   5.25697254
_cell_length_b   5.23765615
_cell_length_c   8.93665100
_cell_angle_alpha   90.00000000
_cell_angle_beta   90.00000000
_cell_angle_gamma   120.01556971
_symmetry_Int_Tables_number   1
_chemical_formula_structural   Lu4GaTc4Ru3
_chemical_formula_sum   'Lu4 Ga1 Tc4 Ru3'
_cell_volume   213.06394488
_cell_formula_units_Z   1
loop_
 _symmetry_equiv_pos_site_id
 _symmetry_equiv_pos_as_xyz
  1  'x, y, z'
loop_
 _atom_site_type_symbol
 _atom_site_label
 _atom_site_symmetry_multiplicity
 _atom_site_fract_x
 _atom_site_fract_y
 _atom_site_fract_z
 _atom_site_occupancy
  Lu  Lu0  1  0.329747  0.662643  0.438169  1
  Lu  Lu1  1  0.668422  0.330977  0.564216  1
  Lu  Lu2  1  0.668422  0.330977  0.935784  1
  Lu  Lu3  1  0.329747  0.662643  0.061831  1
  Ga  Ga4  1  0.336983  0.175011  0.250000  1
  Tc  Tc5  1  0.179555  0.348003  0.750000  1
  Tc  Tc6  1  0.175721  0.830487  0.750000  1
  Tc  Tc7  1  0.834283  0.669286  0.250000  1
  Tc  Tc8  1  0.670963  0.833335  0.750000  1
  Ru  Ru9  1  0.986007  0.983438  0.003275  1
  Ru  Ru10  1  0.834145  0.189758  0.250000  1
  Ru  Ru11  1  0.986007  0.983438  0.496725  1
