# generated using pymatgen
data_Ho4MgTi2AlIr4
_symmetry_space_group_name_H-M   'P 1'
_cell_length_a   4.34922900
_cell_length_b   6.90669701
_cell_length_c   8.01127933
_cell_angle_alpha   87.27207351
_cell_angle_beta   90.00000000
_cell_angle_gamma   90.00000000
_symmetry_Int_Tables_number   1
_chemical_formula_structural   Ho4MgTi2AlIr4
_chemical_formula_sum   'Ho4 Mg1 Ti2 Al1 Ir4'
_cell_volume   240.37656856
_cell_formula_units_Z   1
loop_
 _symmetry_equiv_pos_site_id
 _symmetry_equiv_pos_as_xyz
  1  'x, y, z'
loop_
 _atom_site_type_symbol
 _atom_site_label
 _atom_site_symmetry_multiplicity
 _atom_site_fract_x
 _atom_site_fract_y
 _atom_site_fract_z
 _atom_site_occupancy
  Ho  Ho0  1  0.250000  0.530291  0.174575  1
  Ho  Ho1  1  0.750000  0.479698  0.827123  1
  Ho  Ho2  1  0.750000  0.967255  0.685093  1
  Ho  Ho3  1  0.250000  0.025587  0.312455  1
  Mg  Mg4  1  0.250000  0.145045  0.931842  1
  Ti  Ti5  1  0.250000  0.633402  0.571037  1
  Ti  Ti6  1  0.750000  0.367503  0.431810  1
  Al  Al7  1  0.750000  0.855917  0.067987  1
  Ir  Ir8  1  0.250000  0.762043  0.875632  1
  Ir  Ir9  1  0.750000  0.232309  0.132191  1
  Ir  Ir10  1  0.750000  0.726352  0.398648  1
  Ir  Ir11  1  0.250000  0.274599  0.591606  1
