# generated using pymatgen
data_Y8Lu4ZnInCo4
_symmetry_space_group_name_H-M   'P 1'
_cell_length_a   8.28232768
_cell_length_b   8.28232649
_cell_length_c   8.28232795
_cell_angle_alpha   111.53731065
_cell_angle_beta   110.09782672
_cell_angle_gamma   106.81419534
_symmetry_Int_Tables_number   1
_chemical_formula_structural   Y8Lu4ZnInCo4
_chemical_formula_sum   'Y8 Lu4 Zn1 In1 Co4'
_cell_volume   436.58244889
_cell_formula_units_Z   1
loop_
 _symmetry_equiv_pos_site_id
 _symmetry_equiv_pos_as_xyz
  1  'x, y, z'
loop_
 _atom_site_type_symbol
 _atom_site_label
 _atom_site_symmetry_multiplicity
 _atom_site_fract_x
 _atom_site_fract_y
 _atom_site_fract_z
 _atom_site_occupancy
  Y  Y0  1  0.428825  0.226299  0.202526  1
  Y  Y1  1  0.571175  0.773701  0.797474  1
  Y  Y2  1  0.023773  0.226299  0.797474  1
  Y  Y3  1  0.976227  0.773701  0.202526  1
  Y  Y4  1  0.185619  0.285963  0.471581  1
  Y  Y5  1  0.814381  0.714037  0.528419  1
  Y  Y6  1  0.185619  0.714037  0.899657  1
  Y  Y7  1  0.814381  0.285963  0.100343  1
  Lu  Lu8  1  0.316748  0.624170  0.307420  1
  Lu  Lu9  1  0.683252  0.375830  0.692580  1
  Lu  Lu10  1  0.316748  0.009329  0.692580  1
  Lu  Lu11  1  0.683252  0.990671  0.307420  1
  Zn  Zn12  1  0.000000  0.000000  0.000000  1
  In  In13  1  0.500000  0.500000  0.000000  1
  Co  Co14  1  0.378283  0.000000  0.378283  1
  Co  Co15  1  0.621717  0.000000  0.621717  1
  Co  Co16  1  0.113356  0.613356  0.500000  1
  Co  Co17  1  0.886644  0.386644  0.500000  1
