# generated using pymatgen
data_Tb2Y2GaCo4
_symmetry_space_group_name_H-M   'P 1'
_cell_length_a   5.47566079
_cell_length_b   5.47566028
_cell_length_c   8.91551802
_cell_angle_alpha   71.02047826
_cell_angle_beta   71.02048050
_cell_angle_gamma   43.61293211
_symmetry_Int_Tables_number   1
_chemical_formula_structural   Tb2Y2GaCo4
_chemical_formula_sum   'Tb2 Y2 Ga1 Co4'
_cell_volume   172.70477711
_cell_formula_units_Z   1
loop_
 _symmetry_equiv_pos_site_id
 _symmetry_equiv_pos_as_xyz
  1  'x, y, z'
loop_
 _atom_site_type_symbol
 _atom_site_label
 _atom_site_symmetry_multiplicity
 _atom_site_fract_x
 _atom_site_fract_y
 _atom_site_fract_z
 _atom_site_occupancy
  Tb  Tb0  1  0.745724  0.745724  0.661222  1
  Tb  Tb1  1  0.254276  0.254276  0.338778  1
  Y  Y2  1  0.390879  0.390879  0.884674  1
  Y  Y3  1  0.609121  0.609121  0.115326  1
  Ga  Ga4  1  0.500000  0.500000  0.500000  1
  Co  Co5  1  0.036639  0.036639  0.644732  1
  Co  Co6  1  0.963361  0.963361  0.355268  1
  Co  Co7  1  0.091241  0.091241  0.878884  1
  Co  Co8  1  0.908759  0.908759  0.121116  1
