# generated using pymatgen
data_Ba4ScMn3P4(O2F)8
_symmetry_space_group_name_H-M   'P 1'
_cell_length_a   13.01595300
_cell_length_b   5.26544773
_cell_length_c   8.04711800
_cell_angle_alpha   63.87991670
_cell_angle_beta   90.00000000
_cell_angle_gamma   90.00000000
_symmetry_Int_Tables_number   1
_chemical_formula_structural   Ba4ScMn3P4(O2F)8
_chemical_formula_sum   'Ba4 Sc1 Mn3 P4 O16 F8'
_cell_volume   495.18412237
_cell_formula_units_Z   1
loop_
 _symmetry_equiv_pos_site_id
 _symmetry_equiv_pos_as_xyz
  1  'x, y, z'
loop_
 _atom_site_type_symbol
 _atom_site_label
 _atom_site_symmetry_multiplicity
 _atom_site_fract_x
 _atom_site_fract_y
 _atom_site_fract_z
 _atom_site_occupancy
  Ba  Ba0  1  0.702497  0.855617  0.691712  1
  Ba  Ba1  1  0.206092  0.149615  0.808110  1
  Ba  Ba2  1  0.297503  0.144383  0.308288  1
  Ba  Ba3  1  0.793908  0.850385  0.191890  1
  Sc  Sc4  1  0.000000  0.000000  0.500000  1
  Mn  Mn5  1  0.500000  0.000000  0.000000  1
  Mn  Mn6  1  0.000000  0.500000  0.000000  1
  Mn  Mn7  1  0.500000  0.500000  0.500000  1
  P  P8  1  0.883206  0.373003  0.703786  1
  P  P9  1  0.390682  0.629959  0.802721  1
  P  P10  1  0.116794  0.626997  0.296214  1
  P  P11  1  0.609318  0.370041  0.197279  1
  O  O12  1  0.782942  0.276415  0.813256  1
  O  O13  1  0.287377  0.722620  0.703157  1
  O  O14  1  0.217058  0.723585  0.186744  1
  O  O15  1  0.712623  0.277380  0.296843  1
  O  O16  1  0.898374  0.218564  0.581472  1
  O  O17  1  0.406114  0.791604  0.923164  1
  O  O18  1  0.101626  0.781436  0.418528  1
  O  O19  1  0.593886  0.208396  0.076836  1
  O  O20  1  0.978279  0.318247  0.836446  1
  O  O21  1  0.481591  0.687444  0.663322  1
  O  O22  1  0.021721  0.681753  0.163554  1
  O  O23  1  0.518409  0.312556  0.336678  1
  O  O24  1  0.879070  0.696827  0.567800  1
  O  O25  1  0.386409  0.305022  0.938668  1
  O  O26  1  0.120930  0.303173  0.432200  1
  O  O27  1  0.613591  0.694978  0.061332  1
  F  F28  1  0.865390  0.665465  0.951524  1
  F  F29  1  0.364377  0.337240  0.551151  1
  F  F30  1  0.134610  0.334535  0.048476  1
  F  F31  1  0.635623  0.662760  0.448849  1
  F  F32  1  0.061918  0.838201  0.759568  1
  F  F33  1  0.562026  0.168588  0.735384  1
  F  F34  1  0.938082  0.161799  0.240432  1
  F  F35  1  0.437974  0.831412  0.264616  1
