# generated using pymatgen
data_Zn3Ni(BiO3)8
_symmetry_space_group_name_H-M   'P 1'
_cell_length_a   4.94413507
_cell_length_b   9.88912310
_cell_length_c   9.93603200
_cell_angle_alpha   90.00001159
_cell_angle_beta   90.00000000
_cell_angle_gamma   90.01794432
_symmetry_Int_Tables_number   1
_chemical_formula_structural   Zn3Ni(BiO3)8
_chemical_formula_sum   'Zn3 Ni1 Bi8 O24'
_cell_volume   485.80398207
_cell_formula_units_Z   1
loop_
 _symmetry_equiv_pos_site_id
 _symmetry_equiv_pos_as_xyz
  1  'x, y, z'
loop_
 _atom_site_type_symbol
 _atom_site_label
 _atom_site_symmetry_multiplicity
 _atom_site_fract_x
 _atom_site_fract_y
 _atom_site_fract_z
 _atom_site_occupancy
  Zn  Zn0  1  0.000031  0.499995  0.000000  1
  Zn  Zn1  1  0.499995  0.749997  0.500000  1
  Zn  Zn2  1  0.999968  0.000008  0.999999  1
  Ni  Ni3  1  0.500009  0.250018  0.500000  1
  Bi  Bi4  1  0.999971  0.000672  0.332957  1
  Bi  Bi5  1  0.000029  0.499327  0.332957  1
  Bi  Bi6  1  0.999971  0.000672  0.667043  1
  Bi  Bi7  1  0.000029  0.499327  0.667043  1
  Bi  Bi8  1  0.499999  0.250008  0.167799  1
  Bi  Bi9  1  0.500011  0.749998  0.167451  1
  Bi  Bi10  1  0.499999  0.250008  0.832201  1
  Bi  Bi11  1  0.500011  0.749997  0.832549  1
  O  O12  1  0.199552  0.400281  0.500000  1
  O  O13  1  0.196928  0.901436  0.500000  1
  O  O14  1  0.302570  0.151244  0.000000  1
  O  O15  1  0.302362  0.651177  0.000000  1
  O  O16  1  0.697420  0.348764  0.000000  1
  O  O17  1  0.697648  0.848814  0.000000  1
  O  O18  1  0.800445  0.099717  0.500000  1
  O  O19  1  0.803071  0.598558  0.500000  1
  O  O20  1  0.191188  0.404214  0.163972  1
  O  O21  1  0.191499  0.904352  0.164065  1
  O  O22  1  0.191188  0.404214  0.836028  1
  O  O23  1  0.191499  0.904352  0.835935  1
  O  O24  1  0.309902  0.154904  0.337697  1
  O  O25  1  0.308332  0.654121  0.336232  1
  O  O26  1  0.309902  0.154904  0.662303  1
  O  O27  1  0.308332  0.654121  0.663769  1
  O  O28  1  0.690089  0.345103  0.337699  1
  O  O29  1  0.691673  0.845867  0.336230  1
  O  O30  1  0.690089  0.345103  0.662301  1
  O  O31  1  0.691674  0.845867  0.663770  1
  O  O32  1  0.808817  0.095788  0.163974  1
  O  O33  1  0.808489  0.595641  0.164064  1
  O  O34  1  0.808817  0.095787  0.836026  1
  O  O35  1  0.808490  0.595642  0.835936  1
