# generated using pymatgen
data_Zr6Mn19Si4
_symmetry_space_group_name_H-M   'P 1'
_cell_length_a   8.20231232
_cell_length_b   8.20231139
_cell_length_c   8.26314900
_cell_angle_alpha   59.75433444
_cell_angle_beta   59.75433824
_cell_angle_gamma   60.49132190
_symmetry_Int_Tables_number   1
_chemical_formula_structural   Zr6Mn19Si4
_chemical_formula_sum   'Zr6 Mn19 Si4'
_cell_volume   393.05649551
_cell_formula_units_Z   1
loop_
 _symmetry_equiv_pos_site_id
 _symmetry_equiv_pos_as_xyz
  1  'x, y, z'
loop_
 _atom_site_type_symbol
 _atom_site_label
 _atom_site_symmetry_multiplicity
 _atom_site_fract_x
 _atom_site_fract_y
 _atom_site_fract_z
 _atom_site_occupancy
  Zr  Zr0  1  0.701799  0.298201  0.298201  1
  Zr  Zr1  1  0.295660  0.295660  0.704340  1
  Zr  Zr2  1  0.298201  0.701799  0.701799  1
  Zr  Zr3  1  0.704340  0.704340  0.295660  1
  Zr  Zr4  1  0.298201  0.701799  0.298201  1
  Zr  Zr5  1  0.701799  0.298201  0.701799  1
  Mn  Mn6  1  0.000000  0.000000  0.500000  1
  Mn  Mn7  1  0.000000  0.000000  0.000000  1
  Mn  Mn8  1  0.500000  0.500000  0.000000  1
  Mn  Mn9  1  0.118040  0.118040  0.642548  1
  Mn  Mn10  1  0.681386  0.971621  0.673496  1
  Mn  Mn11  1  0.357452  0.878626  0.881960  1
  Mn  Mn12  1  0.028379  0.318614  0.326504  1
  Mn  Mn13  1  0.971621  0.681386  0.673496  1
  Mn  Mn14  1  0.326504  0.326504  0.028379  1
  Mn  Mn15  1  0.673496  0.673496  0.971621  1
  Mn  Mn16  1  0.642548  0.121374  0.118040  1
  Mn  Mn17  1  0.673496  0.673496  0.681386  1
  Mn  Mn18  1  0.881960  0.881960  0.357452  1
  Mn  Mn19  1  0.118040  0.118040  0.121374  1
  Mn  Mn20  1  0.878626  0.357452  0.881960  1
  Mn  Mn21  1  0.881960  0.881960  0.878626  1
  Mn  Mn22  1  0.326504  0.326504  0.318614  1
  Mn  Mn23  1  0.121374  0.642548  0.118040  1
  Mn  Mn24  1  0.318614  0.028379  0.326504  1
  Si  Si25  1  0.000000  0.500000  0.000000  1
  Si  Si26  1  0.500000  0.000000  0.500000  1
  Si  Si27  1  0.500000  0.000000  0.000000  1
  Si  Si28  1  0.000000  0.500000  0.500000  1
