# generated using pymatgen
data_ErThWC2
_symmetry_space_group_name_H-M   'P 1'
_cell_length_a   5.24175500
_cell_length_b   6.78067500
_cell_length_c   9.94824900
_cell_angle_alpha   90.00000000
_cell_angle_beta   90.00000000
_cell_angle_gamma   90.00000000
_symmetry_Int_Tables_number   1
_chemical_formula_structural   ErThWC2
_chemical_formula_sum   'Er4 Th4 W4 C8'
_cell_volume   353.58700383
_cell_formula_units_Z   4
loop_
 _symmetry_equiv_pos_site_id
 _symmetry_equiv_pos_as_xyz
  1  'x, y, z'
loop_
 _atom_site_type_symbol
 _atom_site_label
 _atom_site_symmetry_multiplicity
 _atom_site_fract_x
 _atom_site_fract_y
 _atom_site_fract_z
 _atom_site_occupancy
  Er  Er0  1  0.250000  0.829560  0.056004  1
  Er  Er1  1  0.750000  0.670440  0.556004  1
  Er  Er2  1  0.250000  0.329560  0.443996  1
  Er  Er3  1  0.750000  0.170440  0.943996  1
  Th  Th4  1  0.250000  0.463664  0.787534  1
  Th  Th5  1  0.750000  0.036336  0.287534  1
  Th  Th6  1  0.250000  0.963664  0.712466  1
  Th  Th7  1  0.750000  0.536336  0.212466  1
  W  W8  1  0.250000  0.279209  0.131836  1
  W  W9  1  0.750000  0.220791  0.631836  1
  W  W10  1  0.250000  0.779209  0.368164  1
  W  W11  1  0.750000  0.720791  0.868164  1
  C  C12  1  0.250000  0.166578  0.945583  1
  C  C13  1  0.750000  0.833422  0.054417  1
  C  C14  1  0.250000  0.666578  0.554417  1
  C  C15  1  0.750000  0.333422  0.445583  1
  C  C16  1  0.250000  0.047934  0.261018  1
  C  C17  1  0.750000  0.452066  0.761018  1
  C  C18  1  0.250000  0.547934  0.238982  1
  C  C19  1  0.750000  0.952066  0.738982  1
