# generated using pymatgen
data_Tb5Y3V4O20
_symmetry_space_group_name_H-M   'P 1'
_cell_length_a   3.74779300
_cell_length_b   10.42569061
_cell_length_c   11.30244366
_cell_angle_alpha   89.96094526
_cell_angle_beta   90.00000000
_cell_angle_gamma   90.00000000
_symmetry_Int_Tables_number   1
_chemical_formula_structural   Tb5Y3V4O20
_chemical_formula_sum   'Tb5 Y3 V4 O20'
_cell_volume   441.62401127
_cell_formula_units_Z   1
loop_
 _symmetry_equiv_pos_site_id
 _symmetry_equiv_pos_as_xyz
  1  'x, y, z'
loop_
 _atom_site_type_symbol
 _atom_site_label
 _atom_site_symmetry_multiplicity
 _atom_site_fract_x
 _atom_site_fract_y
 _atom_site_fract_z
 _atom_site_occupancy
  Tb  Tb0  1  0.750000  0.363240  0.444903  1
  Tb  Tb1  1  0.750000  0.381337  0.774187  1
  Tb  Tb2  1  0.750000  0.881207  0.725982  1
  Tb  Tb3  1  0.250000  0.618920  0.225905  1
  Tb  Tb4  1  0.250000  0.118365  0.273864  1
  Y  Y5  1  0.250000  0.136874  0.944973  1
  Y  Y6  1  0.250000  0.637217  0.555218  1
  Y  Y7  1  0.750000  0.863147  0.054953  1
  V  V8  1  0.250000  0.171017  0.618473  1
  V  V9  1  0.250000  0.671305  0.881562  1
  V  V10  1  0.750000  0.828677  0.381565  1
  V  V11  1  0.750000  0.328646  0.118347  1
  O  O12  1  0.250000  0.225950  0.457687  1
  O  O13  1  0.250000  0.726804  0.042133  1
  O  O14  1  0.750000  0.773406  0.542256  1
  O  O15  1  0.750000  0.273239  0.957747  1
  O  O16  1  0.250000  0.494732  0.395253  1
  O  O17  1  0.250000  0.994079  0.104834  1
  O  O18  1  0.750000  0.506251  0.605399  1
  O  O19  1  0.750000  0.005894  0.895037  1
  O  O20  1  0.250000  0.266197  0.116059  1
  O  O21  1  0.250000  0.766305  0.383799  1
  O  O22  1  0.750000  0.733889  0.883835  1
  O  O23  1  0.750000  0.234092  0.616028  1
  O  O24  1  0.250000  0.008566  0.653738  1
  O  O25  1  0.250000  0.508681  0.846486  1
  O  O26  1  0.750000  0.991278  0.346388  1
  O  O27  1  0.750000  0.491156  0.153923  1
  O  O28  1  0.250000  0.257690  0.768957  1
  O  O29  1  0.250000  0.757760  0.730969  1
  O  O30  1  0.750000  0.742379  0.230895  1
  O  O31  1  0.750000  0.241702  0.268645  1
