# generated using pymatgen
data_Pr8Si12Ir3Au
_symmetry_space_group_name_H-M   'P 1'
_cell_length_a   8.29189300
_cell_length_b   8.29189463
_cell_length_c   8.63449600
_cell_angle_alpha   90.00000000
_cell_angle_beta   90.00000000
_cell_angle_gamma   120.00000546
_symmetry_Int_Tables_number   1
_chemical_formula_structural   Pr8Si12Ir3Au
_chemical_formula_sum   'Pr8 Si12 Ir3 Au1'
_cell_volume   514.13250759
_cell_formula_units_Z   1
loop_
 _symmetry_equiv_pos_site_id
 _symmetry_equiv_pos_as_xyz
  1  'x, y, z'
loop_
 _atom_site_type_symbol
 _atom_site_label
 _atom_site_symmetry_multiplicity
 _atom_site_fract_x
 _atom_site_fract_y
 _atom_site_fract_z
 _atom_site_occupancy
  Pr  Pr0  1  0.496036  0.503964  0.755113  1
  Pr  Pr1  1  0.498440  0.501560  0.245281  1
  Pr  Pr2  1  0.007927  0.503964  0.755113  1
  Pr  Pr3  1  0.003122  0.501560  0.245281  1
  Pr  Pr4  1  0.496036  0.992073  0.755113  1
  Pr  Pr5  1  0.498440  0.996878  0.245281  1
  Pr  Pr6  1  0.000000  0.000000  0.749941  1
  Pr  Pr7  1  0.000000  0.000000  0.248693  1
  Si  Si8  1  0.832535  0.167465  0.001772  1
  Si  Si9  1  0.166506  0.833494  0.998311  1
  Si  Si10  1  0.334928  0.167465  0.001772  1
  Si  Si11  1  0.168345  0.831655  0.502132  1
  Si  Si12  1  0.666989  0.833494  0.998311  1
  Si  Si13  1  0.838882  0.161118  0.497249  1
  Si  Si14  1  0.832535  0.665072  0.001772  1
  Si  Si15  1  0.663310  0.831655  0.502132  1
  Si  Si16  1  0.166506  0.333011  0.998311  1
  Si  Si17  1  0.322236  0.161118  0.497249  1
  Si  Si18  1  0.168345  0.336690  0.502132  1
  Si  Si19  1  0.838882  0.677764  0.497249  1
  Ir  Ir20  1  0.666667  0.333333  0.993685  1
  Ir  Ir21  1  0.333333  0.666667  0.005790  1
  Ir  Ir22  1  0.333333  0.666667  0.495094  1
  Au  Au23  1  0.666667  0.333333  0.507217  1
