# generated using pymatgen
data_CoTc5NiAs12
_symmetry_space_group_name_H-M   'P 1'
_cell_length_a   3.17788300
_cell_length_b   12.66874514
_cell_length_c   15.74127144
_cell_angle_alpha   90.04880065
_cell_angle_beta   90.00000000
_cell_angle_gamma   90.00000000
_symmetry_Int_Tables_number   1
_chemical_formula_structural   CoTc5NiAs12
_chemical_formula_sum   'Co2 Tc10 Ni2 As24'
_cell_volume   633.74004961
_cell_formula_units_Z   2
loop_
 _symmetry_equiv_pos_site_id
 _symmetry_equiv_pos_as_xyz
  1  'x, y, z'
loop_
 _atom_site_type_symbol
 _atom_site_label
 _atom_site_symmetry_multiplicity
 _atom_site_fract_x
 _atom_site_fract_y
 _atom_site_fract_z
 _atom_site_occupancy
  Co  Co0  1  0.000000  0.371565  0.842386  1
  Co  Co1  1  0.000000  0.628435  0.157614  1
  Tc  Tc2  1  0.000000  0.184331  0.600271  1
  Tc  Tc3  1  0.000000  0.815669  0.399729  1
  Tc  Tc4  1  0.500000  0.683503  0.901094  1
  Tc  Tc5  1  0.500000  0.316497  0.098906  1
  Tc  Tc6  1  0.000000  0.579798  0.761116  1
  Tc  Tc7  1  0.000000  0.420202  0.238884  1
  Tc  Tc8  1  0.500000  0.078260  0.738117  1
  Tc  Tc9  1  0.500000  0.921740  0.261883  1
  Tc  Tc10  1  0.000000  0.000000  0.000000  1
  Tc  Tc11  1  0.500000  0.500000  0.500000  1
  Ni  Ni12  1  0.500000  0.871586  0.655154  1
  Ni  Ni13  1  0.500000  0.128414  0.344846  1
  As  As14  1  0.000000  0.592257  0.598938  1
  As  As15  1  0.000000  0.407743  0.401062  1
  As  As16  1  0.500000  0.094246  0.901789  1
  As  As17  1  0.500000  0.905754  0.098211  1
  As  As18  1  0.000000  0.931214  0.765619  1
  As  As19  1  0.000000  0.068786  0.234381  1
  As  As20  1  0.500000  0.429914  0.738660  1
  As  As21  1  0.500000  0.570086  0.261340  1
  As  As22  1  0.000000  0.774706  0.243538  1
  As  As23  1  0.000000  0.225294  0.756462  1
  As  As24  1  0.500000  0.274428  0.253642  1
  As  As25  1  0.500000  0.725572  0.746358  1
  As  As26  1  0.000000  0.840264  0.911406  1
  As  As27  1  0.000000  0.159736  0.088594  1
  As  As28  1  0.500000  0.343757  0.592361  1
  As  As29  1  0.500000  0.656243  0.407639  1
  As  As30  1  0.000000  0.530647  0.921624  1
  As  As31  1  0.000000  0.469353  0.078376  1
  As  As32  1  0.500000  0.034343  0.577709  1
  As  As33  1  0.500000  0.965657  0.422291  1
  As  As34  1  0.000000  0.790656  0.559713  1
  As  As35  1  0.000000  0.209344  0.440287  1
  As  As36  1  0.500000  0.294292  0.937175  1
  As  As37  1  0.500000  0.705708  0.062825  1
