# generated using pymatgen
data_SmPa7(ZnRh)8
_symmetry_space_group_name_H-M   'P 1'
_cell_length_a   3.82118200
_cell_length_b   7.38984101
_cell_length_c   16.34490411
_cell_angle_alpha   90.44808583
_cell_angle_beta   90.00000000
_cell_angle_gamma   90.00000000
_symmetry_Int_Tables_number   1
_chemical_formula_structural   SmPa7(ZnRh)8
_chemical_formula_sum   'Sm1 Pa7 Zn8 Rh8'
_cell_volume   461.53210203
_cell_formula_units_Z   1
loop_
 _symmetry_equiv_pos_site_id
 _symmetry_equiv_pos_as_xyz
  1  'x, y, z'
loop_
 _atom_site_type_symbol
 _atom_site_label
 _atom_site_symmetry_multiplicity
 _atom_site_fract_x
 _atom_site_fract_y
 _atom_site_fract_z
 _atom_site_occupancy
  Sm  Sm0  1  0.250000  0.554327  0.786886  1
  Pa  Pa1  1  0.250000  0.168250  0.939440  1
  Pa  Pa2  1  0.250000  0.676560  0.560780  1
  Pa  Pa3  1  0.750000  0.335832  0.439408  1
  Pa  Pa4  1  0.750000  0.941722  0.285114  1
  Pa  Pa5  1  0.750000  0.829331  0.061848  1
  Pa  Pa6  1  0.750000  0.440162  0.215593  1
  Pa  Pa7  1  0.250000  0.054028  0.715058  1
  Zn  Zn8  1  0.750000  0.014544  0.556771  1
  Zn  Zn9  1  0.250000  0.612822  0.343818  1
  Zn  Zn10  1  0.750000  0.390383  0.657463  1
  Zn  Zn11  1  0.250000  0.492269  0.062422  1
  Zn  Zn12  1  0.750000  0.502878  0.938915  1
  Zn  Zn13  1  0.250000  0.997441  0.438314  1
  Zn  Zn14  1  0.250000  0.113699  0.156100  1
  Zn  Zn15  1  0.750000  0.873136  0.844681  1
  Rh  Rh16  1  0.750000  0.736759  0.440599  1
  Rh  Rh17  1  0.250000  0.241649  0.314463  1
  Rh  Rh18  1  0.750000  0.226578  0.815841  1
  Rh  Rh19  1  0.750000  0.778872  0.676473  1
  Rh  Rh20  1  0.250000  0.273029  0.557126  1
  Rh  Rh21  1  0.250000  0.743001  0.187116  1
  Rh  Rh22  1  0.750000  0.234135  0.057369  1
  Rh  Rh23  1  0.250000  0.768595  0.948402  1
