# generated using pymatgen
data_Y3Er2TmReBi2
_symmetry_space_group_name_H-M   'P 1'
_cell_length_a   8.23808301
_cell_length_b   8.23808274
_cell_length_c   4.33510800
_cell_angle_alpha   90.00000000
_cell_angle_beta   90.00000000
_cell_angle_gamma   119.99337776
_symmetry_Int_Tables_number   1
_chemical_formula_structural   Y3Er2TmReBi2
_chemical_formula_sum   'Y3 Er2 Tm1 Re1 Bi2'
_cell_volume   254.80728676
_cell_formula_units_Z   1
loop_
 _symmetry_equiv_pos_site_id
 _symmetry_equiv_pos_as_xyz
  1  'x, y, z'
loop_
 _atom_site_type_symbol
 _atom_site_label
 _atom_site_symmetry_multiplicity
 _atom_site_fract_x
 _atom_site_fract_y
 _atom_site_fract_z
 _atom_site_occupancy
  Y  Y0  1  0.609740  0.999862  0.000000  1
  Y  Y1  1  0.999862  0.609740  0.000000  1
  Y  Y2  1  0.390376  0.390376  0.000000  1
  Er  Er3  1  0.230143  0.000054  0.500000  1
  Er  Er4  1  0.000054  0.230143  0.500000  1
  Tm  Tm5  1  0.770102  0.770102  0.500000  1
  Re  Re6  1  0.999497  0.999497  0.000000  1
  Bi  Bi7  1  0.333515  0.666712  0.500000  1
  Bi  Bi8  1  0.666712  0.333515  0.500000  1
