# generated using pymatgen
data_DyCrNi4As3
_symmetry_space_group_name_H-M   'P 1'
_cell_length_a   3.83440300
_cell_length_b   10.87418800
_cell_length_c   12.36708600
_cell_angle_alpha   90.00000000
_cell_angle_beta   90.00000000
_cell_angle_gamma   90.00000000
_symmetry_Int_Tables_number   1
_chemical_formula_structural   DyCrNi4As3
_chemical_formula_sum   'Dy4 Cr4 Ni16 As12'
_cell_volume   515.65825394
_cell_formula_units_Z   4
loop_
 _symmetry_equiv_pos_site_id
 _symmetry_equiv_pos_as_xyz
  1  'x, y, z'
loop_
 _atom_site_type_symbol
 _atom_site_label
 _atom_site_symmetry_multiplicity
 _atom_site_fract_x
 _atom_site_fract_y
 _atom_site_fract_z
 _atom_site_occupancy
  Dy  Dy0  1  0.250000  0.581900  0.704604  1
  Dy  Dy1  1  0.250000  0.918100  0.204604  1
  Dy  Dy2  1  0.750000  0.418100  0.295396  1
  Dy  Dy3  1  0.750000  0.081900  0.795396  1
  Cr  Cr4  1  0.250000  0.704674  0.988931  1
  Cr  Cr5  1  0.250000  0.795326  0.488931  1
  Cr  Cr6  1  0.750000  0.295326  0.011069  1
  Cr  Cr7  1  0.750000  0.204674  0.511069  1
  Ni  Ni8  1  0.250000  0.406589  0.489266  1
  Ni  Ni9  1  0.250000  0.093411  0.989266  1
  Ni  Ni10  1  0.750000  0.593411  0.510734  1
  Ni  Ni11  1  0.750000  0.906589  0.010734  1
  Ni  Ni12  1  0.250000  0.216773  0.177384  1
  Ni  Ni13  1  0.250000  0.283227  0.677384  1
  Ni  Ni14  1  0.750000  0.783227  0.822616  1
  Ni  Ni15  1  0.750000  0.716773  0.322616  1
  Ni  Ni16  1  0.250000  0.883864  0.700376  1
  Ni  Ni17  1  0.250000  0.616136  0.200376  1
  Ni  Ni18  1  0.750000  0.116136  0.299624  1
  Ni  Ni19  1  0.750000  0.383864  0.799624  1
  Ni  Ni20  1  0.250000  0.467447  0.930370  1
  Ni  Ni21  1  0.250000  0.032553  0.430370  1
  Ni  Ni22  1  0.750000  0.532553  0.069630  1
  Ni  Ni23  1  0.750000  0.967447  0.569630  1
  As  As24  1  0.250000  0.416678  0.114663  1
  As  As25  1  0.250000  0.083322  0.614663  1
  As  As26  1  0.750000  0.583322  0.885337  1
  As  As27  1  0.750000  0.916678  0.385337  1
  As  As28  1  0.250000  0.266682  0.869712  1
  As  As29  1  0.250000  0.233318  0.369712  1
  As  As30  1  0.750000  0.733318  0.130288  1
  As  As31  1  0.750000  0.766682  0.630288  1
  As  As32  1  0.250000  0.597802  0.391196  1
  As  As33  1  0.250000  0.902198  0.891196  1
  As  As34  1  0.750000  0.402198  0.608804  1
  As  As35  1  0.750000  0.097802  0.108804  1
