# generated using pymatgen
data_NdAl10TcIr
_symmetry_space_group_name_H-M   'P 1'
_cell_length_a   6.91402168
_cell_length_b   6.90969313
_cell_length_c   9.22699400
_cell_angle_alpha   90.00000000
_cell_angle_beta   90.00000000
_cell_angle_gamma   96.63272260
_symmetry_Int_Tables_number   1
_chemical_formula_structural   NdAl10TcIr
_chemical_formula_sum   'Nd2 Al20 Tc2 Ir2'
_cell_volume   437.85792475
_cell_formula_units_Z   2
loop_
 _symmetry_equiv_pos_site_id
 _symmetry_equiv_pos_as_xyz
  1  'x, y, z'
loop_
 _atom_site_type_symbol
 _atom_site_label
 _atom_site_symmetry_multiplicity
 _atom_site_fract_x
 _atom_site_fract_y
 _atom_site_fract_z
 _atom_site_occupancy
  Nd  Nd0  1  0.870127  0.120473  0.750000  1
  Nd  Nd1  1  0.129873  0.879527  0.250000  1
  Al  Al2  1  0.590242  0.860611  0.250000  1
  Al  Al3  1  0.778745  0.519774  0.250000  1
  Al  Al4  1  0.159888  0.840849  0.898653  1
  Al  Al5  1  0.409758  0.139389  0.750000  1
  Al  Al6  1  0.619832  0.376161  0.950431  1
  Al  Al7  1  0.840112  0.159151  0.398653  1
  Al  Al8  1  0.772146  0.774985  0.999416  1
  Al  Al9  1  0.860001  0.591338  0.750000  1
  Al  Al10  1  0.840112  0.159151  0.101347  1
  Al  Al11  1  0.221255  0.480226  0.750000  1
  Al  Al12  1  0.159888  0.840849  0.601347  1
  Al  Al13  1  0.772146  0.774985  0.500584  1
  Al  Al14  1  0.481638  0.221916  0.250000  1
  Al  Al15  1  0.619832  0.376161  0.549569  1
  Al  Al16  1  0.227854  0.225015  0.499416  1
  Al  Al17  1  0.380168  0.623839  0.450431  1
  Al  Al18  1  0.139999  0.408662  0.250000  1
  Al  Al19  1  0.518362  0.778084  0.750000  1
  Al  Al20  1  0.380168  0.623839  0.049569  1
  Al  Al21  1  0.227854  0.225015  0.000584  1
  Tc  Tc22  1  0.500000  0.000000  0.000000  1
  Tc  Tc23  1  0.500000  0.000000  0.500000  1
  Ir  Ir24  1  0.000000  0.500000  0.000000  1
  Ir  Ir25  1  0.000000  0.500000  0.500000  1
