# generated using pymatgen
data_Tm15Th(InPt)4
_symmetry_space_group_name_H-M   'P 1'
_cell_length_a   9.63097569
_cell_length_b   9.63097477
_cell_length_c   9.63097497
_cell_angle_alpha   60.08495444
_cell_angle_beta   60.08496010
_cell_angle_gamma   60.08495114
_symmetry_Int_Tables_number   1
_chemical_formula_structural   Tm15Th(InPt)4
_chemical_formula_sum   'Tm15 Th1 In4 Pt4'
_cell_volume   632.89410497
_cell_formula_units_Z   1
loop_
 _symmetry_equiv_pos_site_id
 _symmetry_equiv_pos_as_xyz
  1  'x, y, z'
loop_
 _atom_site_type_symbol
 _atom_site_label
 _atom_site_symmetry_multiplicity
 _atom_site_fract_x
 _atom_site_fract_y
 _atom_site_fract_z
 _atom_site_occupancy
  Tm  Tm0  1  0.351338  0.351338  0.944244  1
  Tm  Tm1  1  0.351338  0.944244  0.351338  1
  Tm  Tm2  1  0.944244  0.351338  0.351338  1
  Tm  Tm3  1  0.813272  0.188780  0.188780  1
  Tm  Tm4  1  0.192081  0.809328  0.809328  1
  Tm  Tm5  1  0.188780  0.813272  0.188780  1
  Tm  Tm6  1  0.809328  0.192081  0.809328  1
  Tm  Tm7  1  0.188780  0.188780  0.813272  1
  Tm  Tm8  1  0.809328  0.809328  0.192081  1
  Tm  Tm9  1  0.934411  0.563805  0.563805  1
  Tm  Tm10  1  0.561620  0.937930  0.937930  1
  Tm  Tm11  1  0.563805  0.934411  0.563805  1
  Tm  Tm12  1  0.937930  0.561620  0.937930  1
  Tm  Tm13  1  0.563805  0.563805  0.934411  1
  Tm  Tm14  1  0.937930  0.937930  0.561620  1
  Th  Th15  1  0.350252  0.350252  0.350252  1
  In  In16  1  0.585202  0.585202  0.585202  1
  In  In17  1  0.585652  0.585652  0.247978  1
  In  In18  1  0.585652  0.247978  0.585652  1
  In  In19  1  0.247978  0.585652  0.585652  1
  Pt  Pt20  1  0.143468  0.143468  0.143468  1
  Pt  Pt21  1  0.140203  0.140203  0.573399  1
  Pt  Pt22  1  0.140203  0.573399  0.140203  1
  Pt  Pt23  1  0.573399  0.140203  0.140203  1
