# generated using pymatgen
data_Eu3Ge5AsPd20
_symmetry_space_group_name_H-M   'P 1'
_cell_length_a   8.88402360
_cell_length_b   8.88887541
_cell_length_c   8.88887500
_cell_angle_alpha   59.96390036
_cell_angle_beta   60.01804844
_cell_angle_gamma   60.01805648
_symmetry_Int_Tables_number   1
_chemical_formula_structural   Eu3Ge5AsPd20
_chemical_formula_sum   'Eu3 Ge5 As1 Pd20'
_cell_volume   496.35006443
_cell_formula_units_Z   1
loop_
 _symmetry_equiv_pos_site_id
 _symmetry_equiv_pos_as_xyz
  1  'x, y, z'
loop_
 _atom_site_type_symbol
 _atom_site_label
 _atom_site_symmetry_multiplicity
 _atom_site_fract_x
 _atom_site_fract_y
 _atom_site_fract_z
 _atom_site_occupancy
  Eu  Eu0  1  0.249526  0.250474  0.250474  1
  Eu  Eu1  1  0.749526  0.750474  0.750474  1
  Eu  Eu2  1  0.000973  0.999027  0.999027  1
  Ge  Ge3  1  0.267865  0.732135  0.732135  1
  Ge  Ge4  1  0.266804  0.733196  0.268029  1
  Ge  Ge5  1  0.731971  0.268029  0.733196  1
  Ge  Ge6  1  0.266804  0.268029  0.733196  1
  Ge  Ge7  1  0.731971  0.733196  0.268029  1
  As  As8  1  0.734383  0.265617  0.265617  1
  Pd  Pd9  1  0.384060  0.384016  0.384016  1
  Pd  Pd10  1  0.616246  0.616905  0.616905  1
  Pd  Pd11  1  0.383095  0.383754  0.850058  1
  Pd  Pd12  1  0.383095  0.850058  0.383754  1
  Pd  Pd13  1  0.615984  0.615940  0.152090  1
  Pd  Pd14  1  0.615984  0.152090  0.615940  1
  Pd  Pd15  1  0.847910  0.384016  0.384016  1
  Pd  Pd16  1  0.149942  0.616905  0.616905  1
  Pd  Pd17  1  0.350366  0.998567  0.998567  1
  Pd  Pd18  1  0.652500  0.998567  0.998567  1
  Pd  Pd19  1  0.001433  0.347500  0.649634  1
  Pd  Pd20  1  0.001433  0.649634  0.347500  1
  Pd  Pd21  1  0.000487  0.349177  0.999513  1
  Pd  Pd22  1  0.650823  0.999513  0.349177  1
  Pd  Pd23  1  0.999792  0.652037  0.000208  1
  Pd  Pd24  1  0.347963  0.000208  0.652037  1
  Pd  Pd25  1  0.000487  0.999513  0.349177  1
  Pd  Pd26  1  0.999792  0.000208  0.652037  1
  Pd  Pd27  1  0.650823  0.349177  0.999513  1
  Pd  Pd28  1  0.347963  0.652037  0.000208  1
