# generated using pymatgen
data_ErTa4(NbCl9)2
_symmetry_space_group_name_H-M   'P 1'
_cell_length_a   10.12435099
_cell_length_b   10.12340815
_cell_length_c   10.12220800
_cell_angle_alpha   55.99214958
_cell_angle_beta   56.00671500
_cell_angle_gamma   55.99908923
_symmetry_Int_Tables_number   1
_chemical_formula_structural   ErTa4(NbCl9)2
_chemical_formula_sum   'Er1 Ta4 Nb2 Cl18'
_cell_volume   665.59888825
_cell_formula_units_Z   1
loop_
 _symmetry_equiv_pos_site_id
 _symmetry_equiv_pos_as_xyz
  1  'x, y, z'
loop_
 _atom_site_type_symbol
 _atom_site_label
 _atom_site_symmetry_multiplicity
 _atom_site_fract_x
 _atom_site_fract_y
 _atom_site_fract_z
 _atom_site_occupancy
  Er  Er0  1  0.999543  0.999889  0.000518  1
  Ta  Ta1  1  0.408696  0.301206  0.648967  1
  Ta  Ta2  1  0.350999  0.591609  0.698502  1
  Ta  Ta3  1  0.699567  0.350437  0.591470  1
  Ta  Ta4  1  0.301029  0.649724  0.407817  1
  Nb  Nb5  1  0.650424  0.408177  0.299584  1
  Nb  Nb6  1  0.592324  0.699999  0.349456  1
  Cl  Cl7  1  0.566609  0.159209  0.444780  1
  Cl  Cl8  1  0.223136  0.371119  0.908430  1
  Cl  Cl9  1  0.909898  0.222025  0.373202  1
  Cl  Cl10  1  0.368113  0.909274  0.223244  1
  Cl  Cl11  1  0.778290  0.630023  0.088641  1
  Cl  Cl12  1  0.091669  0.776519  0.629019  1
  Cl  Cl13  1  0.705505  0.958915  0.159150  1
  Cl  Cl14  1  0.955089  0.160471  0.704829  1
  Cl  Cl15  1  0.161254  0.703670  0.955179  1
  Cl  Cl16  1  0.295445  0.045287  0.839075  1
  Cl  Cl17  1  0.044126  0.838435  0.296677  1
  Cl  Cl18  1  0.841619  0.293997  0.041280  1
  Cl  Cl19  1  0.557905  0.431509  0.839014  1
  Cl  Cl20  1  0.161111  0.442022  0.568557  1
  Cl  Cl21  1  0.438953  0.570525  0.161058  1
  Cl  Cl22  1  0.429379  0.838961  0.561048  1
  Cl  Cl23  1  0.840620  0.555305  0.433493  1
  Cl  Cl24  1  0.628699  0.091691  0.777009  1
