# generated using pymatgen
data_DyNp(AlC)6
_symmetry_space_group_name_H-M   'P 1'
_cell_length_a   3.41978700
_cell_length_b   3.41978689
_cell_length_c   17.36131300
_cell_angle_alpha   90.00000000
_cell_angle_beta   90.00000000
_cell_angle_gamma   120.00001075
_symmetry_Int_Tables_number   1
_chemical_formula_structural   DyNp(AlC)6
_chemical_formula_sum   'Dy1 Np1 Al6 C6'
_cell_volume   175.83739917
_cell_formula_units_Z   1
loop_
 _symmetry_equiv_pos_site_id
 _symmetry_equiv_pos_as_xyz
  1  'x, y, z'
loop_
 _atom_site_type_symbol
 _atom_site_label
 _atom_site_symmetry_multiplicity
 _atom_site_fract_x
 _atom_site_fract_y
 _atom_site_fract_z
 _atom_site_occupancy
  Dy  Dy0  1  0.000000  0.000000  0.000000  1
  Np  Np1  1  0.000000  0.000000  0.500000  1
  Al  Al2  1  0.333333  0.666667  0.364240  1
  Al  Al3  1  0.666667  0.333333  0.635760  1
  Al  Al4  1  0.666667  0.333333  0.867656  1
  Al  Al5  1  0.333333  0.666667  0.132344  1
  Al  Al6  1  0.333333  0.666667  0.757277  1
  Al  Al7  1  0.666667  0.333333  0.242723  1
  C  C8  1  0.333333  0.666667  0.904270  1
  C  C9  1  0.666667  0.333333  0.095730  1
  C  C10  1  0.666667  0.333333  0.407357  1
  C  C11  1  0.333333  0.666667  0.592643  1
  C  C12  1  0.333333  0.666667  0.249218  1
  C  C13  1  0.666667  0.333333  0.750782  1
