# generated using pymatgen
data_CeGd2(InNi)3
_symmetry_space_group_name_H-M   'P 1'
_cell_length_a   19.80129615
_cell_length_b   20.29159972
_cell_length_c   10.28131500
_cell_angle_alpha   90.00000000
_cell_angle_beta   90.00000000
_cell_angle_gamma   109.74916568
_symmetry_Int_Tables_number   1
_chemical_formula_structural   CeGd2(InNi)3
_chemical_formula_sum   'Ce1 Gd2 In3 Ni3'
_cell_volume   3888.04866907
_cell_formula_units_Z   1
loop_
 _symmetry_equiv_pos_site_id
 _symmetry_equiv_pos_as_xyz
  1  'x, y, z'
loop_
 _atom_site_type_symbol
 _atom_site_label
 _atom_site_symmetry_multiplicity
 _atom_site_fract_x
 _atom_site_fract_y
 _atom_site_fract_z
 _atom_site_occupancy
  Ce  Ce0  1  0.584372  0.998411  0.000000  1
  Gd  Gd1  1  0.998656  0.585352  0.000000  1
  Gd  Gd2  1  0.414877  0.413264  0.000000  1
  In  In3  1  0.745657  0.744912  0.500000  1
  In  In4  1  0.008541  0.248700  0.500000  1
  In  In5  1  0.247040  0.008023  0.500000  1
  Ni  Ni6  1  0.335801  0.663920  0.500000  1
  Ni  Ni7  1  0.002913  0.003555  0.000000  1
  Ni  Ni8  1  0.662143  0.333863  0.500000  1
