# generated using pymatgen
data_Yb3TmIr8
_symmetry_space_group_name_H-M   'P 1'
_cell_length_a   5.32521100
_cell_length_b   5.32521124
_cell_length_c   8.68510800
_cell_angle_alpha   90.00000000
_cell_angle_beta   90.00000000
_cell_angle_gamma   120.00000469
_symmetry_Int_Tables_number   1
_chemical_formula_structural   Yb3TmIr8
_chemical_formula_sum   'Yb3 Tm1 Ir8'
_cell_volume   213.29442061
_cell_formula_units_Z   1
loop_
 _symmetry_equiv_pos_site_id
 _symmetry_equiv_pos_as_xyz
  1  'x, y, z'
loop_
 _atom_site_type_symbol
 _atom_site_label
 _atom_site_symmetry_multiplicity
 _atom_site_fract_x
 _atom_site_fract_y
 _atom_site_fract_z
 _atom_site_occupancy
  Yb  Yb0  1  0.333334  0.666667  0.437916  1
  Yb  Yb1  1  0.666666  0.333334  0.568373  1
  Yb  Yb2  1  0.666666  0.333334  0.926498  1
  Tm  Tm3  1  0.333334  0.666667  0.069778  1
  Ir  Ir4  1  0.000000  0.000000  0.999200  1
  Ir  Ir5  1  0.341889  0.170944  0.248343  1
  Ir  Ir6  1  0.829057  0.170944  0.248343  1
  Ir  Ir7  1  0.829055  0.658110  0.248343  1
  Ir  Ir8  1  0.000000  0.000000  0.499879  1
  Ir  Ir9  1  0.170763  0.341526  0.751108  1
  Ir  Ir10  1  0.170763  0.829236  0.751108  1
  Ir  Ir11  1  0.658473  0.829236  0.751108  1
