# generated using pymatgen
data_TbHo(Tm4Bi3)2
_symmetry_space_group_name_H-M   'P 1'
_cell_length_a   8.19599000
_cell_length_b   9.43893500
_cell_length_c   11.93720100
_cell_angle_alpha   90.00000000
_cell_angle_beta   90.00000000
_cell_angle_gamma   90.00000000
_symmetry_Int_Tables_number   1
_chemical_formula_structural   TbHo(Tm4Bi3)2
_chemical_formula_sum   'Tb2 Ho2 Tm16 Bi12'
_cell_volume   923.47878283
_cell_formula_units_Z   2
loop_
 _symmetry_equiv_pos_site_id
 _symmetry_equiv_pos_as_xyz
  1  'x, y, z'
loop_
 _atom_site_type_symbol
 _atom_site_label
 _atom_site_symmetry_multiplicity
 _atom_site_fract_x
 _atom_site_fract_y
 _atom_site_fract_z
 _atom_site_occupancy
  Tb  Tb0  1  0.314146  0.250000  0.218365  1
  Tb  Tb1  1  0.814146  0.250000  0.281635  1
  Ho  Ho2  1  0.686389  0.750000  0.782366  1
  Ho  Ho3  1  0.186389  0.750000  0.717634  1
  Tm  Tm4  1  0.353504  0.750000  0.217674  1
  Tm  Tm5  1  0.853504  0.750000  0.282326  1
  Tm  Tm6  1  0.646439  0.250000  0.782301  1
  Tm  Tm7  1  0.146439  0.250000  0.717699  1
  Tm  Tm8  1  0.691881  0.565825  0.059596  1
  Tm  Tm9  1  0.191881  0.934175  0.440404  1
  Tm  Tm10  1  0.308011  0.065873  0.940163  1
  Tm  Tm11  1  0.808011  0.434127  0.559837  1
  Tm  Tm12  1  0.308011  0.434127  0.940163  1
  Tm  Tm13  1  0.808011  0.065873  0.559837  1
  Tm  Tm14  1  0.691881  0.934175  0.059596  1
  Tm  Tm15  1  0.191881  0.565825  0.440404  1
  Tm  Tm16  1  0.476673  0.250000  0.489563  1
  Tm  Tm17  1  0.976673  0.250000  0.010437  1
  Tm  Tm18  1  0.523216  0.750000  0.510907  1
  Tm  Tm19  1  0.023216  0.750000  0.989093  1
  Bi  Bi20  1  0.404073  0.750000  0.958347  1
  Bi  Bi21  1  0.904073  0.750000  0.541653  1
  Bi  Bi22  1  0.596322  0.250000  0.040588  1
  Bi  Bi23  1  0.096322  0.250000  0.459412  1
  Bi  Bi24  1  0.565941  0.994438  0.326375  1
  Bi  Bi25  1  0.065941  0.505562  0.173625  1
  Bi  Bi26  1  0.433788  0.495574  0.673967  1
  Bi  Bi27  1  0.933788  0.004426  0.826033  1
  Bi  Bi28  1  0.433788  0.004426  0.673967  1
  Bi  Bi29  1  0.933788  0.495574  0.826033  1
  Bi  Bi30  1  0.565941  0.505562  0.326375  1
  Bi  Bi31  1  0.065941  0.994438  0.173625  1
