# generated using pymatgen
data_Yb(GdB8)3
_symmetry_space_group_name_H-M   'P 1'
_cell_length_a   7.11476326
_cell_length_b   7.11476382
_cell_length_c   5.84618700
_cell_angle_alpha   90.00000000
_cell_angle_beta   90.00000000
_cell_angle_gamma   109.26672474
_symmetry_Int_Tables_number   1
_chemical_formula_structural   Yb(GdB8)3
_chemical_formula_sum   'Yb1 Gd3 B24'
_cell_volume   279.35876377
_cell_formula_units_Z   1
loop_
 _symmetry_equiv_pos_site_id
 _symmetry_equiv_pos_as_xyz
  1  'x, y, z'
loop_
 _atom_site_type_symbol
 _atom_site_label
 _atom_site_symmetry_multiplicity
 _atom_site_fract_x
 _atom_site_fract_y
 _atom_site_fract_z
 _atom_site_occupancy
  Yb  Yb0  1  0.000000  0.000000  0.000000  1
  Gd  Gd1  1  0.751467  0.248533  0.500000  1
  Gd  Gd2  1  0.500000  0.500000  0.000000  1
  Gd  Gd3  1  0.248533  0.751467  0.500000  1
  B  B4  1  0.174870  0.325359  0.649992  1
  B  B5  1  0.924243  0.575330  0.149396  1
  B  B6  1  0.674641  0.825130  0.649992  1
  B  B7  1  0.424670  0.075757  0.149396  1
  B  B8  1  0.174870  0.325359  0.350008  1
  B  B9  1  0.924243  0.575330  0.850604  1
  B  B10  1  0.674641  0.825130  0.350008  1
  B  B11  1  0.424670  0.075757  0.850604  1
  B  B12  1  0.400272  0.400272  0.500000  1
  B  B13  1  0.149436  0.650871  0.000000  1
  B  B14  1  0.900065  0.900065  0.500000  1
  B  B15  1  0.650871  0.149436  0.000000  1
  B  B16  1  0.325359  0.174870  0.649992  1
  B  B17  1  0.075757  0.424670  0.149396  1
  B  B18  1  0.825130  0.674641  0.649992  1
  B  B19  1  0.575330  0.924243  0.149396  1
  B  B20  1  0.099935  0.099935  0.500000  1
  B  B21  1  0.850564  0.349129  0.000000  1
  B  B22  1  0.599728  0.599728  0.500000  1
  B  B23  1  0.349129  0.850564  0.000000  1
  B  B24  1  0.325359  0.174870  0.350008  1
  B  B25  1  0.075757  0.424670  0.850604  1
  B  B26  1  0.825130  0.674641  0.350008  1
  B  B27  1  0.575330  0.924243  0.850604  1
