# generated using pymatgen
data_Mg4Ga6MoRu
_symmetry_space_group_name_H-M   'P 1'
_cell_length_a   5.22884900
_cell_length_b   5.22884697
_cell_length_c   8.70005500
_cell_angle_alpha   90.00000000
_cell_angle_beta   90.00000000
_cell_angle_gamma   117.32936012
_symmetry_Int_Tables_number   1
_chemical_formula_structural   Mg4Ga6MoRu
_chemical_formula_sum   'Mg4 Ga6 Mo1 Ru1'
_cell_volume   211.31670234
_cell_formula_units_Z   1
loop_
 _symmetry_equiv_pos_site_id
 _symmetry_equiv_pos_as_xyz
  1  'x, y, z'
loop_
 _atom_site_type_symbol
 _atom_site_label
 _atom_site_symmetry_multiplicity
 _atom_site_fract_x
 _atom_site_fract_y
 _atom_site_fract_z
 _atom_site_occupancy
  Mg  Mg0  1  0.675370  0.324630  0.066669  1
  Mg  Mg1  1  0.324568  0.675432  0.931276  1
  Mg  Mg2  1  0.324568  0.675432  0.568724  1
  Mg  Mg3  1  0.675370  0.324630  0.433331  1
  Ga  Ga4  1  0.830439  0.645000  0.750000  1
  Ga  Ga5  1  0.171911  0.358774  0.250000  1
  Ga  Ga6  1  0.355000  0.169561  0.750000  1
  Ga  Ga7  1  0.641226  0.828089  0.250000  1
  Ga  Ga8  1  0.002369  0.997631  0.499289  1
  Ga  Ga9  1  0.002369  0.997631  0.000711  1
  Mo  Mo10  1  0.842139  0.157861  0.750000  1
  Ru  Ru11  1  0.154674  0.845326  0.250000  1
