# generated using pymatgen
data_Yb2YIn3Ge2Pt
_symmetry_space_group_name_H-M   'P 1'
_cell_length_a   7.36069800
_cell_length_b   7.32520023
_cell_length_c   4.38811500
_cell_angle_alpha   90.00000000
_cell_angle_beta   90.00000000
_cell_angle_gamma   120.16043362
_symmetry_Int_Tables_number   1
_chemical_formula_structural   Yb2YIn3Ge2Pt
_chemical_formula_sum   'Yb2 Y1 In3 Ge2 Pt1'
_cell_volume   204.57038555
_cell_formula_units_Z   1
loop_
 _symmetry_equiv_pos_site_id
 _symmetry_equiv_pos_as_xyz
  1  'x, y, z'
loop_
 _atom_site_type_symbol
 _atom_site_label
 _atom_site_symmetry_multiplicity
 _atom_site_fract_x
 _atom_site_fract_y
 _atom_site_fract_z
 _atom_site_occupancy
  Yb  Yb0  1  0.999142  0.411265  0.000000  1
  Yb  Yb1  1  0.587877  0.588734  0.000000  1
  Y  Y2  1  0.411620  0.000000  0.000000  1
  In  In3  1  0.756092  0.000000  0.499999  1
  In  In4  1  0.245912  0.247422  0.499999  1
  In  In5  1  0.998490  0.752578  0.499999  1
  Ge  Ge6  1  0.661930  0.328072  0.499999  1
  Ge  Ge7  1  0.333858  0.671928  0.499999  1
  Pt  Pt8  1  0.005078  0.000000  0.000000  1
