# generated using pymatgen
data_Sr4CuNiH12
_symmetry_space_group_name_H-M   'P 1'
_cell_length_a   7.41807058
_cell_length_b   7.41806976
_cell_length_c   5.45366340
_cell_angle_alpha   90.06912728
_cell_angle_beta   90.06912060
_cell_angle_gamma   136.93462884
_symmetry_Int_Tables_number   1
_chemical_formula_structural   Sr4CuNiH12
_chemical_formula_sum   'Sr4 Cu1 Ni1 H12'
_cell_volume   204.91886631
_cell_formula_units_Z   1
loop_
 _symmetry_equiv_pos_site_id
 _symmetry_equiv_pos_as_xyz
  1  'x, y, z'
loop_
 _atom_site_type_symbol
 _atom_site_label
 _atom_site_symmetry_multiplicity
 _atom_site_fract_x
 _atom_site_fract_y
 _atom_site_fract_z
 _atom_site_occupancy
  Sr  Sr0  1  0.143364  0.856636  0.500000  1
  Sr  Sr1  1  0.644073  0.355927  0.000000  1
  Sr  Sr2  1  0.856636  0.143364  0.500000  1
  Sr  Sr3  1  0.355927  0.644073  0.000000  1
  Cu  Cu4  1  0.000000  0.000000  0.000000  1
  Ni  Ni5  1  0.500000  0.500000  0.500000  1
  H  H6  1  0.999463  0.500057  0.748867  1
  H  H7  1  0.499943  0.000537  0.251133  1
  H  H8  1  0.000537  0.499943  0.251133  1
  H  H9  1  0.500057  0.999463  0.748867  1
  H  H10  1  0.387968  0.612032  0.500000  1
  H  H11  1  0.886135  0.113865  0.000000  1
  H  H12  1  0.612032  0.387968  0.500000  1
  H  H13  1  0.113865  0.886135  0.000000  1
  H  H14  1  0.285248  0.285248  0.715956  1
  H  H15  1  0.714752  0.714752  0.284044  1
  H  H16  1  0.279743  0.279743  0.280162  1
  H  H17  1  0.720257  0.720257  0.719838  1
