# generated using pymatgen
data_Ac2Tb(SnIr)3
_symmetry_space_group_name_H-M   'P 1'
_cell_length_a   7.60439641
_cell_length_b   7.60439748
_cell_length_c   4.28613500
_cell_angle_alpha   90.00000000
_cell_angle_beta   90.00000000
_cell_angle_gamma   119.64539850
_symmetry_Int_Tables_number   1
_chemical_formula_structural   Ac2Tb(SnIr)3
_chemical_formula_sum   'Ac2 Tb1 Sn3 Ir3'
_cell_volume   215.41046210
_cell_formula_units_Z   1
loop_
 _symmetry_equiv_pos_site_id
 _symmetry_equiv_pos_as_xyz
  1  'x, y, z'
loop_
 _atom_site_type_symbol
 _atom_site_label
 _atom_site_symmetry_multiplicity
 _atom_site_fract_x
 _atom_site_fract_y
 _atom_site_fract_z
 _atom_site_occupancy
  Ac  Ac0  1  0.581736  0.998043  0.000000  1
  Ac  Ac1  1  0.998043  0.581736  0.000000  1
  Tb  Tb2  1  0.407950  0.407950  0.000000  1
  Sn  Sn3  1  0.246906  0.007291  0.500000  1
  Sn  Sn4  1  0.007291  0.246906  0.500000  1
  Sn  Sn5  1  0.750732  0.750732  0.500000  1
  Ir  Ir6  1  0.341228  0.652217  0.500000  1
  Ir  Ir7  1  0.652217  0.341228  0.500000  1
  Ir  Ir8  1  0.013896  0.013896  0.000000  1
