# generated using pymatgen
data_Ho6Al19Fe2Si5Os6
_symmetry_space_group_name_H-M   'P 1'
_cell_length_a   8.66374400
_cell_length_b   8.64770550
_cell_length_c   9.48813100
_cell_angle_alpha   90.00000000
_cell_angle_beta   90.00000000
_cell_angle_gamma   120.06137045
_symmetry_Int_Tables_number   1
_chemical_formula_structural   Ho6Al19Fe2Si5Os6
_chemical_formula_sum   'Ho6 Al19 Fe2 Si5 Os6'
_cell_volume   615.24614612
_cell_formula_units_Z   1
loop_
 _symmetry_equiv_pos_site_id
 _symmetry_equiv_pos_as_xyz
  1  'x, y, z'
loop_
 _atom_site_type_symbol
 _atom_site_label
 _atom_site_symmetry_multiplicity
 _atom_site_fract_x
 _atom_site_fract_y
 _atom_site_fract_z
 _atom_site_occupancy
  Ho  Ho0  1  0.195708  0.391415  0.250000  1
  Ho  Ho1  1  0.805126  0.610254  0.750000  1
  Ho  Ho2  1  0.606703  0.805132  0.250000  1
  Ho  Ho3  1  0.391330  0.195901  0.750000  1
  Ho  Ho4  1  0.198430  0.805132  0.250000  1
  Ho  Ho5  1  0.804570  0.195901  0.750000  1
  Al  Al6  1  0.160771  0.321542  0.577006  1
  Al  Al7  1  0.838658  0.677316  0.422629  1
  Al  Al8  1  0.677807  0.839273  0.575862  1
  Al  Al9  1  0.838658  0.677316  0.077371  1
  Al  Al10  1  0.320977  0.161606  0.423071  1
  Al  Al11  1  0.160771  0.321542  0.922994  1
  Al  Al12  1  0.161466  0.839273  0.575862  1
  Al  Al13  1  0.320977  0.161606  0.076929  1
  Al  Al14  1  0.840629  0.161606  0.423071  1
  Al  Al15  1  0.677807  0.839273  0.924138  1
  Al  Al16  1  0.840629  0.161606  0.076929  1
  Al  Al17  1  0.161466  0.839273  0.924138  1
  Al  Al18  1  0.436898  0.873796  0.750000  1
  Al  Al19  1  0.871885  0.432452  0.250000  1
  Al  Al20  1  0.128329  0.564924  0.750000  1
  Al  Al21  1  0.560567  0.432452  0.250000  1
  Al  Al22  1  0.436597  0.564924  0.750000  1
  Al  Al23  1  0.999772  0.999543  0.250000  1
  Al  Al24  1  0.000311  0.000622  0.750000  1
  Fe  Fe25  1  0.999576  0.999152  0.999902  1
  Fe  Fe26  1  0.999576  0.999152  0.500098  1
  Si  Si27  1  0.332744  0.665489  0.034796  1
  Si  Si28  1  0.667360  0.334719  0.963133  1
  Si  Si29  1  0.667360  0.334719  0.536867  1
  Si  Si30  1  0.332744  0.665489  0.465204  1
  Si  Si31  1  0.563706  0.127413  0.250000  1
  Os  Os32  1  0.501021  0.002041  0.005811  1
  Os  Os33  1  0.999045  0.499027  0.000547  1
  Os  Os34  1  0.501021  0.002041  0.494189  1
  Os  Os35  1  0.499981  0.499027  0.000547  1
  Os  Os36  1  0.999045  0.499027  0.499453  1
  Os  Os37  1  0.499981  0.499027  0.499453  1
