# generated using pymatgen
data_CaNdMnFeO6
_symmetry_space_group_name_H-M   'P 1'
_cell_length_a   7.74281420
_cell_length_b   9.41689061
_cell_length_c   7.74276662
_cell_angle_alpha   113.77692378
_cell_angle_beta   90.93074366
_cell_angle_gamma   113.77724171
_symmetry_Int_Tables_number   1
_chemical_formula_structural   CaNdMnFeO6
_chemical_formula_sum   'Ca4 Nd4 Mn4 Fe4 O24'
_cell_volume   461.87934188
_cell_formula_units_Z   4
loop_
 _symmetry_equiv_pos_site_id
 _symmetry_equiv_pos_as_xyz
  1  'x, y, z'
loop_
 _atom_site_type_symbol
 _atom_site_label
 _atom_site_symmetry_multiplicity
 _atom_site_fract_x
 _atom_site_fract_y
 _atom_site_fract_z
 _atom_site_occupancy
  Ca  Ca0  1  0.641861  0.249803  0.098176  1
  Ca  Ca1  1  0.141864  0.249800  0.598175  1
  Ca  Ca2  1  0.348179  0.749803  0.391861  1
  Ca  Ca3  1  0.848175  0.749805  0.891864  1
  Nd  Nd4  1  0.152087  0.249918  0.108588  1
  Nd  Nd5  1  0.652083  0.249912  0.608582  1
  Nd  Nd6  1  0.858594  0.749910  0.402080  1
  Nd  Nd7  1  0.358584  0.749910  0.902085  1
  Mn  Mn8  1  0.000763  0.499767  0.499315  1
  Mn  Mn9  1  0.500761  0.499782  0.999343  1
  Mn  Mn10  1  0.249331  0.999781  0.250754  1
  Mn  Mn11  1  0.749301  0.999756  0.750755  1
  Fe  Fe12  1  0.251697  0.000316  0.748955  1
  Fe  Fe13  1  0.498940  0.500304  0.501687  1
  Fe  Fe14  1  0.751694  0.000319  0.248967  1
  Fe  Fe15  1  0.998961  0.500305  0.001680  1
  O  O16  1  0.597220  0.754637  0.577530  1
  O  O17  1  0.097215  0.754633  0.077525  1
  O  O18  1  0.827530  0.254639  0.347220  1
  O  O19  1  0.327528  0.254636  0.847221  1
  O  O20  1  0.974239  0.957147  0.765409  1
  O  O21  1  0.474236  0.957147  0.265410  1
  O  O22  1  0.515417  0.457152  0.224232  1
  O  O23  1  0.015414  0.457151  0.724243  1
  O  O24  1  0.776859  0.543612  0.558697  1
  O  O25  1  0.276859  0.543609  0.058693  1
  O  O26  1  0.308688  0.043608  0.026859  1
  O  O27  1  0.808688  0.043608  0.526855  1
  O  O28  1  0.672309  0.745512  0.152947  1
  O  O29  1  0.172311  0.745513  0.652943  1
  O  O30  1  0.902944  0.245507  0.922302  1
  O  O31  1  0.402939  0.245507  0.422310  1
  O  O32  1  0.983731  0.541575  0.275017  1
  O  O33  1  0.483734  0.541583  0.775009  1
  O  O34  1  0.525009  0.041577  0.733724  1
  O  O35  1  0.025017  0.041580  0.233723  1
  O  O36  1  0.190317  0.957720  0.474301  1
  O  O37  1  0.690321  0.957722  0.974302  1
  O  O38  1  0.724299  0.457717  0.940328  1
  O  O39  1  0.224300  0.457723  0.440330  1
