# generated using pymatgen
data_U(S4Cl3)2
_symmetry_space_group_name_H-M   'P 1'
_cell_length_a   8.66294793
_cell_length_b   8.66956318
_cell_length_c   14.91233127
_cell_angle_alpha   95.58852229
_cell_angle_beta   99.17573665
_cell_angle_gamma   90.06490035
_symmetry_Int_Tables_number   1
_chemical_formula_structural   U(S4Cl3)2
_chemical_formula_sum   'U2 S16 Cl12'
_cell_volume   1100.23056369
_cell_formula_units_Z   2
loop_
 _symmetry_equiv_pos_site_id
 _symmetry_equiv_pos_as_xyz
  1  'x, y, z'
loop_
 _atom_site_type_symbol
 _atom_site_label
 _atom_site_symmetry_multiplicity
 _atom_site_fract_x
 _atom_site_fract_y
 _atom_site_fract_z
 _atom_site_occupancy
  U  U0  1  0.712612  0.223457  0.892744  1
  U  U1  1  0.287388  0.776543  0.107256  1
  S  S2  1  0.422126  0.749384  0.655966  1
  S  S3  1  0.577874  0.250616  0.344034  1
  S  S4  1  0.266323  0.894494  0.587914  1
  S  S5  1  0.733677  0.105506  0.412086  1
  S  S6  1  0.093291  0.952774  0.664620  1
  S  S7  1  0.906709  0.047226  0.335380  1
  S  S8  1  0.900663  0.810043  0.619158  1
  S  S9  1  0.099337  0.189957  0.380842  1
  S  S10  1  0.905255  0.629758  0.699984  1
  S  S11  1  0.094745  0.370242  0.300016  1
  S  S12  1  0.999791  0.438406  0.637291  1
  S  S13  1  0.000209  0.561594  0.362709  1
  S  S14  1  0.233163  0.426673  0.690966  1
  S  S15  1  0.766837  0.573327  0.309034  1
  S  S16  1  0.634642  0.477189  0.393449  1
  S  S17  1  0.365358  0.522811  0.606551  1
  Cl  Cl18  1  0.754051  0.251223  0.061261  1
  Cl  Cl19  1  0.245949  0.748777  0.938739  1
  Cl  Cl20  1  0.671202  0.195274  0.723884  1
  Cl  Cl21  1  0.328798  0.804726  0.276116  1
  Cl  Cl22  1  0.437516  0.143492  0.888917  1
  Cl  Cl23  1  0.562484  0.856508  0.111083  1
  Cl  Cl24  1  0.633012  0.497155  0.891895  1
  Cl  Cl25  1  0.366988  0.502845  0.108105  1
  Cl  Cl26  1  0.987400  0.304234  0.895754  1
  Cl  Cl27  1  0.012600  0.695766  0.104246  1
  Cl  Cl28  1  0.792015  0.949600  0.892731  1
  Cl  Cl29  1  0.207985  0.050400  0.107269  1
