# generated using pymatgen
data_Er3TmGa5GeIr7
_symmetry_space_group_name_H-M   'P 1'
_cell_length_a   7.26592396
_cell_length_b   7.26596950
_cell_length_c   7.26597052
_cell_angle_alpha   109.68291612
_cell_angle_beta   109.34447727
_cell_angle_gamma   109.34447194
_symmetry_Int_Tables_number   1
_chemical_formula_structural   Er3TmGa5GeIr7
_chemical_formula_sum   'Er3 Tm1 Ga5 Ge1 Ir7'
_cell_volume   295.44468767
_cell_formula_units_Z   1
loop_
 _symmetry_equiv_pos_site_id
 _symmetry_equiv_pos_as_xyz
  1  'x, y, z'
loop_
 _atom_site_type_symbol
 _atom_site_label
 _atom_site_symmetry_multiplicity
 _atom_site_fract_x
 _atom_site_fract_y
 _atom_site_fract_z
 _atom_site_occupancy
  Er  Er0  1  0.000011  0.001680  0.500776  1
  Er  Er1  1  0.000011  0.500776  0.001680  1
  Er  Er2  1  0.500911  0.001696  0.001696  1
  Tm  Tm3  1  0.499098  0.500797  0.500797  1
  Ga  Ga4  1  0.685882  0.686773  0.000627  1
  Ga  Ga5  1  0.314108  0.001137  0.314980  1
  Ga  Ga6  1  0.000264  0.310971  0.310971  1
  Ga  Ga7  1  0.314108  0.314980  0.001137  1
  Ga  Ga8  1  0.685882  0.000627  0.686773  1
  Ge  Ge9  1  0.999736  0.682591  0.682591  1
  Ir  Ir10  1  0.750128  0.251199  0.500641  1
  Ir  Ir11  1  0.750128  0.500641  0.251199  1
  Ir  Ir12  1  0.499996  0.251344  0.750914  1
  Ir  Ir13  1  0.249881  0.500665  0.750102  1
  Ir  Ir14  1  0.249881  0.750102  0.500665  1
  Ir  Ir15  1  0.499996  0.750914  0.251344  1
  Ir  Ir16  1  0.999979  0.993107  0.993107  1
