# generated using pymatgen
data_Tb7Hf(Nb3Si4)4
_symmetry_space_group_name_H-M   'P 1'
_cell_length_a   7.06496576
_cell_length_b   7.06121446
_cell_length_c   13.06486324
_cell_angle_alpha   90.15768443
_cell_angle_beta   90.02876732
_cell_angle_gamma   89.91921630
_symmetry_Int_Tables_number   1
_chemical_formula_structural   Tb7Hf(Nb3Si4)4
_chemical_formula_sum   'Tb7 Hf1 Nb12 Si16'
_cell_volume   651.76674977
_cell_formula_units_Z   1
loop_
 _symmetry_equiv_pos_site_id
 _symmetry_equiv_pos_as_xyz
  1  'x, y, z'
loop_
 _atom_site_type_symbol
 _atom_site_label
 _atom_site_symmetry_multiplicity
 _atom_site_fract_x
 _atom_site_fract_y
 _atom_site_fract_z
 _atom_site_occupancy
  Tb  Tb0  1  0.001652  0.660842  0.717933  1
  Tb  Tb1  1  0.159257  0.497596  0.467546  1
  Tb  Tb2  1  0.502235  0.840762  0.033945  1
  Tb  Tb3  1  0.840202  0.502270  0.969343  1
  Tb  Tb4  1  0.498288  0.159787  0.530729  1
  Tb  Tb5  1  0.339739  0.998728  0.782552  1
  Tb  Tb6  1  0.661180  0.002675  0.280902  1
  Hf  Hf7  1  0.007198  0.344999  0.216815  1
  Nb  Nb8  1  0.169492  0.172516  0.001655  1
  Nb  Nb9  1  0.829761  0.828441  0.498170  1
  Nb  Nb10  1  0.327547  0.666318  0.249680  1
  Nb  Nb11  1  0.670532  0.329597  0.750088  1
  Nb  Nb12  1  0.150567  0.993001  0.373765  1
  Nb  Nb13  1  0.845237  0.009835  0.877200  1
  Nb  Nb14  1  0.507175  0.653761  0.625541  1
  Nb  Nb15  1  0.345616  0.493189  0.875269  1
  Nb  Nb16  1  0.492368  0.344991  0.127349  1
  Nb  Nb17  1  0.655425  0.503285  0.372223  1
  Nb  Nb18  1  0.991716  0.155286  0.623563  1
  Nb  Nb19  1  0.005320  0.846111  0.125614  1
  Si  Si20  1  0.290538  0.046523  0.186902  1
  Si  Si21  1  0.706097  0.955994  0.686304  1
  Si  Si22  1  0.455210  0.792162  0.435424  1
  Si  Si23  1  0.204266  0.542952  0.065427  1
  Si  Si24  1  0.544741  0.206655  0.937937  1
  Si  Si25  1  0.793940  0.455673  0.562500  1
  Si  Si26  1  0.044093  0.294685  0.813482  1
  Si  Si27  1  0.955837  0.699659  0.311968  1
  Si  Si28  1  0.362770  0.294201  0.316424  1
  Si  Si29  1  0.631937  0.705063  0.817378  1
  Si  Si30  1  0.204103  0.868475  0.566102  1
  Si  Si31  1  0.131386  0.796281  0.934058  1
  Si  Si32  1  0.799880  0.137130  0.072252  1
  Si  Si33  1  0.868375  0.205941  0.429147  1
  Si  Si34  1  0.295942  0.367896  0.683001  1
  Si  Si35  1  0.710376  0.626721  0.181814  1
