# generated using pymatgen
data_Ho4Ga4CoRu3
_symmetry_space_group_name_H-M   'P 1'
_cell_length_a   4.46456800
_cell_length_b   7.07317322
_cell_length_c   7.12752739
_cell_angle_alpha   89.82473398
_cell_angle_beta   90.00000000
_cell_angle_gamma   90.00000000
_symmetry_Int_Tables_number   1
_chemical_formula_structural   Ho4Ga4CoRu3
_chemical_formula_sum   'Ho4 Ga4 Co1 Ru3'
_cell_volume   225.07673112
_cell_formula_units_Z   1
loop_
 _symmetry_equiv_pos_site_id
 _symmetry_equiv_pos_as_xyz
  1  'x, y, z'
loop_
 _atom_site_type_symbol
 _atom_site_label
 _atom_site_symmetry_multiplicity
 _atom_site_fract_x
 _atom_site_fract_y
 _atom_site_fract_z
 _atom_site_occupancy
  Ho  Ho0  1  0.250000  0.304129  0.521393  1
  Ho  Ho1  1  0.250000  0.196366  0.021904  1
  Ho  Ho2  1  0.750000  0.696328  0.477892  1
  Ho  Ho3  1  0.750000  0.801543  0.984119  1
  Ga  Ga4  1  0.250000  0.895106  0.698926  1
  Ga  Ga5  1  0.250000  0.599775  0.196092  1
  Ga  Ga6  1  0.750000  0.113007  0.297653  1
  Ga  Ga7  1  0.750000  0.392474  0.808822  1
  Co  Co8  1  0.750000  0.437868  0.156155  1
  Ru  Ru9  1  0.250000  0.935076  0.339365  1
  Ru  Ru10  1  0.250000  0.563281  0.840183  1
  Ru  Ru11  1  0.750000  0.065048  0.657496  1
