# generated using pymatgen
data_Y7Ho3CoHg3
_symmetry_space_group_name_H-M   'P 1'
_cell_length_a   9.62907300
_cell_length_b   9.62907289
_cell_length_c   9.55426400
_cell_angle_alpha   90.00000000
_cell_angle_beta   90.00000000
_cell_angle_gamma   119.99999693
_symmetry_Int_Tables_number   1
_chemical_formula_structural   Y7Ho3CoHg3
_chemical_formula_sum   'Y14 Ho6 Co2 Hg6'
_cell_volume   767.17922928
_cell_formula_units_Z   2
loop_
 _symmetry_equiv_pos_site_id
 _symmetry_equiv_pos_as_xyz
  1  'x, y, z'
loop_
 _atom_site_type_symbol
 _atom_site_label
 _atom_site_symmetry_multiplicity
 _atom_site_fract_x
 _atom_site_fract_y
 _atom_site_fract_z
 _atom_site_occupancy
  Y  Y0  1  0.000000  0.000000  0.500000  1
  Y  Y1  1  0.000000  0.000000  0.000000  1
  Y  Y2  1  0.542160  0.457840  0.251069  1
  Y  Y3  1  0.542160  0.084321  0.251069  1
  Y  Y4  1  0.915679  0.457840  0.251069  1
  Y  Y5  1  0.457840  0.542160  0.748931  1
  Y  Y6  1  0.457840  0.915679  0.748931  1
  Y  Y7  1  0.084321  0.542160  0.748931  1
  Y  Y8  1  0.789112  0.210888  0.935465  1
  Y  Y9  1  0.789112  0.578221  0.935465  1
  Y  Y10  1  0.421779  0.210888  0.935465  1
  Y  Y11  1  0.210888  0.789112  0.064535  1
  Y  Y12  1  0.210888  0.421779  0.064535  1
  Y  Y13  1  0.578221  0.789112  0.064535  1
  Ho  Ho14  1  0.211679  0.788321  0.435470  1
  Ho  Ho15  1  0.211679  0.423360  0.435470  1
  Ho  Ho16  1  0.576640  0.788321  0.435470  1
  Ho  Ho17  1  0.788321  0.211679  0.564530  1
  Ho  Ho18  1  0.788321  0.576640  0.564530  1
  Ho  Ho19  1  0.423360  0.211679  0.564530  1
  Co  Co20  1  0.333333  0.666667  0.252168  1
  Co  Co21  1  0.666667  0.333333  0.747832  1
  Hg  Hg22  1  0.880607  0.119393  0.250117  1
  Hg  Hg23  1  0.880607  0.761214  0.250117  1
  Hg  Hg24  1  0.238786  0.119393  0.250117  1
  Hg  Hg25  1  0.119393  0.880607  0.749883  1
  Hg  Hg26  1  0.119393  0.238786  0.749883  1
  Hg  Hg27  1  0.761214  0.880607  0.749883  1
