# generated using pymatgen
data_MgPa3(Al8Pt3)3
_symmetry_space_group_name_H-M   'P 1'
_cell_length_a   7.56843907
_cell_length_b   7.56668910
_cell_length_c   13.12128527
_cell_angle_alpha   84.44233206
_cell_angle_beta   101.09602808
_cell_angle_gamma   119.89152728
_symmetry_Int_Tables_number   1
_chemical_formula_structural   MgPa3(Al8Pt3)3
_chemical_formula_sum   'Mg1 Pa3 Al24 Pt9'
_cell_volume   639.28877456
_cell_formula_units_Z   1
loop_
 _symmetry_equiv_pos_site_id
 _symmetry_equiv_pos_as_xyz
  1  'x, y, z'
loop_
 _atom_site_type_symbol
 _atom_site_label
 _atom_site_symmetry_multiplicity
 _atom_site_fract_x
 _atom_site_fract_y
 _atom_site_fract_z
 _atom_site_occupancy
  Mg  Mg0  1  0.240527  0.500748  0.209303  1
  Pa  Pa1  1  0.436727  0.830438  0.807246  1
  Pa  Pa2  1  0.563169  0.167365  0.193977  1
  Pa  Pa3  1  0.767845  0.502093  0.807240  1
  Al  Al4  1  0.480270  0.165787  0.946435  1
  Al  Al5  1  0.511025  0.826475  0.058747  1
  Al  Al6  1  0.021554  0.167651  0.559121  1
  Al  Al7  1  0.978964  0.833742  0.436642  1
  Al  Al8  1  0.351744  0.832661  0.557127  1
  Al  Al9  1  0.647078  0.167134  0.440234  1
  Al  Al10  1  0.615319  0.830513  0.327729  1
  Al  Al11  1  0.380347  0.165766  0.668173  1
  Al  Al12  1  0.055221  0.490588  0.668400  1
  Al  Al13  1  0.947624  0.509825  0.327045  1
  Al  Al14  1  0.732662  0.843418  0.667278  1
  Al  Al15  1  0.265898  0.161613  0.328201  1
  Al  Al16  1  0.149358  0.498937  0.950829  1
  Al  Al17  1  0.859745  0.497109  0.059055  1
  Al  Al18  1  0.819066  0.833297  0.955910  1
  Al  Al19  1  0.186544  0.174190  0.053759  1
  Al  Al20  1  0.313494  0.500304  0.441024  1
  Al  Al21  1  0.685662  0.500763  0.557092  1
  Al  Al22  1  0.103662  0.840508  0.181108  1
  Al  Al23  1  0.900846  0.165273  0.816401  1
  Al  Al24  1  0.305305  0.367216  0.816051  1
  Al  Al25  1  0.692961  0.627155  0.182207  1
  Al  Al26  1  0.101928  0.960209  0.816106  1
  Al  Al27  1  0.891004  0.040571  0.180925  1
  Pt  Pt28  1  0.389730  0.509478  0.639961  1
  Pt  Pt29  1  0.610517  0.491023  0.359418  1
  Pt  Pt30  1  0.169647  0.830236  0.997733  1
  Pt  Pt31  1  0.824169  0.167086  0.996655  1
  Pt  Pt32  1  0.296008  0.833894  0.359629  1
  Pt  Pt33  1  0.703565  0.167119  0.638038  1
  Pt  Pt34  1  0.046493  0.824684  0.637171  1
  Pt  Pt35  1  0.953071  0.176068  0.360098  1
  Pt  Pt36  1  0.501253  0.499063  0.997933  1
