# generated using pymatgen
data_Y6Lu6Th4Mg3AlIr4
_symmetry_space_group_name_H-M   'P 1'
_cell_length_a   9.73069469
_cell_length_b   9.73069439
_cell_length_c   9.73069500
_cell_angle_alpha   60.00000133
_cell_angle_beta   60.00000235
_cell_angle_gamma   60.00000447
_symmetry_Int_Tables_number   1
_chemical_formula_structural   Y6Lu6Th4Mg3AlIr4
_chemical_formula_sum   'Y6 Lu6 Th4 Mg3 Al1 Ir4'
_cell_volume   651.50322302
_cell_formula_units_Z   1
loop_
 _symmetry_equiv_pos_site_id
 _symmetry_equiv_pos_as_xyz
  1  'x, y, z'
loop_
 _atom_site_type_symbol
 _atom_site_label
 _atom_site_symmetry_multiplicity
 _atom_site_fract_x
 _atom_site_fract_y
 _atom_site_fract_z
 _atom_site_occupancy
  Y  Y0  1  0.182269  0.813695  0.813695  1
  Y  Y1  1  0.813931  0.185632  0.185632  1
  Y  Y2  1  0.813695  0.182269  0.813695  1
  Y  Y3  1  0.185632  0.813931  0.185632  1
  Y  Y4  1  0.813695  0.813695  0.182269  1
  Y  Y5  1  0.185632  0.185632  0.813931  1
  Lu  Lu6  1  0.065372  0.434719  0.434719  1
  Lu  Lu7  1  0.436939  0.062979  0.062979  1
  Lu  Lu8  1  0.434719  0.065372  0.434719  1
  Lu  Lu9  1  0.062979  0.436939  0.062979  1
  Lu  Lu10  1  0.434719  0.434719  0.065372  1
  Lu  Lu11  1  0.062979  0.062979  0.436939  1
  Th  Th12  1  0.598792  0.598792  0.598792  1
  Th  Th13  1  0.599911  0.599911  0.201951  1
  Th  Th14  1  0.599911  0.201951  0.599911  1
  Th  Th15  1  0.201951  0.599911  0.599911  1
  Mg  Mg16  1  0.830807  0.830807  0.512488  1
  Mg  Mg17  1  0.830807  0.512488  0.830807  1
  Mg  Mg18  1  0.512488  0.830807  0.830807  1
  Al  Al19  1  0.832974  0.832974  0.832974  1
  Ir  Ir20  1  0.391960  0.391960  0.391960  1
  Ir  Ir21  1  0.391865  0.391865  0.824108  1
  Ir  Ir22  1  0.391865  0.824108  0.391865  1
  Ir  Ir23  1  0.824108  0.391865  0.391865  1
