# generated using pymatgen
data_YbDyFe3P7Ru9
_symmetry_space_group_name_H-M   'P 1'
_cell_length_a   9.30358900
_cell_length_b   9.30358925
_cell_length_c   3.85711900
_cell_angle_alpha   90.00000000
_cell_angle_beta   90.00000000
_cell_angle_gamma   119.99999555
_symmetry_Int_Tables_number   1
_chemical_formula_structural   YbDyFe3P7Ru9
_chemical_formula_sum   'Yb1 Dy1 Fe3 P7 Ru9'
_cell_volume   289.13105038
_cell_formula_units_Z   1
loop_
 _symmetry_equiv_pos_site_id
 _symmetry_equiv_pos_as_xyz
  1  'x, y, z'
loop_
 _atom_site_type_symbol
 _atom_site_label
 _atom_site_symmetry_multiplicity
 _atom_site_fract_x
 _atom_site_fract_y
 _atom_site_fract_z
 _atom_site_occupancy
  Yb  Yb0  1  0.333333  0.666667  0.000000  1
  Dy  Dy1  1  0.000000  0.000000  0.500000  1
  Fe  Fe2  1  0.933827  0.489539  0.000000  1
  Fe  Fe3  1  0.510461  0.444288  0.000000  1
  Fe  Fe4  1  0.555712  0.066173  0.000000  1
  P  P5  1  0.971429  0.744782  0.000000  1
  P  P6  1  0.255218  0.226647  0.000000  1
  P  P7  1  0.773353  0.028571  0.000000  1
  P  P8  1  0.062249  0.449557  0.500000  1
  P  P9  1  0.550443  0.612691  0.500000  1
  P  P10  1  0.387309  0.937751  0.500000  1
  P  P11  1  0.666667  0.333333  0.000000  1
  Ru  Ru12  1  0.726725  0.753409  0.000000  1
  Ru  Ru13  1  0.246591  0.973316  0.000000  1
  Ru  Ru14  1  0.026684  0.273275  0.000000  1
  Ru  Ru15  1  0.104387  0.720325  0.500000  1
  Ru  Ru16  1  0.279675  0.384062  0.500000  1
  Ru  Ru17  1  0.615938  0.895613  0.500000  1
  Ru  Ru18  1  0.754145  0.536676  0.500000  1
  Ru  Ru19  1  0.463324  0.217471  0.500000  1
  Ru  Ru20  1  0.782529  0.245855  0.500000  1
