# generated using pymatgen
data_La4Tb3Ho3Ru4
_symmetry_space_group_name_H-M   'P 1'
_cell_length_a   6.51750928
_cell_length_b   7.24571875
_cell_length_c   8.82358574
_cell_angle_alpha   96.30929928
_cell_angle_beta   111.89718875
_cell_angle_gamma   90.03032668
_symmetry_Int_Tables_number   1
_chemical_formula_structural   La4Tb3Ho3Ru4
_chemical_formula_sum   'La4 Tb3 Ho3 Ru4'
_cell_volume   383.89214546
_cell_formula_units_Z   1
loop_
 _symmetry_equiv_pos_site_id
 _symmetry_equiv_pos_as_xyz
  1  'x, y, z'
loop_
 _atom_site_type_symbol
 _atom_site_label
 _atom_site_symmetry_multiplicity
 _atom_site_fract_x
 _atom_site_fract_y
 _atom_site_fract_z
 _atom_site_occupancy
  La  La0  1  0.978329  0.911326  0.193322  1
  La  La1  1  0.784632  0.588674  0.806020  1
  La  La2  1  0.021020  0.088988  0.806554  1
  La  La3  1  0.215616  0.410778  0.194352  1
  Tb  Tb4  1  0.636474  0.814481  0.431031  1
  Tb  Tb5  1  0.205342  0.684549  0.568990  1
  Tb  Tb6  1  0.363849  0.185590  0.568822  1
  Ho  Ho7  1  0.794591  0.315345  0.430487  1
  Ho  Ho8  1  0.425663  0.749745  0.999726  1
  Ho  Ho9  1  0.574539  0.250326  0.000732  1
  Ru  Ru10  1  0.825466  0.581196  0.224502  1
  Ru  Ru11  1  0.601013  0.919376  0.776376  1
  Ru  Ru12  1  0.174017  0.418554  0.775216  1
  Ru  Ru13  1  0.399450  0.081072  0.223870  1
