# generated using pymatgen
data_Ta3Nb3Co2(BRu2)4
_symmetry_space_group_name_H-M   'P 1'
_cell_length_a   9.28337870
_cell_length_b   9.28337870
_cell_length_c   3.04764100
_cell_angle_alpha   90.00000000
_cell_angle_beta   90.00000000
_cell_angle_gamma   90.04453619
_symmetry_Int_Tables_number   1
_chemical_formula_structural   Ta3Nb3Co2(BRu2)4
_chemical_formula_sum   'Ta3 Nb3 Co2 B4 Ru8'
_cell_volume   262.64903572
_cell_formula_units_Z   1
loop_
 _symmetry_equiv_pos_site_id
 _symmetry_equiv_pos_as_xyz
  1  'x, y, z'
loop_
 _atom_site_type_symbol
 _atom_site_label
 _atom_site_symmetry_multiplicity
 _atom_site_fract_x
 _atom_site_fract_y
 _atom_site_fract_z
 _atom_site_occupancy
  Ta  Ta0  1  0.674057  0.174057  0.000000  1
  Ta  Ta1  1  0.500025  0.500069  0.000000  1
  Ta  Ta2  1  0.000069  0.000025  0.000000  1
  Nb  Nb3  1  0.825567  0.674264  0.000000  1
  Nb  Nb4  1  0.174264  0.325567  0.000000  1
  Nb  Nb5  1  0.325772  0.825772  0.000000  1
  Co  Co6  1  0.499929  0.999929  0.500000  1
  Co  Co7  1  0.999783  0.499783  0.500000  1
  B  B8  1  0.606584  0.893994  0.000000  1
  B  B9  1  0.393994  0.106584  0.000000  1
  B  B10  1  0.106570  0.606570  0.000000  1
  B  B11  1  0.893296  0.393296  0.000000  1
  Ru  Ru12  1  0.566795  0.724862  0.500000  1
  Ru  Ru13  1  0.434010  0.275265  0.500000  1
  Ru  Ru14  1  0.066489  0.775249  0.500000  1
  Ru  Ru15  1  0.933000  0.224419  0.500000  1
  Ru  Ru16  1  0.275249  0.566489  0.500000  1
  Ru  Ru17  1  0.724419  0.433000  0.500000  1
  Ru  Ru18  1  0.224862  0.066795  0.500000  1
  Ru  Ru19  1  0.775265  0.934010  0.500000  1
