# generated using pymatgen
data_Rb2LiLuAs2
_symmetry_space_group_name_H-M   'P 1'
_cell_length_a   10.58261259
_cell_length_b   10.58261237
_cell_length_c   6.78025200
_cell_angle_alpha   90.00000000
_cell_angle_beta   90.00000000
_cell_angle_gamma   100.41956257
_symmetry_Int_Tables_number   1
_chemical_formula_structural   Rb2LiLuAs2
_chemical_formula_sum   'Rb8 Li4 Lu4 As8'
_cell_volume   746.81030878
_cell_formula_units_Z   4
loop_
 _symmetry_equiv_pos_site_id
 _symmetry_equiv_pos_as_xyz
  1  'x, y, z'
loop_
 _atom_site_type_symbol
 _atom_site_label
 _atom_site_symmetry_multiplicity
 _atom_site_fract_x
 _atom_site_fract_y
 _atom_site_fract_z
 _atom_site_occupancy
  Rb  Rb0  1  0.569324  0.930676  0.750000  1
  Rb  Rb1  1  0.930676  0.569324  0.250000  1
  Rb  Rb2  1  0.430676  0.069324  0.250000  1
  Rb  Rb3  1  0.069324  0.430676  0.750000  1
  Rb  Rb4  1  0.676914  0.323086  0.782592  1
  Rb  Rb5  1  0.823086  0.176914  0.282592  1
  Rb  Rb6  1  0.323086  0.676914  0.217408  1
  Rb  Rb7  1  0.176914  0.823086  0.717408  1
  Li  Li8  1  0.618774  0.618774  0.000000  1
  Li  Li9  1  0.881226  0.881226  0.500000  1
  Li  Li10  1  0.381226  0.381226  0.000000  1
  Li  Li11  1  0.118774  0.118774  0.500000  1
  Lu  Lu12  1  0.868756  0.868756  0.000000  1
  Lu  Lu13  1  0.631244  0.631244  0.500000  1
  Lu  Lu14  1  0.131244  0.131244  0.000000  1
  Lu  Lu15  1  0.368756  0.368756  0.500000  1
  As  As16  1  0.340745  0.159255  0.750000  1
  As  As17  1  0.159255  0.340745  0.250000  1
  As  As18  1  0.659255  0.840745  0.250000  1
  As  As19  1  0.840745  0.659255  0.750000  1
  As  As20  1  0.909864  0.090136  0.769252  1
  As  As21  1  0.590136  0.409864  0.269252  1
  As  As22  1  0.090136  0.909864  0.230748  1
  As  As23  1  0.409864  0.590136  0.730748  1
