# generated using pymatgen
data_Er2B(IrRh2)2
_symmetry_space_group_name_H-M   'P 1'
_cell_length_a   5.81148354
_cell_length_b   5.81148234
_cell_length_c   5.77770100
_cell_angle_alpha   60.19209663
_cell_angle_beta   60.19210343
_cell_angle_gamma   59.93288014
_symmetry_Int_Tables_number   1
_chemical_formula_structural   Er2B(IrRh2)2
_chemical_formula_sum   'Er2 B1 Ir2 Rh4'
_cell_volume   138.30786518
_cell_formula_units_Z   1
loop_
 _symmetry_equiv_pos_site_id
 _symmetry_equiv_pos_as_xyz
  1  'x, y, z'
loop_
 _atom_site_type_symbol
 _atom_site_label
 _atom_site_symmetry_multiplicity
 _atom_site_fract_x
 _atom_site_fract_y
 _atom_site_fract_z
 _atom_site_occupancy
  Er  Er0  1  0.750317  0.750317  0.749855  1
  Er  Er1  1  0.249683  0.249683  0.250488  1
  B  B2  1  0.000000  0.000000  0.998058  1
  Ir  Ir3  1  0.740548  0.259452  0.742510  1
  Ir  Ir4  1  0.259452  0.740548  0.742510  1
  Rh  Rh5  1  0.741726  0.741726  0.258871  1
  Rh  Rh6  1  0.257831  0.742169  0.257693  1
  Rh  Rh7  1  0.742169  0.257831  0.257693  1
  Rh  Rh8  1  0.258274  0.258274  0.742322  1
