# generated using pymatgen
data_Zr4Al4Re3Au
_symmetry_space_group_name_H-M   'P 1'
_cell_length_a   5.28142009
_cell_length_b   5.28141866
_cell_length_c   8.72799700
_cell_angle_alpha   90.00000000
_cell_angle_beta   90.00000000
_cell_angle_gamma   119.55404735
_symmetry_Int_Tables_number   1
_chemical_formula_structural   Zr4Al4Re3Au
_chemical_formula_sum   'Zr4 Al4 Re3 Au1'
_cell_volume   211.77789926
_cell_formula_units_Z   1
loop_
 _symmetry_equiv_pos_site_id
 _symmetry_equiv_pos_as_xyz
  1  'x, y, z'
loop_
 _atom_site_type_symbol
 _atom_site_label
 _atom_site_symmetry_multiplicity
 _atom_site_fract_x
 _atom_site_fract_y
 _atom_site_fract_z
 _atom_site_occupancy
  Zr  Zr0  1  0.332657  0.667343  0.195251  1
  Zr  Zr1  1  0.664731  0.335269  0.319935  1
  Zr  Zr2  1  0.664731  0.335269  0.680065  1
  Zr  Zr3  1  0.332657  0.667343  0.804749  1
  Al  Al4  1  0.999689  0.000311  0.249382  1
  Al  Al5  1  0.999689  0.000311  0.750618  1
  Al  Al6  1  0.830724  0.653942  0.000000  1
  Al  Al7  1  0.346058  0.169276  0.000000  1
  Re  Re8  1  0.167045  0.339667  0.500000  1
  Re  Re9  1  0.660333  0.832955  0.500000  1
  Re  Re10  1  0.169342  0.830658  0.500000  1
  Au  Au11  1  0.832497  0.167503  0.000000  1
