# generated using pymatgen
data_ZrSc3(NbP)4
_symmetry_space_group_name_H-M   'P 1'
_cell_length_a   3.58053000
_cell_length_b   6.93402862
_cell_length_c   8.32420104
_cell_angle_alpha   89.75583411
_cell_angle_beta   90.00000000
_cell_angle_gamma   90.00000000
_symmetry_Int_Tables_number   1
_chemical_formula_structural   ZrSc3(NbP)4
_chemical_formula_sum   'Zr1 Sc3 Nb4 P4'
_cell_volume   206.66720392
_cell_formula_units_Z   1
loop_
 _symmetry_equiv_pos_site_id
 _symmetry_equiv_pos_as_xyz
  1  'x, y, z'
loop_
 _atom_site_type_symbol
 _atom_site_label
 _atom_site_symmetry_multiplicity
 _atom_site_fract_x
 _atom_site_fract_y
 _atom_site_fract_z
 _atom_site_occupancy
  Zr  Zr0  1  0.750000  0.463992  0.166202  1
  Sc  Sc1  1  0.250000  0.535292  0.834448  1
  Sc  Sc2  1  0.750000  0.963141  0.334347  1
  Sc  Sc3  1  0.250000  0.036863  0.665459  1
  Nb  Nb4  1  0.250000  0.136802  0.057819  1
  Nb  Nb5  1  0.750000  0.863063  0.941987  1
  Nb  Nb6  1  0.250000  0.636108  0.442014  1
  Nb  Nb7  1  0.750000  0.365295  0.557013  1
  P  P8  1  0.750000  0.739991  0.643492  1
  P  P9  1  0.250000  0.761725  0.142946  1
  P  P10  1  0.750000  0.239195  0.856018  1
  P  P11  1  0.250000  0.258533  0.358255  1
