# generated using pymatgen
data_Na2U(Br2O)2
_symmetry_space_group_name_H-M   'P 1'
_cell_length_a   7.87947400
_cell_length_b   10.69506000
_cell_length_c   6.17839225
_cell_angle_alpha   90.00000000
_cell_angle_beta   98.09173559
_cell_angle_gamma   90.00000000
_symmetry_Int_Tables_number   1
_chemical_formula_structural   Na2U(Br2O)2
_chemical_formula_sum   'Na4 U2 Br8 O4'
_cell_volume   515.47832995
_cell_formula_units_Z   2
loop_
 _symmetry_equiv_pos_site_id
 _symmetry_equiv_pos_as_xyz
  1  'x, y, z'
loop_
 _atom_site_type_symbol
 _atom_site_label
 _atom_site_symmetry_multiplicity
 _atom_site_fract_x
 _atom_site_fract_y
 _atom_site_fract_z
 _atom_site_occupancy
  Na  Na0  1  0.191050  0.665889  0.413781  1
  Na  Na1  1  0.691051  0.834112  0.413782  1
  Na  Na2  1  0.308950  0.165889  0.586219  1
  Na  Na3  1  0.808951  0.334112  0.586219  1
  U  U4  1  0.000000  0.000000  0.000000  1
  U  U5  1  0.500000  0.500000  0.000000  1
  Br  Br6  1  0.303542  0.925119  0.276206  1
  Br  Br7  1  0.803542  0.574881  0.276207  1
  Br  Br8  1  0.500742  0.276998  0.240409  1
  Br  Br9  1  0.000742  0.223002  0.240410  1
  Br  Br10  1  0.499258  0.723002  0.759590  1
  Br  Br11  1  0.999257  0.776998  0.759590  1
  Br  Br12  1  0.696458  0.074881  0.723793  1
  Br  Br13  1  0.196458  0.425119  0.723794  1
  O  O14  1  0.371074  0.577726  0.180896  1
  O  O15  1  0.871074  0.922273  0.180896  1
  O  O16  1  0.628926  0.422274  0.819104  1
  O  O17  1  0.128926  0.077726  0.819105  1
