# generated using pymatgen
data_La15NdMgHg3Os4
_symmetry_space_group_name_H-M   'P 1'
_cell_length_a   10.05499345
_cell_length_b   10.10993188
_cell_length_c   10.11678913
_cell_angle_alpha   59.96003636
_cell_angle_beta   59.79465608
_cell_angle_gamma   59.70442964
_symmetry_Int_Tables_number   1
_chemical_formula_structural   La15NdMgHg3Os4
_chemical_formula_sum   'La15 Nd1 Mg1 Hg3 Os4'
_cell_volume   724.22304346
_cell_formula_units_Z   1
loop_
 _symmetry_equiv_pos_site_id
 _symmetry_equiv_pos_as_xyz
  1  'x, y, z'
loop_
 _atom_site_type_symbol
 _atom_site_label
 _atom_site_symmetry_multiplicity
 _atom_site_fract_x
 _atom_site_fract_y
 _atom_site_fract_z
 _atom_site_occupancy
  La  La0  1  0.593848  0.594235  0.595779  1
  La  La1  1  0.593975  0.594238  0.216062  1
  La  La2  1  0.593659  0.214362  0.596024  1
  La  La3  1  0.204945  0.597448  0.598871  1
  La  La4  1  0.058521  0.441347  0.441706  1
  La  La5  1  0.437052  0.062425  0.061228  1
  La  La6  1  0.437085  0.062297  0.439348  1
  La  La7  1  0.058567  0.441393  0.058297  1
  La  La8  1  0.437726  0.438489  0.061818  1
  La  La9  1  0.058601  0.059124  0.441152  1
  La  La10  1  0.192823  0.809859  0.808615  1
  La  La11  1  0.808245  0.192514  0.191031  1
  La  La12  1  0.808209  0.192509  0.808197  1
  La  La13  1  0.192823  0.809875  0.188673  1
  La  La14  1  0.807199  0.808446  0.192157  1
  Nd  Nd15  1  0.191047  0.191903  0.808527  1
  Mg  Mg16  1  0.542936  0.819344  0.818833  1
  Hg  Hg17  1  0.830147  0.835629  0.835741  1
  Hg  Hg18  1  0.830068  0.835650  0.498525  1
  Hg  Hg19  1  0.831329  0.497651  0.835510  1
  Os  Os20  1  0.385391  0.387798  0.389298  1
  Os  Os21  1  0.385427  0.387884  0.837445  1
  Os  Os22  1  0.385157  0.837797  0.388618  1
  Os  Os23  1  0.835222  0.387788  0.388547  1
