# generated using pymatgen
data_Pr17Nd3Si15Au
_symmetry_space_group_name_H-M   'P 1'
_cell_length_a   7.94650151
_cell_length_b   7.93629736
_cell_length_c   15.31696271
_cell_angle_alpha   89.97758779
_cell_angle_beta   89.67344838
_cell_angle_gamma   90.06642941
_symmetry_Int_Tables_number   1
_chemical_formula_structural   Pr17Nd3Si15Au
_chemical_formula_sum   'Pr17 Nd3 Si15 Au1'
_cell_volume   965.96007699
_cell_formula_units_Z   1
loop_
 _symmetry_equiv_pos_site_id
 _symmetry_equiv_pos_as_xyz
  1  'x, y, z'
loop_
 _atom_site_type_symbol
 _atom_site_label
 _atom_site_symmetry_multiplicity
 _atom_site_fract_x
 _atom_site_fract_y
 _atom_site_fract_z
 _atom_site_occupancy
  Pr  Pr0  1  0.692896  0.688735  0.498769  1
  Pr  Pr1  1  0.375097  0.011092  0.447757  1
  Pr  Pr2  1  0.491868  0.871443  0.699372  1
  Pr  Pr3  1  0.510415  0.123476  0.197776  1
  Pr  Pr4  1  0.877544  0.488980  0.300915  1
  Pr  Pr5  1  0.120795  0.516421  0.802206  1
  Pr  Pr6  1  0.625857  0.988337  0.949724  1
  Pr  Pr7  1  0.002977  0.379761  0.549230  1
  Pr  Pr8  1  0.989433  0.625469  0.052279  1
  Pr  Pr9  1  0.131766  0.984094  0.877797  1
  Pr  Pr10  1  0.517646  0.629967  0.126382  1
  Pr  Pr11  1  0.481641  0.371183  0.626891  1
  Pr  Pr12  1  0.628267  0.518536  0.874944  1
  Pr  Pr13  1  0.372459  0.482955  0.372826  1
  Pr  Pr14  1  0.872372  0.019728  0.375723  1
  Pr  Pr15  1  0.982424  0.127041  0.124378  1
  Pr  Pr16  1  0.015240  0.868029  0.622092  1
  Nd  Nd17  1  0.307204  0.307565  0.999493  1
  Nd  Nd18  1  0.191597  0.809105  0.249919  1
  Nd  Nd19  1  0.806206  0.186431  0.751264  1
  Si  Si20  1  0.332610  0.695165  0.951897  1
  Si  Si21  1  0.663553  0.303039  0.451149  1
  Si  Si22  1  0.697451  0.334412  0.049195  1
  Si  Si23  1  0.305420  0.669204  0.547261  1
  Si  Si24  1  0.805753  0.832055  0.202501  1
  Si  Si25  1  0.168245  0.196522  0.298450  1
  Si  Si26  1  0.834584  0.804087  0.798478  1
  Si  Si27  1  0.287833  0.921947  0.060316  1
  Si  Si28  1  0.578722  0.787446  0.309562  1
  Si  Si29  1  0.432863  0.209077  0.814451  1
  Si  Si30  1  0.786468  0.578209  0.690929  1
  Si  Si31  1  0.212577  0.422339  0.190094  1
  Si  Si32  1  0.707965  0.077321  0.558932  1
  Si  Si33  1  0.922316  0.288945  0.941018  1
  Si  Si34  1  0.079684  0.713274  0.439513  1
  Au  Au35  1  0.190255  0.168610  0.696519  1
