# generated using pymatgen
data_K3Sb(AsS2)6
_symmetry_space_group_name_H-M   'P 1'
_cell_length_a   9.44763000
_cell_length_b   9.44763036
_cell_length_c   7.90581600
_cell_angle_alpha   90.00000000
_cell_angle_beta   90.00000000
_cell_angle_gamma   119.99999874
_symmetry_Int_Tables_number   1
_chemical_formula_structural   K3Sb(AsS2)6
_chemical_formula_sum   'K3 Sb1 As6 S12'
_cell_volume   611.11523276
_cell_formula_units_Z   1
loop_
 _symmetry_equiv_pos_site_id
 _symmetry_equiv_pos_as_xyz
  1  'x, y, z'
loop_
 _atom_site_type_symbol
 _atom_site_label
 _atom_site_symmetry_multiplicity
 _atom_site_fract_x
 _atom_site_fract_y
 _atom_site_fract_z
 _atom_site_occupancy
  K  K0  1  0.000000  0.000000  0.000000  1
  K  K1  1  0.333333  0.666667  0.844585  1
  K  K2  1  0.666667  0.333333  0.155415  1
  Sb  Sb3  1  0.000000  0.000000  0.500000  1
  As  As4  1  0.292562  0.839439  0.368751  1
  As  As5  1  0.160561  0.453122  0.368751  1
  As  As6  1  0.546878  0.707438  0.368751  1
  As  As7  1  0.707438  0.160561  0.631249  1
  As  As8  1  0.839439  0.546878  0.631249  1
  As  As9  1  0.453122  0.292562  0.631249  1
  S  S10  1  0.261191  0.048419  0.291084  1
  S  S11  1  0.951581  0.212774  0.291084  1
  S  S12  1  0.787226  0.738809  0.291084  1
  S  S13  1  0.738809  0.951581  0.708916  1
  S  S14  1  0.048419  0.787226  0.708916  1
  S  S15  1  0.212774  0.261191  0.708916  1
  S  S16  1  0.524760  0.903333  0.208768  1
  S  S17  1  0.096667  0.621426  0.208768  1
  S  S18  1  0.378574  0.475240  0.208768  1
  S  S19  1  0.475240  0.096667  0.791232  1
  S  S20  1  0.903333  0.378574  0.791232  1
  S  S21  1  0.621426  0.524760  0.791232  1
