# generated using pymatgen
data_Cs2AsOF5
_symmetry_space_group_name_H-M   'P 1'
_cell_length_a   6.58819142
_cell_length_b   6.58819207
_cell_length_c   6.58819151
_cell_angle_alpha   121.57504739
_cell_angle_beta   121.57505139
_cell_angle_gamma   87.29291796
_symmetry_Int_Tables_number   1
_chemical_formula_structural   Cs2AsOF5
_chemical_formula_sum   'Cs2 As1 O1 F5'
_cell_volume   197.14819923
_cell_formula_units_Z   1
loop_
 _symmetry_equiv_pos_site_id
 _symmetry_equiv_pos_as_xyz
  1  'x, y, z'
loop_
 _atom_site_type_symbol
 _atom_site_label
 _atom_site_symmetry_multiplicity
 _atom_site_fract_x
 _atom_site_fract_y
 _atom_site_fract_z
 _atom_site_occupancy
  Cs  Cs0  1  0.757832  0.257832  0.500000  1
  Cs  Cs1  1  0.257832  0.757832  0.500000  1
  As  As2  1  0.993635  0.993635  0.000000  1
  O  O3  1  0.816888  0.816888  0.000000  1
  F  F4  1  0.187875  0.187875  0.000000  1
  F  F5  1  0.814657  0.218279  0.000000  1
  F  F6  1  0.218279  0.814657  0.000000  1
  F  F7  1  0.218279  0.218279  0.403621  1
  F  F8  1  0.814657  0.814657  0.596379  1
