# generated using pymatgen
data_HoErHfGa5
_symmetry_space_group_name_H-M   'P 1'
_cell_length_a   5.92058400
_cell_length_b   9.39699800
_cell_length_c   11.30879800
_cell_angle_alpha   90.00000000
_cell_angle_beta   90.00000000
_cell_angle_gamma   90.00000000
_symmetry_Int_Tables_number   1
_chemical_formula_structural   HoErHfGa5
_chemical_formula_sum   'Ho4 Er4 Hf4 Ga20'
_cell_volume   629.17307391
_cell_formula_units_Z   4
loop_
 _symmetry_equiv_pos_site_id
 _symmetry_equiv_pos_as_xyz
  1  'x, y, z'
loop_
 _atom_site_type_symbol
 _atom_site_label
 _atom_site_symmetry_multiplicity
 _atom_site_fract_x
 _atom_site_fract_y
 _atom_site_fract_z
 _atom_site_occupancy
  Ho  Ho0  1  0.885509  0.505249  0.352570  1
  Ho  Ho1  1  0.614491  0.994751  0.852570  1
  Ho  Ho2  1  0.114491  0.005249  0.647430  1
  Ho  Ho3  1  0.385509  0.494751  0.147430  1
  Er  Er4  1  0.114458  0.494771  0.647537  1
  Er  Er5  1  0.385542  0.005229  0.147537  1
  Er  Er6  1  0.885542  0.994771  0.352463  1
  Er  Er7  1  0.614458  0.505229  0.852463  1
  Hf  Hf8  1  0.857179  0.749993  0.073405  1
  Hf  Hf9  1  0.642821  0.750007  0.573405  1
  Hf  Hf10  1  0.142821  0.249993  0.926595  1
  Hf  Hf11  1  0.357179  0.250007  0.426595  1
  Ga  Ga12  1  0.874482  0.052283  0.089173  1
  Ga  Ga13  1  0.625518  0.447717  0.589173  1
  Ga  Ga14  1  0.125518  0.552283  0.910827  1
  Ga  Ga15  1  0.374482  0.947717  0.410827  1
  Ga  Ga16  1  0.125521  0.947688  0.910978  1
  Ga  Ga17  1  0.374479  0.552312  0.410978  1
  Ga  Ga18  1  0.874479  0.447688  0.089022  1
  Ga  Ga19  1  0.625521  0.052312  0.589022  1
  Ga  Ga20  1  0.157077  0.750143  0.254706  1
  Ga  Ga21  1  0.342923  0.749857  0.754706  1
  Ga  Ga22  1  0.842923  0.250143  0.745294  1
  Ga  Ga23  1  0.657077  0.249857  0.245294  1
  Ga  Ga24  1  0.393890  0.750052  0.000258  1
  Ga  Ga25  1  0.106110  0.749948  0.500258  1
  Ga  Ga26  1  0.606110  0.250052  0.999742  1
  Ga  Ga27  1  0.893890  0.249948  0.499742  1
  Ga  Ga28  1  0.606502  0.750139  0.292589  1
  Ga  Ga29  1  0.893498  0.749861  0.792589  1
  Ga  Ga30  1  0.393498  0.250139  0.707411  1
  Ga  Ga31  1  0.106502  0.249861  0.207411  1
