# generated using pymatgen
data_Ta6Si5Tc6P
_symmetry_space_group_name_H-M   'P 1'
_cell_length_a   7.49603552
_cell_length_b   7.56045986
_cell_length_c   7.49603717
_cell_angle_alpha   127.57764782
_cell_angle_beta   124.04520183
_cell_angle_gamma   80.01250091
_symmetry_Int_Tables_number   1
_chemical_formula_structural   Ta6Si5Tc6P
_chemical_formula_sum   'Ta6 Si5 Tc6 P1'
_cell_volume   269.69551786
_cell_formula_units_Z   1
loop_
 _symmetry_equiv_pos_site_id
 _symmetry_equiv_pos_as_xyz
  1  'x, y, z'
loop_
 _atom_site_type_symbol
 _atom_site_label
 _atom_site_symmetry_multiplicity
 _atom_site_fract_x
 _atom_site_fract_y
 _atom_site_fract_z
 _atom_site_occupancy
  Ta  Ta0  1  0.546502  0.092110  0.045608  1
  Ta  Ta1  1  0.443045  0.480715  0.537668  1
  Ta  Ta2  1  0.966225  0.507778  0.041552  1
  Ta  Ta3  1  0.040423  0.074909  0.534486  1
  Ta  Ta4  1  0.755626  0.907078  0.651452  1
  Ta  Ta5  1  0.249675  0.913342  0.163667  1
  Si  Si6  1  0.228624  0.467856  0.739232  1
  Si  Si7  1  0.340717  0.828735  0.502941  1
  Si  Si8  1  0.668917  0.163547  0.498347  1
  Si  Si9  1  0.825794  0.828735  0.988018  1
  Si  Si10  1  0.165199  0.163547  0.994629  1
  Tc  Tc11  1  0.527893  0.245893  0.776045  1
  Tc  Tc12  1  0.969848  0.245893  0.218000  1
  Tc  Tc13  1  0.154658  0.746132  0.651897  1
  Tc  Tc14  1  0.841170  0.493548  0.588465  1
  Tc  Tc15  1  0.594235  0.746132  0.091474  1
  Tc  Tc16  1  0.405083  0.493548  0.152378  1
  P  P17  1  0.776365  0.542701  0.266335  1
