# generated using pymatgen
data_Dy8CoNiB28
_symmetry_space_group_name_H-M   'P 1'
_cell_length_a   7.22346600
_cell_length_b   7.22346600
_cell_length_c   7.50507800
_cell_angle_alpha   90.00000000
_cell_angle_beta   90.00000000
_cell_angle_gamma   90.00000000
_symmetry_Int_Tables_number   1
_chemical_formula_structural   Dy8CoNiB28
_chemical_formula_sum   'Dy8 Co1 Ni1 B28'
_cell_volume   391.60342012
_cell_formula_units_Z   1
loop_
 _symmetry_equiv_pos_site_id
 _symmetry_equiv_pos_as_xyz
  1  'x, y, z'
loop_
 _atom_site_type_symbol
 _atom_site_label
 _atom_site_symmetry_multiplicity
 _atom_site_fract_x
 _atom_site_fract_y
 _atom_site_fract_z
 _atom_site_occupancy
  Dy  Dy0  1  0.193635  0.331494  0.000000  1
  Dy  Dy1  1  0.668506  0.193635  0.000000  1
  Dy  Dy2  1  0.331494  0.806365  0.000000  1
  Dy  Dy3  1  0.693606  0.169886  0.500000  1
  Dy  Dy4  1  0.306394  0.830114  0.500000  1
  Dy  Dy5  1  0.806365  0.668506  0.000000  1
  Dy  Dy6  1  0.830114  0.693606  0.500000  1
  Dy  Dy7  1  0.169886  0.306394  0.500000  1
  Co  Co8  1  0.500000  0.500000  0.500000  1
  Ni  Ni9  1  0.000000  0.000000  0.000000  1
  B  B10  1  0.174674  0.039208  0.232448  1
  B  B11  1  0.960792  0.174674  0.232448  1
  B  B12  1  0.039208  0.825326  0.232448  1
  B  B13  1  0.673770  0.461159  0.269074  1
  B  B14  1  0.326230  0.538841  0.269074  1
  B  B15  1  0.825326  0.960792  0.232448  1
  B  B16  1  0.538841  0.673770  0.269074  1
  B  B17  1  0.461159  0.326230  0.269074  1
  B  B18  1  0.825326  0.960792  0.767552  1
  B  B19  1  0.039208  0.825326  0.767552  1
  B  B20  1  0.960792  0.174674  0.767552  1
  B  B21  1  0.326230  0.538841  0.730926  1
  B  B22  1  0.673770  0.461159  0.730926  1
  B  B23  1  0.174674  0.039208  0.767552  1
  B  B24  1  0.461159  0.326230  0.730926  1
  B  B25  1  0.538841  0.673770  0.730926  1
  B  B26  1  0.088769  0.588912  0.249516  1
  B  B27  1  0.411088  0.088769  0.249516  1
  B  B28  1  0.588912  0.911231  0.249516  1
  B  B29  1  0.911231  0.411088  0.249516  1
  B  B30  1  0.911231  0.411088  0.750484  1
  B  B31  1  0.588912  0.911231  0.750484  1
  B  B32  1  0.411088  0.088769  0.750484  1
  B  B33  1  0.088769  0.588912  0.750484  1
  B  B34  1  0.000000  0.000000  0.388407  1
  B  B35  1  0.500000  0.500000  0.111900  1
  B  B36  1  0.000000  0.000000  0.611593  1
  B  B37  1  0.500000  0.500000  0.888100  1
