# generated using pymatgen
data_RbFe(PO3)3
_symmetry_space_group_name_H-M   'P 1'
_cell_length_a   6.85938600
_cell_length_b   6.85938641
_cell_length_c   10.09365900
_cell_angle_alpha   90.00000000
_cell_angle_beta   90.00000000
_cell_angle_gamma   119.99999804
_symmetry_Int_Tables_number   1
_chemical_formula_structural   RbFe(PO3)3
_chemical_formula_sum   'Rb2 Fe2 P6 O18'
_cell_volume   411.29154344
_cell_formula_units_Z   2
loop_
 _symmetry_equiv_pos_site_id
 _symmetry_equiv_pos_as_xyz
  1  'x, y, z'
loop_
 _atom_site_type_symbol
 _atom_site_label
 _atom_site_symmetry_multiplicity
 _atom_site_fract_x
 _atom_site_fract_y
 _atom_site_fract_z
 _atom_site_occupancy
  Rb  Rb0  1  0.000000  0.000000  0.000000  1
  Rb  Rb1  1  0.000000  0.000000  0.500000  1
  Fe  Fe2  1  0.666667  0.333333  0.000000  1
  Fe  Fe3  1  0.666667  0.333333  0.500000  1
  P  P4  1  0.397342  0.451222  0.250000  1
  P  P5  1  0.548778  0.946119  0.250000  1
  P  P6  1  0.397342  0.946119  0.750000  1
  P  P7  1  0.053881  0.602658  0.250000  1
  P  P8  1  0.548778  0.602658  0.750000  1
  P  P9  1  0.053881  0.451222  0.750000  1
  O  O10  1  0.933012  0.581750  0.122416  1
  O  O11  1  0.418250  0.351261  0.122416  1
  O  O12  1  0.933012  0.581750  0.377584  1
  O  O13  1  0.933012  0.351261  0.622416  1
  O  O14  1  0.648739  0.066988  0.122416  1
  O  O15  1  0.418250  0.351261  0.377584  1
  O  O16  1  0.418250  0.066988  0.622416  1
  O  O17  1  0.933012  0.351261  0.877584  1
  O  O18  1  0.648739  0.066988  0.377584  1
  O  O19  1  0.418250  0.066988  0.877584  1
  O  O20  1  0.648739  0.581750  0.622416  1
  O  O21  1  0.648739  0.581750  0.877584  1
  O  O22  1  0.151337  0.431195  0.250000  1
  O  O23  1  0.568805  0.720142  0.250000  1
  O  O24  1  0.151337  0.720142  0.750000  1
  O  O25  1  0.279858  0.848663  0.250000  1
  O  O26  1  0.568805  0.848663  0.750000  1
  O  O27  1  0.279858  0.431195  0.750000  1
