# generated using pymatgen
data_DyY3(MgRh)4
_symmetry_space_group_name_H-M   'P 1'
_cell_length_a   4.11843600
_cell_length_b   7.12073098
_cell_length_c   8.56673790
_cell_angle_alpha   89.92387706
_cell_angle_beta   90.00000000
_cell_angle_gamma   90.00000000
_symmetry_Int_Tables_number   1
_chemical_formula_structural   DyY3(MgRh)4
_chemical_formula_sum   'Dy1 Y3 Mg4 Rh4'
_cell_volume   251.23028801
_cell_formula_units_Z   1
loop_
 _symmetry_equiv_pos_site_id
 _symmetry_equiv_pos_as_xyz
  1  'x, y, z'
loop_
 _atom_site_type_symbol
 _atom_site_label
 _atom_site_symmetry_multiplicity
 _atom_site_fract_x
 _atom_site_fract_y
 _atom_site_fract_z
 _atom_site_occupancy
  Dy  Dy0  1  0.750000  0.962202  0.675955  1
  Y  Y1  1  0.250000  0.537895  0.176274  1
  Y  Y2  1  0.750000  0.463164  0.823624  1
  Y  Y3  1  0.250000  0.037305  0.324008  1
  Mg  Mg4  1  0.250000  0.136577  0.940492  1
  Mg  Mg5  1  0.750000  0.864329  0.059658  1
  Mg  Mg6  1  0.250000  0.634896  0.559766  1
  Mg  Mg7  1  0.750000  0.363337  0.440514  1
  Rh  Rh8  1  0.750000  0.747355  0.371802  1
  Rh  Rh9  1  0.250000  0.249968  0.629454  1
  Rh  Rh10  1  0.750000  0.248010  0.129257  1
  Rh  Rh11  1  0.250000  0.754962  0.869195  1
