# generated using pymatgen
data_Ho3Er4Co6Sn22Hg
_symmetry_space_group_name_H-M   'P 1'
_cell_length_a   9.65567800
_cell_length_b   9.65567625
_cell_length_c   9.98990400
_cell_angle_alpha   90.00000000
_cell_angle_beta   90.00000000
_cell_angle_gamma   119.99999913
_symmetry_Int_Tables_number   1
_chemical_formula_structural   Ho3Er4Co6Sn22Hg
_chemical_formula_sum   'Ho3 Er4 Co6 Sn22 Hg1'
_cell_volume   806.59851947
_cell_formula_units_Z   1
loop_
 _symmetry_equiv_pos_site_id
 _symmetry_equiv_pos_as_xyz
  1  'x, y, z'
loop_
 _atom_site_type_symbol
 _atom_site_label
 _atom_site_symmetry_multiplicity
 _atom_site_fract_x
 _atom_site_fract_y
 _atom_site_fract_z
 _atom_site_occupancy
  Ho  Ho0  1  0.041386  0.520694  0.306449  1
  Ho  Ho1  1  0.479306  0.958614  0.306449  1
  Ho  Ho2  1  0.479306  0.520694  0.306449  1
  Er  Er3  1  0.000000  0.000000  0.999966  1
  Er  Er4  1  0.520639  0.479361  0.693592  1
  Er  Er5  1  0.520639  0.041276  0.693592  1
  Er  Er6  1  0.958724  0.479361  0.693592  1
  Co  Co7  1  0.168115  0.831885  0.802952  1
  Co  Co8  1  0.168115  0.336231  0.802952  1
  Co  Co9  1  0.663769  0.831885  0.802952  1
  Co  Co10  1  0.336183  0.168091  0.196993  1
  Co  Co11  1  0.831909  0.663817  0.196993  1
  Co  Co12  1  0.831909  0.168091  0.196993  1
  Sn  Sn13  1  0.666667  0.333333  0.181520  1
  Sn  Sn14  1  0.666667  0.333333  0.879434  1
  Sn  Sn15  1  0.333333  0.666667  0.120314  1
  Sn  Sn16  1  0.346305  0.346328  0.999960  1
  Sn  Sn17  1  0.000023  0.653695  0.999960  1
  Sn  Sn18  1  0.653672  0.999977  0.999960  1
  Sn  Sn19  1  0.653672  0.653695  0.999960  1
  Sn  Sn20  1  0.333333  0.666667  0.818479  1
  Sn  Sn21  1  0.435147  0.217573  0.453579  1
  Sn  Sn22  1  0.217575  0.782425  0.546643  1
  Sn  Sn23  1  0.217575  0.435150  0.546643  1
  Sn  Sn24  1  0.564850  0.782425  0.546643  1
  Sn  Sn25  1  0.116848  0.883152  0.269886  1
  Sn  Sn26  1  0.782427  0.564853  0.453579  1
  Sn  Sn27  1  0.782427  0.217573  0.453579  1
  Sn  Sn28  1  0.346305  0.999977  0.999960  1
  Sn  Sn29  1  0.116848  0.233695  0.269886  1
  Sn  Sn30  1  0.766305  0.883152  0.269886  1
  Sn  Sn31  1  0.233816  0.116908  0.730079  1
  Sn  Sn32  1  0.883092  0.766184  0.730079  1
  Sn  Sn33  1  0.883092  0.116908  0.730079  1
  Sn  Sn34  1  0.000023  0.346328  0.999960  1
  Hg  Hg35  1  0.000000  0.000000  0.500007  1
