# generated using pymatgen
data_SmEr4In4PtRh
_symmetry_space_group_name_H-M   'P 1'
_cell_length_a   3.61667900
_cell_length_b   8.10182275
_cell_length_c   18.25180993
_cell_angle_alpha   90.11994290
_cell_angle_beta   90.00000000
_cell_angle_gamma   90.00000000
_symmetry_Int_Tables_number   1
_chemical_formula_structural   SmEr4In4PtRh
_chemical_formula_sum   'Sm2 Er8 In8 Pt2 Rh2'
_cell_volume   534.80774510
_cell_formula_units_Z   2
loop_
 _symmetry_equiv_pos_site_id
 _symmetry_equiv_pos_as_xyz
  1  'x, y, z'
loop_
 _atom_site_type_symbol
 _atom_site_label
 _atom_site_symmetry_multiplicity
 _atom_site_fract_x
 _atom_site_fract_y
 _atom_site_fract_z
 _atom_site_occupancy
  Sm  Sm0  1  0.000000  0.000000  0.000000  1
  Sm  Sm1  1  0.000000  0.500000  0.500000  1
  Er  Er2  1  0.000000  0.115238  0.411744  1
  Er  Er3  1  0.000000  0.884762  0.588256  1
  Er  Er4  1  0.000000  0.383002  0.913348  1
  Er  Er5  1  0.000000  0.616998  0.086652  1
  Er  Er6  1  0.000000  0.238383  0.221523  1
  Er  Er7  1  0.000000  0.761617  0.778477  1
  Er  Er8  1  0.000000  0.250989  0.720479  1
  Er  Er9  1  0.000000  0.749011  0.279521  1
  In  In10  1  0.500000  0.422405  0.350225  1
  In  In11  1  0.500000  0.577595  0.649775  1
  In  In12  1  0.500000  0.073706  0.849072  1
  In  In13  1  0.500000  0.926294  0.150928  1
  In  In14  1  0.500000  0.295602  0.066772  1
  In  In15  1  0.500000  0.704398  0.933228  1
  In  In16  1  0.500000  0.203645  0.568576  1
  In  In17  1  0.500000  0.796355  0.431424  1
  Pt  Pt18  1  0.500000  0.478329  0.803129  1
  Pt  Pt19  1  0.500000  0.521671  0.196871  1
  Rh  Rh20  1  0.500000  0.021645  0.304844  1
  Rh  Rh21  1  0.500000  0.978355  0.695156  1
