# generated using pymatgen
data_AcPa(TaN3)2
_symmetry_space_group_name_H-M   'P 1'
_cell_length_a   5.53171800
_cell_length_b   5.75093600
_cell_length_c   7.95188900
_cell_angle_alpha   90.00000000
_cell_angle_beta   90.00000000
_cell_angle_gamma   90.00000000
_symmetry_Int_Tables_number   1
_chemical_formula_structural   AcPa(TaN3)2
_chemical_formula_sum   'Ac2 Pa2 Ta4 N12'
_cell_volume   252.96991561
_cell_formula_units_Z   2
loop_
 _symmetry_equiv_pos_site_id
 _symmetry_equiv_pos_as_xyz
  1  'x, y, z'
loop_
 _atom_site_type_symbol
 _atom_site_label
 _atom_site_symmetry_multiplicity
 _atom_site_fract_x
 _atom_site_fract_y
 _atom_site_fract_z
 _atom_site_occupancy
  Ac  Ac0  1  0.494669  0.479659  0.750000  1
  Ac  Ac1  1  0.005331  0.979659  0.750000  1
  Pa  Pa2  1  0.500827  0.562975  0.250000  1
  Pa  Pa3  1  0.999173  0.062975  0.250000  1
  Ta  Ta4  1  0.004765  0.513826  0.005485  1
  Ta  Ta5  1  0.495235  0.013826  0.494515  1
  Ta  Ta6  1  0.004765  0.513826  0.494515  1
  Ta  Ta7  1  0.495235  0.013826  0.005485  1
  N  N8  1  0.391125  0.952103  0.250000  1
  N  N9  1  0.108875  0.452103  0.250000  1
  N  N10  1  0.547098  0.997370  0.750000  1
  N  N11  1  0.952902  0.497370  0.750000  1
  N  N12  1  0.801813  0.799400  0.066388  1
  N  N13  1  0.698187  0.299400  0.433612  1
  N  N14  1  0.191186  0.190720  0.513097  1
  N  N15  1  0.308814  0.690720  0.986903  1
  N  N16  1  0.191186  0.190720  0.986903  1
  N  N17  1  0.308814  0.690720  0.513097  1
  N  N18  1  0.801813  0.799400  0.433612  1
  N  N19  1  0.698187  0.299400  0.066388  1
