# generated using pymatgen
data_Tb8Hf12SiGe15
_symmetry_space_group_name_H-M   'P 1'
_cell_length_a   7.39991337
_cell_length_b   7.40680541
_cell_length_c   13.55959513
_cell_angle_alpha   90.02131281
_cell_angle_beta   90.08640938
_cell_angle_gamma   90.03178455
_symmetry_Int_Tables_number   1
_chemical_formula_structural   Tb8Hf12SiGe15
_chemical_formula_sum   'Tb8 Hf12 Si1 Ge15'
_cell_volume   743.19657931
_cell_formula_units_Z   1
loop_
 _symmetry_equiv_pos_site_id
 _symmetry_equiv_pos_as_xyz
  1  'x, y, z'
loop_
 _atom_site_type_symbol
 _atom_site_label
 _atom_site_symmetry_multiplicity
 _atom_site_fract_x
 _atom_site_fract_y
 _atom_site_fract_z
 _atom_site_occupancy
  Tb  Tb0  1  0.997078  0.343805  0.218758  1
  Tb  Tb1  1  0.003211  0.658493  0.718126  1
  Tb  Tb2  1  0.155321  0.499587  0.466204  1
  Tb  Tb3  1  0.503798  0.841094  0.032620  1
  Tb  Tb4  1  0.841668  0.503431  0.968264  1
  Tb  Tb5  1  0.496553  0.158434  0.531242  1
  Tb  Tb6  1  0.341785  0.996804  0.781823  1
  Tb  Tb7  1  0.659954  0.002398  0.282195  1
  Hf  Hf8  1  0.173124  0.172848  0.000294  1
  Hf  Hf9  1  0.828113  0.826053  0.498542  1
  Hf  Hf10  1  0.323570  0.672456  0.250672  1
  Hf  Hf11  1  0.672392  0.326865  0.749905  1
  Hf  Hf12  1  0.153507  0.992364  0.373421  1
  Hf  Hf13  1  0.843836  0.003055  0.875518  1
  Hf  Hf14  1  0.503226  0.656288  0.624865  1
  Hf  Hf15  1  0.343724  0.496270  0.874870  1
  Hf  Hf16  1  0.497573  0.344423  0.125891  1
  Hf  Hf17  1  0.658320  0.503721  0.374722  1
  Hf  Hf18  1  0.996568  0.156180  0.624818  1
  Hf  Hf19  1  0.004237  0.843681  0.126067  1
  Si  Si20  1  0.958247  0.704718  0.317325  1
  Ge  Ge21  1  0.366789  0.301152  0.322934  1
  Ge  Ge22  1  0.633357  0.698918  0.822403  1
  Ge  Ge23  1  0.198738  0.866818  0.572215  1
  Ge  Ge24  1  0.133780  0.801256  0.927879  1
  Ge  Ge25  1  0.801821  0.133772  0.072762  1
  Ge  Ge26  1  0.867100  0.198695  0.427719  1
  Ge  Ge27  1  0.301574  0.366231  0.677066  1
  Ge  Ge28  1  0.701762  0.634143  0.179829  1
  Ge  Ge29  1  0.297031  0.038704  0.181272  1
  Ge  Ge30  1  0.703910  0.962005  0.680699  1
  Ge  Ge31  1  0.462014  0.795756  0.431134  1
  Ge  Ge32  1  0.204900  0.537867  0.068614  1
  Ge  Ge33  1  0.537937  0.203812  0.931470  1
  Ge  Ge34  1  0.795873  0.461925  0.568898  1
  Ge  Ge35  1  0.037608  0.295978  0.818965  1
