# generated using pymatgen
data_Y4TaReOs6
_symmetry_space_group_name_H-M   'P 1'
_cell_length_a   5.27962435
_cell_length_b   5.27962492
_cell_length_c   9.01335900
_cell_angle_alpha   90.00000000
_cell_angle_beta   90.00000000
_cell_angle_gamma   116.68592751
_symmetry_Int_Tables_number   1
_chemical_formula_structural   Y4TaReOs6
_chemical_formula_sum   'Y4 Ta1 Re1 Os6'
_cell_volume   224.48040322
_cell_formula_units_Z   1
loop_
 _symmetry_equiv_pos_site_id
 _symmetry_equiv_pos_as_xyz
  1  'x, y, z'
loop_
 _atom_site_type_symbol
 _atom_site_label
 _atom_site_symmetry_multiplicity
 _atom_site_fract_x
 _atom_site_fract_y
 _atom_site_fract_z
 _atom_site_occupancy
  Y  Y0  1  0.329403  0.670597  0.438897  1
  Y  Y1  1  0.667694  0.332306  0.567161  1
  Y  Y2  1  0.667694  0.332306  0.932839  1
  Y  Y3  1  0.329403  0.670597  0.061103  1
  Ta  Ta4  1  0.838460  0.161540  0.250000  1
  Re  Re5  1  0.168010  0.831990  0.750000  1
  Os  Os6  1  0.001438  0.998562  0.504953  1
  Os  Os7  1  0.001438  0.998562  0.995047  1
  Os  Os8  1  0.823070  0.651459  0.250000  1
  Os  Os9  1  0.348541  0.176930  0.250000  1
  Os  Os10  1  0.172236  0.347387  0.750000  1
  Os  Os11  1  0.652613  0.827764  0.750000  1
