# generated using pymatgen
data_Tb10Nd6Cd4Ir3Ru
_symmetry_space_group_name_H-M   'P 1'
_cell_length_a   9.78608412
_cell_length_b   9.78608495
_cell_length_c   9.78608399
_cell_angle_alpha   59.86629544
_cell_angle_beta   59.86629080
_cell_angle_gamma   59.86629856
_symmetry_Int_Tables_number   1
_chemical_formula_structural   Tb10Nd6Cd4Ir3Ru
_chemical_formula_sum   'Tb10 Nd6 Cd4 Ir3 Ru1'
_cell_volume   660.68162527
_cell_formula_units_Z   1
loop_
 _symmetry_equiv_pos_site_id
 _symmetry_equiv_pos_as_xyz
  1  'x, y, z'
loop_
 _atom_site_type_symbol
 _atom_site_label
 _atom_site_symmetry_multiplicity
 _atom_site_fract_x
 _atom_site_fract_y
 _atom_site_fract_z
 _atom_site_occupancy
  Tb  Tb0  1  0.347256  0.347256  0.347256  1
  Tb  Tb1  1  0.347484  0.347484  0.958153  1
  Tb  Tb2  1  0.347484  0.958153  0.347484  1
  Tb  Tb3  1  0.958153  0.347484  0.347484  1
  Tb  Tb4  1  0.812912  0.187635  0.187635  1
  Tb  Tb5  1  0.187673  0.811812  0.811812  1
  Tb  Tb6  1  0.187635  0.812912  0.187635  1
  Tb  Tb7  1  0.811812  0.187673  0.811812  1
  Tb  Tb8  1  0.187635  0.187635  0.812912  1
  Tb  Tb9  1  0.811812  0.811812  0.187673  1
  Nd  Nd10  1  0.940076  0.559536  0.559536  1
  Nd  Nd11  1  0.557767  0.941068  0.941068  1
  Nd  Nd12  1  0.559536  0.940076  0.559536  1
  Nd  Nd13  1  0.941068  0.557767  0.941068  1
  Nd  Nd14  1  0.559536  0.559536  0.940076  1
  Nd  Nd15  1  0.941068  0.941068  0.557767  1
  Cd  Cd16  1  0.579368  0.579368  0.579368  1
  Cd  Cd17  1  0.579605  0.579605  0.260827  1
  Cd  Cd18  1  0.579605  0.260827  0.579605  1
  Cd  Cd19  1  0.260827  0.579605  0.579605  1
  Ir  Ir20  1  0.142306  0.142306  0.576484  1
  Ir  Ir21  1  0.142306  0.576484  0.142306  1
  Ir  Ir22  1  0.576484  0.142306  0.142306  1
  Ru  Ru23  1  0.140594  0.140594  0.140594  1
