# generated using pymatgen
data_Dy2Er6Ga12CoCu3
_symmetry_space_group_name_H-M   'P 1'
_cell_length_a   6.92507100
_cell_length_b   8.77727018
_cell_length_c   8.77727100
_cell_angle_alpha   119.99999933
_cell_angle_beta   90.00000000
_cell_angle_gamma   90.00000000
_symmetry_Int_Tables_number   1
_chemical_formula_structural   Dy2Er6Ga12CoCu3
_chemical_formula_sum   'Dy2 Er6 Ga12 Co1 Cu3'
_cell_volume   462.03389768
_cell_formula_units_Z   1
loop_
 _symmetry_equiv_pos_site_id
 _symmetry_equiv_pos_as_xyz
  1  'x, y, z'
loop_
 _atom_site_type_symbol
 _atom_site_label
 _atom_site_symmetry_multiplicity
 _atom_site_fract_x
 _atom_site_fract_y
 _atom_site_fract_z
 _atom_site_occupancy
  Dy  Dy0  1  0.745934  0.000000  0.000000  1
  Dy  Dy1  1  0.250282  0.000000  0.000000  1
  Er  Er2  1  0.749647  0.485969  0.514031  1
  Er  Er3  1  0.256161  0.522310  0.477690  1
  Er  Er4  1  0.749647  0.028061  0.514031  1
  Er  Er5  1  0.256161  0.955380  0.477690  1
  Er  Er6  1  0.749647  0.485969  0.971939  1
  Er  Er7  1  0.256161  0.522310  0.044620  1
  Ga  Ga8  1  0.961823  0.830796  0.169204  1
  Ga  Ga9  1  0.040513  0.171091  0.828909  1
  Ga  Ga10  1  0.961823  0.338411  0.169204  1
  Ga  Ga11  1  0.463051  0.170326  0.829674  1
  Ga  Ga12  1  0.040513  0.657815  0.828909  1
  Ga  Ga13  1  0.540626  0.826660  0.173340  1
  Ga  Ga14  1  0.961823  0.830796  0.661589  1
  Ga  Ga15  1  0.463051  0.659346  0.829674  1
  Ga  Ga16  1  0.040513  0.171091  0.342185  1
  Ga  Ga17  1  0.540626  0.346681  0.173340  1
  Ga  Ga18  1  0.463051  0.170326  0.340654  1
  Ga  Ga19  1  0.540626  0.826660  0.653319  1
  Co  Co20  1  0.511889  0.666667  0.333333  1
  Cu  Cu21  1  0.953694  0.666667  0.333333  1
  Cu  Cu22  1  0.042587  0.333333  0.666667  1
  Cu  Cu23  1  0.460154  0.333333  0.666667  1
