# generated using pymatgen
data_Er12AlCo8Si7
_symmetry_space_group_name_H-M   'P 1'
_cell_length_a   5.47463800
_cell_length_b   7.59436048
_cell_length_c   12.55274249
_cell_angle_alpha   89.79259262
_cell_angle_beta   90.00000000
_cell_angle_gamma   90.00000000
_symmetry_Int_Tables_number   1
_chemical_formula_structural   Er12AlCo8Si7
_chemical_formula_sum   'Er12 Al1 Co8 Si7'
_cell_volume   521.89410311
_cell_formula_units_Z   1
loop_
 _symmetry_equiv_pos_site_id
 _symmetry_equiv_pos_as_xyz
  1  'x, y, z'
loop_
 _atom_site_type_symbol
 _atom_site_label
 _atom_site_symmetry_multiplicity
 _atom_site_fract_x
 _atom_site_fract_y
 _atom_site_fract_z
 _atom_site_occupancy
  Er  Er0  1  0.631092  0.252336  0.252598  1
  Er  Er1  1  0.370010  0.748024  0.748636  1
  Er  Er2  1  0.370010  0.751976  0.251364  1
  Er  Er3  1  0.631092  0.247664  0.747402  1
  Er  Er4  1  0.145169  0.397645  0.102062  1
  Er  Er5  1  0.857666  0.605494  0.898134  1
  Er  Er6  1  0.859517  0.605389  0.600762  1
  Er  Er7  1  0.859517  0.894611  0.399238  1
  Er  Er8  1  0.141025  0.394254  0.398835  1
  Er  Er9  1  0.141025  0.105746  0.601165  1
  Er  Er10  1  0.145169  0.102355  0.897938  1
  Er  Er11  1  0.857666  0.894506  0.101866  1
  Al  Al12  1  0.624415  0.250000  0.000000  1
  Co  Co13  1  0.360974  0.022367  0.089988  1
  Co  Co14  1  0.631409  0.961395  0.909094  1
  Co  Co15  1  0.634733  0.971571  0.586526  1
  Co  Co16  1  0.634733  0.528429  0.413474  1
  Co  Co17  1  0.364915  0.028070  0.413514  1
  Co  Co18  1  0.364915  0.471930  0.586486  1
  Co  Co19  1  0.360974  0.477633  0.910012  1
  Co  Co20  1  0.631409  0.538605  0.090906  1
  Si  Si21  1  0.151580  0.101027  0.251087  1
  Si  Si22  1  0.849551  0.899068  0.748132  1
  Si  Si23  1  0.849551  0.600932  0.251868  1
  Si  Si24  1  0.151580  0.398973  0.748913  1
  Si  Si25  1  0.380932  0.750000  0.000000  1
  Si  Si26  1  0.389210  0.750000  0.500000  1
  Si  Si27  1  0.610163  0.250000  0.500000  1
