# generated using pymatgen
data_Er11LuCo4NiSn
_symmetry_space_group_name_H-M   'P 1'
_cell_length_a   8.20993949
_cell_length_b   8.20472712
_cell_length_c   8.20993977
_cell_angle_alpha   110.85468728
_cell_angle_beta   110.74151510
_cell_angle_gamma   106.87344314
_symmetry_Int_Tables_number   1
_chemical_formula_structural   Er11LuCo4NiSn
_chemical_formula_sum   'Er11 Lu1 Co4 Ni1 Sn1'
_cell_volume   424.92988349
_cell_formula_units_Z   1
loop_
 _symmetry_equiv_pos_site_id
 _symmetry_equiv_pos_as_xyz
  1  'x, y, z'
loop_
 _atom_site_type_symbol
 _atom_site_label
 _atom_site_symmetry_multiplicity
 _atom_site_fract_x
 _atom_site_fract_y
 _atom_site_fract_z
 _atom_site_occupancy
  Er  Er0  1  0.685702  0.380646  0.694946  1
  Er  Er1  1  0.314002  0.008882  0.694880  1
  Er  Er2  1  0.685611  0.990537  0.304927  1
  Er  Er3  1  0.409781  0.213652  0.196903  1
  Er  Er4  1  0.589124  0.786234  0.802133  1
  Er  Er5  1  0.016749  0.213652  0.803870  1
  Er  Er6  1  0.984101  0.786234  0.197111  1
  Er  Er7  1  0.185497  0.290947  0.475103  1
  Er  Er8  1  0.813739  0.709394  0.524271  1
  Er  Er9  1  0.185121  0.709394  0.895655  1
  Er  Er10  1  0.815843  0.290947  0.105450  1
  Lu  Lu11  1  0.314979  0.621226  0.306246  1
  Co  Co12  1  0.113846  0.613458  0.499612  1
  Co  Co13  1  0.887567  0.387891  0.500324  1
  Co  Co14  1  0.375777  0.998860  0.375540  1
  Co  Co15  1  0.623319  0.998860  0.623084  1
  Ni  Ni16  1  0.999506  0.998761  0.999256  1
  Sn  Sn17  1  0.499738  0.500428  0.000690  1
