# generated using pymatgen
data_Th5Tc3Ge2
_symmetry_space_group_name_H-M   'P 1'
_cell_length_a   8.52703844
_cell_length_b   8.52703838
_cell_length_c   8.52703883
_cell_angle_alpha   109.50029499
_cell_angle_beta   109.50029443
_cell_angle_gamma   109.50029929
_symmetry_Int_Tables_number   1
_chemical_formula_structural   Th5Tc3Ge2
_chemical_formula_sum   'Th10 Tc6 Ge4'
_cell_volume   476.76502626
_cell_formula_units_Z   2
loop_
 _symmetry_equiv_pos_site_id
 _symmetry_equiv_pos_as_xyz
  1  'x, y, z'
loop_
 _atom_site_type_symbol
 _atom_site_label
 _atom_site_symmetry_multiplicity
 _atom_site_fract_x
 _atom_site_fract_y
 _atom_site_fract_z
 _atom_site_occupancy
  Th  Th0  1  0.460672  0.157294  0.210623  1
  Th  Th1  1  0.157294  0.210623  0.460672  1
  Th  Th2  1  0.210623  0.460672  0.157294  1
  Th  Th3  1  0.407296  0.682902  0.906951  1
  Th  Th4  1  0.682902  0.906951  0.407296  1
  Th  Th5  1  0.906951  0.407296  0.682902  1
  Th  Th6  1  0.657329  0.104472  0.854461  1
  Th  Th7  1  0.104472  0.854461  0.657329  1
  Th  Th8  1  0.854461  0.657329  0.104472  1
  Th  Th9  1  0.631866  0.631866  0.631866  1
  Tc  Tc10  1  0.031296  0.157475  0.781568  1
  Tc  Tc11  1  0.157475  0.781568  0.031296  1
  Tc  Tc12  1  0.781568  0.031296  0.157475  1
  Tc  Tc13  1  0.658134  0.533052  0.283900  1
  Tc  Tc14  1  0.533052  0.283900  0.658134  1
  Tc  Tc15  1  0.283900  0.658134  0.533052  1
  Ge  Ge16  1  0.407417  0.300437  0.908113  1
  Ge  Ge17  1  0.300437  0.908113  0.407417  1
  Ge  Ge18  1  0.908113  0.407417  0.300437  1
  Ge  Ge19  1  0.014742  0.014742  0.014742  1
