# generated using pymatgen
data_LiTb16In(HgRh2)2
_symmetry_space_group_name_H-M   'P 1'
_cell_length_a   9.65051585
_cell_length_b   9.67293122
_cell_length_c   9.65844300
_cell_angle_alpha   60.04953823
_cell_angle_beta   59.97282727
_cell_angle_gamma   60.04799414
_symmetry_Int_Tables_number   1
_chemical_formula_structural   LiTb16In(HgRh2)2
_chemical_formula_sum   'Li1 Tb16 In1 Hg2 Rh4'
_cell_volume   637.86838958
_cell_formula_units_Z   1
loop_
 _symmetry_equiv_pos_site_id
 _symmetry_equiv_pos_as_xyz
  1  'x, y, z'
loop_
 _atom_site_type_symbol
 _atom_site_label
 _atom_site_symmetry_multiplicity
 _atom_site_fract_x
 _atom_site_fract_y
 _atom_site_fract_z
 _atom_site_occupancy
  Li  Li0  1  0.427603  0.707857  0.432270  1
  Tb  Tb1  1  0.812913  0.811273  0.187907  1
  Tb  Tb2  1  0.809431  0.192831  0.807189  1
  Tb  Tb3  1  0.189518  0.192099  0.809191  1
  Tb  Tb4  1  0.648021  0.056163  0.647908  1
  Tb  Tb5  1  0.063547  0.063471  0.436491  1
  Tb  Tb6  1  0.436579  0.437301  0.063060  1
  Tb  Tb7  1  0.652190  0.649122  0.651873  1
  Tb  Tb8  1  0.809431  0.192831  0.190549  1
  Tb  Tb9  1  0.187254  0.815303  0.811234  1
  Tb  Tb10  1  0.048288  0.647790  0.651961  1
  Tb  Tb11  1  0.439073  0.063216  0.061060  1
  Tb  Tb12  1  0.439073  0.063216  0.436651  1
  Tb  Tb13  1  0.066442  0.437372  0.061691  1
  Tb  Tb14  1  0.652190  0.649122  0.046815  1
  Tb  Tb15  1  0.187254  0.815303  0.186210  1
  Tb  Tb16  1  0.066442  0.437372  0.434495  1
  In  In17  1  0.744050  0.420913  0.417519  1
  Hg  Hg18  1  0.412941  0.420099  0.412712  1
  Hg  Hg19  1  0.412941  0.420099  0.754246  1
  Rh  Rh20  1  0.856145  0.426343  0.858756  1
  Rh  Rh21  1  0.855409  0.860861  0.857488  1
  Rh  Rh22  1  0.855409  0.860861  0.426244  1
  Rh  Rh23  1  0.427858  0.859180  0.856482  1
