# generated using pymatgen
data_Dy9YSi6O
_symmetry_space_group_name_H-M   'P 1'
_cell_length_a   8.43151228
_cell_length_b   8.42819960
_cell_length_c   6.30617021
_cell_angle_alpha   90.01486536
_cell_angle_beta   89.97027416
_cell_angle_gamma   120.01299491
_symmetry_Int_Tables_number   1
_chemical_formula_structural   Dy9YSi6O
_chemical_formula_sum   'Dy9 Y1 Si6 O1'
_cell_volume   388.04283388
_cell_formula_units_Z   1
loop_
 _symmetry_equiv_pos_site_id
 _symmetry_equiv_pos_as_xyz
  1  'x, y, z'
loop_
 _atom_site_type_symbol
 _atom_site_label
 _atom_site_symmetry_multiplicity
 _atom_site_fract_x
 _atom_site_fract_y
 _atom_site_fract_z
 _atom_site_occupancy
  Dy  Dy0  1  0.333335  0.666582  0.499957  1
  Dy  Dy1  1  0.666755  0.333418  0.499957  1
  Dy  Dy2  1  0.666729  0.333403  0.000017  1
  Dy  Dy3  1  0.333326  0.666597  0.000017  1
  Dy  Dy4  1  0.999901  0.763871  0.259728  1
  Dy  Dy5  1  0.236031  0.236129  0.259728  1
  Dy  Dy6  1  0.763932  0.000000  0.259709  1
  Dy  Dy7  1  0.999975  0.236160  0.740287  1
  Dy  Dy8  1  0.763815  0.763840  0.740287  1
  Y  Y9  1  0.236586  0.000000  0.740884  1
  Si  Si10  1  0.000029  0.396922  0.249570  1
  Si  Si11  1  0.603108  0.603078  0.249570  1
  Si  Si12  1  0.397005  0.000000  0.249636  1
  Si  Si13  1  0.999926  0.603028  0.750412  1
  Si  Si14  1  0.396897  0.396972  0.750412  1
  Si  Si15  1  0.603290  0.000000  0.750398  1
  O  O16  1  0.999359  0.000000  0.499432  1
