# generated using pymatgen
data_YbCu2(PdO2)4
_symmetry_space_group_name_H-M   'P 1'
_cell_length_a   6.75539641
_cell_length_b   6.75539731
_cell_length_c   6.67374200
_cell_angle_alpha   60.39903974
_cell_angle_beta   60.39903539
_cell_angle_gamma   59.20190464
_symmetry_Int_Tables_number   1
_chemical_formula_structural   YbCu2(PdO2)4
_chemical_formula_sum   'Yb1 Cu2 Pd4 O8'
_cell_volume   215.29337947
_cell_formula_units_Z   1
loop_
 _symmetry_equiv_pos_site_id
 _symmetry_equiv_pos_as_xyz
  1  'x, y, z'
loop_
 _atom_site_type_symbol
 _atom_site_label
 _atom_site_symmetry_multiplicity
 _atom_site_fract_x
 _atom_site_fract_y
 _atom_site_fract_z
 _atom_site_occupancy
  Yb  Yb0  1  0.000000  0.000000  0.000000  1
  Cu  Cu1  1  0.500000  0.500000  0.000000  1
  Cu  Cu2  1  0.000000  0.000000  0.500000  1
  Pd  Pd3  1  0.500000  0.000000  0.000000  1
  Pd  Pd4  1  0.500000  0.000000  0.500000  1
  Pd  Pd5  1  0.000000  0.500000  0.000000  1
  Pd  Pd6  1  0.000000  0.500000  0.500000  1
  O  O7  1  0.572752  0.157377  0.134935  1
  O  O8  1  0.134935  0.134935  0.157377  1
  O  O9  1  0.157377  0.572752  0.134935  1
  O  O10  1  0.134935  0.134935  0.572752  1
  O  O11  1  0.842623  0.427248  0.865065  1
  O  O12  1  0.865065  0.865065  0.427248  1
  O  O13  1  0.865065  0.865065  0.842623  1
  O  O14  1  0.427248  0.842623  0.865065  1
