# generated using pymatgen
data_Hf4ZnAuC2
_symmetry_space_group_name_H-M   'P 1'
_cell_length_a   8.82317700
_cell_length_b   8.82317709
_cell_length_c   4.52344900
_cell_angle_alpha   90.00000000
_cell_angle_beta   90.00000000
_cell_angle_gamma   158.93380720
_symmetry_Int_Tables_number   1
_chemical_formula_structural   Hf4ZnAuC2
_chemical_formula_sum   'Hf4 Zn1 Au1 C2'
_cell_volume   126.57666655
_cell_formula_units_Z   1
loop_
 _symmetry_equiv_pos_site_id
 _symmetry_equiv_pos_as_xyz
  1  'x, y, z'
loop_
 _atom_site_type_symbol
 _atom_site_label
 _atom_site_symmetry_multiplicity
 _atom_site_fract_x
 _atom_site_fract_y
 _atom_site_fract_z
 _atom_site_occupancy
  Hf  Hf0  1  0.789978  0.210022  0.250000  1
  Hf  Hf1  1  0.209082  0.790918  0.750000  1
  Hf  Hf2  1  0.607257  0.392743  0.250000  1
  Hf  Hf3  1  0.391586  0.608414  0.750000  1
  Zn  Zn4  1  0.044312  0.955688  0.750000  1
  Au  Au5  1  0.959597  0.040403  0.250000  1
  C  C6  1  0.196380  0.803620  0.250000  1
  C  C7  1  0.801807  0.198193  0.750000  1
