# generated using pymatgen
data_Re3Br7F2
_symmetry_space_group_name_H-M   'P 1'
_cell_length_a   9.63801523
_cell_length_b   9.73776399
_cell_length_c   9.64090783
_cell_angle_alpha   67.97409300
_cell_angle_beta   67.89393743
_cell_angle_gamma   67.97048535
_symmetry_Int_Tables_number   1
_chemical_formula_structural   Re3Br7F2
_chemical_formula_sum   'Re6 Br14 F4'
_cell_volume   747.73882878
_cell_formula_units_Z   2
loop_
 _symmetry_equiv_pos_site_id
 _symmetry_equiv_pos_as_xyz
  1  'x, y, z'
loop_
 _atom_site_type_symbol
 _atom_site_label
 _atom_site_symmetry_multiplicity
 _atom_site_fract_x
 _atom_site_fract_y
 _atom_site_fract_z
 _atom_site_occupancy
  Re  Re0  1  0.353064  0.351912  0.126142  1
  Re  Re1  1  0.126043  0.351931  0.353129  1
  Re  Re2  1  0.353108  0.127565  0.353164  1
  Re  Re3  1  0.644381  0.869171  0.644338  1
  Re  Re4  1  0.643513  0.644282  0.872922  1
  Re  Re5  1  0.872952  0.644294  0.643500  1
  Br  Br6  1  0.113785  0.116966  0.589425  1
  Br  Br7  1  0.589446  0.116950  0.113892  1
  Br  Br8  1  0.115805  0.586150  0.115886  1
  Br  Br9  1  0.878856  0.406232  0.878737  1
  Br  Br10  1  0.878822  0.880616  0.404183  1
  Br  Br11  1  0.404145  0.880650  0.878710  1
  Br  Br12  1  0.823392  0.501800  0.498949  1
  Br  Br13  1  0.498886  0.501741  0.823475  1
  Br  Br14  1  0.500865  0.823220  0.500971  1
  Br  Br15  1  0.496339  0.173888  0.496235  1
  Br  Br16  1  0.174526  0.493274  0.495194  1
  Br  Br17  1  0.495270  0.493276  0.174436  1
  Br  Br18  1  0.031592  0.730521  0.720910  1
  Br  Br19  1  0.721032  0.730626  0.031345  1
  F  F20  1  0.707367  0.995765  0.707248  1
  F  F21  1  0.288012  0.004019  0.288062  1
  F  F22  1  0.001269  0.287615  0.287659  1
  F  F23  1  0.287531  0.287541  0.001492  1
