# generated using pymatgen
data_Y7Ho13Cd3Hg3Ru2
_symmetry_space_group_name_H-M   'P 1'
_cell_length_a   9.59154478
_cell_length_b   9.58886639
_cell_length_c   9.75751888
_cell_angle_alpha   89.99999708
_cell_angle_beta   90.04224019
_cell_angle_gamma   119.99076126
_symmetry_Int_Tables_number   1
_chemical_formula_structural   Y7Ho13Cd3Hg3Ru2
_chemical_formula_sum   'Y7 Ho13 Cd3 Hg3 Ru2'
_cell_volume   777.25965239
_cell_formula_units_Z   1
loop_
 _symmetry_equiv_pos_site_id
 _symmetry_equiv_pos_as_xyz
  1  'x, y, z'
loop_
 _atom_site_type_symbol
 _atom_site_label
 _atom_site_symmetry_multiplicity
 _atom_site_fract_x
 _atom_site_fract_y
 _atom_site_fract_z
 _atom_site_occupancy
  Y  Y0  1  0.581601  0.790801  0.060521  1
  Y  Y1  1  0.541125  0.458683  0.250123  1
  Y  Y2  1  0.541125  0.082443  0.250123  1
  Y  Y3  1  0.917805  0.458903  0.250000  1
  Y  Y4  1  0.458883  0.540947  0.749818  1
  Y  Y5  1  0.458883  0.917936  0.749818  1
  Y  Y6  1  0.082157  0.541078  0.749995  1
  Ho  Ho7  1  0.999998  0.999999  0.491360  1
  Ho  Ho8  1  0.000276  0.000138  0.008555  1
  Ho  Ho9  1  0.209494  0.790485  0.439081  1
  Ho  Ho10  1  0.209494  0.419010  0.439081  1
  Ho  Ho11  1  0.580977  0.790489  0.439208  1
  Ho  Ho12  1  0.790322  0.209775  0.559916  1
  Ho  Ho13  1  0.790322  0.580548  0.559916  1
  Ho  Ho14  1  0.419431  0.209715  0.559937  1
  Ho  Ho15  1  0.790407  0.209905  0.940021  1
  Ho  Ho16  1  0.790407  0.580501  0.940021  1
  Ho  Ho17  1  0.419470  0.209735  0.940065  1
  Ho  Ho18  1  0.209332  0.790440  0.060944  1
  Ho  Ho19  1  0.209332  0.418893  0.060944  1
  Cd  Cd20  1  0.113225  0.886756  0.749984  1
  Cd  Cd21  1  0.113225  0.226469  0.749984  1
  Cd  Cd22  1  0.773547  0.886774  0.749994  1
  Hg  Hg23  1  0.880009  0.120022  0.250002  1
  Hg  Hg24  1  0.880009  0.759988  0.250002  1
  Hg  Hg25  1  0.240008  0.120005  0.250016  1
  Ru  Ru26  1  0.332512  0.666256  0.250589  1
  Ru  Ru27  1  0.666621  0.333310  0.749979  1
