# generated using pymatgen
data_NdFe2Ni2(AgO4)3
_symmetry_space_group_name_H-M   'P 1'
_cell_length_a   6.59873222
_cell_length_b   6.58646459
_cell_length_c   6.59873257
_cell_angle_alpha   109.43342543
_cell_angle_beta   109.48722225
_cell_angle_gamma   109.56848037
_symmetry_Int_Tables_number   1
_chemical_formula_structural   NdFe2Ni2(AgO4)3
_chemical_formula_sum   'Nd1 Fe2 Ni2 Ag3 O12'
_cell_volume   220.56972553
_cell_formula_units_Z   1
loop_
 _symmetry_equiv_pos_site_id
 _symmetry_equiv_pos_as_xyz
  1  'x, y, z'
loop_
 _atom_site_type_symbol
 _atom_site_label
 _atom_site_symmetry_multiplicity
 _atom_site_fract_x
 _atom_site_fract_y
 _atom_site_fract_z
 _atom_site_occupancy
  Nd  Nd0  1  0.000000  0.000000  0.000000  1
  Fe  Fe1  1  0.000000  0.000000  0.500000  1
  Fe  Fe2  1  0.500000  0.000000  0.000000  1
  Ni  Ni3  1  0.000000  0.500000  0.000000  1
  Ni  Ni4  1  0.500000  0.500000  0.500000  1
  Ag  Ag5  1  0.000000  0.500000  0.500000  1
  Ag  Ag6  1  0.500000  0.000000  0.500000  1
  Ag  Ag7  1  0.500000  0.500000  0.000000  1
  O  O8  1  0.296536  0.119742  0.823204  1
  O  O9  1  0.703464  0.880258  0.176796  1
  O  O10  1  0.703840  0.527501  0.823661  1
  O  O11  1  0.473527  0.172933  0.292547  1
  O  O12  1  0.173626  0.293299  0.473291  1
  O  O13  1  0.820008  0.293299  0.119674  1
  O  O14  1  0.880384  0.172933  0.699406  1
  O  O15  1  0.826374  0.706701  0.526709  1
  O  O16  1  0.296160  0.472499  0.176339  1
  O  O17  1  0.526473  0.827067  0.707453  1
  O  O18  1  0.179992  0.706701  0.880326  1
  O  O19  1  0.119616  0.827067  0.300594  1
