# generated using pymatgen
data_Si3As(PdRh)4
_symmetry_space_group_name_H-M   'P 1'
_cell_length_a   3.89728100
_cell_length_b   6.13585662
_cell_length_c   7.27313055
_cell_angle_alpha   89.48797893
_cell_angle_beta   90.00000000
_cell_angle_gamma   90.00000000
_symmetry_Int_Tables_number   1
_chemical_formula_structural   Si3As(PdRh)4
_chemical_formula_sum   'Si3 As1 Pd4 Rh4'
_cell_volume   173.91657092
_cell_formula_units_Z   1
loop_
 _symmetry_equiv_pos_site_id
 _symmetry_equiv_pos_as_xyz
  1  'x, y, z'
loop_
 _atom_site_type_symbol
 _atom_site_label
 _atom_site_symmetry_multiplicity
 _atom_site_fract_x
 _atom_site_fract_y
 _atom_site_fract_z
 _atom_site_occupancy
  Si  Si0  1  0.250000  0.762795  0.381536  1
  Si  Si1  1  0.750000  0.738403  0.878909  1
  Si  Si2  1  0.750000  0.238974  0.617975  1
  As  As3  1  0.250000  0.258315  0.118474  1
  Pd  Pd4  1  0.750000  0.478435  0.340640  1
  Pd  Pd5  1  0.250000  0.029135  0.826518  1
  Pd  Pd6  1  0.750000  0.955292  0.170310  1
  Pd  Pd7  1  0.250000  0.533311  0.668181  1
  Rh  Rh8  1  0.250000  0.650685  0.066743  1
  Rh  Rh9  1  0.250000  0.149910  0.434857  1
  Rh  Rh10  1  0.750000  0.852506  0.570359  1
  Rh  Rh11  1  0.750000  0.352240  0.925497  1
