# generated using pymatgen
data_Re7Si14Tc
_symmetry_space_group_name_H-M   'P 1'
_cell_length_a   3.15772930
_cell_length_b   8.34824764
_cell_length_c   11.74639125
_cell_angle_alpha   92.80212405
_cell_angle_beta   97.72467392
_cell_angle_gamma   89.99999888
_symmetry_Int_Tables_number   1
_chemical_formula_structural   Re7Si14Tc
_chemical_formula_sum   'Re7 Si14 Tc1'
_cell_volume   306.46895641
_cell_formula_units_Z   1
loop_
 _symmetry_equiv_pos_site_id
 _symmetry_equiv_pos_as_xyz
  1  'x, y, z'
loop_
 _atom_site_type_symbol
 _atom_site_label
 _atom_site_symmetry_multiplicity
 _atom_site_fract_x
 _atom_site_fract_y
 _atom_site_fract_z
 _atom_site_occupancy
  Re  Re0  1  0.274061  0.480018  0.548122  1
  Re  Re1  1  0.398166  0.366538  0.796331  1
  Re  Re2  1  0.522866  0.224281  0.045732  1
  Re  Re3  1  0.652426  0.109914  0.304852  1
  Re  Re4  1  0.768583  0.969578  0.537166  1
  Re  Re5  1  0.898245  0.850160  0.796489  1
  Re  Re6  1  0.023801  0.715862  0.047604  1
  Si  Si7  1  0.183003  0.888923  0.366007  1
  Si  Si8  1  0.316002  0.787396  0.632003  1
  Si  Si9  1  0.441939  0.655499  0.883877  1
  Si  Si10  1  0.568442  0.524122  0.136884  1
  Si  Si11  1  0.690207  0.395149  0.380413  1
  Si  Si12  1  0.826689  0.234004  0.653376  1
  Si  Si13  1  0.995658  0.000867  0.991315  1
  Si  Si14  1  0.104941  0.294038  0.209882  1
  Si  Si15  1  0.234793  0.184249  0.469585  1
  Si  Si16  1  0.729961  0.684295  0.459923  1
  Si  Si17  1  0.855436  0.560382  0.710872  1
  Si  Si18  1  0.980970  0.422026  0.961940  1
  Si  Si19  1  0.578404  0.896956  0.156807  1
  Si  Si20  1  0.413864  0.080659  0.827728  1
  Tc  Tc21  1  0.149414  0.588481  0.298829  1
