# generated using pymatgen
data_Y3Er9(TcRh)2
_symmetry_space_group_name_H-M   'P 1'
_cell_length_a   6.28920941
_cell_length_b   7.32211329
_cell_length_c   9.13129300
_cell_angle_alpha   90.00000000
_cell_angle_beta   90.00000000
_cell_angle_gamma   89.83733325
_symmetry_Int_Tables_number   1
_chemical_formula_structural   Y3Er9(TcRh)2
_chemical_formula_sum   'Y3 Er9 Tc2 Rh2'
_cell_volume   420.49712224
_cell_formula_units_Z   1
loop_
 _symmetry_equiv_pos_site_id
 _symmetry_equiv_pos_as_xyz
  1  'x, y, z'
loop_
 _atom_site_type_symbol
 _atom_site_label
 _atom_site_symmetry_multiplicity
 _atom_site_fract_x
 _atom_site_fract_y
 _atom_site_fract_z
 _atom_site_occupancy
  Y  Y0  1  0.870666  0.961106  0.750000  1
  Y  Y1  1  0.371703  0.538872  0.250000  1
  Y  Y2  1  0.627201  0.462473  0.750000  1
  Er  Er3  1  0.670568  0.176119  0.065297  1
  Er  Er4  1  0.169157  0.322534  0.935423  1
  Er  Er5  1  0.834968  0.679795  0.438027  1
  Er  Er6  1  0.333056  0.821917  0.560537  1
  Er  Er7  1  0.333056  0.821917  0.939463  1
  Er  Er8  1  0.834968  0.679795  0.061973  1
  Er  Er9  1  0.169157  0.322534  0.564577  1
  Er  Er10  1  0.670568  0.176119  0.434703  1
  Er  Er11  1  0.130128  0.040249  0.250000  1
  Tc  Tc12  1  0.043336  0.610930  0.750000  1
  Tc  Tc13  1  0.538919  0.889611  0.250000  1
  Rh  Rh14  1  0.449306  0.112648  0.750000  1
  Rh  Rh15  1  0.953242  0.383380  0.250000  1
