# generated using pymatgen
data_Dy2TiMn(Fe4P3)2
_symmetry_space_group_name_H-M   'P 1'
_cell_length_a   3.65891900
_cell_length_b   10.34704500
_cell_length_c   12.18142900
_cell_angle_alpha   90.00000000
_cell_angle_beta   90.00000000
_cell_angle_gamma   90.00000000
_symmetry_Int_Tables_number   1
_chemical_formula_structural   Dy2TiMn(Fe4P3)2
_chemical_formula_sum   'Dy4 Ti2 Mn2 Fe16 P12'
_cell_volume   461.17671496
_cell_formula_units_Z   2
loop_
 _symmetry_equiv_pos_site_id
 _symmetry_equiv_pos_as_xyz
  1  'x, y, z'
loop_
 _atom_site_type_symbol
 _atom_site_label
 _atom_site_symmetry_multiplicity
 _atom_site_fract_x
 _atom_site_fract_y
 _atom_site_fract_z
 _atom_site_occupancy
  Dy  Dy0  1  0.250000  0.582529  0.710509  1
  Dy  Dy1  1  0.250000  0.917471  0.210509  1
  Dy  Dy2  1  0.750000  0.420753  0.289775  1
  Dy  Dy3  1  0.750000  0.079247  0.789775  1
  Ti  Ti4  1  0.750000  0.299343  0.009039  1
  Ti  Ti5  1  0.750000  0.200657  0.509039  1
  Mn  Mn6  1  0.250000  0.706374  0.993857  1
  Mn  Mn7  1  0.250000  0.793626  0.493857  1
  Fe  Fe8  1  0.250000  0.417426  0.491049  1
  Fe  Fe9  1  0.250000  0.082574  0.991049  1
  Fe  Fe10  1  0.750000  0.592080  0.508910  1
  Fe  Fe11  1  0.750000  0.907920  0.008910  1
  Fe  Fe12  1  0.250000  0.216259  0.171815  1
  Fe  Fe13  1  0.250000  0.283741  0.671815  1
  Fe  Fe14  1  0.750000  0.776689  0.827474  1
  Fe  Fe15  1  0.750000  0.723311  0.327474  1
  Fe  Fe16  1  0.250000  0.877347  0.696157  1
  Fe  Fe17  1  0.250000  0.622653  0.196157  1
  Fe  Fe18  1  0.750000  0.124113  0.301334  1
  Fe  Fe19  1  0.750000  0.375887  0.801334  1
  Fe  Fe20  1  0.250000  0.466882  0.934921  1
  Fe  Fe21  1  0.250000  0.033118  0.434921  1
  Fe  Fe22  1  0.750000  0.540801  0.064964  1
  Fe  Fe23  1  0.750000  0.959199  0.564964  1
  P  P24  1  0.250000  0.425808  0.113583  1
  P  P25  1  0.250000  0.074192  0.613583  1
  P  P26  1  0.750000  0.575047  0.887123  1
  P  P27  1  0.750000  0.924953  0.387123  1
  P  P28  1  0.250000  0.271592  0.859719  1
  P  P29  1  0.250000  0.228408  0.359719  1
  P  P30  1  0.750000  0.731885  0.139646  1
  P  P31  1  0.750000  0.768115  0.639646  1
  P  P32  1  0.250000  0.606891  0.381151  1
  P  P33  1  0.250000  0.893109  0.881151  1
  P  P34  1  0.750000  0.403569  0.618973  1
  P  P35  1  0.750000  0.096431  0.118973  1
