# generated using pymatgen
data_ErZn3CdIr
_symmetry_space_group_name_H-M   'P 1'
_cell_length_a   5.28308529
_cell_length_b   5.28308427
_cell_length_c   5.28308486
_cell_angle_alpha   59.91619449
_cell_angle_beta   59.91621512
_cell_angle_gamma   59.91618485
_symmetry_Int_Tables_number   1
_chemical_formula_structural   ErZn3CdIr
_chemical_formula_sum   'Er1 Zn3 Cd1 Ir1'
_cell_volume   104.06899735
_cell_formula_units_Z   1
loop_
 _symmetry_equiv_pos_site_id
 _symmetry_equiv_pos_as_xyz
  1  'x, y, z'
loop_
 _atom_site_type_symbol
 _atom_site_label
 _atom_site_symmetry_multiplicity
 _atom_site_fract_x
 _atom_site_fract_y
 _atom_site_fract_z
 _atom_site_occupancy
  Er  Er0  1  0.996113  0.996113  0.996113  1
  Zn  Zn1  1  0.624180  0.624180  0.128668  1
  Zn  Zn2  1  0.624180  0.128668  0.624180  1
  Zn  Zn3  1  0.128668  0.624180  0.624180  1
  Cd  Cd4  1  0.249978  0.249978  0.249978  1
  Ir  Ir5  1  0.626882  0.626882  0.626882  1
