# generated using pymatgen
data_Hf9NbZnCuSn6
_symmetry_space_group_name_H-M   'P 1'
_cell_length_a   8.58081800
_cell_length_b   8.58081804
_cell_length_c   5.80760000
_cell_angle_alpha   90.00000000
_cell_angle_beta   90.00000000
_cell_angle_gamma   119.99999212
_symmetry_Int_Tables_number   1
_chemical_formula_structural   Hf9NbZnCuSn6
_chemical_formula_sum   'Hf9 Nb1 Zn1 Cu1 Sn6'
_cell_volume   370.32646211
_cell_formula_units_Z   1
loop_
 _symmetry_equiv_pos_site_id
 _symmetry_equiv_pos_as_xyz
  1  'x, y, z'
loop_
 _atom_site_type_symbol
 _atom_site_label
 _atom_site_symmetry_multiplicity
 _atom_site_fract_x
 _atom_site_fract_y
 _atom_site_fract_z
 _atom_site_occupancy
  Hf  Hf0  1  0.666667  0.333333  0.500000  1
  Hf  Hf1  1  0.666667  0.333333  0.000000  1
  Hf  Hf2  1  0.333333  0.666667  0.500000  1
  Hf  Hf3  1  0.265776  0.999862  0.250671  1
  Hf  Hf4  1  0.265776  0.265914  0.749329  1
  Hf  Hf5  1  0.000138  0.734224  0.749329  1
  Hf  Hf6  1  0.000138  0.265914  0.250671  1
  Hf  Hf7  1  0.734086  0.734224  0.250671  1
  Hf  Hf8  1  0.734086  0.999862  0.749329  1
  Nb  Nb9  1  0.333333  0.666667  0.000000  1
  Zn  Zn10  1  0.000000  0.000000  0.000000  1
  Cu  Cu11  1  0.000000  0.000000  0.500000  1
  Sn  Sn12  1  0.611980  0.998188  0.247573  1
  Sn  Sn13  1  0.611980  0.613793  0.752427  1
  Sn  Sn14  1  0.001812  0.388020  0.752427  1
  Sn  Sn15  1  0.001812  0.613793  0.247573  1
  Sn  Sn16  1  0.386207  0.388020  0.247573  1
  Sn  Sn17  1  0.386207  0.998188  0.752427  1
