# generated using pymatgen
data_Pa4CN3
_symmetry_space_group_name_H-M   'P 1'
_cell_length_a   11.81055164
_cell_length_b   11.81055151
_cell_length_c   11.81055054
_cell_angle_alpha   17.10250534
_cell_angle_beta   17.10250718
_cell_angle_gamma   17.10250893
_symmetry_Int_Tables_number   1
_chemical_formula_structural   Pa4CN3
_chemical_formula_sum   'Pa4 C1 N3'
_cell_volume   124.30559861
_cell_formula_units_Z   1
loop_
 _symmetry_equiv_pos_site_id
 _symmetry_equiv_pos_as_xyz
  1  'x, y, z'
loop_
 _atom_site_type_symbol
 _atom_site_label
 _atom_site_symmetry_multiplicity
 _atom_site_fract_x
 _atom_site_fract_y
 _atom_site_fract_z
 _atom_site_occupancy
  Pa  Pa0  1  0.874781  0.874781  0.874781  1
  Pa  Pa1  1  0.125219  0.125219  0.125219  1
  Pa  Pa2  1  0.375425  0.375425  0.375425  1
  Pa  Pa3  1  0.624575  0.624575  0.624575  1
  C  C4  1  0.000000  0.000000  0.000000  1
  N  N5  1  0.248198  0.248198  0.248198  1
  N  N6  1  0.500000  0.500000  0.500000  1
  N  N7  1  0.751802  0.751802  0.751802  1
