# generated using pymatgen
data_Dy2U(SnRh)3
_symmetry_space_group_name_H-M   'P 1'
_cell_length_a   7.47815921
_cell_length_b   7.47816006
_cell_length_c   3.89541700
_cell_angle_alpha   90.00000000
_cell_angle_beta   90.00000000
_cell_angle_gamma   118.61371336
_symmetry_Int_Tables_number   1
_chemical_formula_structural   Dy2U(SnRh)3
_chemical_formula_sum   'Dy2 U1 Sn3 Rh3'
_cell_volume   191.23739733
_cell_formula_units_Z   1
loop_
 _symmetry_equiv_pos_site_id
 _symmetry_equiv_pos_as_xyz
  1  'x, y, z'
loop_
 _atom_site_type_symbol
 _atom_site_label
 _atom_site_symmetry_multiplicity
 _atom_site_fract_x
 _atom_site_fract_y
 _atom_site_fract_z
 _atom_site_occupancy
  Dy  Dy0  1  0.594052  0.000891  0.500000  1
  Dy  Dy1  1  0.000891  0.594052  0.500000  1
  U  U2  1  0.415173  0.415173  0.500000  1
  Sn  Sn3  1  0.756213  0.756213  0.000000  1
  Sn  Sn4  1  0.257347  0.987148  0.000000  1
  Sn  Sn5  1  0.987148  0.257347  0.000000  1
  Rh  Rh6  1  0.634191  0.337216  0.000000  1
  Rh  Rh7  1  0.337216  0.634191  0.000000  1
  Rh  Rh8  1  0.017770  0.017770  0.500000  1
