# generated using pymatgen
data_ScNb2Re2Si3Ru
_symmetry_space_group_name_H-M   'P 1'
_cell_length_a   6.70802500
_cell_length_b   6.87453716
_cell_length_c   3.42068300
_cell_angle_alpha   90.00000000
_cell_angle_beta   90.00000000
_cell_angle_gamma   119.20193483
_symmetry_Int_Tables_number   1
_chemical_formula_structural   ScNb2Re2Si3Ru
_chemical_formula_sum   'Sc1 Nb2 Re2 Si3 Ru1'
_cell_volume   137.69502412
_cell_formula_units_Z   1
loop_
 _symmetry_equiv_pos_site_id
 _symmetry_equiv_pos_as_xyz
  1  'x, y, z'
loop_
 _atom_site_type_symbol
 _atom_site_label
 _atom_site_symmetry_multiplicity
 _atom_site_fract_x
 _atom_site_fract_y
 _atom_site_fract_z
 _atom_site_occupancy
  Sc  Sc0  1  0.403111  0.000000  0.500000  1
  Nb  Nb1  1  0.009944  0.413459  0.500000  1
  Nb  Nb2  1  0.596485  0.586541  0.500000  1
  Re  Re3  1  0.997363  0.746335  0.000000  1
  Re  Re4  1  0.251028  0.253665  0.000000  1
  Si  Si5  1  0.339590  0.668901  0.000000  1
  Si  Si6  1  0.670691  0.331099  0.000000  1
  Si  Si7  1  0.985326  0.000000  0.500000  1
  Ru  Ru8  1  0.746464  0.000000  0.000000  1
