# generated using pymatgen
data_Zn3In9Co4
_symmetry_space_group_name_H-M   'P 1'
_cell_length_a   6.68098024
_cell_length_b   6.72722534
_cell_length_c   7.09661500
_cell_angle_alpha   90.00000000
_cell_angle_beta   90.00000000
_cell_angle_gamma   89.51726029
_symmetry_Int_Tables_number   1
_chemical_formula_structural   Zn3In9Co4
_chemical_formula_sum   'Zn3 In9 Co4'
_cell_volume   318.94220502
_cell_formula_units_Z   1
loop_
 _symmetry_equiv_pos_site_id
 _symmetry_equiv_pos_as_xyz
  1  'x, y, z'
loop_
 _atom_site_type_symbol
 _atom_site_label
 _atom_site_symmetry_multiplicity
 _atom_site_fract_x
 _atom_site_fract_y
 _atom_site_fract_z
 _atom_site_occupancy
  Zn  Zn0  1  0.000000  0.500000  0.000000  1
  Zn  Zn1  1  0.500000  0.000000  0.000000  1
  Zn  Zn2  1  0.000000  0.500000  0.500000  1
  In  In3  1  0.330755  0.346530  0.257558  1
  In  In4  1  0.158976  0.829673  0.768949  1
  In  In5  1  0.158976  0.829673  0.231051  1
  In  In6  1  0.841024  0.170327  0.231051  1
  In  In7  1  0.841024  0.170327  0.768949  1
  In  In8  1  0.669245  0.653470  0.257558  1
  In  In9  1  0.669245  0.653470  0.742442  1
  In  In10  1  0.330755  0.346530  0.742442  1
  In  In11  1  0.500000  0.000000  0.500000  1
  Co  Co12  1  0.152325  0.148835  0.000000  1
  Co  Co13  1  0.651868  0.352193  0.500000  1
  Co  Co14  1  0.348132  0.647807  0.500000  1
  Co  Co15  1  0.847675  0.851165  0.000000  1
