# generated using pymatgen
data_PrTh2(CuSi)4
_symmetry_space_group_name_H-M   'P 1'
_cell_length_a   4.14294528
_cell_length_b   4.12313528
_cell_length_c   12.33272412
_cell_angle_alpha   99.62286180
_cell_angle_beta   99.66955903
_cell_angle_gamma   90.00001013
_symmetry_Int_Tables_number   1
_chemical_formula_structural   PrTh2(CuSi)4
_chemical_formula_sum   'Pr1 Th2 Cu4 Si4'
_cell_volume   204.66613431
_cell_formula_units_Z   1
loop_
 _symmetry_equiv_pos_site_id
 _symmetry_equiv_pos_as_xyz
  1  'x, y, z'
loop_
 _atom_site_type_symbol
 _atom_site_label
 _atom_site_symmetry_multiplicity
 _atom_site_fract_x
 _atom_site_fract_y
 _atom_site_fract_z
 _atom_site_occupancy
  Pr  Pr0  1  0.850959  0.350959  0.701919  1
  Th  Th1  1  0.148315  0.648315  0.296629  1
  Th  Th2  1  0.000572  0.000572  0.001144  1
  Cu  Cu3  1  0.248882  0.248882  0.497763  1
  Cu  Cu4  1  0.750180  0.750180  0.500362  1
  Cu  Cu5  1  0.597228  0.097228  0.194456  1
  Cu  Cu6  1  0.403490  0.903490  0.806980  1
  Si  Si7  1  0.450534  0.450534  0.901069  1
  Si  Si8  1  0.549769  0.549769  0.099537  1
  Si  Si9  1  0.695963  0.195963  0.391926  1
  Si  Si10  1  0.304108  0.804108  0.608217  1
