# generated using pymatgen
data_Tb3ErBi3Sb3Rh7
_symmetry_space_group_name_H-M   'P 1'
_cell_length_a   7.77596613
_cell_length_b   7.70376400
_cell_length_c   7.70376180
_cell_angle_alpha   109.28058091
_cell_angle_beta   109.66119029
_cell_angle_gamma   109.66119287
_symmetry_Int_Tables_number   1
_chemical_formula_structural   Tb3ErBi3Sb3Rh7
_chemical_formula_sum   'Tb3 Er1 Bi3 Sb3 Rh7'
_cell_volume   354.41714429
_cell_formula_units_Z   1
loop_
 _symmetry_equiv_pos_site_id
 _symmetry_equiv_pos_as_xyz
  1  'x, y, z'
loop_
 _atom_site_type_symbol
 _atom_site_label
 _atom_site_symmetry_multiplicity
 _atom_site_fract_x
 _atom_site_fract_y
 _atom_site_fract_z
 _atom_site_occupancy
  Tb  Tb0  1  0.004214  0.514108  0.000000  1
  Tb  Tb1  1  0.004214  0.000000  0.514108  1
  Tb  Tb2  1  0.490105  0.485892  0.485892  1
  Er  Er3  1  0.462148  0.000000  0.000000  1
  Bi  Bi4  1  0.986933  0.296927  0.296927  1
  Bi  Bi5  1  0.690006  0.000000  0.703073  1
  Bi  Bi6  1  0.690006  0.703073  0.000000  1
  Sb  Sb7  1  0.988828  0.664239  0.664239  1
  Sb  Sb8  1  0.324589  0.000000  0.335761  1
  Sb  Sb9  1  0.324589  0.335761  0.000000  1
  Rh  Rh10  1  0.071862  0.000000  0.000000  1
  Rh  Rh11  1  0.495724  0.753324  0.252595  1
  Rh  Rh12  1  0.742400  0.499272  0.246676  1
  Rh  Rh13  1  0.243129  0.747405  0.500728  1
  Rh  Rh14  1  0.243129  0.500728  0.747405  1
  Rh  Rh15  1  0.495724  0.252595  0.753324  1
  Rh  Rh16  1  0.742400  0.246676  0.499272  1
