# generated using pymatgen
data_Ce2TcNi2P4Ir
_symmetry_space_group_name_H-M   'P 1'
_cell_length_a   4.12906200
_cell_length_b   4.12906200
_cell_length_c   9.17361100
_cell_angle_alpha   90.00000000
_cell_angle_beta   90.00000000
_cell_angle_gamma   90.00000000
_symmetry_Int_Tables_number   1
_chemical_formula_structural   Ce2TcNi2P4Ir
_chemical_formula_sum   'Ce2 Tc1 Ni2 P4 Ir1'
_cell_volume   156.40229750
_cell_formula_units_Z   1
loop_
 _symmetry_equiv_pos_site_id
 _symmetry_equiv_pos_as_xyz
  1  'x, y, z'
loop_
 _atom_site_type_symbol
 _atom_site_label
 _atom_site_symmetry_multiplicity
 _atom_site_fract_x
 _atom_site_fract_y
 _atom_site_fract_z
 _atom_site_occupancy
  Ce  Ce0  1  0.000000  0.500000  0.239124  1
  Ce  Ce1  1  0.500000  0.000000  0.760876  1
  Tc  Tc2  1  0.000000  0.000000  0.500000  1
  Ni  Ni3  1  0.000000  0.500000  0.891023  1
  Ni  Ni4  1  0.500000  0.000000  0.108977  1
  P  P5  1  0.000000  0.000000  0.000000  1
  P  P6  1  0.500000  0.500000  0.000000  1
  P  P7  1  0.000000  0.500000  0.637187  1
  P  P8  1  0.500000  0.000000  0.362813  1
  Ir  Ir9  1  0.500000  0.500000  0.500000  1
