# generated using pymatgen
data_TbSi2(AsRh3)2
_symmetry_space_group_name_H-M   'P 1'
_cell_length_a   7.16712800
_cell_length_b   7.16163680
_cell_length_c   3.78794900
_cell_angle_alpha   90.00000000
_cell_angle_beta   90.00000000
_cell_angle_gamma   120.02535794
_symmetry_Int_Tables_number   1
_chemical_formula_structural   TbSi2(AsRh3)2
_chemical_formula_sum   'Tb1 Si2 As2 Rh6'
_cell_volume   168.33761847
_cell_formula_units_Z   1
loop_
 _symmetry_equiv_pos_site_id
 _symmetry_equiv_pos_as_xyz
  1  'x, y, z'
loop_
 _atom_site_type_symbol
 _atom_site_label
 _atom_site_symmetry_multiplicity
 _atom_site_fract_x
 _atom_site_fract_y
 _atom_site_fract_z
 _atom_site_occupancy
  Tb  Tb0  1  0.994935  0.989870  0.000000  1
  Si  Si1  1  0.803700  0.607397  0.500000  1
  Si  Si2  1  0.333999  0.667998  0.000000  1
  As  As3  1  0.383039  0.193620  0.500000  1
  As  As4  1  0.810582  0.193620  0.500000  1
  Rh  Rh5  1  0.531291  0.062581  0.000000  1
  Rh  Rh6  1  0.602650  0.796789  0.500000  1
  Rh  Rh7  1  0.203922  0.407844  0.500000  1
  Rh  Rh8  1  0.541631  0.475078  0.000000  1
  Rh  Rh9  1  0.194139  0.796789  0.500000  1
  Rh  Rh10  1  0.933447  0.475078  0.000000  1
