# generated using pymatgen
data_Ca18YbIn8N7
_symmetry_space_group_name_H-M   'P 1'
_cell_length_a   10.42808203
_cell_length_b   10.42809533
_cell_length_c   10.42803900
_cell_angle_alpha   59.99991207
_cell_angle_beta   59.99994560
_cell_angle_gamma   60.00010318
_symmetry_Int_Tables_number   1
_chemical_formula_structural   Ca18YbIn8N7
_chemical_formula_sum   'Ca18 Yb1 In8 N7'
_cell_volume   801.85705013
_cell_formula_units_Z   1
loop_
 _symmetry_equiv_pos_site_id
 _symmetry_equiv_pos_as_xyz
  1  'x, y, z'
loop_
 _atom_site_type_symbol
 _atom_site_label
 _atom_site_symmetry_multiplicity
 _atom_site_fract_x
 _atom_site_fract_y
 _atom_site_fract_z
 _atom_site_occupancy
  Ca  Ca0  1  0.173530  0.500000  0.826471  1
  Ca  Ca1  1  0.500001  0.826470  0.173528  1
  Ca  Ca2  1  0.826472  0.173528  0.499999  1
  Ca  Ca3  1  0.166554  0.833447  0.166554  1
  Ca  Ca4  1  0.826470  0.500000  0.173529  1
  Ca  Ca5  1  0.173528  0.826472  0.500001  1
  Ca  Ca6  1  0.166553  0.166553  0.833446  1
  Ca  Ca7  1  0.173529  0.500000  0.499999  1
  Ca  Ca8  1  0.833447  0.833447  0.166554  1
  Ca  Ca9  1  0.833446  0.166553  0.833446  1
  Ca  Ca10  1  0.500001  0.826469  0.500000  1
  Ca  Ca11  1  0.500000  0.500000  0.173529  1
  Ca  Ca12  1  0.166554  0.833447  0.833445  1
  Ca  Ca13  1  0.499999  0.173530  0.826472  1
  Ca  Ca14  1  0.499999  0.173531  0.500000  1
  Ca  Ca15  1  0.826471  0.500000  0.500001  1
  Ca  Ca16  1  0.833446  0.166553  0.166555  1
  Ca  Ca17  1  0.500000  0.500000  0.826471  1
  Yb  Yb18  1  0.500000  0.500000  0.500000  1
  In  In19  1  0.174800  0.174799  0.475601  1
  In  In20  1  0.825204  0.524390  0.825203  1
  In  In21  1  0.475610  0.174796  0.174797  1
  In  In22  1  0.174796  0.475610  0.174797  1
  In  In23  1  0.524390  0.825204  0.825203  1
  In  In24  1  0.174798  0.174797  0.174797  1
  In  In25  1  0.825202  0.825203  0.825203  1
  In  In26  1  0.825200  0.825201  0.524399  1
  N  N27  1  0.672914  0.327086  0.672914  1
  N  N28  1  0.672914  0.327086  0.327086  1
  N  N29  1  0.327086  0.672914  0.672914  1
  N  N30  1  0.327086  0.672914  0.327086  1
  N  N31  1  0.327086  0.327087  0.672914  1
  N  N32  1  0.672914  0.672913  0.327086  1
  N  N33  1  0.000000  0.000000  0.000000  1
