# generated using pymatgen
data_Tb3Eu3Se8
_symmetry_space_group_name_H-M   'P 1'
_cell_length_a   7.68433914
_cell_length_b   7.68587177
_cell_length_c   7.72572273
_cell_angle_alpha   109.05615736
_cell_angle_beta   109.79033249
_cell_angle_gamma   109.36720047
_symmetry_Int_Tables_number   1
_chemical_formula_structural   Tb3Eu3Se8
_chemical_formula_sum   'Tb3 Eu3 Se8'
_cell_volume   352.10369788
_cell_formula_units_Z   1
loop_
 _symmetry_equiv_pos_site_id
 _symmetry_equiv_pos_as_xyz
  1  'x, y, z'
loop_
 _atom_site_type_symbol
 _atom_site_label
 _atom_site_symmetry_multiplicity
 _atom_site_fract_x
 _atom_site_fract_y
 _atom_site_fract_z
 _atom_site_occupancy
  Tb  Tb0  1  0.751509  0.875675  0.628458  1
  Tb  Tb1  1  0.375612  0.125592  0.749996  1
  Tb  Tb2  1  0.247226  0.623085  0.871484  1
  Eu  Eu3  1  0.877616  0.750132  0.124925  1
  Eu  Eu4  1  0.124005  0.374020  0.250000  1
  Eu  Eu5  1  0.625213  0.252627  0.375194  1
  Se  Se6  1  0.144146  0.994382  0.989488  1
  Se  Se7  1  0.632341  0.994122  0.988112  1
  Se  Se8  1  0.493935  0.500009  0.134957  1
  Se  Se9  1  0.365026  0.858937  0.365000  1
  Se  Se10  1  0.005976  0.144216  0.511876  1
  Se  Se11  1  0.004906  0.654674  0.510515  1
  Se  Se12  1  0.498196  0.503951  0.649603  1
  Se  Se13  1  0.854291  0.348578  0.850393  1
