# generated using pymatgen
data_Tm5Zr2P12Ir17
_symmetry_space_group_name_H-M   'P 1'
_cell_length_a   12.88010243
_cell_length_b   12.88010194
_cell_length_c   3.96766600
_cell_angle_alpha   90.00000000
_cell_angle_beta   90.00000000
_cell_angle_gamma   121.20773040
_symmetry_Int_Tables_number   1
_chemical_formula_structural   Tm5Zr2P12Ir17
_chemical_formula_sum   'Tm5 Zr2 P12 Ir17'
_cell_volume   562.97528712
_cell_formula_units_Z   1
loop_
 _symmetry_equiv_pos_site_id
 _symmetry_equiv_pos_as_xyz
  1  'x, y, z'
loop_
 _atom_site_type_symbol
 _atom_site_label
 _atom_site_symmetry_multiplicity
 _atom_site_fract_x
 _atom_site_fract_y
 _atom_site_fract_z
 _atom_site_occupancy
  Tm  Tm0  1  0.331045  0.669705  0.000000  1
  Tm  Tm1  1  0.669705  0.331045  0.000000  1
  Tm  Tm2  1  0.816797  0.999800  0.500000  1
  Tm  Tm3  1  0.999800  0.816797  0.500000  1
  Tm  Tm4  1  0.186673  0.186673  0.500000  1
  Zr  Zr5  1  0.449420  0.002620  0.000000  1
  Zr  Zr6  1  0.002620  0.449420  0.000000  1
  P  P7  1  0.174175  0.000940  0.000000  1
  P  P8  1  0.000940  0.174175  0.000000  1
  P  P9  1  0.818769  0.818769  0.000000  1
  P  P10  1  0.171974  0.485333  0.500000  1
  P  P11  1  0.515520  0.689857  0.500000  1
  P  P12  1  0.316585  0.835551  0.500000  1
  P  P13  1  0.689857  0.515520  0.500000  1
  P  P14  1  0.835551  0.316585  0.500000  1
  P  P15  1  0.485333  0.171974  0.500000  1
  P  P16  1  0.646095  0.993573  0.000000  1
  P  P17  1  0.993573  0.646095  0.000000  1
  P  P18  1  0.353985  0.353985  0.000000  1
  Ir  Ir19  1  0.534287  0.534287  0.000000  1
  Ir  Ir20  1  0.359712  0.495837  0.500000  1
  Ir  Ir21  1  0.515212  0.871386  0.500000  1
  Ir  Ir22  1  0.142215  0.645563  0.500000  1
  Ir  Ir23  1  0.871386  0.515212  0.500000  1
  Ir  Ir24  1  0.645563  0.142215  0.500000  1
  Ir  Ir25  1  0.495837  0.359712  0.500000  1
  Ir  Ir26  1  0.184337  0.374824  0.000000  1
  Ir  Ir27  1  0.622226  0.796835  0.000000  1
  Ir  Ir28  1  0.186389  0.821940  0.000000  1
  Ir  Ir29  1  0.796835  0.622226  0.000000  1
  Ir  Ir30  1  0.821940  0.186389  0.000000  1
  Ir  Ir31  1  0.374824  0.184337  0.000000  1
  Ir  Ir32  1  0.279811  0.002950  0.500000  1
  Ir  Ir33  1  0.002950  0.279811  0.500000  1
  Ir  Ir34  1  0.712040  0.712040  0.500000  1
  Ir  Ir35  1  0.996017  0.996017  0.000000  1
