# generated using pymatgen
data_Tb8Y2FeCoSb4
_symmetry_space_group_name_H-M   'P 1'
_cell_length_a   7.94579200
_cell_length_b   8.81280400
_cell_length_c   12.29928100
_cell_angle_alpha   90.00000000
_cell_angle_beta   90.00000000
_cell_angle_gamma   90.00000000
_symmetry_Int_Tables_number   1
_chemical_formula_structural   Tb8Y2FeCoSb4
_chemical_formula_sum   'Tb16 Y4 Fe2 Co2 Sb8'
_cell_volume   861.25355474
_cell_formula_units_Z   2
loop_
 _symmetry_equiv_pos_site_id
 _symmetry_equiv_pos_as_xyz
  1  'x, y, z'
loop_
 _atom_site_type_symbol
 _atom_site_label
 _atom_site_symmetry_multiplicity
 _atom_site_fract_x
 _atom_site_fract_y
 _atom_site_fract_z
 _atom_site_occupancy
  Tb  Tb0  1  0.451562  0.750000  0.996904  1
  Tb  Tb1  1  0.951562  0.250000  0.503096  1
  Tb  Tb2  1  0.547144  0.250000  0.002571  1
  Tb  Tb3  1  0.047144  0.750000  0.497429  1
  Tb  Tb4  1  0.622201  0.750000  0.305404  1
  Tb  Tb5  1  0.122201  0.250000  0.194596  1
  Tb  Tb6  1  0.377452  0.250000  0.694443  1
  Tb  Tb7  1  0.877452  0.750000  0.805557  1
  Tb  Tb8  1  0.823041  0.967016  0.063753  1
  Tb  Tb9  1  0.323041  0.032984  0.436247  1
  Tb  Tb10  1  0.178818  0.461962  0.935687  1
  Tb  Tb11  1  0.678818  0.538038  0.564313  1
  Tb  Tb12  1  0.178818  0.038038  0.935687  1
  Tb  Tb13  1  0.678818  0.961962  0.564313  1
  Tb  Tb14  1  0.823041  0.532984  0.063753  1
  Tb  Tb15  1  0.323041  0.467016  0.436247  1
  Y  Y16  1  0.155950  0.750000  0.205736  1
  Y  Y17  1  0.655950  0.250000  0.294264  1
  Y  Y18  1  0.845896  0.250000  0.796671  1
  Y  Y19  1  0.345896  0.750000  0.703329  1
  Fe  Fe20  1  0.427518  0.750000  0.486449  1
  Fe  Fe21  1  0.927518  0.250000  0.013551  1
  Co  Co22  1  0.569159  0.250000  0.510733  1
  Co  Co23  1  0.069159  0.750000  0.989267  1
  Sb  Sb24  1  0.927709  0.992235  0.327358  1
  Sb  Sb25  1  0.427709  0.007765  0.172642  1
  Sb  Sb26  1  0.071991  0.492048  0.672987  1
  Sb  Sb27  1  0.571991  0.507952  0.827013  1
  Sb  Sb28  1  0.071991  0.007952  0.672987  1
  Sb  Sb29  1  0.571991  0.992048  0.827013  1
  Sb  Sb30  1  0.927709  0.507765  0.327358  1
  Sb  Sb31  1  0.427709  0.492235  0.172642  1
