# generated using pymatgen
data_HoHO
_symmetry_space_group_name_H-M   'P 1'
_cell_length_a   3.72673423
_cell_length_b   3.72673501
_cell_length_c   3.72673400
_cell_angle_alpha   59.99999125
_cell_angle_beta   59.99998425
_cell_angle_gamma   59.99998625
_symmetry_Int_Tables_number   1
_chemical_formula_structural   HoHO
_chemical_formula_sum   'Ho1 H1 O1'
_cell_volume   36.59908330
_cell_formula_units_Z   1
loop_
 _symmetry_equiv_pos_site_id
 _symmetry_equiv_pos_as_xyz
  1  'x, y, z'
loop_
 _atom_site_type_symbol
 _atom_site_label
 _atom_site_symmetry_multiplicity
 _atom_site_fract_x
 _atom_site_fract_y
 _atom_site_fract_z
 _atom_site_occupancy
  Ho  Ho0  1  0.000000  0.000000  0.000000  1
  H  H1  1  0.250000  0.250000  0.250000  1
  O  O2  1  0.750000  0.750000  0.750000  1
