# generated using pymatgen
data_Bi(OsO3)2
_symmetry_space_group_name_H-M   'P 1'
_cell_length_a   4.90854275
_cell_length_b   5.56451722
_cell_length_c   8.51218843
_cell_angle_alpha   91.74244736
_cell_angle_beta   106.73924880
_cell_angle_gamma   89.98600023
_symmetry_Int_Tables_number   1
_chemical_formula_structural   Bi(OsO3)2
_chemical_formula_sum   'Bi2 Os4 O12'
_cell_volume   222.53530715
_cell_formula_units_Z   2
loop_
 _symmetry_equiv_pos_site_id
 _symmetry_equiv_pos_as_xyz
  1  'x, y, z'
loop_
 _atom_site_type_symbol
 _atom_site_label
 _atom_site_symmetry_multiplicity
 _atom_site_fract_x
 _atom_site_fract_y
 _atom_site_fract_z
 _atom_site_occupancy
  Bi  Bi0  1  0.735102  0.750078  0.999978  1
  Bi  Bi1  1  0.264925  0.249934  0.000019  1
  Os  Os2  1  0.414386  0.885308  0.359009  1
  Os  Os3  1  0.944285  0.385423  0.358850  1
  Os  Os4  1  0.055695  0.614630  0.641168  1
  Os  Os5  1  0.585600  0.114660  0.640972  1
  O  O6  1  0.469508  0.914654  0.139556  1
  O  O7  1  0.669752  0.414689  0.139508  1
  O  O8  1  0.165729  0.610183  0.269302  1
  O  O9  1  0.103116  0.109805  0.269131  1
  O  O10  1  0.741264  0.665098  0.432235  1
  O  O11  1  0.691169  0.165209  0.432310  1
  O  O12  1  0.308811  0.834778  0.567697  1
  O  O13  1  0.258683  0.334888  0.567680  1
  O  O14  1  0.834359  0.389887  0.730752  1
  O  O15  1  0.896910  0.890138  0.730857  1
  O  O16  1  0.530487  0.085353  0.860471  1
  O  O17  1  0.330218  0.585283  0.860502  1
