# generated using pymatgen
data_YLu2(Ni3As2)3
_symmetry_space_group_name_H-M   'P 1'
_cell_length_a   3.86978700
_cell_length_b   10.80953300
_cell_length_c   12.68715800
_cell_angle_alpha   90.00000000
_cell_angle_beta   90.00000000
_cell_angle_gamma   90.00000000
_symmetry_Int_Tables_number   1
_chemical_formula_structural   YLu2(Ni3As2)3
_chemical_formula_sum   'Y2 Lu4 Ni18 As12'
_cell_volume   530.71130811
_cell_formula_units_Z   2
loop_
 _symmetry_equiv_pos_site_id
 _symmetry_equiv_pos_as_xyz
  1  'x, y, z'
loop_
 _atom_site_type_symbol
 _atom_site_label
 _atom_site_symmetry_multiplicity
 _atom_site_fract_x
 _atom_site_fract_y
 _atom_site_fract_z
 _atom_site_occupancy
  Y  Y0  1  0.000000  0.500000  0.523639  1
  Y  Y1  1  0.500000  0.000000  0.476361  1
  Lu  Lu2  1  0.500000  0.816857  0.206634  1
  Lu  Lu3  1  0.500000  0.183143  0.206634  1
  Lu  Lu4  1  0.000000  0.683143  0.793366  1
  Lu  Lu5  1  0.000000  0.316857  0.793366  1
  Ni  Ni6  1  0.500000  0.500000  0.156355  1
  Ni  Ni7  1  0.000000  0.000000  0.843645  1
  Ni  Ni8  1  0.500000  0.500000  0.700280  1
  Ni  Ni9  1  0.000000  0.000000  0.299720  1
  Ni  Ni10  1  0.000000  0.500000  0.982089  1
  Ni  Ni11  1  0.500000  0.000000  0.017911  1
  Ni  Ni12  1  0.500000  0.332737  0.997519  1
  Ni  Ni13  1  0.500000  0.667263  0.997519  1
  Ni  Ni14  1  0.000000  0.167263  0.002481  1
  Ni  Ni15  1  0.000000  0.832737  0.002481  1
  Ni  Ni16  1  0.500000  0.302605  0.426043  1
  Ni  Ni17  1  0.500000  0.697395  0.426043  1
  Ni  Ni18  1  0.000000  0.197395  0.573957  1
  Ni  Ni19  1  0.000000  0.802605  0.573957  1
  Ni  Ni20  1  0.500000  0.878685  0.707964  1
  Ni  Ni21  1  0.500000  0.121315  0.707964  1
  Ni  Ni22  1  0.000000  0.621315  0.292036  1
  Ni  Ni23  1  0.000000  0.378685  0.292036  1
  As  As24  1  0.500000  0.500000  0.875953  1
  As  As25  1  0.000000  0.000000  0.124047  1
  As  As26  1  0.500000  0.500000  0.345137  1
  As  As27  1  0.000000  0.000000  0.654863  1
  As  As28  1  0.500000  0.314641  0.614506  1
  As  As29  1  0.500000  0.685359  0.614506  1
  As  As30  1  0.000000  0.185359  0.385494  1
  As  As31  1  0.000000  0.814641  0.385494  1
  As  As32  1  0.500000  0.846176  0.889700  1
  As  As33  1  0.500000  0.153824  0.889700  1
  As  As34  1  0.000000  0.653824  0.110300  1
  As  As35  1  0.000000  0.346176  0.110300  1
