# generated using pymatgen
data_Li3HoEr2Pt3
_symmetry_space_group_name_H-M   'P 1'
_cell_length_a   7.08121300
_cell_length_b   7.07568345
_cell_length_c   4.06182900
_cell_angle_alpha   90.00000000
_cell_angle_beta   90.00000000
_cell_angle_gamma   119.97415247
_symmetry_Int_Tables_number   1
_chemical_formula_structural   Li3HoEr2Pt3
_chemical_formula_sum   'Li3 Ho1 Er2 Pt3'
_cell_volume   176.29556092
_cell_formula_units_Z   1
loop_
 _symmetry_equiv_pos_site_id
 _symmetry_equiv_pos_as_xyz
  1  'x, y, z'
loop_
 _atom_site_type_symbol
 _atom_site_label
 _atom_site_symmetry_multiplicity
 _atom_site_fract_x
 _atom_site_fract_y
 _atom_site_fract_z
 _atom_site_occupancy
  Li  Li0  1  0.766297  0.766681  0.500000  1
  Li  Li1  1  0.233703  0.000385  0.500000  1
  Li  Li2  1  0.000000  0.232831  0.500000  1
  Ho  Ho3  1  0.000000  0.590299  0.000000  1
  Er  Er4  1  0.409365  0.409190  0.000000  1
  Er  Er5  1  0.590635  0.999824  0.000000  1
  Pt  Pt6  1  0.000000  0.001715  0.000000  1
  Pt  Pt7  1  0.665129  0.332101  0.500000  1
  Pt  Pt8  1  0.334871  0.666972  0.500000  1
