# generated using pymatgen
data_Sm3Tm(Sn5Rh3)2
_symmetry_space_group_name_H-M   'P 1'
_cell_length_a   13.50086773
_cell_length_b   13.50085291
_cell_length_c   7.27008447
_cell_angle_alpha   89.98063692
_cell_angle_beta   90.01941295
_cell_angle_gamma   160.98309111
_symmetry_Int_Tables_number   1
_chemical_formula_structural   Sm3Tm(Sn5Rh3)2
_chemical_formula_sum   'Sm3 Tm1 Sn10 Rh6'
_cell_volume   431.79368212
_cell_formula_units_Z   1
loop_
 _symmetry_equiv_pos_site_id
 _symmetry_equiv_pos_as_xyz
  1  'x, y, z'
loop_
 _atom_site_type_symbol
 _atom_site_label
 _atom_site_symmetry_multiplicity
 _atom_site_fract_x
 _atom_site_fract_y
 _atom_site_fract_z
 _atom_site_occupancy
  Sm  Sm0  1  0.172020  0.827982  0.254836  1
  Sm  Sm1  1  0.523225  0.476772  0.738596  1
  Sm  Sm2  1  0.827946  0.172053  0.754343  1
  Tm  Tm3  1  0.475920  0.524080  0.239213  1
  Sn  Sn4  1  0.704687  0.295316  0.550028  1
  Sn  Sn5  1  0.595705  0.404290  0.114207  1
  Sn  Sn6  1  0.046931  0.953072  0.398483  1
  Sn  Sn7  1  0.952271  0.047721  0.901556  1
  Sn  Sn8  1  0.709617  0.290396  0.976448  1
  Sn  Sn9  1  0.290413  0.709595  0.476153  1
  Sn  Sn10  1  0.295835  0.704159  0.049837  1
  Sn  Sn11  1  0.880903  0.119104  0.231179  1
  Sn  Sn12  1  0.119489  0.880512  0.730879  1
  Sn  Sn13  1  0.403813  0.596183  0.612985  1
  Rh  Rh14  1  0.395306  0.604692  0.986387  1
  Rh  Rh15  1  0.777647  0.222358  0.263885  1
  Rh  Rh16  1  0.222741  0.777265  0.764126  1
  Rh  Rh17  1  0.050260  0.949732  0.021156  1
  Rh  Rh18  1  0.605918  0.394076  0.483286  1
  Rh  Rh19  1  0.949353  0.050643  0.516215  1
