# generated using pymatgen
data_TbTm7Ti3Si16Tc9
_symmetry_space_group_name_H-M   'P 1'
_cell_length_a   6.74984472
_cell_length_b   6.74913122
_cell_length_c   12.87991857
_cell_angle_alpha   89.91332882
_cell_angle_beta   90.04968854
_cell_angle_gamma   89.15659230
_symmetry_Int_Tables_number   1
_chemical_formula_structural   TbTm7Ti3Si16Tc9
_chemical_formula_sum   'Tb1 Tm7 Ti3 Si16 Tc9'
_cell_volume   586.68778772
_cell_formula_units_Z   1
loop_
 _symmetry_equiv_pos_site_id
 _symmetry_equiv_pos_as_xyz
  1  'x, y, z'
loop_
 _atom_site_type_symbol
 _atom_site_label
 _atom_site_symmetry_multiplicity
 _atom_site_fract_x
 _atom_site_fract_y
 _atom_site_fract_z
 _atom_site_occupancy
  Tb  Tb0  1  0.996709  0.663223  0.028100  1
  Tm  Tm1  1  0.337635  0.001978  0.471793  1
  Tm  Tm2  1  0.509912  0.824527  0.716641  1
  Tm  Tm3  1  0.487332  0.178151  0.217062  1
  Tm  Tm4  1  0.824509  0.509903  0.283356  1
  Tm  Tm5  1  0.178195  0.487367  0.783210  1
  Tm  Tm6  1  0.660449  0.999717  0.972207  1
  Tm  Tm7  1  0.002022  0.337712  0.528234  1
  Ti  Ti8  1  0.155180  0.845139  0.249730  1
  Ti  Ti9  1  0.845051  0.155450  0.750556  1
  Ti  Ti10  1  0.666232  0.666202  0.500100  1
  Si  Si11  1  0.211338  0.119756  0.679611  1
  Si  Si12  1  0.397847  0.681941  0.939160  1
  Si  Si13  1  0.612107  0.308716  0.437351  1
  Si  Si14  1  0.681339  0.395176  0.060592  1
  Si  Si15  1  0.308593  0.612077  0.562756  1
  Si  Si16  1  0.785998  0.883311  0.182316  1
  Si  Si17  1  0.119653  0.211166  0.320367  1
  Si  Si18  1  0.881798  0.787347  0.817749  1
  Si  Si19  1  0.264231  0.985285  0.055808  1
  Si  Si20  1  0.525538  0.804719  0.314790  1
  Si  Si21  1  0.471367  0.196738  0.815236  1
  Si  Si22  1  0.804847  0.525658  0.685213  1
  Si  Si23  1  0.197869  0.470927  0.184992  1
  Si  Si24  1  0.730500  0.023067  0.557403  1
  Si  Si25  1  0.984803  0.261572  0.944111  1
  Si  Si26  1  0.023000  0.730610  0.442565  1
  Tc  Tc27  1  0.334356  0.333289  0.999882  1
  Tc  Tc28  1  0.183876  0.979565  0.863820  1
  Tc  Tc29  1  0.475497  0.693076  0.132003  1
  Tc  Tc30  1  0.522978  0.315652  0.632410  1
  Tc  Tc31  1  0.692168  0.473207  0.867367  1
  Tc  Tc32  1  0.315765  0.522909  0.367666  1
  Tc  Tc33  1  0.817705  0.014278  0.363782  1
  Tc  Tc34  1  0.979589  0.182797  0.135819  1
  Tc  Tc35  1  0.014012  0.817794  0.636243  1
