# generated using pymatgen
data_La2Gd2Cd2CuNi3
_symmetry_space_group_name_H-M   'P 1'
_cell_length_a   7.62786000
_cell_length_b   7.65285368
_cell_length_c   3.83620300
_cell_angle_alpha   90.00000000
_cell_angle_beta   90.00000000
_cell_angle_gamma   90.35231099
_symmetry_Int_Tables_number   1
_chemical_formula_structural   La2Gd2Cd2CuNi3
_chemical_formula_sum   'La2 Gd2 Cd2 Cu1 Ni3'
_cell_volume   223.93371934
_cell_formula_units_Z   1
loop_
 _symmetry_equiv_pos_site_id
 _symmetry_equiv_pos_as_xyz
  1  'x, y, z'
loop_
 _atom_site_type_symbol
 _atom_site_label
 _atom_site_symmetry_multiplicity
 _atom_site_fract_x
 _atom_site_fract_y
 _atom_site_fract_z
 _atom_site_occupancy
  La  La0  1  0.674116  0.187919  0.000000  1
  La  La1  1  0.179178  0.321848  0.000000  1
  Gd  Gd2  1  0.313070  0.825676  0.000000  1
  Gd  Gd3  1  0.833700  0.668188  0.000000  1
  Cd  Cd4  1  0.500141  0.510091  0.500000  1
  Cd  Cd5  1  0.997423  0.995888  0.500000  1
  Cu  Cu6  1  0.615863  0.880116  0.500000  1
  Ni  Ni7  1  0.884032  0.380026  0.500000  1
  Ni  Ni8  1  0.118660  0.614084  0.500000  1
  Ni  Ni9  1  0.383817  0.116164  0.500000  1
