# generated using pymatgen
data_YbCe(CoC2)2
_symmetry_space_group_name_H-M   'P 1'
_cell_length_a   3.70832638
_cell_length_b   3.73191639
_cell_length_c   7.30313289
_cell_angle_alpha   81.68129318
_cell_angle_beta   82.72724830
_cell_angle_gamma   89.99703363
_symmetry_Int_Tables_number   1
_chemical_formula_structural   YbCe(CoC2)2
_chemical_formula_sum   'Yb1 Ce1 Co2 C4'
_cell_volume   99.18411774
_cell_formula_units_Z   1
loop_
 _symmetry_equiv_pos_site_id
 _symmetry_equiv_pos_as_xyz
  1  'x, y, z'
loop_
 _atom_site_type_symbol
 _atom_site_label
 _atom_site_symmetry_multiplicity
 _atom_site_fract_x
 _atom_site_fract_y
 _atom_site_fract_z
 _atom_site_occupancy
  Yb  Yb0  1  0.067421  0.928980  0.001122  1
  Ce  Ce1  1  0.933613  0.068845  0.499598  1
  Co  Co2  1  0.372655  0.509943  0.693440  1
  Co  Co3  1  0.511032  0.371349  0.194615  1
  C  C4  1  0.442640  0.594145  0.425769  1
  C  C5  1  0.594749  0.446339  0.929730  1
  C  C6  1  0.490658  0.857894  0.271130  1
  C  C7  1  0.854231  0.489503  0.778397  1
