# generated using pymatgen
data_TbTmTh3Si3C
_symmetry_space_group_name_H-M   'P 1'
_cell_length_a   8.74195000
_cell_length_b   8.74195019
_cell_length_c   6.36296400
_cell_angle_alpha   90.00000000
_cell_angle_beta   90.00000000
_cell_angle_gamma   119.99999927
_symmetry_Int_Tables_number   1
_chemical_formula_structural   TbTmTh3Si3C
_chemical_formula_sum   'Tb2 Tm2 Th6 Si6 C2'
_cell_volume   421.12085263
_cell_formula_units_Z   2
loop_
 _symmetry_equiv_pos_site_id
 _symmetry_equiv_pos_as_xyz
  1  'x, y, z'
loop_
 _atom_site_type_symbol
 _atom_site_label
 _atom_site_symmetry_multiplicity
 _atom_site_fract_x
 _atom_site_fract_y
 _atom_site_fract_z
 _atom_site_occupancy
  Tb  Tb0  1  0.666667  0.333333  0.000000  1
  Tb  Tb1  1  0.333333  0.666667  0.000000  1
  Tm  Tm2  1  0.333333  0.666667  0.500000  1
  Tm  Tm3  1  0.666667  0.333333  0.500000  1
  Th  Th4  1  0.766407  0.766407  0.749534  1
  Th  Th5  1  0.233593  0.000000  0.749534  1
  Th  Th6  1  0.000000  0.233593  0.749534  1
  Th  Th7  1  0.233593  0.233593  0.250466  1
  Th  Th8  1  0.766407  0.000000  0.250466  1
  Th  Th9  1  0.000000  0.766407  0.250466  1
  Si  Si10  1  0.402131  0.402131  0.745855  1
  Si  Si11  1  0.597869  0.000000  0.745855  1
  Si  Si12  1  0.000000  0.597869  0.745855  1
  Si  Si13  1  0.597869  0.597869  0.254145  1
  Si  Si14  1  0.402131  0.000000  0.254145  1
  Si  Si15  1  0.000000  0.402131  0.254145  1
  C  C16  1  0.000000  0.000000  0.000000  1
  C  C17  1  0.000000  0.000000  0.500000  1
