# generated using pymatgen
data_Dy8Si12OsPt3
_symmetry_space_group_name_H-M   'P 1'
_cell_length_a   8.17804300
_cell_length_b   8.17804362
_cell_length_c   7.97848300
_cell_angle_alpha   90.00000000
_cell_angle_beta   90.00000000
_cell_angle_gamma   119.99999343
_symmetry_Int_Tables_number   1
_chemical_formula_structural   Dy8Si12OsPt3
_chemical_formula_sum   'Dy8 Si12 Os1 Pt3'
_cell_volume   462.11471412
_cell_formula_units_Z   1
loop_
 _symmetry_equiv_pos_site_id
 _symmetry_equiv_pos_as_xyz
  1  'x, y, z'
loop_
 _atom_site_type_symbol
 _atom_site_label
 _atom_site_symmetry_multiplicity
 _atom_site_fract_x
 _atom_site_fract_y
 _atom_site_fract_z
 _atom_site_occupancy
  Dy  Dy0  1  0.000000  0.000000  0.248686  1
  Dy  Dy1  1  0.000000  0.000000  0.749264  1
  Dy  Dy2  1  0.011992  0.505996  0.254728  1
  Dy  Dy3  1  0.494004  0.505996  0.254728  1
  Dy  Dy4  1  0.510141  0.020281  0.745992  1
  Dy  Dy5  1  0.494004  0.988008  0.254728  1
  Dy  Dy6  1  0.510141  0.489859  0.745992  1
  Dy  Dy7  1  0.979719  0.489859  0.745992  1
  Si  Si8  1  0.165188  0.330376  0.002130  1
  Si  Si9  1  0.669624  0.834812  0.002130  1
  Si  Si10  1  0.163920  0.327839  0.501355  1
  Si  Si11  1  0.330535  0.165269  0.996364  1
  Si  Si12  1  0.165188  0.834812  0.002130  1
  Si  Si13  1  0.672161  0.836080  0.501355  1
  Si  Si14  1  0.834731  0.669465  0.996364  1
  Si  Si15  1  0.335287  0.167644  0.499131  1
  Si  Si16  1  0.163920  0.836080  0.501355  1
  Si  Si17  1  0.832356  0.664713  0.499131  1
  Si  Si18  1  0.834731  0.165269  0.996364  1
  Si  Si19  1  0.832356  0.167644  0.499131  1
  Os  Os20  1  0.666667  0.333333  0.469824  1
  Pt  Pt21  1  0.333333  0.666667  0.975327  1
  Pt  Pt22  1  0.333333  0.666667  0.522404  1
  Pt  Pt23  1  0.666667  0.333333  0.035396  1
