# generated using pymatgen
data_Ho8Tm2Ir5Pt
_symmetry_space_group_name_H-M   'P 1'
_cell_length_a   10.88395863
_cell_length_b   10.88699800
_cell_length_c   6.31935837
_cell_angle_alpha   90.00000000
_cell_angle_beta   89.96088674
_cell_angle_gamma   90.00000000
_symmetry_Int_Tables_number   1
_chemical_formula_structural   Ho8Tm2Ir5Pt
_chemical_formula_sum   'Ho16 Tm4 Ir10 Pt2'
_cell_volume   748.80357499
_cell_formula_units_Z   2
loop_
 _symmetry_equiv_pos_site_id
 _symmetry_equiv_pos_as_xyz
  1  'x, y, z'
loop_
 _atom_site_type_symbol
 _atom_site_label
 _atom_site_symmetry_multiplicity
 _atom_site_fract_x
 _atom_site_fract_y
 _atom_site_fract_z
 _atom_site_occupancy
  Ho  Ho0  1  0.290968  0.087882  0.376121  1
  Ho  Ho1  1  0.290968  0.912118  0.876121  1
  Ho  Ho2  1  0.706184  0.089382  0.874198  1
  Ho  Ho3  1  0.706184  0.910618  0.374198  1
  Ho  Ho4  1  0.584512  0.790478  0.878382  1
  Ho  Ho5  1  0.584512  0.209522  0.378382  1
  Ho  Ho6  1  0.411560  0.790964  0.377321  1
  Ho  Ho7  1  0.411560  0.209036  0.877321  1
  Ho  Ho8  1  0.209204  0.412047  0.622470  1
  Ho  Ho9  1  0.209204  0.587953  0.122470  1
  Ho  Ho10  1  0.790358  0.414767  0.122678  1
  Ho  Ho11  1  0.790358  0.585233  0.622678  1
  Ho  Ho12  1  0.913635  0.707506  0.126241  1
  Ho  Ho13  1  0.913635  0.292494  0.626241  1
  Ho  Ho14  1  0.090659  0.707481  0.622765  1
  Ho  Ho15  1  0.090659  0.292519  0.122765  1
  Tm  Tm16  1  0.002853  0.999843  0.499952  1
  Tm  Tm17  1  0.002853  0.000157  0.999952  1
  Tm  Tm18  1  0.499879  0.499761  0.000005  1
  Tm  Tm19  1  0.499879  0.500239  0.500005  1
  Ir  Ir20  1  0.151662  0.152748  0.750089  1
  Ir  Ir21  1  0.151662  0.847252  0.250089  1
  Ir  Ir22  1  0.653929  0.346703  0.749653  1
  Ir  Ir23  1  0.653929  0.653297  0.249653  1
  Ir  Ir24  1  0.347476  0.347174  0.250183  1
  Ir  Ir25  1  0.347476  0.652826  0.750183  1
  Ir  Ir26  1  0.500941  0.999841  0.124166  1
  Ir  Ir27  1  0.500941  0.000159  0.624166  1
  Ir  Ir28  1  0.999451  0.500103  0.876078  1
  Ir  Ir29  1  0.999451  0.499897  0.376078  1
  Pt  Pt30  1  0.846729  0.152067  0.249698  1
  Pt  Pt31  1  0.846729  0.847933  0.749698  1
