# generated using pymatgen
data_CeZn9Ni2
_symmetry_space_group_name_H-M   'P 1'
_cell_length_a   8.10517271
_cell_length_b   8.10517299
_cell_length_c   8.10517265
_cell_angle_alpha   99.78567098
_cell_angle_beta   99.78567092
_cell_angle_gamma   131.30550412
_symmetry_Int_Tables_number   1
_chemical_formula_structural   CeZn9Ni2
_chemical_formula_sum   'Ce2 Zn18 Ni4'
_cell_volume   364.41106123
_cell_formula_units_Z   2
loop_
 _symmetry_equiv_pos_site_id
 _symmetry_equiv_pos_as_xyz
  1  'x, y, z'
loop_
 _atom_site_type_symbol
 _atom_site_label
 _atom_site_symmetry_multiplicity
 _atom_site_fract_x
 _atom_site_fract_y
 _atom_site_fract_z
 _atom_site_occupancy
  Ce  Ce0  1  0.000000  0.000000  0.000000  1
  Ce  Ce1  1  0.250000  0.750000  0.500000  1
  Zn  Zn2  1  0.763708  0.183128  0.824079  1
  Zn  Zn3  1  0.060371  0.236292  0.419420  1
  Zn  Zn4  1  0.359049  0.183128  0.419420  1
  Zn  Zn5  1  0.060371  0.640951  0.824079  1
  Zn  Zn6  1  0.890951  0.566872  0.080580  1
  Zn  Zn7  1  0.359049  0.939629  0.175921  1
  Zn  Zn8  1  0.750000  0.250000  0.500000  1
  Zn  Zn9  1  0.890951  0.810371  0.324079  1
  Zn  Zn10  1  0.500000  0.500000  0.000000  1
  Zn  Zn11  1  0.433128  0.109049  0.919420  1
  Zn  Zn12  1  0.486292  0.566872  0.675921  1
  Zn  Zn13  1  0.189629  0.109049  0.675921  1
  Zn  Zn14  1  0.763708  0.939629  0.580580  1
  Zn  Zn15  1  0.816872  0.640951  0.580580  1
  Zn  Zn16  1  0.433128  0.513708  0.324079  1
  Zn  Zn17  1  0.486292  0.810371  0.919420  1
  Zn  Zn18  1  0.189629  0.513708  0.080580  1
  Zn  Zn19  1  0.816872  0.236292  0.175921  1
  Ni  Ni20  1  0.625000  0.875000  0.250000  1
  Ni  Ni21  1  0.625000  0.375000  0.250000  1
  Ni  Ni22  1  0.125000  0.375000  0.750000  1
  Ni  Ni23  1  0.625000  0.375000  0.750000  1
