# generated using pymatgen
data_Hf6Nb4Ga6S
_symmetry_space_group_name_H-M   'P 1'
_cell_length_a   7.96984800
_cell_length_b   7.96984765
_cell_length_c   5.45014400
_cell_angle_alpha   90.00000000
_cell_angle_beta   90.00000000
_cell_angle_gamma   119.99999317
_symmetry_Int_Tables_number   1
_chemical_formula_structural   Hf6Nb4Ga6S
_chemical_formula_sum   'Hf6 Nb4 Ga6 S1'
_cell_volume   299.80487927
_cell_formula_units_Z   1
loop_
 _symmetry_equiv_pos_site_id
 _symmetry_equiv_pos_as_xyz
  1  'x, y, z'
loop_
 _atom_site_type_symbol
 _atom_site_label
 _atom_site_symmetry_multiplicity
 _atom_site_fract_x
 _atom_site_fract_y
 _atom_site_fract_z
 _atom_site_occupancy
  Hf  Hf0  1  0.000000  0.742212  0.237950  1
  Hf  Hf1  1  0.257788  0.257788  0.237950  1
  Hf  Hf2  1  0.742212  0.000000  0.237950  1
  Hf  Hf3  1  0.000000  0.257788  0.762050  1
  Hf  Hf4  1  0.742212  0.742212  0.762050  1
  Hf  Hf5  1  0.257788  0.000000  0.762050  1
  Nb  Nb6  1  0.333333  0.666667  0.000000  1
  Nb  Nb7  1  0.666667  0.333333  0.000000  1
  Nb  Nb8  1  0.666667  0.333333  0.500000  1
  Nb  Nb9  1  0.333333  0.666667  0.500000  1
  Ga  Ga10  1  0.000000  0.395796  0.252729  1
  Ga  Ga11  1  0.604204  0.604204  0.252729  1
  Ga  Ga12  1  0.395796  0.000000  0.252729  1
  Ga  Ga13  1  0.000000  0.604204  0.747271  1
  Ga  Ga14  1  0.395796  0.395796  0.747271  1
  Ga  Ga15  1  0.604204  0.000000  0.747271  1
  S  S16  1  0.000000  0.000000  0.500000  1
