# generated using pymatgen
data_Er12TlGa(CoSi)2
_symmetry_space_group_name_H-M   'P 1'
_cell_length_a   8.35856042
_cell_length_b   8.35855838
_cell_length_c   8.35855900
_cell_angle_alpha   104.37245811
_cell_angle_beta   110.54067581
_cell_angle_gamma   113.63466946
_symmetry_Int_Tables_number   1
_chemical_formula_structural   Er12TlGa(CoSi)2
_chemical_formula_sum   'Er12 Tl1 Ga1 Co2 Si2'
_cell_volume   446.54674000
_cell_formula_units_Z   1
loop_
 _symmetry_equiv_pos_site_id
 _symmetry_equiv_pos_as_xyz
  1  'x, y, z'
loop_
 _atom_site_type_symbol
 _atom_site_label
 _atom_site_symmetry_multiplicity
 _atom_site_fract_x
 _atom_site_fract_y
 _atom_site_fract_z
 _atom_site_occupancy
  Er  Er0  1  0.697163  0.264838  0.961997  1
  Er  Er1  1  0.302837  0.735162  0.038003  1
  Er  Er2  1  0.697160  0.735162  0.432326  1
  Er  Er3  1  0.302840  0.264838  0.567674  1
  Er  Er4  1  0.810821  0.115306  0.304486  1
  Er  Er5  1  0.810826  0.506337  0.695510  1
  Er  Er6  1  0.189179  0.884694  0.695514  1
  Er  Er7  1  0.189174  0.493663  0.304490  1
  Er  Er8  1  0.599509  0.783595  0.815901  1
  Er  Er9  1  0.967694  0.783595  0.184087  1
  Er  Er10  1  0.032306  0.216405  0.815913  1
  Er  Er11  1  0.400491  0.216405  0.184099  1
  Tl  Tl12  1  0.500000  0.000000  0.500000  1
  Ga  Ga13  1  0.500000  0.500000  0.000000  1
  Co  Co14  1  0.000003  0.107802  0.107799  1
  Co  Co15  1  0.999997  0.892198  0.892201  1
  Si  Si16  1  0.865573  0.500000  0.365573  1
  Si  Si17  1  0.134427  0.500000  0.634427  1
