# generated using pymatgen
data_Dy7Ho9Cd4Ru3Pt
_symmetry_space_group_name_H-M   'P 1'
_cell_length_a   9.59452770
_cell_length_b   9.61523629
_cell_length_c   9.64966300
_cell_angle_alpha   59.88213887
_cell_angle_beta   59.80997451
_cell_angle_gamma   59.70395544
_symmetry_Int_Tables_number   1
_chemical_formula_structural   Dy7Ho9Cd4Ru3Pt
_chemical_formula_sum   'Dy7 Ho9 Cd4 Ru3 Pt1'
_cell_volume   626.59845269
_cell_formula_units_Z   1
loop_
 _symmetry_equiv_pos_site_id
 _symmetry_equiv_pos_as_xyz
  1  'x, y, z'
loop_
 _atom_site_type_symbol
 _atom_site_label
 _atom_site_symmetry_multiplicity
 _atom_site_fract_x
 _atom_site_fract_y
 _atom_site_fract_z
 _atom_site_occupancy
  Dy  Dy0  1  0.814614  0.805386  0.190000  1
  Dy  Dy1  1  0.937539  0.561250  0.561960  1
  Dy  Dy2  1  0.557145  0.938871  0.938351  1
  Dy  Dy3  1  0.557173  0.938862  0.565634  1
  Dy  Dy4  1  0.937557  0.561239  0.939258  1
  Dy  Dy5  1  0.557267  0.565387  0.938673  1
  Dy  Dy6  1  0.937644  0.939284  0.561531  1
  Ho  Ho7  1  0.345426  0.350717  0.349309  1
  Ho  Ho8  1  0.345432  0.350713  0.954542  1
  Ho  Ho9  1  0.345719  0.955536  0.349375  1
  Ho  Ho10  1  0.964068  0.345239  0.345343  1
  Ho  Ho11  1  0.814544  0.189196  0.189885  1
  Ho  Ho12  1  0.187054  0.811177  0.811913  1
  Ho  Ho13  1  0.187048  0.811192  0.189852  1
  Ho  Ho14  1  0.814526  0.189192  0.806382  1
  Ho  Ho15  1  0.187710  0.188367  0.811973  1
  Cd  Cd16  1  0.580773  0.580077  0.580685  1
  Cd  Cd17  1  0.580769  0.580075  0.258462  1
  Cd  Cd18  1  0.581009  0.257827  0.580574  1
  Cd  Cd19  1  0.255697  0.581030  0.581633  1
  Ru  Ru20  1  0.145152  0.139093  0.137091  1
  Ru  Ru21  1  0.145147  0.139081  0.578678  1
  Ru  Ru22  1  0.145956  0.578021  0.138002  1
  Pt  Pt23  1  0.575038  0.143184  0.140888  1
