# generated using pymatgen
data_Rb(ZrSe2)2
_symmetry_space_group_name_H-M   'P 1'
_cell_length_a   6.60366500
_cell_length_b   7.62417100
_cell_length_c   17.19885500
_cell_angle_alpha   90.00000000
_cell_angle_beta   90.00000000
_cell_angle_gamma   90.00000000
_symmetry_Int_Tables_number   1
_chemical_formula_structural   Rb(ZrSe2)2
_chemical_formula_sum   'Rb4 Zr8 Se16'
_cell_volume   865.91885656
_cell_formula_units_Z   4
loop_
 _symmetry_equiv_pos_site_id
 _symmetry_equiv_pos_as_xyz
  1  'x, y, z'
loop_
 _atom_site_type_symbol
 _atom_site_label
 _atom_site_symmetry_multiplicity
 _atom_site_fract_x
 _atom_site_fract_y
 _atom_site_fract_z
 _atom_site_occupancy
  Rb  Rb0  1  0.347613  0.000000  0.000000  1
  Rb  Rb1  1  0.652387  0.500000  0.500000  1
  Rb  Rb2  1  0.033158  0.000000  0.500000  1
  Rb  Rb3  1  0.966842  0.500000  0.000000  1
  Zr  Zr4  1  0.000523  0.000000  0.248939  1
  Zr  Zr5  1  0.000523  0.000000  0.751061  1
  Zr  Zr6  1  0.999477  0.500000  0.251061  1
  Zr  Zr7  1  0.999477  0.500000  0.748939  1
  Zr  Zr8  1  0.500000  0.250000  0.250000  1
  Zr  Zr9  1  0.500000  0.750000  0.750000  1
  Zr  Zr10  1  0.500000  0.750000  0.250000  1
  Zr  Zr11  1  0.500000  0.250000  0.750000  1
  Se  Se12  1  0.833643  0.248377  0.344866  1
  Se  Se13  1  0.833643  0.751623  0.655134  1
  Se  Se14  1  0.166357  0.748377  0.155134  1
  Se  Se15  1  0.166357  0.251623  0.844866  1
  Se  Se16  1  0.166357  0.251623  0.155134  1
  Se  Se17  1  0.166357  0.748377  0.844866  1
  Se  Se18  1  0.833643  0.751623  0.344866  1
  Se  Se19  1  0.833643  0.248377  0.655134  1
  Se  Se20  1  0.669157  0.000000  0.155890  1
  Se  Se21  1  0.669157  0.000000  0.844110  1
  Se  Se22  1  0.330843  0.500000  0.344110  1
  Se  Se23  1  0.330843  0.500000  0.655890  1
  Se  Se24  1  0.335914  0.000000  0.342811  1
  Se  Se25  1  0.335914  0.000000  0.657189  1
  Se  Se26  1  0.664086  0.500000  0.157189  1
  Se  Se27  1  0.664086  0.500000  0.842811  1
