# generated using pymatgen
data_Dy4Al18CrPd5
_symmetry_space_group_name_H-M   'P 1'
_cell_length_a   7.59933096
_cell_length_b   7.59932962
_cell_length_c   9.48252800
_cell_angle_alpha   89.76676234
_cell_angle_beta   89.76676992
_cell_angle_gamma   119.11703093
_symmetry_Int_Tables_number   1
_chemical_formula_structural   Dy4Al18CrPd5
_chemical_formula_sum   'Dy4 Al18 Cr1 Pd5'
_cell_volume   478.39553254
_cell_formula_units_Z   1
loop_
 _symmetry_equiv_pos_site_id
 _symmetry_equiv_pos_as_xyz
  1  'x, y, z'
loop_
 _atom_site_type_symbol
 _atom_site_label
 _atom_site_symmetry_multiplicity
 _atom_site_fract_x
 _atom_site_fract_y
 _atom_site_fract_z
 _atom_site_occupancy
  Dy  Dy0  1  0.994668  0.674023  0.247868  1
  Dy  Dy1  1  0.005332  0.325977  0.752132  1
  Dy  Dy2  1  0.674023  0.994668  0.247868  1
  Dy  Dy3  1  0.325977  0.005332  0.752132  1
  Al  Al4  1  0.128141  0.128141  0.243890  1
  Al  Al5  1  0.871859  0.871859  0.756110  1
  Al  Al6  1  0.001070  0.328502  0.073951  1
  Al  Al7  1  0.998930  0.671498  0.926049  1
  Al  Al8  1  0.998576  0.663055  0.578331  1
  Al  Al9  1  0.336945  0.001424  0.421669  1
  Al  Al10  1  0.001424  0.336945  0.421669  1
  Al  Al11  1  0.663055  0.998576  0.578331  1
  Al  Al12  1  0.671498  0.998930  0.926049  1
  Al  Al13  1  0.328502  0.001070  0.073951  1
  Al  Al14  1  0.333432  0.333432  0.555325  1
  Al  Al15  1  0.666568  0.666569  0.444675  1
  Al  Al16  1  0.673232  0.673233  0.050447  1
  Al  Al17  1  0.326768  0.326768  0.949553  1
  Al  Al18  1  0.341239  0.548416  0.249313  1
  Al  Al19  1  0.658761  0.451584  0.750687  1
  Al  Al20  1  0.548416  0.341239  0.249313  1
  Al  Al21  1  0.451584  0.658761  0.750687  1
  Cr  Cr22  1  0.000000  0.000000  0.000000  1
  Pd  Pd23  1  0.672689  0.327311  0.000000  1
  Pd  Pd24  1  0.327311  0.672689  0.000000  1
  Pd  Pd25  1  0.327832  0.672168  0.500000  1
  Pd  Pd26  1  0.672168  0.327832  0.500000  1
  Pd  Pd27  1  0.000000  0.000000  0.500000  1
