# generated using pymatgen
data_Sr2DyY(NiAs)4
_symmetry_space_group_name_H-M   'P 1'
_cell_length_a   4.08124100
_cell_length_b   4.08124042
_cell_length_c   16.85073700
_cell_angle_alpha   90.00000000
_cell_angle_beta   90.00000000
_cell_angle_gamma   119.99999662
_symmetry_Int_Tables_number   1
_chemical_formula_structural   Sr2DyY(NiAs)4
_chemical_formula_sum   'Sr2 Dy1 Y1 Ni4 As4'
_cell_volume   243.07145831
_cell_formula_units_Z   1
loop_
 _symmetry_equiv_pos_site_id
 _symmetry_equiv_pos_as_xyz
  1  'x, y, z'
loop_
 _atom_site_type_symbol
 _atom_site_label
 _atom_site_symmetry_multiplicity
 _atom_site_fract_x
 _atom_site_fract_y
 _atom_site_fract_z
 _atom_site_occupancy
  Sr  Sr0  1  0.000000  0.000000  0.999999  1
  Sr  Sr1  1  0.000000  0.000000  0.500001  1
  Dy  Dy2  1  0.000000  0.000000  0.750000  1
  Y  Y3  1  0.000000  0.000000  0.250000  1
  Ni  Ni4  1  0.333333  0.666667  0.140720  1
  Ni  Ni5  1  0.666667  0.333333  0.859226  1
  Ni  Ni6  1  0.666667  0.333333  0.640774  1
  Ni  Ni7  1  0.333333  0.666667  0.359280  1
  As  As8  1  0.333333  0.666667  0.631832  1
  As  As9  1  0.666667  0.333333  0.368191  1
  As  As10  1  0.666667  0.333333  0.131809  1
  As  As11  1  0.333333  0.666667  0.868168  1
