# generated using pymatgen
data_Na4CaWO6
_symmetry_space_group_name_H-M   'P 1'
_cell_length_a   5.74361518
_cell_length_b   5.74355159
_cell_length_c   5.77309835
_cell_angle_alpha   100.02165424
_cell_angle_beta   100.02041765
_cell_angle_gamma   119.70045788
_symmetry_Int_Tables_number   1
_chemical_formula_structural   Na4CaWO6
_chemical_formula_sum   'Na4 Ca1 W1 O6'
_cell_volume   155.18244520
_cell_formula_units_Z   1
loop_
 _symmetry_equiv_pos_site_id
 _symmetry_equiv_pos_as_xyz
  1  'x, y, z'
loop_
 _atom_site_type_symbol
 _atom_site_label
 _atom_site_symmetry_multiplicity
 _atom_site_fract_x
 _atom_site_fract_y
 _atom_site_fract_z
 _atom_site_occupancy
  Na  Na0  1  0.499849  0.500158  0.000001  1
  Na  Na1  1  0.003577  0.996448  0.500008  1
  Na  Na2  1  0.660721  0.339286  0.500013  1
  Na  Na3  1  0.337761  0.662230  0.499995  1
  Ca  Ca4  1  0.832982  0.167012  0.999992  1
  W  W5  1  0.167051  0.832952  0.000004  1
  O  O6  1  0.959704  0.618373  0.204587  1
  O  O7  1  0.228295  0.183018  0.213204  1
  O  O8  1  0.524526  0.913072  0.213171  1
  O  O9  1  0.086921  0.475460  0.786818  1
  O  O10  1  0.816991  0.771712  0.786805  1
  O  O11  1  0.381622  0.040284  0.795404  1
