# generated using pymatgen
data_TmLu3Hf4IrRh3
_symmetry_space_group_name_H-M   'P 1'
_cell_length_a   4.56330100
_cell_length_b   6.92703464
_cell_length_c   8.16992409
_cell_angle_alpha   90.04138623
_cell_angle_beta   90.00000000
_cell_angle_gamma   90.00000000
_symmetry_Int_Tables_number   1
_chemical_formula_structural   TmLu3Hf4IrRh3
_chemical_formula_sum   'Tm1 Lu3 Hf4 Ir1 Rh3'
_cell_volume   258.25241053
_cell_formula_units_Z   1
loop_
 _symmetry_equiv_pos_site_id
 _symmetry_equiv_pos_as_xyz
  1  'x, y, z'
loop_
 _atom_site_type_symbol
 _atom_site_label
 _atom_site_symmetry_multiplicity
 _atom_site_fract_x
 _atom_site_fract_y
 _atom_site_fract_z
 _atom_site_occupancy
  Tm  Tm0  1  0.250000  0.015557  0.323160  1
  Lu  Lu1  1  0.250000  0.516017  0.176652  1
  Lu  Lu2  1  0.750000  0.486237  0.824296  1
  Lu  Lu3  1  0.750000  0.982702  0.677995  1
  Hf  Hf4  1  0.250000  0.641428  0.576386  1
  Hf  Hf5  1  0.750000  0.358008  0.425582  1
  Hf  Hf6  1  0.750000  0.857676  0.072437  1
  Hf  Hf7  1  0.250000  0.143406  0.924541  1
  Ir  Ir8  1  0.250000  0.764728  0.907355  1
  Rh  Rh9  1  0.750000  0.235841  0.091215  1
  Rh  Rh10  1  0.750000  0.733872  0.410061  1
  Rh  Rh11  1  0.250000  0.264529  0.590322  1
