# generated using pymatgen
data_Dy5Tm3(PS)8
_symmetry_space_group_name_H-M   'P 1'
_cell_length_a   5.30011400
_cell_length_b   5.35558992
_cell_length_c   16.69576000
_cell_angle_alpha   89.92233022
_cell_angle_beta   90.00000000
_cell_angle_gamma   90.00000000
_symmetry_Int_Tables_number   1
_chemical_formula_structural   Dy5Tm3(PS)8
_chemical_formula_sum   'Dy5 Tm3 P8 S8'
_cell_volume   473.91267102
_cell_formula_units_Z   1
loop_
 _symmetry_equiv_pos_site_id
 _symmetry_equiv_pos_as_xyz
  1  'x, y, z'
loop_
 _atom_site_type_symbol
 _atom_site_label
 _atom_site_symmetry_multiplicity
 _atom_site_fract_x
 _atom_site_fract_y
 _atom_site_fract_z
 _atom_site_occupancy
  Dy  Dy0  1  0.250000  0.484188  0.362218  1
  Dy  Dy1  1  0.250000  0.984487  0.137268  1
  Dy  Dy2  1  0.750000  0.515948  0.637611  1
  Dy  Dy3  1  0.750000  0.015600  0.863173  1
  Dy  Dy4  1  0.250000  0.014698  0.645779  1
  Tm  Tm5  1  0.250000  0.513974  0.854080  1
  Tm  Tm6  1  0.750000  0.985847  0.353268  1
  Tm  Tm7  1  0.750000  0.486166  0.146215  1
  P  P8  1  0.034852  0.294474  0.997315  1
  P  P9  1  0.465576  0.793617  0.501870  1
  P  P10  1  0.534873  0.705601  0.003045  1
  P  P11  1  0.964844  0.205272  0.496474  1
  P  P12  1  0.965127  0.705601  0.003045  1
  P  P13  1  0.535156  0.205272  0.496474  1
  P  P14  1  0.465148  0.294474  0.997315  1
  P  P15  1  0.034424  0.793617  0.501870  1
  S  S16  1  0.250000  0.484979  0.188241  1
  S  S17  1  0.250000  0.984970  0.311516  1
  S  S18  1  0.750000  0.515106  0.811875  1
  S  S19  1  0.750000  0.015318  0.688982  1
  S  S20  1  0.250000  0.010555  0.816594  1
  S  S21  1  0.250000  0.511526  0.685973  1
  S  S22  1  0.750000  0.989401  0.185175  1
  S  S23  1  0.750000  0.489310  0.314630  1
