# generated using pymatgen
data_Sr4DyYPa2O12
_symmetry_space_group_name_H-M   'P 1'
_cell_length_a   6.15819001
_cell_length_b   6.02270051
_cell_length_c   10.50628001
_cell_angle_alpha   54.97655095
_cell_angle_beta   90.00513650
_cell_angle_gamma   90.00189940
_symmetry_Int_Tables_number   1
_chemical_formula_structural   Sr4DyYPa2O12
_chemical_formula_sum   'Sr4 Dy1 Y1 Pa2 O12'
_cell_volume   319.10479619
_cell_formula_units_Z   1
loop_
 _symmetry_equiv_pos_site_id
 _symmetry_equiv_pos_as_xyz
  1  'x, y, z'
loop_
 _atom_site_type_symbol
 _atom_site_label
 _atom_site_symmetry_multiplicity
 _atom_site_fract_x
 _atom_site_fract_y
 _atom_site_fract_z
 _atom_site_occupancy
  Sr  Sr0  1  0.456743  0.260246  0.750742  1
  Sr  Sr1  1  0.956740  0.739751  0.749263  1
  Sr  Sr2  1  0.043260  0.260249  0.250737  1
  Sr  Sr3  1  0.543257  0.739754  0.249258  1
  Dy  Dy4  1  0.500000  0.000000  0.500000  1
  Y  Y5  1  0.000000  0.000000  0.000000  1
  Pa  Pa6  1  0.000000  0.500000  0.500000  1
  Pa  Pa7  1  0.500000  0.500000  0.000000  1
  O  O8  1  0.197486  0.740828  0.552024  1
  O  O9  1  0.697244  0.259387  0.947947  1
  O  O10  1  0.802514  0.259172  0.447976  1
  O  O11  1  0.302756  0.740613  0.052053  1
  O  O12  1  0.708647  0.639692  0.556198  1
  O  O13  1  0.208828  0.360589  0.943765  1
  O  O14  1  0.291353  0.360308  0.443802  1
  O  O15  1  0.791172  0.639411  0.056235  1
  O  O16  1  0.039770  0.154073  0.744123  1
  O  O17  1  0.539733  0.846062  0.755674  1
  O  O18  1  0.960230  0.845927  0.255877  1
  O  O19  1  0.460267  0.153938  0.244326  1
