# generated using pymatgen
data_Tb4Y7Ho5Cd4(IrRu)2
_symmetry_space_group_name_H-M   'P 1'
_cell_length_a   9.64354942
_cell_length_b   9.64443954
_cell_length_c   9.70191001
_cell_angle_alpha   59.79884595
_cell_angle_beta   59.79732573
_cell_angle_gamma   59.71308977
_symmetry_Int_Tables_number   1
_chemical_formula_structural   Tb4Y7Ho5Cd4(IrRu)2
_chemical_formula_sum   'Tb4 Y7 Ho5 Cd4 Ir2 Ru2'
_cell_volume   634.71558564
_cell_formula_units_Z   1
loop_
 _symmetry_equiv_pos_site_id
 _symmetry_equiv_pos_as_xyz
  1  'x, y, z'
loop_
 _atom_site_type_symbol
 _atom_site_label
 _atom_site_symmetry_multiplicity
 _atom_site_fract_x
 _atom_site_fract_y
 _atom_site_fract_z
 _atom_site_occupancy
  Tb  Tb0  1  0.348345  0.348344  0.348836  1
  Tb  Tb1  1  0.348307  0.348367  0.954492  1
  Tb  Tb2  1  0.346815  0.960502  0.346359  1
  Tb  Tb3  1  0.960508  0.346841  0.346297  1
  Y  Y4  1  0.809332  0.809278  0.190712  1
  Y  Y5  1  0.938658  0.558872  0.563784  1
  Y  Y6  1  0.558867  0.938650  0.938688  1
  Y  Y7  1  0.558905  0.938618  0.563830  1
  Y  Y8  1  0.938609  0.558941  0.938634  1
  Y  Y9  1  0.560237  0.560219  0.939764  1
  Y  Y10  1  0.938674  0.938663  0.561331  1
  Ho  Ho11  1  0.811690  0.187586  0.190540  1
  Ho  Ho12  1  0.187587  0.811668  0.810214  1
  Ho  Ho13  1  0.187596  0.811651  0.190555  1
  Ho  Ho14  1  0.811697  0.187576  0.810176  1
  Ho  Ho15  1  0.187886  0.187868  0.812116  1
  Cd  Cd16  1  0.580567  0.580567  0.580133  1
  Cd  Cd17  1  0.580572  0.580562  0.258743  1
  Cd  Cd18  1  0.580514  0.257443  0.581015  1
  Cd  Cd19  1  0.257459  0.580503  0.581023  1
  Ir  Ir20  1  0.146669  0.578334  0.137509  1
  Ir  Ir21  1  0.578301  0.146723  0.137464  1
  Ru  Ru22  1  0.141122  0.141088  0.136127  1
  Ru  Ru23  1  0.141089  0.141140  0.581656  1
