# generated using pymatgen
data_K3La(IO3)6
_symmetry_space_group_name_H-M   'P 1'
_cell_length_a   7.28032501
_cell_length_b   7.29466854
_cell_length_c   11.12956836
_cell_angle_alpha   99.00779194
_cell_angle_beta   108.18268101
_cell_angle_gamma   103.02077326
_symmetry_Int_Tables_number   1
_chemical_formula_structural   K3La(IO3)6
_chemical_formula_sum   'K3 La1 I6 O18'
_cell_volume   530.42373135
_cell_formula_units_Z   1
loop_
 _symmetry_equiv_pos_site_id
 _symmetry_equiv_pos_as_xyz
  1  'x, y, z'
loop_
 _atom_site_type_symbol
 _atom_site_label
 _atom_site_symmetry_multiplicity
 _atom_site_fract_x
 _atom_site_fract_y
 _atom_site_fract_z
 _atom_site_occupancy
  K  K0  1  0.378979  0.540371  0.292438  1
  K  K1  1  0.621021  0.459629  0.707562  1
  K  K2  1  0.000000  0.500000  0.500000  1
  La  La3  1  0.000000  0.000000  0.000000  1
  I  I4  1  0.563296  0.033555  0.197973  1
  I  I5  1  0.436704  0.966445  0.802027  1
  I  I6  1  0.775434  0.528529  0.106093  1
  I  I7  1  0.224566  0.471471  0.893907  1
  I  I8  1  0.134031  0.065453  0.387337  1
  I  I9  1  0.865969  0.934547  0.612663  1
  O  O10  1  0.593205  0.655229  0.127439  1
  O  O11  1  0.406795  0.344771  0.872561  1
  O  O12  1  0.011520  0.360337  0.739894  1
  O  O13  1  0.988480  0.639663  0.260106  1
  O  O14  1  0.610211  0.298111  0.237240  1
  O  O15  1  0.389789  0.701889  0.762760  1
  O  O16  1  0.059953  0.114077  0.222946  1
  O  O17  1  0.940047  0.885923  0.777054  1
  O  O18  1  0.330479  0.961155  0.048107  1
  O  O19  1  0.669521  0.038845  0.951893  1
  O  O20  1  0.293998  0.309085  0.476632  1
  O  O21  1  0.706002  0.690915  0.523368  1
  O  O22  1  0.894092  0.082697  0.407358  1
  O  O23  1  0.105908  0.917303  0.592642  1
  O  O24  1  0.557844  0.037907  0.689104  1
  O  O25  1  0.442156  0.962093  0.310896  1
  O  O26  1  0.129264  0.338993  0.002355  1
  O  O27  1  0.870736  0.661007  0.997645  1
