# generated using pymatgen
data_CaY4Zr3(Co4As3)4
_symmetry_space_group_name_H-M   'P 1'
_cell_length_a   12.75470700
_cell_length_b   12.75470564
_cell_length_c   3.84239800
_cell_angle_alpha   90.00000000
_cell_angle_beta   90.00000000
_cell_angle_gamma   120.00000093
_symmetry_Int_Tables_number   1
_chemical_formula_structural   CaY4Zr3(Co4As3)4
_chemical_formula_sum   'Ca1 Y4 Zr3 Co16 As12'
_cell_volume   541.34471586
_cell_formula_units_Z   1
loop_
 _symmetry_equiv_pos_site_id
 _symmetry_equiv_pos_as_xyz
  1  'x, y, z'
loop_
 _atom_site_type_symbol
 _atom_site_label
 _atom_site_symmetry_multiplicity
 _atom_site_fract_x
 _atom_site_fract_y
 _atom_site_fract_z
 _atom_site_occupancy
  Ca  Ca0  1  0.333333  0.666667  0.000000  1
  Y  Y1  1  0.182495  0.182306  0.500000  1
  Y  Y2  1  0.817694  0.000190  0.500000  1
  Y  Y3  1  0.999810  0.817505  0.500000  1
  Y  Y4  1  0.666667  0.333333  0.000000  1
  Zr  Zr5  1  0.560949  0.560652  0.000000  1
  Zr  Zr6  1  0.439348  0.000297  0.000000  1
  Zr  Zr7  1  0.999703  0.439051  0.000000  1
  Co  Co8  1  0.719387  0.719538  0.500000  1
  Co  Co9  1  0.280462  0.999849  0.500000  1
  Co  Co10  1  0.000151  0.280613  0.500000  1
  Co  Co11  1  0.176675  0.372811  0.000000  1
  Co  Co12  1  0.627189  0.803863  0.000000  1
  Co  Co13  1  0.196137  0.823325  0.000000  1
  Co  Co14  1  0.803928  0.626207  0.000000  1
  Co  Co15  1  0.822279  0.196072  0.000000  1
  Co  Co16  1  0.373793  0.177721  0.000000  1
  Co  Co17  1  0.356188  0.476723  0.500000  1
  Co  Co18  1  0.523277  0.879465  0.500000  1
  Co  Co19  1  0.120535  0.643812  0.500000  1
  Co  Co20  1  0.877098  0.520460  0.500000  1
  Co  Co21  1  0.643363  0.122902  0.500000  1
  Co  Co22  1  0.479540  0.356637  0.500000  1
  Co  Co23  1  0.000000  0.000000  0.000000  1
  As  As24  1  0.822419  0.822172  0.000000  1
  As  As25  1  0.177828  0.000246  0.000000  1
  As  As26  1  0.999754  0.177581  0.000000  1
  As  As27  1  0.173556  0.481962  0.500000  1
  As  As28  1  0.518038  0.691594  0.500000  1
  As  As29  1  0.308406  0.826444  0.500000  1
  As  As30  1  0.691627  0.518497  0.500000  1
  As  As31  1  0.826870  0.308373  0.500000  1
  As  As32  1  0.481503  0.173130  0.500000  1
  As  As33  1  0.351796  0.352070  0.000000  1
  As  As34  1  0.647930  0.999726  0.000000  1
  As  As35  1  0.000274  0.648204  0.000000  1
