# generated using pymatgen
data_Dy5Y2(LuBi2)3
_symmetry_space_group_name_H-M   'P 1'
_cell_length_a   8.20633400
_cell_length_b   9.47743930
_cell_length_c   12.00831393
_cell_angle_alpha   89.96303149
_cell_angle_beta   90.00000000
_cell_angle_gamma   90.00000000
_symmetry_Int_Tables_number   1
_chemical_formula_structural   Dy5Y2(LuBi2)3
_chemical_formula_sum   'Dy10 Y4 Lu6 Bi12'
_cell_volume   933.94681000
_cell_formula_units_Z   2
loop_
 _symmetry_equiv_pos_site_id
 _symmetry_equiv_pos_as_xyz
  1  'x, y, z'
loop_
 _atom_site_type_symbol
 _atom_site_label
 _atom_site_symmetry_multiplicity
 _atom_site_fract_x
 _atom_site_fract_y
 _atom_site_fract_z
 _atom_site_occupancy
  Dy  Dy0  1  0.186546  0.750083  0.718813  1
  Dy  Dy1  1  0.686546  0.749917  0.781187  1
  Dy  Dy2  1  0.813781  0.249677  0.281262  1
  Dy  Dy3  1  0.313781  0.250323  0.218738  1
  Dy  Dy4  1  0.692482  0.935791  0.058955  1
  Dy  Dy5  1  0.192482  0.564209  0.441045  1
  Dy  Dy6  1  0.693860  0.563367  0.059752  1
  Dy  Dy7  1  0.193860  0.936633  0.440248  1
  Dy  Dy8  1  0.306598  0.063160  0.940642  1
  Dy  Dy9  1  0.806598  0.436840  0.559358  1
  Y  Y10  1  0.355025  0.750469  0.215913  1
  Y  Y11  1  0.855025  0.749531  0.284087  1
  Y  Y12  1  0.645997  0.249848  0.783978  1
  Y  Y13  1  0.145997  0.250152  0.716022  1
  Lu  Lu14  1  0.025215  0.749719  0.988695  1
  Lu  Lu15  1  0.525215  0.750281  0.511305  1
  Lu  Lu16  1  0.976024  0.250298  0.010918  1
  Lu  Lu17  1  0.476024  0.249702  0.489082  1
  Lu  Lu18  1  0.306388  0.432569  0.940349  1
  Lu  Lu19  1  0.806388  0.067431  0.559651  1
  Bi  Bi20  1  0.434122  0.003453  0.671994  1
  Bi  Bi21  1  0.934122  0.496547  0.828006  1
  Bi  Bi22  1  0.566110  0.503234  0.327813  1
  Bi  Bi23  1  0.066110  0.996766  0.172187  1
  Bi  Bi24  1  0.566304  0.996583  0.328164  1
  Bi  Bi25  1  0.066304  0.503417  0.171836  1
  Bi  Bi26  1  0.433207  0.496410  0.672043  1
  Bi  Bi27  1  0.933207  0.003590  0.827957  1
  Bi  Bi28  1  0.405489  0.745614  0.956989  1
  Bi  Bi29  1  0.905489  0.754386  0.543011  1
  Bi  Bi30  1  0.592849  0.250583  0.041935  1
  Bi  Bi31  1  0.092849  0.249417  0.458065  1
