# generated using pymatgen
data_Dy8Tm12Si15P
_symmetry_space_group_name_H-M   'P 1'
_cell_length_a   7.43038131
_cell_length_b   7.60992160
_cell_length_c   14.49884000
_cell_angle_alpha   89.89327510
_cell_angle_beta   86.85790637
_cell_angle_gamma   90.01276416
_symmetry_Int_Tables_number   1
_chemical_formula_structural   Dy8Tm12Si15P
_chemical_formula_sum   'Dy8 Tm12 Si15 P1'
_cell_volume   818.59744753
_cell_formula_units_Z   1
loop_
 _symmetry_equiv_pos_site_id
 _symmetry_equiv_pos_as_xyz
  1  'x, y, z'
loop_
 _atom_site_type_symbol
 _atom_site_label
 _atom_site_symmetry_multiplicity
 _atom_site_fract_x
 _atom_site_fract_y
 _atom_site_fract_z
 _atom_site_occupancy
  Dy  Dy0  1  0.021136  0.182902  0.100598  1
  Dy  Dy1  1  0.979336  0.818189  0.898441  1
  Dy  Dy2  1  0.479853  0.681912  0.899339  1
  Dy  Dy3  1  0.001823  0.819708  0.598823  1
  Dy  Dy4  1  0.520663  0.318649  0.100117  1
  Dy  Dy5  1  0.995338  0.176855  0.400039  1
  Dy  Dy6  1  0.495996  0.317972  0.401292  1
  Dy  Dy7  1  0.502772  0.679278  0.598195  1
  Tm  Tm8  1  0.171262  0.505173  0.746662  1
  Tm  Tm9  1  0.828969  0.495621  0.254545  1
  Tm  Tm10  1  0.327209  0.004460  0.254349  1
  Tm  Tm11  1  0.671818  0.995276  0.745395  1
  Tm  Tm12  1  0.353246  0.169385  0.620099  1
  Tm  Tm13  1  0.646624  0.834415  0.379140  1
  Tm  Tm14  1  0.147659  0.659444  0.384867  1
  Tm  Tm15  1  0.670973  0.822272  0.123535  1
  Tm  Tm16  1  0.857329  0.335534  0.617937  1
  Tm  Tm17  1  0.328671  0.177740  0.875973  1
  Tm  Tm18  1  0.828404  0.322942  0.876032  1
  Tm  Tm19  1  0.171425  0.677647  0.122953  1
  Si  Si20  1  0.044369  0.111991  0.749939  1
  Si  Si21  1  0.955918  0.887450  0.249333  1
  Si  Si22  1  0.453953  0.610836  0.249755  1
  Si  Si23  1  0.545447  0.388747  0.749660  1
  Si  Si24  1  0.289863  0.870557  0.750582  1
  Si  Si25  1  0.710976  0.129566  0.248409  1
  Si  Si26  1  0.211129  0.371391  0.249039  1
  Si  Si27  1  0.789962  0.629231  0.750688  1
  Si  Si28  1  0.792780  0.535054  0.456622  1
  Si  Si29  1  0.299322  0.963036  0.458256  1
  Si  Si30  1  0.850849  0.530473  0.040676  1
  Si  Si31  1  0.698665  0.036838  0.542842  1
  Si  Si32  1  0.148788  0.470926  0.958263  1
  Si  Si33  1  0.648651  0.030436  0.958505  1
  Si  Si34  1  0.351389  0.970912  0.041251  1
  P  P35  1  0.207436  0.467181  0.547851  1
