# generated using pymatgen
data_RbNpPdSe3
_symmetry_space_group_name_H-M   'P 1'
_cell_length_a   7.76398991
_cell_length_b   7.76399091
_cell_length_c   10.66906500
_cell_angle_alpha   90.00000000
_cell_angle_beta   90.00000000
_cell_angle_gamma   149.19714289
_symmetry_Int_Tables_number   1
_chemical_formula_structural   RbNpPdSe3
_chemical_formula_sum   'Rb2 Np2 Pd2 Se6'
_cell_volume   329.33583399
_cell_formula_units_Z   2
loop_
 _symmetry_equiv_pos_site_id
 _symmetry_equiv_pos_as_xyz
  1  'x, y, z'
loop_
 _atom_site_type_symbol
 _atom_site_label
 _atom_site_symmetry_multiplicity
 _atom_site_fract_x
 _atom_site_fract_y
 _atom_site_fract_z
 _atom_site_occupancy
  Rb  Rb0  1  0.752111  0.247887  0.250000  1
  Rb  Rb1  1  0.247887  0.752111  0.750000  1
  Np  Np2  1  0.499999  0.499999  0.000000  1
  Np  Np3  1  0.499999  0.499999  0.500000  1
  Pd  Pd4  1  0.035920  0.964078  0.250000  1
  Pd  Pd5  1  0.964078  0.035920  0.750000  1
  Se  Se6  1  0.124652  0.875347  0.046416  1
  Se  Se7  1  0.437758  0.562241  0.250000  1
  Se  Se8  1  0.124652  0.875347  0.453584  1
  Se  Se9  1  0.875347  0.124652  0.546416  1
  Se  Se10  1  0.562241  0.437758  0.750000  1
  Se  Se11  1  0.875347  0.124652  0.953584  1
