# generated using pymatgen
data_Cs2Th(IO3)6
_symmetry_space_group_name_H-M   'P 1'
_cell_length_a   8.26643781
_cell_length_b   8.29494633
_cell_length_c   8.27664953
_cell_angle_alpha   97.15664391
_cell_angle_beta   97.23685497
_cell_angle_gamma   97.26454876
_symmetry_Int_Tables_number   1
_chemical_formula_structural   Cs2Th(IO3)6
_chemical_formula_sum   'Cs2 Th1 I6 O18'
_cell_volume   552.76421848
_cell_formula_units_Z   1
loop_
 _symmetry_equiv_pos_site_id
 _symmetry_equiv_pos_as_xyz
  1  'x, y, z'
loop_
 _atom_site_type_symbol
 _atom_site_label
 _atom_site_symmetry_multiplicity
 _atom_site_fract_x
 _atom_site_fract_y
 _atom_site_fract_z
 _atom_site_occupancy
  Cs  Cs0  1  0.165848  0.661801  0.161927  1
  Cs  Cs1  1  0.834152  0.338199  0.838073  1
  Th  Th2  1  0.500000  0.000000  0.500000  1
  I  I3  1  0.705013  0.825096  0.114056  1
  I  I4  1  0.294987  0.174904  0.885944  1
  I  I5  1  0.321544  0.614172  0.698317  1
  I  I6  1  0.678456  0.385828  0.301683  1
  I  I7  1  0.115133  0.202213  0.322810  1
  I  I8  1  0.884867  0.797787  0.677190  1
  O  O9  1  0.553286  0.848555  0.264724  1
  O  O10  1  0.446714  0.151445  0.735276  1
  O  O11  1  0.890482  0.901416  0.259706  1
  O  O12  1  0.109518  0.098584  0.740294  1
  O  O13  1  0.702244  0.604137  0.099841  1
  O  O14  1  0.297756  0.395863  0.900159  1
  O  O15  1  0.343834  0.763205  0.545617  1
  O  O16  1  0.656166  0.236795  0.454383  1
  O  O17  1  0.394409  0.760625  0.883315  1
  O  O18  1  0.605591  0.239375  0.116685  1
  O  O19  1  0.099056  0.594944  0.692951  1
  O  O20  1  0.900944  0.405056  0.307049  1
  O  O21  1  0.265881  0.050501  0.342309  1
  O  O22  1  0.734119  0.949499  0.657691  1
  O  O23  1  0.094110  0.199638  0.100774  1
  O  O24  1  0.905890  0.800362  0.899226  1
  O  O25  1  0.263538  0.386228  0.395376  1
  O  O26  1  0.736462  0.613772  0.604624  1
