# generated using pymatgen
data_Pu4Tc3B16Os
_symmetry_space_group_name_H-M   'P 1'
_cell_length_a   3.56737300
_cell_length_b   5.99877701
_cell_length_c   11.61525802
_cell_angle_alpha   90.00714414
_cell_angle_beta   90.00000000
_cell_angle_gamma   90.00000000
_symmetry_Int_Tables_number   1
_chemical_formula_structural   Pu4Tc3B16Os
_chemical_formula_sum   'Pu4 Tc3 B16 Os1'
_cell_volume   248.56506952
_cell_formula_units_Z   1
loop_
 _symmetry_equiv_pos_site_id
 _symmetry_equiv_pos_as_xyz
  1  'x, y, z'
loop_
 _atom_site_type_symbol
 _atom_site_label
 _atom_site_symmetry_multiplicity
 _atom_site_fract_x
 _atom_site_fract_y
 _atom_site_fract_z
 _atom_site_occupancy
  Pu  Pu0  1  0.000000  0.626538  0.350189  1
  Pu  Pu1  1  0.000000  0.373604  0.650496  1
  Pu  Pu2  1  0.000000  0.127270  0.150173  1
  Pu  Pu3  1  0.000000  0.873360  0.849537  1
  Tc  Tc4  1  0.000000  0.363086  0.909258  1
  Tc  Tc5  1  0.000000  0.135086  0.409287  1
  Tc  Tc6  1  0.000000  0.865118  0.590019  1
  B  B7  1  0.500000  0.787183  0.186260  1
  B  B8  1  0.500000  0.212377  0.813424  1
  B  B9  1  0.500000  0.287677  0.313475  1
  B  B10  1  0.500000  0.712967  0.686467  1
  B  B11  1  0.500000  0.864292  0.031248  1
  B  B12  1  0.500000  0.134906  0.968712  1
  B  B13  1  0.500000  0.365035  0.468471  1
  B  B14  1  0.500000  0.635014  0.531729  1
  B  B15  1  0.500000  0.886150  0.453255  1
  B  B16  1  0.500000  0.113913  0.546808  1
  B  B17  1  0.500000  0.386165  0.046792  1
  B  B18  1  0.500000  0.613679  0.952946  1
  B  B19  1  0.500000  0.974097  0.307931  1
  B  B20  1  0.500000  0.025262  0.691954  1
  B  B21  1  0.500000  0.473772  0.191711  1
  B  B22  1  0.500000  0.526066  0.808019  1
  Os  Os23  1  0.000000  0.637382  0.091839  1
