# generated using pymatgen
data_ErTm2Sc2(In2Rh)2
_symmetry_space_group_name_H-M   'P 1'
_cell_length_a   3.51241800
_cell_length_b   7.85171000
_cell_length_c   17.90353900
_cell_angle_alpha   90.00000000
_cell_angle_beta   90.00000000
_cell_angle_gamma   90.00000000
_symmetry_Int_Tables_number   1
_chemical_formula_structural   ErTm2Sc2(In2Rh)2
_chemical_formula_sum   'Er2 Tm4 Sc4 In8 Rh4'
_cell_volume   493.75252714
_cell_formula_units_Z   2
loop_
 _symmetry_equiv_pos_site_id
 _symmetry_equiv_pos_as_xyz
  1  'x, y, z'
loop_
 _atom_site_type_symbol
 _atom_site_label
 _atom_site_symmetry_multiplicity
 _atom_site_fract_x
 _atom_site_fract_y
 _atom_site_fract_z
 _atom_site_occupancy
  Er  Er0  1  0.000000  0.000000  0.000000  1
  Er  Er1  1  0.000000  0.500000  0.500000  1
  Tm  Tm2  1  0.000000  0.747976  0.781080  1
  Tm  Tm3  1  0.000000  0.252024  0.218920  1
  Tm  Tm4  1  0.000000  0.247976  0.718920  1
  Tm  Tm5  1  0.000000  0.752024  0.281080  1
  Sc  Sc6  1  0.000000  0.877915  0.588240  1
  Sc  Sc7  1  0.000000  0.122085  0.411760  1
  Sc  Sc8  1  0.000000  0.377915  0.911760  1
  Sc  Sc9  1  0.000000  0.622085  0.088240  1
  In  In10  1  0.500000  0.807225  0.437263  1
  In  In11  1  0.500000  0.192775  0.562737  1
  In  In12  1  0.500000  0.307225  0.062737  1
  In  In13  1  0.500000  0.692775  0.937263  1
  In  In14  1  0.500000  0.926387  0.149427  1
  In  In15  1  0.500000  0.073613  0.850573  1
  In  In16  1  0.500000  0.426387  0.350573  1
  In  In17  1  0.500000  0.573613  0.649427  1
  Rh  Rh18  1  0.500000  0.963392  0.693041  1
  Rh  Rh19  1  0.500000  0.036608  0.306959  1
  Rh  Rh20  1  0.500000  0.463392  0.806959  1
  Rh  Rh21  1  0.500000  0.536608  0.193041  1
