# generated using pymatgen
data_LaEr3(CuP)6
_symmetry_space_group_name_H-M   'P 1'
_cell_length_a   3.89389300
_cell_length_b   10.72041300
_cell_length_c   12.93719700
_cell_angle_alpha   90.00000000
_cell_angle_beta   90.00000000
_cell_angle_gamma   90.00000000
_symmetry_Int_Tables_number   1
_chemical_formula_structural   LaEr3(CuP)6
_chemical_formula_sum   'La2 Er6 Cu12 P12'
_cell_volume   540.05217750
_cell_formula_units_Z   2
loop_
 _symmetry_equiv_pos_site_id
 _symmetry_equiv_pos_as_xyz
  1  'x, y, z'
loop_
 _atom_site_type_symbol
 _atom_site_label
 _atom_site_symmetry_multiplicity
 _atom_site_fract_x
 _atom_site_fract_y
 _atom_site_fract_z
 _atom_site_occupancy
  La  La0  1  0.250000  0.932967  0.791806  1
  La  La1  1  0.750000  0.432967  0.708194  1
  Er  Er2  1  0.250000  0.568659  0.292721  1
  Er  Er3  1  0.750000  0.068659  0.207279  1
  Er  Er4  1  0.250000  0.841021  0.498673  1
  Er  Er5  1  0.750000  0.341021  0.001327  1
  Er  Er6  1  0.250000  0.655723  0.005847  1
  Er  Er7  1  0.750000  0.155723  0.494153  1
  Cu  Cu8  1  0.250000  0.401953  0.509222  1
  Cu  Cu9  1  0.750000  0.901953  0.990778  1
  Cu  Cu10  1  0.250000  0.097589  0.014436  1
  Cu  Cu11  1  0.750000  0.597589  0.485564  1
  Cu  Cu12  1  0.250000  0.271308  0.331921  1
  Cu  Cu13  1  0.750000  0.771308  0.168079  1
  Cu  Cu14  1  0.250000  0.230436  0.834511  1
  Cu  Cu15  1  0.750000  0.730436  0.665489  1
  Cu  Cu16  1  0.250000  0.859450  0.278754  1
  Cu  Cu17  1  0.750000  0.359450  0.221246  1
  Cu  Cu18  1  0.250000  0.642469  0.784141  1
  Cu  Cu19  1  0.750000  0.142469  0.715859  1
  P  P20  1  0.250000  0.236252  0.639965  1
  P  P21  1  0.750000  0.736252  0.860035  1
  P  P22  1  0.250000  0.257548  0.144420  1
  P  P23  1  0.750000  0.757548  0.355580  1
  P  P24  1  0.250000  0.609584  0.599494  1
  P  P25  1  0.750000  0.109584  0.900506  1
  P  P26  1  0.250000  0.895486  0.100084  1
  P  P27  1  0.750000  0.395486  0.399916  1
  P  P28  1  0.250000  0.056459  0.366902  1
  P  P29  1  0.750000  0.556459  0.133098  1
  P  P30  1  0.250000  0.443097  0.878200  1
  P  P31  1  0.750000  0.943097  0.621800  1
