# generated using pymatgen
data_AcSmNi12P5
_symmetry_space_group_name_H-M   'P 1'
_cell_length_a   3.69387300
_cell_length_b   10.87133764
_cell_length_c   13.25274512
_cell_angle_alpha   71.73163812
_cell_angle_beta   90.00000000
_cell_angle_gamma   90.00000000
_symmetry_Int_Tables_number   1
_chemical_formula_structural   AcSmNi12P5
_chemical_formula_sum   'Ac2 Sm2 Ni24 P10'
_cell_volume   505.37168849
_cell_formula_units_Z   2
loop_
 _symmetry_equiv_pos_site_id
 _symmetry_equiv_pos_as_xyz
  1  'x, y, z'
loop_
 _atom_site_type_symbol
 _atom_site_label
 _atom_site_symmetry_multiplicity
 _atom_site_fract_x
 _atom_site_fract_y
 _atom_site_fract_z
 _atom_site_occupancy
  Ac  Ac0  1  0.250000  0.747969  0.187608  1
  Ac  Ac1  1  0.750000  0.252031  0.812392  1
  Sm  Sm2  1  0.250000  0.781193  0.682147  1
  Sm  Sm3  1  0.750000  0.218807  0.317853  1
  Ni  Ni4  1  0.250000  0.569722  0.014648  1
  Ni  Ni5  1  0.250000  0.564476  0.448214  1
  Ni  Ni6  1  0.750000  0.504412  0.341360  1
  Ni  Ni7  1  0.250000  0.495588  0.658640  1
  Ni  Ni8  1  0.750000  0.508041  0.151300  1
  Ni  Ni9  1  0.250000  0.491959  0.848700  1
  Ni  Ni10  1  0.750000  0.435524  0.551786  1
  Ni  Ni11  1  0.250000  0.340173  0.138872  1
  Ni  Ni12  1  0.750000  0.660584  0.563553  1
  Ni  Ni13  1  0.250000  0.339416  0.436447  1
  Ni  Ni14  1  0.750000  0.906448  0.305971  1
  Ni  Ni15  1  0.250000  0.093552  0.694029  1
  Ni  Ni16  1  0.750000  0.918259  0.989771  1
  Ni  Ni17  1  0.250000  0.081741  0.010229  1
  Ni  Ni18  1  0.750000  0.920868  0.491294  1
  Ni  Ni19  1  0.250000  0.079132  0.508706  1
  Ni  Ni20  1  0.750000  0.935129  0.794984  1
  Ni  Ni21  1  0.250000  0.064871  0.205016  1
  Ni  Ni22  1  0.250000  0.787965  0.440374  1
  Ni  Ni23  1  0.750000  0.212035  0.559626  1
  Ni  Ni24  1  0.250000  0.796274  0.915256  1
  Ni  Ni25  1  0.750000  0.203726  0.084744  1
  Ni  Ni26  1  0.750000  0.659827  0.861128  1
  Ni  Ni27  1  0.750000  0.430278  0.985352  1
  P  P28  1  0.250000  0.004821  0.871802  1
  P  P29  1  0.750000  0.995179  0.128198  1
  P  P30  1  0.250000  0.301567  0.987445  1
  P  P31  1  0.750000  0.698433  0.012555  1
  P  P32  1  0.250000  0.444470  0.261132  1
  P  P33  1  0.750000  0.555530  0.738868  1
  P  P34  1  0.250000  0.995815  0.378372  1
  P  P35  1  0.750000  0.004185  0.621628  1
  P  P36  1  0.250000  0.312688  0.606960  1
  P  P37  1  0.750000  0.687312  0.393040  1
