# generated using pymatgen
data_US27
_symmetry_space_group_name_H-M   'P 1'
_cell_length_a   15.59682408
_cell_length_b   15.48378194
_cell_length_c   15.60843700
_cell_angle_alpha   119.02161151
_cell_angle_beta   119.77535460
_cell_angle_gamma   118.94266891
_symmetry_Int_Tables_number   1
_chemical_formula_structural   US27
_chemical_formula_sum   'U1 S27'
_cell_volume   848.37304040
_cell_formula_units_Z   1
loop_
 _symmetry_equiv_pos_site_id
 _symmetry_equiv_pos_as_xyz
  1  'x, y, z'
loop_
 _atom_site_type_symbol
 _atom_site_label
 _atom_site_symmetry_multiplicity
 _atom_site_fract_x
 _atom_site_fract_y
 _atom_site_fract_z
 _atom_site_occupancy
  U  U0  1  0.556680  0.559723  0.556497  1
  S  S1  1  0.807079  0.528960  0.528482  1
  S  S2  1  0.528810  0.529163  0.807616  1
  S  S3  1  0.528920  0.804747  0.528838  1
  S  S4  1  0.213229  0.340246  0.598580  1
  S  S5  1  0.397928  0.986070  0.398021  1
  S  S6  1  0.398687  0.397883  0.985912  1
  S  S7  1  0.985947  0.397794  0.398685  1
  S  S8  1  0.121876  0.724271  0.246468  1
  S  S9  1  0.246083  0.120137  0.723571  1
  S  S10  1  0.724580  0.247618  0.122503  1
  S  S11  1  0.723632  0.120174  0.246052  1
  S  S12  1  0.246659  0.724426  0.122131  1
  S  S13  1  0.122356  0.247607  0.724494  1
  S  S14  1  0.378547  0.898233  0.554389  1
  S  S15  1  0.554038  0.376083  0.898734  1
  S  S16  1  0.898668  0.555378  0.378221  1
  S  S17  1  0.898749  0.376254  0.553988  1
  S  S18  1  0.554609  0.898337  0.378789  1
  S  S19  1  0.378012  0.555363  0.898694  1
  S  S20  1  0.213782  0.597177  0.339527  1
  S  S21  1  0.339868  0.213297  0.599461  1
  S  S22  1  0.598249  0.340091  0.213075  1
  S  S23  1  0.599191  0.213243  0.339619  1
  S  S24  1  0.339707  0.597201  0.213818  1
  S  S25  1  0.981246  0.095470  0.093573  1
  S  S26  1  0.093391  0.095472  0.980983  1
  S  S27  1  0.094773  0.984877  0.094575  1
