# generated using pymatgen
data_LiTl3(WF6)2
_symmetry_space_group_name_H-M   'P 1'
_cell_length_a   5.78504200
_cell_length_b   5.78504200
_cell_length_c   20.45463000
_cell_angle_alpha   90.00000000
_cell_angle_beta   90.00000000
_cell_angle_gamma   90.00000000
_symmetry_Int_Tables_number   1
_chemical_formula_structural   LiTl3(WF6)2
_chemical_formula_sum   'Li2 Tl6 W4 F24'
_cell_volume   684.54918963
_cell_formula_units_Z   2
loop_
 _symmetry_equiv_pos_site_id
 _symmetry_equiv_pos_as_xyz
  1  'x, y, z'
loop_
 _atom_site_type_symbol
 _atom_site_label
 _atom_site_symmetry_multiplicity
 _atom_site_fract_x
 _atom_site_fract_y
 _atom_site_fract_z
 _atom_site_occupancy
  Li  Li0  1  0.000000  0.000000  0.000000  1
  Li  Li1  1  0.500000  0.500000  0.500000  1
  Tl  Tl2  1  0.000000  0.500000  0.307467  1
  Tl  Tl3  1  0.500000  0.000000  0.692533  1
  Tl  Tl4  1  0.500000  0.000000  0.192533  1
  Tl  Tl5  1  0.000000  0.500000  0.807467  1
  Tl  Tl6  1  0.000000  0.000000  0.500000  1
  Tl  Tl7  1  0.500000  0.500000  0.000000  1
  W  W8  1  0.000000  0.500000  0.117467  1
  W  W9  1  0.500000  0.000000  0.882533  1
  W  W10  1  0.500000  0.000000  0.382533  1
  W  W11  1  0.000000  0.500000  0.617467  1
  F  F12  1  0.197594  0.166144  0.384107  1
  F  F13  1  0.802406  0.833856  0.384107  1
  F  F14  1  0.166144  0.802406  0.615893  1
  F  F15  1  0.302406  0.666144  0.115893  1
  F  F16  1  0.833856  0.197594  0.615893  1
  F  F17  1  0.697594  0.333856  0.115893  1
  F  F18  1  0.333856  0.302406  0.884107  1
  F  F19  1  0.666144  0.697594  0.884107  1
  F  F20  1  0.110323  0.279351  0.187061  1
  F  F21  1  0.889677  0.720649  0.187061  1
  F  F22  1  0.279351  0.889677  0.812939  1
  F  F23  1  0.389677  0.779351  0.312939  1
  F  F24  1  0.720649  0.110323  0.812939  1
  F  F25  1  0.610323  0.220649  0.312939  1
  F  F26  1  0.220649  0.389677  0.687061  1
  F  F27  1  0.779351  0.610323  0.687061  1
  F  F28  1  0.104075  0.264147  0.048368  1
  F  F29  1  0.895925  0.735853  0.048368  1
  F  F30  1  0.264147  0.895925  0.951632  1
  F  F31  1  0.395925  0.764147  0.451632  1
  F  F32  1  0.735853  0.104075  0.951632  1
  F  F33  1  0.604075  0.235853  0.451632  1
  F  F34  1  0.235853  0.395925  0.548368  1
  F  F35  1  0.764147  0.604075  0.548368  1
