# generated using pymatgen
data_ThTlPt4
_symmetry_space_group_name_H-M   'P 1'
_cell_length_a   5.48699520
_cell_length_b   5.48699552
_cell_length_c   5.48699600
_cell_angle_alpha   59.99999713
_cell_angle_beta   59.99999516
_cell_angle_gamma   59.99999874
_symmetry_Int_Tables_number   1
_chemical_formula_structural   ThTlPt4
_chemical_formula_sum   'Th1 Tl1 Pt4'
_cell_volume   116.81236112
_cell_formula_units_Z   1
loop_
 _symmetry_equiv_pos_site_id
 _symmetry_equiv_pos_as_xyz
  1  'x, y, z'
loop_
 _atom_site_type_symbol
 _atom_site_label
 _atom_site_symmetry_multiplicity
 _atom_site_fract_x
 _atom_site_fract_y
 _atom_site_fract_z
 _atom_site_occupancy
  Th  Th0  1  0.250000  0.250000  0.250000  1
  Tl  Tl1  1  0.000000  0.000000  0.000000  1
  Pt  Pt2  1  0.625358  0.625358  0.123925  1
  Pt  Pt3  1  0.625358  0.123925  0.625358  1
  Pt  Pt4  1  0.123925  0.625358  0.625358  1
  Pt  Pt5  1  0.625358  0.625358  0.625358  1
