# generated using pymatgen
data_Ho3Lu7Bi6
_symmetry_space_group_name_H-M   'P 1'
_cell_length_a   8.17271533
_cell_length_b   9.39560000
_cell_length_c   11.86400338
_cell_angle_alpha   90.00000000
_cell_angle_beta   90.08650043
_cell_angle_gamma   90.00000000
_symmetry_Int_Tables_number   1
_chemical_formula_structural   Ho3Lu7Bi6
_chemical_formula_sum   'Ho6 Lu14 Bi12'
_cell_volume   911.00688230
_cell_formula_units_Z   2
loop_
 _symmetry_equiv_pos_site_id
 _symmetry_equiv_pos_as_xyz
  1  'x, y, z'
loop_
 _atom_site_type_symbol
 _atom_site_label
 _atom_site_symmetry_multiplicity
 _atom_site_fract_x
 _atom_site_fract_y
 _atom_site_fract_z
 _atom_site_occupancy
  Ho  Ho0  1  0.649894  0.250001  0.784272  1
  Ho  Ho1  1  0.350729  0.750000  0.216259  1
  Ho  Ho2  1  0.149844  0.250001  0.716267  1
  Ho  Ho3  1  0.688692  0.750000  0.781146  1
  Ho  Ho4  1  0.810859  0.250001  0.281437  1
  Ho  Ho5  1  0.188221  0.750000  0.718668  1
  Lu  Lu6  1  0.523001  0.750000  0.510941  1
  Lu  Lu7  1  0.977019  0.250001  0.011554  1
  Lu  Lu8  1  0.022756  0.750000  0.989529  1
  Lu  Lu9  1  0.476945  0.250001  0.488200  1
  Lu  Lu10  1  0.193309  0.933623  0.442304  1
  Lu  Lu11  1  0.306457  0.066239  0.942664  1
  Lu  Lu12  1  0.693759  0.566491  0.058131  1
  Lu  Lu13  1  0.806760  0.433677  0.557423  1
  Lu  Lu14  1  0.806760  0.066323  0.557423  1
  Lu  Lu15  1  0.693759  0.933509  0.058131  1
  Lu  Lu16  1  0.306457  0.433761  0.942664  1
  Lu  Lu17  1  0.193309  0.566377  0.442304  1
  Lu  Lu18  1  0.311218  0.250001  0.218244  1
  Lu  Lu19  1  0.849900  0.750000  0.283101  1
  Bi  Bi20  1  0.064904  0.504653  0.175150  1
  Bi  Bi21  1  0.435693  0.495439  0.674732  1
  Bi  Bi22  1  0.564398  0.995591  0.324839  1
  Bi  Bi23  1  0.935500  0.004711  0.825445  1
  Bi  Bi24  1  0.935500  0.495290  0.825445  1
  Bi  Bi25  1  0.564398  0.504408  0.324839  1
  Bi  Bi26  1  0.435693  0.004562  0.674732  1
  Bi  Bi27  1  0.064904  0.995346  0.175150  1
  Bi  Bi28  1  0.904722  0.750000  0.541820  1
  Bi  Bi29  1  0.593729  0.250001  0.044531  1
  Bi  Bi30  1  0.405406  0.750000  0.956419  1
  Bi  Bi31  1  0.095500  0.250001  0.456238  1
