# generated using pymatgen
data_Nd2ErGa6(CuNi2)3
_symmetry_space_group_name_H-M   'P 1'
_cell_length_a   8.87956200
_cell_length_b   8.87956177
_cell_length_c   4.14600200
_cell_angle_alpha   90.00000000
_cell_angle_beta   90.00000000
_cell_angle_gamma   120.00000086
_symmetry_Int_Tables_number   1
_chemical_formula_structural   Nd2ErGa6(CuNi2)3
_chemical_formula_sum   'Nd2 Er1 Ga6 Cu3 Ni6'
_cell_volume   283.10217884
_cell_formula_units_Z   1
loop_
 _symmetry_equiv_pos_site_id
 _symmetry_equiv_pos_as_xyz
  1  'x, y, z'
loop_
 _atom_site_type_symbol
 _atom_site_label
 _atom_site_symmetry_multiplicity
 _atom_site_fract_x
 _atom_site_fract_y
 _atom_site_fract_z
 _atom_site_occupancy
  Nd  Nd0  1  0.333333  0.666667  0.500000  1
  Nd  Nd1  1  0.666667  0.333333  0.500000  1
  Er  Er2  1  0.000000  0.000000  0.000000  1
  Ga  Ga3  1  0.482138  0.000000  0.000000  1
  Ga  Ga4  1  0.000000  0.482138  0.000000  1
  Ga  Ga5  1  0.517862  0.517862  0.000000  1
  Ga  Ga6  1  0.723800  0.000000  0.500000  1
  Ga  Ga7  1  0.000000  0.723800  0.500000  1
  Ga  Ga8  1  0.276200  0.276200  0.500000  1
  Cu  Cu9  1  0.289029  0.000000  0.500000  1
  Cu  Cu10  1  0.000000  0.289029  0.500000  1
  Cu  Cu11  1  0.710971  0.710971  0.500000  1
  Ni  Ni12  1  0.195596  0.366067  0.000000  1
  Ni  Ni13  1  0.633933  0.829529  0.000000  1
  Ni  Ni14  1  0.170471  0.804404  0.000000  1
  Ni  Ni15  1  0.829529  0.633933  0.000000  1
  Ni  Ni16  1  0.804404  0.170471  0.000000  1
  Ni  Ni17  1  0.366067  0.195596  0.000000  1
