# generated using pymatgen
data_Sc2Ga10Tc2Pd
_symmetry_space_group_name_H-M   'P 1'
_cell_length_a   9.08162900
_cell_length_b   9.08162900
_cell_length_c   5.98374000
_cell_angle_alpha   90.00000000
_cell_angle_beta   90.00000000
_cell_angle_gamma   90.00000000
_symmetry_Int_Tables_number   1
_chemical_formula_structural   Sc2Ga10Tc2Pd
_chemical_formula_sum   'Sc4 Ga20 Tc4 Pd2'
_cell_volume   493.51485224
_cell_formula_units_Z   2
loop_
 _symmetry_equiv_pos_site_id
 _symmetry_equiv_pos_as_xyz
  1  'x, y, z'
loop_
 _atom_site_type_symbol
 _atom_site_label
 _atom_site_symmetry_multiplicity
 _atom_site_fract_x
 _atom_site_fract_y
 _atom_site_fract_z
 _atom_site_occupancy
  Sc  Sc0  1  0.682736  0.182736  0.000000  1
  Sc  Sc1  1  0.317264  0.817264  0.000000  1
  Sc  Sc2  1  0.817264  0.682736  0.000000  1
  Sc  Sc3  1  0.182736  0.317264  0.000000  1
  Ga  Ga4  1  0.937007  0.211807  0.285036  1
  Ga  Ga5  1  0.711807  0.437007  0.285036  1
  Ga  Ga6  1  0.500000  0.000000  0.263726  1
  Ga  Ga7  1  0.562993  0.711807  0.714964  1
  Ga  Ga8  1  0.288193  0.562993  0.714964  1
  Ga  Ga9  1  0.788193  0.937007  0.285036  1
  Ga  Ga10  1  0.937007  0.211807  0.714964  1
  Ga  Ga11  1  0.288193  0.562993  0.285036  1
  Ga  Ga12  1  0.062993  0.788193  0.285036  1
  Ga  Ga13  1  0.711807  0.437007  0.714964  1
  Ga  Ga14  1  0.437007  0.288193  0.714964  1
  Ga  Ga15  1  0.062993  0.788193  0.714964  1
  Ga  Ga16  1  0.211807  0.062993  0.714964  1
  Ga  Ga17  1  0.788193  0.937007  0.714964  1
  Ga  Ga18  1  0.211807  0.062993  0.285036  1
  Ga  Ga19  1  0.000000  0.500000  0.736274  1
  Ga  Ga20  1  0.000000  0.500000  0.263726  1
  Ga  Ga21  1  0.562993  0.711807  0.285036  1
  Ga  Ga22  1  0.437007  0.288193  0.285036  1
  Ga  Ga23  1  0.500000  0.000000  0.736274  1
  Tc  Tc24  1  0.677000  0.177000  0.500000  1
  Tc  Tc25  1  0.823000  0.677000  0.500000  1
  Tc  Tc26  1  0.177000  0.323000  0.500000  1
  Tc  Tc27  1  0.323000  0.823000  0.500000  1
  Pd  Pd28  1  0.000000  0.000000  0.000000  1
  Pd  Pd29  1  0.500000  0.500000  0.000000  1
