# generated using pymatgen
data_La8Pr11HoSi16
_symmetry_space_group_name_H-M   'P 1'
_cell_length_a   7.95662447
_cell_length_b   7.95662447
_cell_length_c   15.41572179
_cell_angle_alpha   90.03928376
_cell_angle_beta   89.96071624
_cell_angle_gamma   90.00172066
_symmetry_Int_Tables_number   1
_chemical_formula_structural   La8Pr11HoSi16
_chemical_formula_sum   'La8 Pr11 Ho1 Si16'
_cell_volume   975.93609840
_cell_formula_units_Z   1
loop_
 _symmetry_equiv_pos_site_id
 _symmetry_equiv_pos_as_xyz
  1  'x, y, z'
loop_
 _atom_site_type_symbol
 _atom_site_label
 _atom_site_symmetry_multiplicity
 _atom_site_fract_x
 _atom_site_fract_y
 _atom_site_fract_z
 _atom_site_occupancy
  La  La0  1  0.377278  0.012022  0.448167  1
  La  La1  1  0.487824  0.877470  0.698670  1
  La  La2  1  0.511522  0.123375  0.197469  1
  La  La3  1  0.877470  0.487824  0.301330  1
  La  La4  1  0.123375  0.511522  0.802531  1
  La  La5  1  0.623160  0.986744  0.948527  1
  La  La6  1  0.012022  0.377278  0.551833  1
  La  La7  1  0.986744  0.623160  0.051473  1
  Pr  Pr8  1  0.190327  0.808917  0.249729  1
  Pr  Pr9  1  0.808917  0.190327  0.750271  1
  Pr  Pr10  1  0.691100  0.691100  0.500000  1
  Pr  Pr11  1  0.126973  0.980958  0.877549  1
  Pr  Pr12  1  0.518769  0.628093  0.125874  1
  Pr  Pr13  1  0.480872  0.372818  0.627478  1
  Pr  Pr14  1  0.628093  0.518769  0.874126  1
  Pr  Pr15  1  0.372818  0.480872  0.372522  1
  Pr  Pr16  1  0.873035  0.019016  0.376389  1
  Pr  Pr17  1  0.980958  0.126973  0.122451  1
  Pr  Pr18  1  0.019016  0.873035  0.623611  1
  Ho  Ho19  1  0.311461  0.311461  0.000000  1
  Si  Si20  1  0.195836  0.168077  0.704868  1
  Si  Si21  1  0.330236  0.692317  0.954575  1
  Si  Si22  1  0.667544  0.304253  0.453309  1
  Si  Si23  1  0.692317  0.330236  0.045425  1
  Si  Si24  1  0.304253  0.667544  0.546691  1
  Si  Si25  1  0.803873  0.831793  0.203199  1
  Si  Si26  1  0.168077  0.195836  0.295132  1
  Si  Si27  1  0.831793  0.803873  0.796801  1
  Si  Si28  1  0.288810  0.925169  0.059353  1
  Si  Si29  1  0.578531  0.787574  0.309674  1
  Si  Si30  1  0.418043  0.214452  0.814094  1
  Si  Si31  1  0.787574  0.578531  0.690326  1
  Si  Si32  1  0.214452  0.418043  0.185906  1
  Si  Si33  1  0.712348  0.079407  0.560294  1
  Si  Si34  1  0.925169  0.288810  0.940647  1
  Si  Si35  1  0.079407  0.712348  0.439706  1
