# generated using pymatgen
data_Th5Bi3Pb
_symmetry_space_group_name_H-M   'P 1'
_cell_length_a   9.78334698
_cell_length_b   9.78334614
_cell_length_c   6.74688411
_cell_angle_alpha   89.98214730
_cell_angle_beta   89.98214255
_cell_angle_gamma   119.97751497
_symmetry_Int_Tables_number   1
_chemical_formula_structural   Th5Bi3Pb
_chemical_formula_sum   'Th10 Bi6 Pb2'
_cell_volume   559.38012205
_cell_formula_units_Z   2
loop_
 _symmetry_equiv_pos_site_id
 _symmetry_equiv_pos_as_xyz
  1  'x, y, z'
loop_
 _atom_site_type_symbol
 _atom_site_label
 _atom_site_symmetry_multiplicity
 _atom_site_fract_x
 _atom_site_fract_y
 _atom_site_fract_z
 _atom_site_occupancy
  Th  Th0  1  0.666437  0.333342  0.499350  1
  Th  Th1  1  0.333342  0.666437  0.499350  1
  Th  Th2  1  0.333105  0.666241  0.000730  1
  Th  Th3  1  0.666241  0.333105  0.000730  1
  Th  Th4  1  0.718811  0.718811  0.253058  1
  Th  Th5  1  0.281012  0.000373  0.252285  1
  Th  Th6  1  0.000373  0.281012  0.252285  1
  Th  Th7  1  0.281039  0.281039  0.747689  1
  Th  Th8  1  0.719845  0.000152  0.747299  1
  Th  Th9  1  0.000152  0.719845  0.747299  1
  Bi  Bi10  1  0.999871  0.999871  0.000081  1
  Bi  Bi11  1  0.618768  0.000052  0.249152  1
  Bi  Bi12  1  0.000052  0.618768  0.249152  1
  Bi  Bi13  1  0.618176  0.618176  0.751237  1
  Bi  Bi14  1  0.382026  0.000507  0.750487  1
  Bi  Bi15  1  0.000507  0.382026  0.750487  1
  Pb  Pb16  1  0.000214  0.000214  0.499913  1
  Pb  Pb17  1  0.380030  0.380030  0.249414  1
