# generated using pymatgen
data_Pr10AgSn4Bi2Br
_symmetry_space_group_name_H-M   'P 1'
_cell_length_a   9.71209637
_cell_length_b   9.71209599
_cell_length_c   6.74180708
_cell_angle_alpha   90.09257302
_cell_angle_beta   90.09256545
_cell_angle_gamma   120.25082762
_symmetry_Int_Tables_number   1
_chemical_formula_structural   Pr10AgSn4Bi2Br
_chemical_formula_sum   'Pr10 Ag1 Sn4 Bi2 Br1'
_cell_volume   549.32248671
_cell_formula_units_Z   1
loop_
 _symmetry_equiv_pos_site_id
 _symmetry_equiv_pos_as_xyz
  1  'x, y, z'
loop_
 _atom_site_type_symbol
 _atom_site_label
 _atom_site_symmetry_multiplicity
 _atom_site_fract_x
 _atom_site_fract_y
 _atom_site_fract_z
 _atom_site_occupancy
  Pr  Pr0  1  0.267903  0.995285  0.749502  1
  Pr  Pr1  1  0.732097  0.004715  0.250498  1
  Pr  Pr2  1  0.995285  0.267903  0.749502  1
  Pr  Pr3  1  0.004715  0.732097  0.250498  1
  Pr  Pr4  1  0.734166  0.734166  0.751477  1
  Pr  Pr5  1  0.265834  0.265834  0.248523  1
  Pr  Pr6  1  0.330307  0.669693  0.500000  1
  Pr  Pr7  1  0.669693  0.330307  0.500000  1
  Pr  Pr8  1  0.670320  0.329680  0.000000  1
  Pr  Pr9  1  0.329680  0.670320  0.000000  1
  Ag  Ag10  1  0.000000  0.000000  0.500000  1
  Sn  Sn11  1  0.617155  0.999260  0.747869  1
  Sn  Sn12  1  0.382845  0.000740  0.252131  1
  Sn  Sn13  1  0.999260  0.617155  0.747869  1
  Sn  Sn14  1  0.000740  0.382845  0.252131  1
  Bi  Bi15  1  0.381382  0.381382  0.747441  1
  Bi  Bi16  1  0.618618  0.618618  0.252559  1
  Br  Br17  1  0.000000  0.000000  0.000000  1
