# generated using pymatgen
data_YbSm(B3W)2
_symmetry_space_group_name_H-M   'P 1'
_cell_length_a   6.93453891
_cell_length_b   3.13281600
_cell_length_c   5.51508906
_cell_angle_alpha   90.00000000
_cell_angle_beta   103.09499520
_cell_angle_gamma   90.00000000
_symmetry_Int_Tables_number   1
_chemical_formula_structural   YbSm(B3W)2
_chemical_formula_sum   'Yb1 Sm1 B6 W2'
_cell_volume   116.69764028
_cell_formula_units_Z   1
loop_
 _symmetry_equiv_pos_site_id
 _symmetry_equiv_pos_as_xyz
  1  'x, y, z'
loop_
 _atom_site_type_symbol
 _atom_site_label
 _atom_site_symmetry_multiplicity
 _atom_site_fract_x
 _atom_site_fract_y
 _atom_site_fract_z
 _atom_site_occupancy
  Yb  Yb0  1  0.292687  0.250001  0.829543  1
  Sm  Sm1  1  0.706978  0.750001  0.167786  1
  B  B2  1  0.995332  0.250001  0.080144  1
  B  B3  1  0.995178  0.250001  0.414486  1
  B  B4  1  0.467207  0.250001  0.429241  1
  B  B5  1  0.527289  0.750001  0.575934  1
  B  B6  1  0.009686  0.750001  0.589771  1
  B  B7  1  0.010385  0.750001  0.914575  1
  W  W8  1  0.215037  0.750001  0.314535  1
  W  W9  1  0.780223  0.250001  0.683981  1
