# generated using pymatgen
data_TaNb2AlC2
_symmetry_space_group_name_H-M   'P 1'
_cell_length_a   3.12644700
_cell_length_b   3.12644679
_cell_length_c   19.22746400
_cell_angle_alpha   90.00000000
_cell_angle_beta   90.00000000
_cell_angle_gamma   120.00001275
_symmetry_Int_Tables_number   1
_chemical_formula_structural   TaNb2AlC2
_chemical_formula_sum   'Ta2 Nb4 Al2 C4'
_cell_volume   162.76262895
_cell_formula_units_Z   2
loop_
 _symmetry_equiv_pos_site_id
 _symmetry_equiv_pos_as_xyz
  1  'x, y, z'
loop_
 _atom_site_type_symbol
 _atom_site_label
 _atom_site_symmetry_multiplicity
 _atom_site_fract_x
 _atom_site_fract_y
 _atom_site_fract_z
 _atom_site_occupancy
  Ta  Ta0  1  0.000000  0.000000  0.500000  1
  Ta  Ta1  1  0.000000  0.000000  0.000000  1
  Nb  Nb2  1  0.333333  0.666667  0.133749  1
  Nb  Nb3  1  0.666667  0.333333  0.633749  1
  Nb  Nb4  1  0.333333  0.666667  0.366251  1
  Nb  Nb5  1  0.666667  0.333333  0.866251  1
  Al  Al6  1  0.000000  0.000000  0.250000  1
  Al  Al7  1  0.000000  0.000000  0.750000  1
  C  C8  1  0.666667  0.333333  0.432037  1
  C  C9  1  0.666667  0.333333  0.067963  1
  C  C10  1  0.333333  0.666667  0.567963  1
  C  C11  1  0.333333  0.666667  0.932037  1
