# generated using pymatgen
data_Ho8CoNiAg2
_symmetry_space_group_name_H-M   'P 1'
_cell_length_a   9.37222656
_cell_length_b   9.39174788
_cell_length_c   9.39174727
_cell_angle_alpha   60.15077360
_cell_angle_beta   60.06873669
_cell_angle_gamma   60.06873792
_symmetry_Int_Tables_number   1
_chemical_formula_structural   Ho8CoNiAg2
_chemical_formula_sum   'Ho16 Co2 Ni2 Ag4'
_cell_volume   585.82040049
_cell_formula_units_Z   2
loop_
 _symmetry_equiv_pos_site_id
 _symmetry_equiv_pos_as_xyz
  1  'x, y, z'
loop_
 _atom_site_type_symbol
 _atom_site_label
 _atom_site_symmetry_multiplicity
 _atom_site_fract_x
 _atom_site_fract_y
 _atom_site_fract_z
 _atom_site_occupancy
  Ho  Ho0  1  0.935095  0.935959  0.566002  1
  Ho  Ho1  1  0.810736  0.189264  0.189264  1
  Ho  Ho2  1  0.935332  0.564668  0.564668  1
  Ho  Ho3  1  0.935095  0.566002  0.935959  1
  Ho  Ho4  1  0.814993  0.808831  0.188370  1
  Ho  Ho5  1  0.348513  0.350189  0.350189  1
  Ho  Ho6  1  0.564292  0.935708  0.935708  1
  Ho  Ho7  1  0.562943  0.935959  0.566002  1
  Ho  Ho8  1  0.186894  0.813106  0.813106  1
  Ho  Ho9  1  0.187806  0.188370  0.808831  1
  Ho  Ho10  1  0.350535  0.352434  0.946496  1
  Ho  Ho11  1  0.350535  0.946496  0.352434  1
  Ho  Ho12  1  0.814993  0.188370  0.808831  1
  Ho  Ho13  1  0.562943  0.566002  0.935959  1
  Ho  Ho14  1  0.187806  0.808831  0.188370  1
  Ho  Ho15  1  0.951109  0.350189  0.350189  1
  Co  Co16  1  0.142937  0.572198  0.141928  1
  Co  Co17  1  0.142937  0.141928  0.572198  1
  Ni  Ni18  1  0.572447  0.141670  0.141670  1
  Ni  Ni19  1  0.144214  0.141670  0.141670  1
  Ag  Ag20  1  0.581190  0.581787  0.255835  1
  Ag  Ag21  1  0.254082  0.582268  0.582268  1
  Ag  Ag22  1  0.581383  0.582268  0.582268  1
  Ag  Ag23  1  0.581190  0.255835  0.581787  1
