# generated using pymatgen
data_Y2ThAlAu5
_symmetry_space_group_name_H-M   'P 1'
_cell_length_a   8.57202500
_cell_length_b   8.57202548
_cell_length_c   13.65596300
_cell_angle_alpha   90.00000000
_cell_angle_beta   90.00000000
_cell_angle_gamma   128.43166107
_symmetry_Int_Tables_number   1
_chemical_formula_structural   Y2ThAlAu5
_chemical_formula_sum   'Y8 Th4 Al4 Au20'
_cell_volume   786.04084852
_cell_formula_units_Z   4
loop_
 _symmetry_equiv_pos_site_id
 _symmetry_equiv_pos_as_xyz
  1  'x, y, z'
loop_
 _atom_site_type_symbol
 _atom_site_label
 _atom_site_symmetry_multiplicity
 _atom_site_fract_x
 _atom_site_fract_y
 _atom_site_fract_z
 _atom_site_occupancy
  Y  Y0  1  0.632298  0.367702  0.463946  1
  Y  Y1  1  0.367702  0.632298  0.536054  1
  Y  Y2  1  0.632298  0.367702  0.036054  1
  Y  Y3  1  0.367702  0.632298  0.963946  1
  Y  Y4  1  0.883590  0.116410  0.951783  1
  Y  Y5  1  0.116410  0.883590  0.048217  1
  Y  Y6  1  0.883590  0.116410  0.548217  1
  Y  Y7  1  0.116410  0.883590  0.451783  1
  Th  Th8  1  0.933721  0.066279  0.250000  1
  Th  Th9  1  0.066279  0.933721  0.750000  1
  Th  Th10  1  0.316091  0.683909  0.250000  1
  Th  Th11  1  0.683909  0.316091  0.750000  1
  Al  Al12  1  0.720914  0.279086  0.250000  1
  Al  Al13  1  0.279086  0.720914  0.750000  1
  Al  Al14  1  0.532804  0.467196  0.250000  1
  Al  Al15  1  0.467196  0.532804  0.750000  1
  Au  Au16  1  0.321968  0.069627  0.250000  1
  Au  Au17  1  0.069627  0.321968  0.750000  1
  Au  Au18  1  0.678032  0.930373  0.750000  1
  Au  Au19  1  0.930373  0.678032  0.250000  1
  Au  Au20  1  0.575959  0.007856  0.398230  1
  Au  Au21  1  0.007856  0.575959  0.601770  1
  Au  Au22  1  0.575959  0.007856  0.101770  1
  Au  Au23  1  0.007856  0.575959  0.898230  1
  Au  Au24  1  0.424041  0.992144  0.601770  1
  Au  Au25  1  0.992144  0.424041  0.398230  1
  Au  Au26  1  0.424041  0.992144  0.898230  1
  Au  Au27  1  0.992144  0.424041  0.101770  1
  Au  Au28  1  0.681419  0.734995  0.396123  1
  Au  Au29  1  0.734995  0.681419  0.603877  1
  Au  Au30  1  0.681419  0.734995  0.103877  1
  Au  Au31  1  0.734995  0.681419  0.896123  1
  Au  Au32  1  0.318581  0.265005  0.603877  1
  Au  Au33  1  0.265005  0.318581  0.396123  1
  Au  Au34  1  0.318581  0.265005  0.896123  1
  Au  Au35  1  0.265005  0.318581  0.103877  1
