# generated using pymatgen
data_MnNb3(Fe3Ge)2
_symmetry_space_group_name_H-M   'P 1'
_cell_length_a   4.85440600
_cell_length_b   4.85440471
_cell_length_c   7.95842300
_cell_angle_alpha   90.00000000
_cell_angle_beta   90.00000000
_cell_angle_gamma   119.99999519
_symmetry_Int_Tables_number   1
_chemical_formula_structural   MnNb3(Fe3Ge)2
_chemical_formula_sum   'Mn1 Nb3 Fe6 Ge2'
_cell_volume   162.41635045
_cell_formula_units_Z   1
loop_
 _symmetry_equiv_pos_site_id
 _symmetry_equiv_pos_as_xyz
  1  'x, y, z'
loop_
 _atom_site_type_symbol
 _atom_site_label
 _atom_site_symmetry_multiplicity
 _atom_site_fract_x
 _atom_site_fract_y
 _atom_site_fract_z
 _atom_site_occupancy
  Mn  Mn0  1  0.333333  0.666666  0.062928  1
  Nb  Nb1  1  0.333333  0.666666  0.423897  1
  Nb  Nb2  1  0.666667  0.333334  0.567478  1
  Nb  Nb3  1  0.666667  0.333334  0.940337  1
  Fe  Fe4  1  0.345545  0.172773  0.248005  1
  Fe  Fe5  1  0.827229  0.172773  0.248005  1
  Fe  Fe6  1  0.827228  0.654456  0.248005  1
  Fe  Fe7  1  0.173461  0.346921  0.752699  1
  Fe  Fe8  1  0.173460  0.826538  0.752699  1
  Fe  Fe9  1  0.653079  0.826538  0.752699  1
  Ge  Ge10  1  0.000000  0.000000  0.001886  1
  Ge  Ge11  1  0.000000  0.000000  0.501358  1
