# generated using pymatgen
data_HfUInRh5
_symmetry_space_group_name_H-M   'P 1'
_cell_length_a   4.15952700
_cell_length_b   5.71618663
_cell_length_c   11.30985735
_cell_angle_alpha   89.80008462
_cell_angle_beta   90.00000000
_cell_angle_gamma   90.00000000
_symmetry_Int_Tables_number   1
_chemical_formula_structural   HfUInRh5
_chemical_formula_sum   'Hf2 U2 In2 Rh10'
_cell_volume   268.90868630
_cell_formula_units_Z   2
loop_
 _symmetry_equiv_pos_site_id
 _symmetry_equiv_pos_as_xyz
  1  'x, y, z'
loop_
 _atom_site_type_symbol
 _atom_site_label
 _atom_site_symmetry_multiplicity
 _atom_site_fract_x
 _atom_site_fract_y
 _atom_site_fract_z
 _atom_site_occupancy
  Hf  Hf0  1  0.500000  0.683284  0.864572  1
  Hf  Hf1  1  0.500000  0.316716  0.135428  1
  U  U2  1  0.500000  0.186074  0.646274  1
  U  U3  1  0.500000  0.813926  0.353726  1
  In  In4  1  0.000000  0.500000  0.500000  1
  In  In5  1  0.000000  0.000000  0.000000  1
  Rh  Rh6  1  0.500000  0.210279  0.881693  1
  Rh  Rh7  1  0.500000  0.789721  0.118307  1
  Rh  Rh8  1  0.500000  0.720494  0.617591  1
  Rh  Rh9  1  0.500000  0.279506  0.382409  1
  Rh  Rh10  1  0.000000  0.440405  0.747348  1
  Rh  Rh11  1  0.000000  0.559595  0.252652  1
  Rh  Rh12  1  0.000000  0.000000  0.500000  1
  Rh  Rh13  1  0.000000  0.500000  0.000000  1
  Rh  Rh14  1  0.000000  0.053007  0.247180  1
  Rh  Rh15  1  0.000000  0.946993  0.752820  1
