# generated using pymatgen
data_Y3Tm5(CdCo)2
_symmetry_space_group_name_H-M   'P 1'
_cell_length_a   9.48084198
_cell_length_b   9.48084294
_cell_length_c   9.48084300
_cell_angle_alpha   60.00000329
_cell_angle_beta   59.99999994
_cell_angle_gamma   59.99999929
_symmetry_Int_Tables_number   1
_chemical_formula_structural   Y3Tm5(CdCo)2
_chemical_formula_sum   'Y6 Tm10 Cd4 Co4'
_cell_volume   602.59541891
_cell_formula_units_Z   2
loop_
 _symmetry_equiv_pos_site_id
 _symmetry_equiv_pos_as_xyz
  1  'x, y, z'
loop_
 _atom_site_type_symbol
 _atom_site_label
 _atom_site_symmetry_multiplicity
 _atom_site_fract_x
 _atom_site_fract_y
 _atom_site_fract_z
 _atom_site_occupancy
  Y  Y0  1  0.190047  0.809953  0.809953  1
  Y  Y1  1  0.809953  0.190047  0.190047  1
  Y  Y2  1  0.809953  0.190047  0.809953  1
  Y  Y3  1  0.190047  0.809953  0.190047  1
  Y  Y4  1  0.809953  0.809953  0.190047  1
  Y  Y5  1  0.190047  0.190047  0.809953  1
  Tm  Tm6  1  0.595008  0.595008  0.595008  1
  Tm  Tm7  1  0.595008  0.595008  0.214976  1
  Tm  Tm8  1  0.595008  0.214976  0.595008  1
  Tm  Tm9  1  0.214976  0.595008  0.595008  1
  Tm  Tm10  1  0.062861  0.437139  0.437139  1
  Tm  Tm11  1  0.437139  0.062861  0.062861  1
  Tm  Tm12  1  0.437139  0.062861  0.437139  1
  Tm  Tm13  1  0.062861  0.437139  0.062861  1
  Tm  Tm14  1  0.437139  0.437139  0.062861  1
  Tm  Tm15  1  0.062861  0.062861  0.437139  1
  Cd  Cd16  1  0.830147  0.830147  0.830147  1
  Cd  Cd17  1  0.830147  0.830147  0.509556  1
  Cd  Cd18  1  0.830147  0.509556  0.830147  1
  Cd  Cd19  1  0.509556  0.830147  0.830147  1
  Co  Co20  1  0.390841  0.390841  0.390841  1
  Co  Co21  1  0.390841  0.390841  0.827480  1
  Co  Co22  1  0.390841  0.827480  0.390841  1
  Co  Co23  1  0.827480  0.390841  0.390841  1
