# generated using pymatgen
data_Sr(SiPt)4
_symmetry_space_group_name_H-M   'P 1'
_cell_length_a   6.40796371
_cell_length_b   6.40796267
_cell_length_c   6.40796286
_cell_angle_alpha   97.68512998
_cell_angle_beta   97.68513601
_cell_angle_gamma   137.09990799
_symmetry_Int_Tables_number   1
_chemical_formula_structural   Sr(SiPt)4
_chemical_formula_sum   'Sr1 Si4 Pt4'
_cell_volume   166.70810298
_cell_formula_units_Z   1
loop_
 _symmetry_equiv_pos_site_id
 _symmetry_equiv_pos_as_xyz
  1  'x, y, z'
loop_
 _atom_site_type_symbol
 _atom_site_label
 _atom_site_symmetry_multiplicity
 _atom_site_fract_x
 _atom_site_fract_y
 _atom_site_fract_z
 _atom_site_occupancy
  Sr  Sr0  1  0.298154  0.298154  0.000000  1
  Si  Si1  1  0.384417  0.885292  0.269448  1
  Si  Si2  1  0.615843  0.114968  0.730552  1
  Si  Si3  1  0.114968  0.384417  0.499125  1
  Si  Si4  1  0.885292  0.615843  0.500875  1
  Pt  Pt5  1  0.172798  0.675968  0.848104  1
  Pt  Pt6  1  0.827866  0.324695  0.151896  1
  Pt  Pt7  1  0.324695  0.172798  0.496829  1
  Pt  Pt8  1  0.675968  0.827866  0.503171  1
