# generated using pymatgen
data_Tb7Er3Si5Sn
_symmetry_space_group_name_H-M   'P 1'
_cell_length_a   8.53197215
_cell_length_b   8.56180094
_cell_length_c   6.40516812
_cell_angle_alpha   89.98007933
_cell_angle_beta   90.00137585
_cell_angle_gamma   119.90646550
_symmetry_Int_Tables_number   1
_chemical_formula_structural   Tb7Er3Si5Sn
_chemical_formula_sum   'Tb7 Er3 Si5 Sn1'
_cell_volume   405.58720556
_cell_formula_units_Z   1
loop_
 _symmetry_equiv_pos_site_id
 _symmetry_equiv_pos_as_xyz
  1  'x, y, z'
loop_
 _atom_site_type_symbol
 _atom_site_label
 _atom_site_symmetry_multiplicity
 _atom_site_fract_x
 _atom_site_fract_y
 _atom_site_fract_z
 _atom_site_occupancy
  Tb  Tb0  1  0.989635  0.747996  0.750274  1
  Tb  Tb1  1  0.997915  0.243240  0.249568  1
  Tb  Tb2  1  0.754944  0.756419  0.249645  1
  Tb  Tb3  1  0.764740  0.000245  0.750329  1
  Tb  Tb4  1  0.241887  0.251771  0.750441  1
  Tb  Tb5  1  0.242319  0.000241  0.249669  1
  Tb  Tb6  1  0.331134  0.657309  0.496943  1
  Er  Er7  1  0.673891  0.342681  0.002882  1
  Er  Er8  1  0.673858  0.342767  0.497131  1
  Er  Er9  1  0.331134  0.657280  0.002898  1
  Si  Si10  1  0.394628  0.392050  0.248845  1
  Si  Si11  1  0.000394  0.606947  0.249033  1
  Si  Si12  1  0.997438  0.394320  0.751046  1
  Si  Si13  1  0.604205  0.604676  0.751062  1
  Si  Si14  1  0.604911  0.000931  0.249135  1
  Sn  Sn15  1  0.396968  0.001127  0.751099  1
