# generated using pymatgen
data_TbDy6Th(ReB6)4
_symmetry_space_group_name_H-M   'P 1'
_cell_length_a   3.71331500
_cell_length_b   9.20568947
_cell_length_c   11.60658002
_cell_angle_alpha   90.03572802
_cell_angle_beta   90.00000000
_cell_angle_gamma   90.00000000
_symmetry_Int_Tables_number   1
_chemical_formula_structural   TbDy6Th(ReB6)4
_chemical_formula_sum   'Tb1 Dy6 Th1 Re4 B24'
_cell_volume   396.75489955
_cell_formula_units_Z   1
loop_
 _symmetry_equiv_pos_site_id
 _symmetry_equiv_pos_as_xyz
  1  'x, y, z'
loop_
 _atom_site_type_symbol
 _atom_site_label
 _atom_site_symmetry_multiplicity
 _atom_site_fract_x
 _atom_site_fract_y
 _atom_site_fract_z
 _atom_site_occupancy
  Tb  Tb0  1  0.000000  0.677846  0.587162  1
  Dy  Dy1  1  0.000000  0.823295  0.085065  1
  Dy  Dy2  1  0.000000  0.176081  0.914061  1
  Dy  Dy3  1  0.000000  0.941578  0.369282  1
  Dy  Dy4  1  0.000000  0.056537  0.631439  1
  Dy  Dy5  1  0.000000  0.443055  0.128402  1
  Dy  Dy6  1  0.000000  0.557827  0.870488  1
  Th  Th7  1  0.000000  0.322294  0.414108  1
  Re  Re8  1  0.000000  0.638406  0.320513  1
  Re  Re9  1  0.000000  0.362207  0.680111  1
  Re  Re10  1  0.000000  0.137849  0.178281  1
  Re  Re11  1  0.000000  0.862136  0.821151  1
  B  B12  1  0.500000  0.555453  0.432008  1
  B  B13  1  0.500000  0.447046  0.569609  1
  B  B14  1  0.500000  0.052834  0.066428  1
  B  B15  1  0.500000  0.946739  0.932884  1
  B  B16  1  0.500000  0.749465  0.417773  1
  B  B17  1  0.500000  0.251508  0.585230  1
  B  B18  1  0.500000  0.248142  0.080391  1
  B  B19  1  0.500000  0.751488  0.918284  1
  B  B20  1  0.500000  0.791377  0.264979  1
  B  B21  1  0.500000  0.208847  0.736149  1
  B  B22  1  0.500000  0.289719  0.232137  1
  B  B23  1  0.500000  0.708909  0.765921  1
  B  B24  1  0.500000  0.631642  0.184647  1
  B  B25  1  0.500000  0.369945  0.815112  1
  B  B26  1  0.500000  0.128930  0.312054  1
  B  B27  1  0.500000  0.869379  0.686448  1
  B  B28  1  0.500000  0.981899  0.210819  1
  B  B29  1  0.500000  0.017218  0.788742  1
  B  B30  1  0.500000  0.485340  0.286308  1
  B  B31  1  0.500000  0.518049  0.713544  1
  B  B32  1  0.500000  0.601419  0.027812  1
  B  B33  1  0.500000  0.399295  0.971437  1
  B  B34  1  0.500000  0.097155  0.472812  1
  B  B35  1  0.500000  0.899093  0.528405  1
