# generated using pymatgen
data_Tb11DyTlCo4Pt
_symmetry_space_group_name_H-M   'P 1'
_cell_length_a   8.34041319
_cell_length_b   8.34041400
_cell_length_c   8.34315700
_cell_angle_alpha   106.96757587
_cell_angle_beta   110.37103057
_cell_angle_gamma   111.09164964
_symmetry_Int_Tables_number   1
_chemical_formula_structural   Tb11DyTlCo4Pt
_chemical_formula_sum   'Tb11 Dy1 Tl1 Co4 Pt1'
_cell_volume   446.18761466
_cell_formula_units_Z   1
loop_
 _symmetry_equiv_pos_site_id
 _symmetry_equiv_pos_as_xyz
  1  'x, y, z'
loop_
 _atom_site_type_symbol
 _atom_site_label
 _atom_site_symmetry_multiplicity
 _atom_site_fract_x
 _atom_site_fract_y
 _atom_site_fract_z
 _atom_site_occupancy
  Tb  Tb0  1  0.477227  0.291666  0.185253  1
  Tb  Tb1  1  0.106254  0.291564  0.814847  1
  Tb  Tb2  1  0.893587  0.708027  0.185253  1
  Tb  Tb3  1  0.523283  0.708593  0.814847  1
  Tb  Tb4  1  0.304565  0.620043  0.315178  1
  Tb  Tb5  1  0.305214  0.989596  0.684829  1
  Tb  Tb6  1  0.695234  0.379614  0.684829  1
  Tb  Tb7  1  0.695137  0.010613  0.315178  1
  Tb  Tb8  1  0.198221  0.214055  0.412277  1
  Tb  Tb9  1  0.801561  0.786060  0.587622  1
  Tb  Tb10  1  0.198389  0.786042  0.984430  1
  Dy  Dy11  1  0.801526  0.213833  0.015360  1
  Tl  Tl12  1  0.999903  0.499842  0.499744  1
  Co  Co13  1  0.499959  0.611976  0.111935  1
  Co  Co14  1  0.500260  0.387922  0.888182  1
  Co  Co15  1  0.379497  0.999924  0.379422  1
  Co  Co16  1  0.620784  0.000159  0.620942  1
  Pt  Pt17  1  0.999398  0.000473  0.999869  1
