# generated using pymatgen
data_La2GaCu2Ni2Sn3
_symmetry_space_group_name_H-M   'P 1'
_cell_length_a   4.43811200
_cell_length_b   4.43811200
_cell_length_c   10.36238400
_cell_angle_alpha   90.00000000
_cell_angle_beta   90.00000000
_cell_angle_gamma   90.00000000
_symmetry_Int_Tables_number   1
_chemical_formula_structural   La2GaCu2Ni2Sn3
_chemical_formula_sum   'La2 Ga1 Cu2 Ni2 Sn3'
_cell_volume   204.10620023
_cell_formula_units_Z   1
loop_
 _symmetry_equiv_pos_site_id
 _symmetry_equiv_pos_as_xyz
  1  'x, y, z'
loop_
 _atom_site_type_symbol
 _atom_site_label
 _atom_site_symmetry_multiplicity
 _atom_site_fract_x
 _atom_site_fract_y
 _atom_site_fract_z
 _atom_site_occupancy
  La  La0  1  0.500000  0.000000  0.749866  1
  La  La1  1  0.000000  0.500000  0.250134  1
  Ga  Ga2  1  0.500000  0.500000  0.500000  1
  Cu  Cu3  1  0.000000  0.000000  0.000000  1
  Cu  Cu4  1  0.500000  0.500000  0.000000  1
  Ni  Ni5  1  0.000000  0.500000  0.617220  1
  Ni  Ni6  1  0.500000  0.000000  0.382780  1
  Sn  Sn7  1  0.000000  0.500000  0.860324  1
  Sn  Sn8  1  0.500000  0.000000  0.139676  1
  Sn  Sn9  1  0.000000  0.000000  0.500000  1
