# generated using pymatgen
data_Zr6Ta4Al12Fe6Ni
_symmetry_space_group_name_H-M   'P 1'
_cell_length_a   8.61658867
_cell_length_b   8.61658744
_cell_length_c   8.65454500
_cell_angle_alpha   59.85416691
_cell_angle_beta   59.85417165
_cell_angle_gamma   60.18857801
_symmetry_Int_Tables_number   1
_chemical_formula_structural   Zr6Ta4Al12Fe6Ni
_chemical_formula_sum   'Zr6 Ta4 Al12 Fe6 Ni1'
_cell_volume   453.99541313
_cell_formula_units_Z   1
loop_
 _symmetry_equiv_pos_site_id
 _symmetry_equiv_pos_as_xyz
  1  'x, y, z'
loop_
 _atom_site_type_symbol
 _atom_site_label
 _atom_site_symmetry_multiplicity
 _atom_site_fract_x
 _atom_site_fract_y
 _atom_site_fract_z
 _atom_site_occupancy
  Zr  Zr0  1  0.696811  0.303188  0.300741  1
  Zr  Zr1  1  0.696811  0.303188  0.699261  1
  Zr  Zr2  1  0.690557  0.690557  0.309443  1
  Zr  Zr3  1  0.303188  0.696811  0.699261  1
  Zr  Zr4  1  0.303188  0.696811  0.300741  1
  Zr  Zr5  1  0.311598  0.311598  0.688402  1
  Ta  Ta6  1  0.641721  0.118727  0.119776  1
  Ta  Ta7  1  0.118727  0.641721  0.119776  1
  Ta  Ta8  1  0.122478  0.122478  0.643952  1
  Ta  Ta9  1  0.122478  0.122478  0.111093  1
  Al  Al10  1  0.361620  0.878928  0.879726  1
  Al  Al11  1  0.878928  0.361620  0.879726  1
  Al  Al12  1  0.878460  0.878460  0.359969  1
  Al  Al13  1  0.878460  0.878460  0.883110  1
  Al  Al14  1  0.989202  0.334252  0.338272  1
  Al  Al15  1  0.334252  0.989202  0.338272  1
  Al  Al16  1  0.337123  0.337123  0.991775  1
  Al  Al17  1  0.337123  0.337123  0.333978  1
  Al  Al18  1  0.004755  0.663680  0.665782  1
  Al  Al19  1  0.663680  0.004755  0.665782  1
  Al  Al20  1  0.665865  0.665865  0.001554  1
  Al  Al21  1  0.665865  0.665865  0.666715  1
  Fe  Fe22  1  0.000856  0.000856  0.999144  1
  Fe  Fe23  1  0.494777  0.004772  0.004578  1
  Fe  Fe24  1  0.494777  0.004772  0.495873  1
  Fe  Fe25  1  0.496039  0.496039  0.003961  1
  Fe  Fe26  1  0.004772  0.494777  0.495873  1
  Fe  Fe27  1  0.004772  0.494777  0.004578  1
  Ni  Ni28  1  0.001116  0.001116  0.498884  1
