# generated using pymatgen
data_Tb5Ho2FeI12
_symmetry_space_group_name_H-M   'P 1'
_cell_length_a   9.80918523
_cell_length_b   9.80457643
_cell_length_c   9.74139289
_cell_angle_alpha   107.08426260
_cell_angle_beta   106.84665079
_cell_angle_gamma   107.05912059
_symmetry_Int_Tables_number   1
_chemical_formula_structural   Tb5Ho2FeI12
_chemical_formula_sum   'Tb5 Ho2 Fe1 I12'
_cell_volume   780.30815259
_cell_formula_units_Z   1
loop_
 _symmetry_equiv_pos_site_id
 _symmetry_equiv_pos_as_xyz
  1  'x, y, z'
loop_
 _atom_site_type_symbol
 _atom_site_label
 _atom_site_symmetry_multiplicity
 _atom_site_fract_x
 _atom_site_fract_y
 _atom_site_fract_z
 _atom_site_occupancy
  Tb  Tb0  1  0.021325  0.089608  0.279629  1
  Tb  Tb1  1  0.291852  0.022330  0.093126  1
  Tb  Tb2  1  0.906325  0.706621  0.978129  1
  Tb  Tb3  1  0.978959  0.911403  0.720595  1
  Tb  Tb4  1  0.708330  0.977740  0.906996  1
  Ho  Ho5  1  0.499900  0.500184  0.499747  1
  Ho  Ho6  1  0.092703  0.289918  0.021608  1
  Fe  Fe7  1  0.000071  0.999660  0.000288  1
  I  I8  1  0.461734  0.386683  0.161129  1
  I  I9  1  0.162604  0.461580  0.384946  1
  I  I10  1  0.384863  0.163333  0.463166  1
  I  I11  1  0.536317  0.613489  0.837989  1
  I  I12  1  0.837341  0.538558  0.612991  1
  I  I13  1  0.615201  0.837131  0.536909  1
  I  I14  1  0.776811  0.320894  0.928520  1
  I  I15  1  0.928871  0.776920  0.320032  1
  I  I16  1  0.318026  0.927190  0.772693  1
  I  I17  1  0.225124  0.678575  0.071871  1
  I  I18  1  0.071676  0.225041  0.682297  1
  I  I19  1  0.681967  0.073142  0.227339  1
