# generated using pymatgen
data_TbHo(Ga3Ir)3
_symmetry_space_group_name_H-M   'P 1'
_cell_length_a   7.58975944
_cell_length_b   7.59219250
_cell_length_c   9.50146600
_cell_angle_alpha   90.00093693
_cell_angle_beta   90.00090548
_cell_angle_gamma   119.93737461
_symmetry_Int_Tables_number   1
_chemical_formula_structural   TbHo(Ga3Ir)3
_chemical_formula_sum   'Tb2 Ho2 Ga18 Ir6'
_cell_volume   474.44971485
_cell_formula_units_Z   2
loop_
 _symmetry_equiv_pos_site_id
 _symmetry_equiv_pos_as_xyz
  1  'x, y, z'
loop_
 _atom_site_type_symbol
 _atom_site_label
 _atom_site_symmetry_multiplicity
 _atom_site_fract_x
 _atom_site_fract_y
 _atom_site_fract_z
 _atom_site_occupancy
  Tb  Tb0  1  0.997192  0.668054  0.249979  1
  Tb  Tb1  1  0.002808  0.331946  0.750021  1
  Ho  Ho2  1  0.668084  0.997320  0.249974  1
  Ho  Ho3  1  0.331916  0.002680  0.750026  1
  Ga  Ga4  1  0.126773  0.126944  0.249997  1
  Ga  Ga5  1  0.873227  0.873056  0.750003  1
  Ga  Ga6  1  0.999204  0.333659  0.080111  1
  Ga  Ga7  1  0.000796  0.666341  0.919889  1
  Ga  Ga8  1  0.000790  0.666332  0.580122  1
  Ga  Ga9  1  0.334402  0.999531  0.420119  1
  Ga  Ga10  1  0.999210  0.333668  0.419878  1
  Ga  Ga11  1  0.665598  0.000469  0.579881  1
  Ga  Ga12  1  0.665609  0.000479  0.920131  1
  Ga  Ga13  1  0.334391  0.999521  0.079869  1
  Ga  Ga14  1  0.332776  0.332465  0.563918  1
  Ga  Ga15  1  0.667224  0.667535  0.436082  1
  Ga  Ga16  1  0.667216  0.667525  0.063903  1
  Ga  Ga17  1  0.332784  0.332475  0.936097  1
  Ga  Ga18  1  0.339060  0.546416  0.250000  1
  Ga  Ga19  1  0.660940  0.453584  0.750000  1
  Ga  Ga20  1  0.546099  0.338592  0.250000  1
  Ga  Ga21  1  0.453901  0.661408  0.750000  1
  Ir  Ir22  1  0.671401  0.328410  0.000002  1
  Ir  Ir23  1  0.328599  0.671590  0.999998  1
  Ir  Ir24  1  0.328595  0.671592  0.500002  1
  Ir  Ir25  1  0.671405  0.328408  0.499998  1
  Ir  Ir26  1  0.000000  0.000000  0.000000  1
  Ir  Ir27  1  0.000000  0.000000  0.500000  1
