# generated using pymatgen
data_Tb9Y(CoTe)4
_symmetry_space_group_name_H-M   'P 1'
_cell_length_a   7.84511704
_cell_length_b   7.84511670
_cell_length_c   15.11250800
_cell_angle_alpha   90.00000000
_cell_angle_beta   90.00000000
_cell_angle_gamma   150.41449135
_symmetry_Int_Tables_number   1
_chemical_formula_structural   Tb9Y(CoTe)4
_chemical_formula_sum   'Tb9 Y1 Co4 Te4'
_cell_volume   459.21683723
_cell_formula_units_Z   1
loop_
 _symmetry_equiv_pos_site_id
 _symmetry_equiv_pos_as_xyz
  1  'x, y, z'
loop_
 _atom_site_type_symbol
 _atom_site_label
 _atom_site_symmetry_multiplicity
 _atom_site_fract_x
 _atom_site_fract_y
 _atom_site_fract_z
 _atom_site_occupancy
  Tb  Tb0  1  0.960279  0.039721  0.126226  1
  Tb  Tb1  1  0.039661  0.960339  0.873914  1
  Tb  Tb2  1  0.039661  0.960339  0.626086  1
  Tb  Tb3  1  0.960279  0.039721  0.373774  1
  Tb  Tb4  1  0.741797  0.258203  0.630518  1
  Tb  Tb5  1  0.258222  0.741778  0.369338  1
  Tb  Tb6  1  0.258222  0.741778  0.130662  1
  Tb  Tb7  1  0.741797  0.258203  0.869482  1
  Tb  Tb8  1  0.605061  0.394939  0.250000  1
  Y  Y9  1  0.394733  0.605267  0.750000  1
  Co  Co10  1  0.410921  0.589079  0.250000  1
  Co  Co11  1  0.589629  0.410371  0.750000  1
  Co  Co12  1  0.820213  0.179787  0.250000  1
  Co  Co13  1  0.179652  0.820348  0.750000  1
  Te  Te14  1  0.617498  0.382502  0.038440  1
  Te  Te15  1  0.382438  0.617562  0.961361  1
  Te  Te16  1  0.382438  0.617562  0.538639  1
  Te  Te17  1  0.617498  0.382502  0.461560  1
