# generated using pymatgen
data_Cs8Na4PrSm3Sb8
_symmetry_space_group_name_H-M   'P 1'
_cell_length_a   11.75621040
_cell_length_b   11.75620989
_cell_length_c   7.68229051
_cell_angle_alpha   89.90785645
_cell_angle_beta   90.09214460
_cell_angle_gamma   99.08578800
_symmetry_Int_Tables_number   1
_chemical_formula_structural   Cs8Na4PrSm3Sb8
_chemical_formula_sum   'Cs8 Na4 Pr1 Sm3 Sb8'
_cell_volume   1048.43346402
_cell_formula_units_Z   1
loop_
 _symmetry_equiv_pos_site_id
 _symmetry_equiv_pos_as_xyz
  1  'x, y, z'
loop_
 _atom_site_type_symbol
 _atom_site_label
 _atom_site_symmetry_multiplicity
 _atom_site_fract_x
 _atom_site_fract_y
 _atom_site_fract_z
 _atom_site_occupancy
  Cs  Cs0  1  0.070222  0.430069  0.250087  1
  Cs  Cs1  1  0.430069  0.070222  0.749913  1
  Cs  Cs2  1  0.929733  0.570243  0.750134  1
  Cs  Cs3  1  0.570243  0.929733  0.249866  1
  Cs  Cs4  1  0.677487  0.322606  0.212067  1
  Cs  Cs5  1  0.822490  0.177320  0.712294  1
  Cs  Cs6  1  0.322606  0.677487  0.787933  1
  Cs  Cs7  1  0.177320  0.822490  0.287706  1
  Na  Na8  1  0.382277  0.382277  0.000000  1
  Na  Na9  1  0.117922  0.117922  0.500000  1
  Na  Na10  1  0.617861  0.617861  0.000000  1
  Na  Na11  1  0.882144  0.882144  0.500000  1
  Pr  Pr12  1  0.632039  0.632039  0.500000  1
  Sm  Sm13  1  0.131362  0.131362  0.000000  1
  Sm  Sm14  1  0.367938  0.367938  0.500000  1
  Sm  Sm15  1  0.868641  0.868641  0.000000  1
  Sb  Sb16  1  0.845982  0.656745  0.246800  1
  Sb  Sb17  1  0.656745  0.845982  0.753200  1
  Sb  Sb18  1  0.156750  0.343656  0.749807  1
  Sb  Sb19  1  0.343656  0.156750  0.250193  1
  Sb  Sb20  1  0.904328  0.095410  0.213289  1
  Sb  Sb21  1  0.595181  0.401594  0.716353  1
  Sb  Sb22  1  0.095410  0.904328  0.786711  1
  Sb  Sb23  1  0.401594  0.595181  0.283647  1
