# generated using pymatgen
data_CeSm(SbAu)2
_symmetry_space_group_name_H-M   'P 1'
_cell_length_a   4.64081100
_cell_length_b   4.64081056
_cell_length_c   16.68032900
_cell_angle_alpha   90.00000000
_cell_angle_beta   90.00000000
_cell_angle_gamma   119.99999601
_symmetry_Int_Tables_number   1
_chemical_formula_structural   CeSm(SbAu)2
_chemical_formula_sum   'Ce2 Sm2 Sb4 Au4'
_cell_volume   311.11645667
_cell_formula_units_Z   2
loop_
 _symmetry_equiv_pos_site_id
 _symmetry_equiv_pos_as_xyz
  1  'x, y, z'
loop_
 _atom_site_type_symbol
 _atom_site_label
 _atom_site_symmetry_multiplicity
 _atom_site_fract_x
 _atom_site_fract_y
 _atom_site_fract_z
 _atom_site_occupancy
  Ce  Ce0  1  0.000000  0.000000  0.500000  1
  Ce  Ce1  1  0.000000  0.000000  0.000000  1
  Sm  Sm2  1  0.000000  0.000000  0.250000  1
  Sm  Sm3  1  0.000000  0.000000  0.750000  1
  Sb  Sb4  1  0.333333  0.666667  0.389851  1
  Sb  Sb5  1  0.666667  0.333333  0.610149  1
  Sb  Sb6  1  0.666667  0.333333  0.889851  1
  Sb  Sb7  1  0.333333  0.666667  0.110149  1
  Au  Au8  1  0.666667  0.333333  0.337703  1
  Au  Au9  1  0.333333  0.666667  0.662297  1
  Au  Au10  1  0.333333  0.666667  0.837703  1
  Au  Au11  1  0.666667  0.333333  0.162297  1
