# generated using pymatgen
data_CaNbSbF12
_symmetry_space_group_name_H-M   'P 1'
_cell_length_a   11.74793231
_cell_length_b   5.84184281
_cell_length_c   5.87438588
_cell_angle_alpha   57.57898937
_cell_angle_beta   57.40627735
_cell_angle_gamma   57.50873571
_symmetry_Int_Tables_number   1
_chemical_formula_structural   CaNbSbF12
_chemical_formula_sum   'Ca1 Nb1 Sb1 F12'
_cell_volume   268.66873317
_cell_formula_units_Z   1
loop_
 _symmetry_equiv_pos_site_id
 _symmetry_equiv_pos_as_xyz
  1  'x, y, z'
loop_
 _atom_site_type_symbol
 _atom_site_label
 _atom_site_symmetry_multiplicity
 _atom_site_fract_x
 _atom_site_fract_y
 _atom_site_fract_z
 _atom_site_occupancy
  Ca  Ca0  1  0.749996  0.497118  0.502614  1
  Nb  Nb1  1  0.483257  0.017009  0.006474  1
  Sb  Sb2  1  0.012013  0.985728  0.997476  1
  F  F3  1  0.163615  0.133795  0.766612  1
  F  F4  1  0.659756  0.136621  0.776327  1
  F  F5  1  0.058713  0.777760  0.334817  1
  F  F6  1  0.572566  0.770101  0.311576  1
  F  F7  1  0.111478  0.666554  0.873524  1
  F  F8  1  0.616223  0.681181  0.862155  1
  F  F9  1  0.441562  0.221696  0.665174  1
  F  F10  1  0.931249  0.224646  0.690057  1
  F  F11  1  0.334220  0.866116  0.235885  1
  F  F12  1  0.841205  0.868791  0.220199  1
  F  F13  1  0.388124  0.335879  0.125793  1
  F  F14  1  0.886022  0.317004  0.131318  1
