# generated using pymatgen
data_Sm8Ti(Pd7Pt)3
_symmetry_space_group_name_H-M   'P 1'
_cell_length_a   8.45217600
_cell_length_b   8.45254300
_cell_length_c   8.45558500
_cell_angle_alpha   90.00000000
_cell_angle_beta   90.00000000
_cell_angle_gamma   90.00000000
_symmetry_Int_Tables_number   1
_chemical_formula_structural   Sm8Ti(Pd7Pt)3
_chemical_formula_sum   'Sm8 Ti1 Pd21 Pt3'
_cell_volume   604.08712585
_cell_formula_units_Z   1
loop_
 _symmetry_equiv_pos_site_id
 _symmetry_equiv_pos_as_xyz
  1  'x, y, z'
loop_
 _atom_site_type_symbol
 _atom_site_label
 _atom_site_symmetry_multiplicity
 _atom_site_fract_x
 _atom_site_fract_y
 _atom_site_fract_z
 _atom_site_occupancy
  Sm  Sm0  1  0.251255  0.251529  0.251453  1
  Sm  Sm1  1  0.747769  0.747937  0.747511  1
  Sm  Sm2  1  0.747769  0.747937  0.252489  1
  Sm  Sm3  1  0.748745  0.251529  0.748547  1
  Sm  Sm4  1  0.251255  0.251529  0.748547  1
  Sm  Sm5  1  0.252231  0.747937  0.252489  1
  Sm  Sm6  1  0.252231  0.747937  0.747511  1
  Sm  Sm7  1  0.748745  0.251529  0.251453  1
  Ti  Ti8  1  0.000000  0.006309  0.000000  1
  Pd  Pd9  1  0.263229  0.499954  0.000000  1
  Pd  Pd10  1  0.736771  0.499954  0.000000  1
  Pd  Pd11  1  0.000000  0.262765  0.500000  1
  Pd  Pd12  1  0.500000  0.262204  0.000000  1
  Pd  Pd13  1  0.000000  0.736094  0.500000  1
  Pd  Pd14  1  0.500000  0.736102  0.000000  1
  Pd  Pd15  1  0.500000  0.000106  0.263111  1
  Pd  Pd16  1  0.263248  0.000154  0.500000  1
  Pd  Pd17  1  0.500000  0.000106  0.736889  1
  Pd  Pd18  1  0.736752  0.000154  0.500000  1
  Pd  Pd19  1  0.000000  0.500097  0.263395  1
  Pd  Pd20  1  0.000000  0.500097  0.736605  1
  Pd  Pd21  1  0.253950  0.499782  0.500000  1
  Pd  Pd22  1  0.746050  0.499782  0.500000  1
  Pd  Pd23  1  0.500000  0.254095  0.500000  1
  Pd  Pd24  1  0.500000  0.746013  0.500000  1
  Pd  Pd25  1  0.500000  0.499759  0.254164  1
  Pd  Pd26  1  0.500000  0.499759  0.745836  1
  Pd  Pd27  1  0.000000  0.704533  0.000000  1
  Pd  Pd28  1  0.000000  0.998718  0.299156  1
  Pd  Pd29  1  0.000000  0.998718  0.700844  1
  Pt  Pt30  1  0.295973  0.998277  0.000000  1
  Pt  Pt31  1  0.704027  0.998277  0.000000  1
  Pt  Pt32  1  0.000000  0.300326  0.000000  1
