# generated using pymatgen
data_Np3UI16
_symmetry_space_group_name_H-M   'P 1'
_cell_length_a   9.14088160
_cell_length_b   9.23223943
_cell_length_c   14.07615376
_cell_angle_alpha   71.21713453
_cell_angle_beta   71.77040913
_cell_angle_gamma   89.37251595
_symmetry_Int_Tables_number   1
_chemical_formula_structural   Np3UI16
_chemical_formula_sum   'Np3 U1 I16'
_cell_volume   1062.85584345
_cell_formula_units_Z   1
loop_
 _symmetry_equiv_pos_site_id
 _symmetry_equiv_pos_as_xyz
  1  'x, y, z'
loop_
 _atom_site_type_symbol
 _atom_site_label
 _atom_site_symmetry_multiplicity
 _atom_site_fract_x
 _atom_site_fract_y
 _atom_site_fract_z
 _atom_site_occupancy
  Np  Np0  1  0.059932  0.805121  0.125687  1
  Np  Np1  1  0.804464  0.062204  0.623794  1
  Np  Np2  1  0.940238  0.194363  0.875243  1
  U  U3  1  0.192005  0.939233  0.375340  1
  I  I4  1  0.050623  0.823449  0.614505  1
  I  I5  1  0.052476  0.280658  0.631826  1
  I  I6  1  0.718963  0.949250  0.865653  1
  I  I7  1  0.582979  0.829976  0.635994  1
  I  I8  1  0.172671  0.417477  0.860999  1
  I  I9  1  0.948139  0.719877  0.370982  1
  I  I10  1  0.698982  0.398733  0.892621  1
  I  I11  1  0.178910  0.952676  0.884086  1
  I  I12  1  0.411666  0.165311  0.367906  1
  I  I13  1  0.825386  0.580845  0.144272  1
  I  I14  1  0.401452  0.705687  0.384095  1
  I  I15  1  0.599199  0.302305  0.602087  1
  I  I16  1  0.951199  0.170961  0.377982  1
  I  I17  1  0.302785  0.602196  0.112439  1
  I  I18  1  0.824294  0.048915  0.118246  1
  I  I19  1  0.283639  0.050762  0.136241  1
