# generated using pymatgen
data_Lu2Sc3Tl4
_symmetry_space_group_name_H-M   'P 1'
_cell_length_a   7.61090900
_cell_length_b   7.99748100
_cell_length_c   15.02543200
_cell_angle_alpha   90.00000000
_cell_angle_beta   90.00000000
_cell_angle_gamma   90.00000000
_symmetry_Int_Tables_number   1
_chemical_formula_structural   Lu2Sc3Tl4
_chemical_formula_sum   'Lu8 Sc12 Tl16'
_cell_volume   914.56949933
_cell_formula_units_Z   4
loop_
 _symmetry_equiv_pos_site_id
 _symmetry_equiv_pos_as_xyz
  1  'x, y, z'
loop_
 _atom_site_type_symbol
 _atom_site_label
 _atom_site_symmetry_multiplicity
 _atom_site_fract_x
 _atom_site_fract_y
 _atom_site_fract_z
 _atom_site_occupancy
  Lu  Lu0  1  0.997949  0.186333  0.091720  1
  Lu  Lu1  1  0.002051  0.813667  0.908280  1
  Lu  Lu2  1  0.502051  0.686333  0.908280  1
  Lu  Lu3  1  0.002051  0.813667  0.591720  1
  Lu  Lu4  1  0.497949  0.313667  0.091720  1
  Lu  Lu5  1  0.997949  0.186333  0.408280  1
  Lu  Lu6  1  0.497949  0.313667  0.408280  1
  Lu  Lu7  1  0.502051  0.686333  0.591720  1
  Sc  Sc8  1  0.164361  0.496826  0.750000  1
  Sc  Sc9  1  0.835639  0.503174  0.250000  1
  Sc  Sc10  1  0.335639  0.996826  0.250000  1
  Sc  Sc11  1  0.664361  0.003174  0.750000  1
  Sc  Sc12  1  0.333309  0.156832  0.625771  1
  Sc  Sc13  1  0.666691  0.843168  0.374229  1
  Sc  Sc14  1  0.166691  0.656832  0.374229  1
  Sc  Sc15  1  0.666691  0.843168  0.125771  1
  Sc  Sc16  1  0.833309  0.343168  0.625771  1
  Sc  Sc17  1  0.333309  0.156832  0.874229  1
  Sc  Sc18  1  0.833309  0.343168  0.874229  1
  Sc  Sc19  1  0.166691  0.656832  0.125771  1
  Tl  Tl20  1  0.024362  0.121587  0.750000  1
  Tl  Tl21  1  0.975638  0.878413  0.250000  1
  Tl  Tl22  1  0.475638  0.621587  0.250000  1
  Tl  Tl23  1  0.524362  0.378413  0.750000  1
  Tl  Tl24  1  0.298956  0.850180  0.750000  1
  Tl  Tl25  1  0.701044  0.149820  0.250000  1
  Tl  Tl26  1  0.201044  0.350180  0.250000  1
  Tl  Tl27  1  0.798956  0.649820  0.750000  1
  Tl  Tl28  1  0.185912  0.457877  0.542442  1
  Tl  Tl29  1  0.814088  0.542123  0.457558  1
  Tl  Tl30  1  0.314088  0.957877  0.457558  1
  Tl  Tl31  1  0.814088  0.542123  0.042442  1
  Tl  Tl32  1  0.685912  0.042123  0.542442  1
  Tl  Tl33  1  0.185912  0.457877  0.957558  1
  Tl  Tl34  1  0.685912  0.042123  0.957558  1
  Tl  Tl35  1  0.314088  0.957877  0.042442  1
