# generated using pymatgen
data_Li4TaCd4Sb3O16
_symmetry_space_group_name_H-M   'P 1'
_cell_length_a   6.38387490
_cell_length_b   8.96828572
_cell_length_c   6.38828500
_cell_angle_alpha   90.00002526
_cell_angle_beta   90.00042050
_cell_angle_gamma   90.31713463
_symmetry_Int_Tables_number   1
_chemical_formula_structural   Li4TaCd4Sb3O16
_chemical_formula_sum   'Li4 Ta1 Cd4 Sb3 O16'
_cell_volume   365.73913564
_cell_formula_units_Z   1
loop_
 _symmetry_equiv_pos_site_id
 _symmetry_equiv_pos_as_xyz
  1  'x, y, z'
loop_
 _atom_site_type_symbol
 _atom_site_label
 _atom_site_symmetry_multiplicity
 _atom_site_fract_x
 _atom_site_fract_y
 _atom_site_fract_z
 _atom_site_occupancy
  Li  Li0  1  0.214710  0.979731  0.000870  1
  Li  Li1  1  0.785289  0.520265  0.000873  1
  Li  Li2  1  0.000002  0.250004  0.230571  1
  Li  Li3  1  0.999998  0.750001  0.777582  1
  Ta  Ta4  1  0.499994  0.249999  0.228312  1
  Cd  Cd5  1  0.756726  0.876741  0.242364  1
  Cd  Cd6  1  0.232870  0.375983  0.742563  1
  Cd  Cd7  1  0.243272  0.623258  0.242361  1
  Cd  Cd8  1  0.767130  0.124017  0.742564  1
  Sb  Sb9  1  0.245075  0.999443  0.502320  1
  Sb  Sb10  1  0.754929  0.500559  0.502327  1
  Sb  Sb11  1  0.500001  0.749999  0.757890  1
  O  O12  1  0.270817  0.267192  0.046440  1
  O  O13  1  0.729182  0.232812  0.046433  1
  O  O14  1  0.050202  0.999096  0.264642  1
  O  O15  1  0.949798  0.500904  0.264647  1
  O  O16  1  0.047980  0.991645  0.737009  1
  O  O17  1  0.952021  0.508355  0.737012  1
  O  O18  1  0.265677  0.752280  0.955887  1
  O  O19  1  0.734326  0.747719  0.955887  1
  O  O20  1  0.481362  0.026231  0.282338  1
  O  O21  1  0.518637  0.473769  0.282338  1
  O  O22  1  0.272253  0.222392  0.480174  1
  O  O23  1  0.727749  0.277608  0.480175  1
  O  O24  1  0.277830  0.772571  0.521214  1
  O  O25  1  0.722168  0.727429  0.521215  1
  O  O26  1  0.517991  0.523419  0.726999  1
  O  O27  1  0.482009  0.976580  0.727000  1
