# generated using pymatgen
data_Ho4Al2Ga2IrPt3
_symmetry_space_group_name_H-M   'P 1'
_cell_length_a   4.41490100
_cell_length_b   6.80395951
_cell_length_c   7.78154854
_cell_angle_alpha   89.80993016
_cell_angle_beta   89.99964173
_cell_angle_gamma   90.00015335
_symmetry_Int_Tables_number   1
_chemical_formula_structural   Ho4Al2Ga2IrPt3
_chemical_formula_sum   'Ho4 Al2 Ga2 Ir1 Pt3'
_cell_volume   233.74715340
_cell_formula_units_Z   1
loop_
 _symmetry_equiv_pos_site_id
 _symmetry_equiv_pos_as_xyz
  1  'x, y, z'
loop_
 _atom_site_type_symbol
 _atom_site_label
 _atom_site_symmetry_multiplicity
 _atom_site_fract_x
 _atom_site_fract_y
 _atom_site_fract_z
 _atom_site_occupancy
  Ho  Ho0  1  0.250001  0.033066  0.682341  1
  Ho  Ho1  1  0.249994  0.529557  0.820405  1
  Ho  Ho2  1  0.749999  0.974480  0.316136  1
  Ho  Ho3  1  0.750000  0.469016  0.181372  1
  Al  Al4  1  0.250000  0.639604  0.438360  1
  Al  Al5  1  0.750000  0.355158  0.559751  1
  Ga  Ga6  1  0.250003  0.153578  0.065230  1
  Ga  Ga7  1  0.749999  0.847974  0.937697  1
  Ir  Ir8  1  0.250001  0.267902  0.384447  1
  Pt  Pt9  1  0.249999  0.768678  0.122622  1
  Pt  Pt10  1  0.749999  0.728934  0.615171  1
  Pt  Pt11  1  0.750005  0.232052  0.876468  1
