# generated using pymatgen
data_LaNdAlNi5Pt4
_symmetry_space_group_name_H-M   'P 1'
_cell_length_a   5.13764370
_cell_length_b   5.13764413
_cell_length_c   8.24060600
_cell_angle_alpha   90.00000000
_cell_angle_beta   90.00000000
_cell_angle_gamma   115.60850119
_symmetry_Int_Tables_number   1
_chemical_formula_structural   LaNdAlNi5Pt4
_chemical_formula_sum   'La1 Nd1 Al1 Ni5 Pt4'
_cell_volume   196.14722417
_cell_formula_units_Z   1
loop_
 _symmetry_equiv_pos_site_id
 _symmetry_equiv_pos_as_xyz
  1  'x, y, z'
loop_
 _atom_site_type_symbol
 _atom_site_label
 _atom_site_symmetry_multiplicity
 _atom_site_fract_x
 _atom_site_fract_y
 _atom_site_fract_z
 _atom_site_occupancy
  La  La0  1  0.000000  0.000000  0.239551  1
  Nd  Nd1  1  0.000000  0.000000  0.760381  1
  Al  Al2  1  0.500000  0.500000  0.500703  1
  Ni  Ni3  1  0.655407  0.344593  0.750507  1
  Ni  Ni4  1  0.655789  0.344211  0.249571  1
  Ni  Ni5  1  0.500000  0.500000  0.999409  1
  Ni  Ni6  1  0.344593  0.655407  0.750507  1
  Ni  Ni7  1  0.344211  0.655789  0.249571  1
  Pt  Pt8  1  0.500000  0.000000  0.501306  1
  Pt  Pt9  1  0.000000  0.500000  0.998594  1
  Pt  Pt10  1  0.500000  0.000000  0.998594  1
  Pt  Pt11  1  0.000000  0.500000  0.501306  1
