# generated using pymatgen
data_LaGd(Si7Ir3)2
_symmetry_space_group_name_H-M   'P 1'
_cell_length_a   8.12032964
_cell_length_b   8.12032914
_cell_length_c   8.12032900
_cell_angle_alpha   56.54331988
_cell_angle_beta   56.54331376
_cell_angle_gamma   56.54331735
_symmetry_Int_Tables_number   1
_chemical_formula_structural   LaGd(Si7Ir3)2
_chemical_formula_sum   'La1 Gd1 Si14 Ir6'
_cell_volume   348.37778385
_cell_formula_units_Z   1
loop_
 _symmetry_equiv_pos_site_id
 _symmetry_equiv_pos_as_xyz
  1  'x, y, z'
loop_
 _atom_site_type_symbol
 _atom_site_label
 _atom_site_symmetry_multiplicity
 _atom_site_fract_x
 _atom_site_fract_y
 _atom_site_fract_z
 _atom_site_occupancy
  La  La0  1  0.500000  0.500000  0.500000  1
  Gd  Gd1  1  0.000000  0.000000  0.000000  1
  Si  Si2  1  0.062219  0.851627  0.674275  1
  Si  Si3  1  0.674275  0.062219  0.851627  1
  Si  Si4  1  0.851627  0.674275  0.062219  1
  Si  Si5  1  0.171990  0.349188  0.564731  1
  Si  Si6  1  0.564731  0.171990  0.349188  1
  Si  Si7  1  0.349188  0.564731  0.171990  1
  Si  Si8  1  0.937781  0.148373  0.325725  1
  Si  Si9  1  0.325725  0.937781  0.148373  1
  Si  Si10  1  0.148373  0.325725  0.937781  1
  Si  Si11  1  0.828010  0.650812  0.435269  1
  Si  Si12  1  0.435269  0.828010  0.650812  1
  Si  Si13  1  0.650812  0.435269  0.828010  1
  Si  Si14  1  0.749971  0.749971  0.749971  1
  Si  Si15  1  0.250029  0.250029  0.250029  1
  Ir  Ir16  1  0.066693  0.751855  0.430223  1
  Ir  Ir17  1  0.430223  0.066693  0.751855  1
  Ir  Ir18  1  0.751855  0.430223  0.066693  1
  Ir  Ir19  1  0.933307  0.248145  0.569777  1
  Ir  Ir20  1  0.569777  0.933307  0.248145  1
  Ir  Ir21  1  0.248145  0.569777  0.933307  1
