# generated using pymatgen
data_Ho12Fe2RuPb2
_symmetry_space_group_name_H-M   'P 1'
_cell_length_a   8.40463232
_cell_length_b   8.40463287
_cell_length_c   8.40463036
_cell_angle_alpha   108.84985723
_cell_angle_beta   108.84903713
_cell_angle_gamma   110.72205630
_symmetry_Int_Tables_number   1
_chemical_formula_structural   Ho12Fe2RuPb2
_chemical_formula_sum   'Ho12 Fe2 Ru1 Pb2'
_cell_volume   456.85515916
_cell_formula_units_Z   1
loop_
 _symmetry_equiv_pos_site_id
 _symmetry_equiv_pos_as_xyz
  1  'x, y, z'
loop_
 _atom_site_type_symbol
 _atom_site_label
 _atom_site_symmetry_multiplicity
 _atom_site_fract_x
 _atom_site_fract_y
 _atom_site_fract_z
 _atom_site_occupancy
  Ho  Ho0  1  0.429422  0.193971  0.235454  1
  Ho  Ho1  1  0.570578  0.806029  0.764546  1
  Ho  Ho2  1  0.958518  0.193971  0.764549  1
  Ho  Ho3  1  0.193967  0.958517  0.764550  1
  Ho  Ho4  1  0.041482  0.806029  0.235451  1
  Ho  Ho5  1  0.806033  0.041483  0.235450  1
  Ho  Ho6  1  0.193968  0.429419  0.235450  1
  Ho  Ho7  1  0.806032  0.570581  0.764550  1
  Ho  Ho8  1  0.307918  0.307918  0.615836  1
  Ho  Ho9  1  0.692082  0.692082  0.384164  1
  Ho  Ho10  1  0.307918  0.692082  0.000000  1
  Ho  Ho11  1  0.692082  0.307918  0.000000  1
  Fe  Fe12  1  0.386115  0.386114  0.999999  1
  Fe  Fe13  1  0.613885  0.613886  0.000001  1
  Ru  Ru14  1  0.000000  0.000000  0.000000  1
  Pb  Pb15  1  0.500000  0.000000  0.500000  1
  Pb  Pb16  1  0.000000  0.500000  0.500000  1
