# generated using pymatgen
data_CeNd3Se4
_symmetry_space_group_name_H-M   'P 1'
_cell_length_a   7.29211143
_cell_length_b   7.29211202
_cell_length_c   7.27448431
_cell_angle_alpha   80.72141850
_cell_angle_beta   80.72141916
_cell_angle_gamma   33.80373559
_symmetry_Int_Tables_number   1
_chemical_formula_structural   CeNd3Se4
_chemical_formula_sum   'Ce1 Nd3 Se4'
_cell_volume   212.12956458
_cell_formula_units_Z   1
loop_
 _symmetry_equiv_pos_site_id
 _symmetry_equiv_pos_as_xyz
  1  'x, y, z'
loop_
 _atom_site_type_symbol
 _atom_site_label
 _atom_site_symmetry_multiplicity
 _atom_site_fract_x
 _atom_site_fract_y
 _atom_site_fract_z
 _atom_site_occupancy
  Ce  Ce0  1  0.000000  0.000000  0.000000  1
  Nd  Nd1  1  0.752812  0.752812  0.748360  1
  Nd  Nd2  1  0.500000  0.500000  0.500000  1
  Nd  Nd3  1  0.247188  0.247188  0.251640  1
  Se  Se4  1  0.376052  0.376052  0.877156  1
  Se  Se5  1  0.124548  0.124548  0.628352  1
  Se  Se6  1  0.875452  0.875452  0.371648  1
  Se  Se7  1  0.623948  0.623948  0.122844  1
