# generated using pymatgen
data_Na2P7(IrRu5)2
_symmetry_space_group_name_H-M   'P 1'
_cell_length_a   9.38146533
_cell_length_b   9.46775871
_cell_length_c   3.94572400
_cell_angle_alpha   90.00000000
_cell_angle_beta   90.00000000
_cell_angle_gamma   120.21756261
_symmetry_Int_Tables_number   1
_chemical_formula_structural   Na2P7(IrRu5)2
_chemical_formula_sum   'Na2 P7 Ir2 Ru10'
_cell_volume   302.84395383
_cell_formula_units_Z   1
loop_
 _symmetry_equiv_pos_site_id
 _symmetry_equiv_pos_as_xyz
  1  'x, y, z'
loop_
 _atom_site_type_symbol
 _atom_site_label
 _atom_site_symmetry_multiplicity
 _atom_site_fract_x
 _atom_site_fract_y
 _atom_site_fract_z
 _atom_site_occupancy
  Na  Na0  1  0.667604  0.333741  0.500000  1
  Na  Na1  1  0.331164  0.665788  0.000000  1
  P  P2  1  0.600409  0.715181  0.500000  1
  P  P3  1  0.999066  0.000621  0.000000  1
  P  P4  1  0.280674  0.882933  0.500000  1
  P  P5  1  0.110258  0.398630  0.500000  1
  P  P6  1  0.887699  0.578737  0.000000  1
  P  P7  1  0.424287  0.306182  0.000000  1
  P  P8  1  0.695564  0.115352  0.000000  1
  Ir  Ir9  1  0.557203  0.951066  0.500000  1
  Ir  Ir10  1  0.391537  0.441801  0.500000  1
  Ru  Ru11  1  0.917580  0.119766  0.500000  1
  Ru  Ru12  1  0.209096  0.085565  0.500000  1
  Ru  Ru13  1  0.878238  0.795863  0.500000  1
  Ru  Ru14  1  0.725616  0.888700  0.000000  1
  Ru  Ru15  1  0.110603  0.841640  0.000000  1
  Ru  Ru16  1  0.163406  0.271087  0.000000  1
  Ru  Ru17  1  0.427778  0.065584  0.000000  1
  Ru  Ru18  1  0.938149  0.360691  0.000000  1
  Ru  Ru19  1  0.639988  0.573691  0.000000  1
  Ru  Ru20  1  0.044081  0.607381  0.500000  1
