# generated using pymatgen
data_Dy2Ga3Ag
_symmetry_space_group_name_H-M   'P 1'
_cell_length_a   4.51865500
_cell_length_b   4.51865473
_cell_length_c   7.24015700
_cell_angle_alpha   90.00000000
_cell_angle_beta   90.00000000
_cell_angle_gamma   119.99999464
_symmetry_Int_Tables_number   1
_chemical_formula_structural   Dy2Ga3Ag
_chemical_formula_sum   'Dy2 Ga3 Ag1'
_cell_volume   128.02564764
_cell_formula_units_Z   1
loop_
 _symmetry_equiv_pos_site_id
 _symmetry_equiv_pos_as_xyz
  1  'x, y, z'
loop_
 _atom_site_type_symbol
 _atom_site_label
 _atom_site_symmetry_multiplicity
 _atom_site_fract_x
 _atom_site_fract_y
 _atom_site_fract_z
 _atom_site_occupancy
  Dy  Dy0  1  0.333333  0.666667  0.240288  1
  Dy  Dy1  1  0.333333  0.666667  0.757700  1
  Ga  Ga2  1  0.000000  0.000000  0.970284  1
  Ga  Ga3  1  0.000000  0.000000  0.547791  1
  Ga  Ga4  1  0.666667  0.333333  0.454449  1
  Ag  Ag5  1  0.666667  0.333333  0.029488  1
