# generated using pymatgen
data_Tb11Ce2Dy3(MgCo)4
_symmetry_space_group_name_H-M   'P 1'
_cell_length_a   9.47988280
_cell_length_b   9.71223347
_cell_length_c   9.71223441
_cell_angle_alpha   58.41754481
_cell_angle_beta   60.78838212
_cell_angle_gamma   60.78837681
_symmetry_Int_Tables_number   1
_chemical_formula_structural   Tb11Ce2Dy3(MgCo)4
_chemical_formula_sum   'Tb11 Ce2 Dy3 Mg4 Co4'
_cell_volume   631.56669419
_cell_formula_units_Z   1
loop_
 _symmetry_equiv_pos_site_id
 _symmetry_equiv_pos_as_xyz
  1  'x, y, z'
loop_
 _atom_site_type_symbol
 _atom_site_label
 _atom_site_symmetry_multiplicity
 _atom_site_fract_x
 _atom_site_fract_y
 _atom_site_fract_z
 _atom_site_occupancy
  Tb  Tb0  1  0.188955  0.811080  0.188930  1
  Tb  Tb1  1  0.811046  0.188976  0.811021  1
  Tb  Tb2  1  0.188955  0.188930  0.811080  1
  Tb  Tb3  1  0.811046  0.811021  0.188976  1
  Tb  Tb4  1  0.924855  0.575143  0.575143  1
  Tb  Tb5  1  0.575141  0.924863  0.924863  1
  Tb  Tb6  1  0.558858  0.941114  0.558886  1
  Tb  Tb7  1  0.941150  0.558867  0.941146  1
  Tb  Tb8  1  0.558858  0.558886  0.941114  1
  Tb  Tb9  1  0.941150  0.941146  0.558867  1
  Tb  Tb10  1  0.333077  0.348195  0.348195  1
  Ce  Ce11  1  0.818228  0.181833  0.181833  1
  Ce  Ce12  1  0.181864  0.818139  0.818139  1
  Dy  Dy13  1  0.348115  0.333097  0.970584  1
  Dy  Dy14  1  0.348115  0.970584  0.333097  1
  Dy  Dy15  1  0.970589  0.348119  0.348119  1
  Mg  Mg16  1  0.581653  0.578328  0.578328  1
  Mg  Mg17  1  0.578343  0.581671  0.261683  1
  Mg  Mg18  1  0.578343  0.261683  0.581671  1
  Mg  Mg19  1  0.261676  0.578350  0.578350  1
  Co  Co20  1  0.092285  0.155865  0.155865  1
  Co  Co21  1  0.155826  0.092237  0.596042  1
  Co  Co22  1  0.155826  0.596042  0.092237  1
  Co  Co23  1  0.596045  0.155831  0.155831  1
