# generated using pymatgen
data_Pr5Nd2SiI12
_symmetry_space_group_name_H-M   'P 1'
_cell_length_a   10.05935475
_cell_length_b   10.06206835
_cell_length_c   10.05134156
_cell_angle_alpha   107.61894515
_cell_angle_beta   107.96322191
_cell_angle_gamma   107.77767039
_symmetry_Int_Tables_number   1
_chemical_formula_structural   Pr5Nd2SiI12
_chemical_formula_sum   'Pr5 Nd2 Si1 I12'
_cell_volume   828.42153908
_cell_formula_units_Z   1
loop_
 _symmetry_equiv_pos_site_id
 _symmetry_equiv_pos_as_xyz
  1  'x, y, z'
loop_
 _atom_site_type_symbol
 _atom_site_label
 _atom_site_symmetry_multiplicity
 _atom_site_fract_x
 _atom_site_fract_y
 _atom_site_fract_z
 _atom_site_occupancy
  Pr  Pr0  1  0.532232  0.604853  0.812258  1
  Pr  Pr1  1  0.188029  0.467184  0.396244  1
  Pr  Pr2  1  0.467809  0.395113  0.187782  1
  Pr  Pr3  1  0.604224  0.812197  0.533216  1
  Pr  Pr4  1  0.395958  0.187853  0.466816  1
  Nd  Nd5  1  0.811410  0.532737  0.603463  1
  Nd  Nd6  1  0.000101  0.000097  0.000104  1
  Si  Si7  1  0.500983  0.500155  0.500371  1
  I  I8  1  0.729923  0.187414  0.576092  1
  I  I9  1  0.969404  0.888513  0.655516  1
  I  I10  1  0.575959  0.729628  0.186216  1
  I  I11  1  0.110718  0.344539  0.029881  1
  I  I12  1  0.656270  0.970264  0.889496  1
  I  I13  1  0.889111  0.654978  0.968826  1
  I  I14  1  0.030166  0.110227  0.344304  1
  I  I15  1  0.814314  0.424589  0.271722  1
  I  I16  1  0.343754  0.029715  0.110479  1
  I  I17  1  0.270522  0.813804  0.424051  1
  I  I18  1  0.185048  0.575757  0.729357  1
  I  I19  1  0.424063  0.270385  0.813807  1
