# generated using pymatgen
data_Y10Tl2Sn3Sb
_symmetry_space_group_name_H-M   'P 1'
_cell_length_a   6.61995800
_cell_length_b   8.97356877
_cell_length_c   8.99764900
_cell_angle_alpha   120.02528137
_cell_angle_beta   89.99993076
_cell_angle_gamma   89.99923653
_symmetry_Int_Tables_number   1
_chemical_formula_structural   Y10Tl2Sn3Sb
_chemical_formula_sum   'Y10 Tl2 Sn3 Sb1'
_cell_volume   462.77449425
_cell_formula_units_Z   1
loop_
 _symmetry_equiv_pos_site_id
 _symmetry_equiv_pos_as_xyz
  1  'x, y, z'
loop_
 _atom_site_type_symbol
 _atom_site_label
 _atom_site_symmetry_multiplicity
 _atom_site_fract_x
 _atom_site_fract_y
 _atom_site_fract_z
 _atom_site_occupancy
  Y  Y0  1  0.501003  0.335229  0.668765  1
  Y  Y1  1  0.501061  0.664678  0.332064  1
  Y  Y2  1  0.998940  0.664694  0.332081  1
  Y  Y3  1  0.998998  0.335222  0.668747  1
  Y  Y4  1  0.750002  0.239084  0.001255  1
  Y  Y5  1  0.750005  0.759462  0.762343  1
  Y  Y6  1  0.750006  0.998351  0.239288  1
  Y  Y7  1  0.250003  0.759336  0.996915  1
  Y  Y8  1  0.250005  0.242136  0.237503  1
  Y  Y9  1  0.250007  0.001962  0.762127  1
  Tl  Tl10  1  0.750003  0.602378  0.001275  1
  Tl  Tl11  1  0.249952  0.398864  0.999689  1
  Sn  Sn12  1  0.750001  0.393913  0.396056  1
  Sn  Sn13  1  0.749998  0.999024  0.605330  1
  Sn  Sn14  1  0.250003  0.604967  0.603540  1
  Sb  Sb15  1  0.250015  0.000699  0.393022  1
