# generated using pymatgen
data_Tm2Lu(Co3P2)3
_symmetry_space_group_name_H-M   'P 1'
_cell_length_a   3.66045300
_cell_length_b   10.46171700
_cell_length_c   12.08998400
_cell_angle_alpha   90.00000000
_cell_angle_beta   90.00000000
_cell_angle_gamma   90.00000000
_symmetry_Int_Tables_number   1
_chemical_formula_structural   Tm2Lu(Co3P2)3
_chemical_formula_sum   'Tm4 Lu2 Co18 P12'
_cell_volume   462.98138392
_cell_formula_units_Z   2
loop_
 _symmetry_equiv_pos_site_id
 _symmetry_equiv_pos_as_xyz
  1  'x, y, z'
loop_
 _atom_site_type_symbol
 _atom_site_label
 _atom_site_symmetry_multiplicity
 _atom_site_fract_x
 _atom_site_fract_y
 _atom_site_fract_z
 _atom_site_occupancy
  Tm  Tm0  1  0.000000  0.500000  0.522990  1
  Tm  Tm1  1  0.500000  0.000000  0.476940  1
  Tm  Tm2  1  0.000000  0.682622  0.794225  1
  Tm  Tm3  1  0.000000  0.317378  0.794225  1
  Lu  Lu4  1  0.500000  0.817375  0.205800  1
  Lu  Lu5  1  0.500000  0.182625  0.205800  1
  Co  Co6  1  0.500000  0.500000  0.159562  1
  Co  Co7  1  0.000000  0.000000  0.840502  1
  Co  Co8  1  0.500000  0.500000  0.702796  1
  Co  Co9  1  0.000000  0.000000  0.297044  1
  Co  Co10  1  0.000000  0.500000  0.985597  1
  Co  Co11  1  0.500000  0.000000  0.014551  1
  Co  Co12  1  0.500000  0.333378  0.994253  1
  Co  Co13  1  0.500000  0.666622  0.994253  1
  Co  Co14  1  0.000000  0.166576  0.005942  1
  Co  Co15  1  0.000000  0.833424  0.005942  1
  Co  Co16  1  0.500000  0.297350  0.430912  1
  Co  Co17  1  0.500000  0.702650  0.430912  1
  Co  Co18  1  0.000000  0.202639  0.568954  1
  Co  Co19  1  0.000000  0.797361  0.568954  1
  Co  Co20  1  0.500000  0.878710  0.709052  1
  Co  Co21  1  0.500000  0.121290  0.709052  1
  Co  Co22  1  0.000000  0.621405  0.290856  1
  Co  Co23  1  0.000000  0.378595  0.290856  1
  P  P24  1  0.500000  0.500000  0.881516  1
  P  P25  1  0.000000  0.000000  0.118910  1
  P  P26  1  0.500000  0.500000  0.345521  1
  P  P27  1  0.000000  0.000000  0.654458  1
  P  P28  1  0.500000  0.311783  0.616640  1
  P  P29  1  0.500000  0.688217  0.616640  1
  P  P30  1  0.000000  0.188092  0.382963  1
  P  P31  1  0.000000  0.811908  0.382963  1
  P  P32  1  0.500000  0.847356  0.892263  1
  P  P33  1  0.500000  0.152644  0.892263  1
  P  P34  1  0.000000  0.653006  0.107945  1
  P  P35  1  0.000000  0.346994  0.107945  1
