# generated using pymatgen
data_Li2GaGePt4
_symmetry_space_group_name_H-M   'P 1'
_cell_length_a   5.33413313
_cell_length_b   5.33413325
_cell_length_c   5.69535728
_cell_angle_alpha   122.26543480
_cell_angle_beta   122.26544143
_cell_angle_gamma   81.95285880
_symmetry_Int_Tables_number   1
_chemical_formula_structural   Li2GaGePt4
_chemical_formula_sum   'Li2 Ga1 Ge1 Pt4'
_cell_volume   113.46009922
_cell_formula_units_Z   1
loop_
 _symmetry_equiv_pos_site_id
 _symmetry_equiv_pos_as_xyz
  1  'x, y, z'
loop_
 _atom_site_type_symbol
 _atom_site_label
 _atom_site_symmetry_multiplicity
 _atom_site_fract_x
 _atom_site_fract_y
 _atom_site_fract_z
 _atom_site_occupancy
  Li  Li0  1  0.996434  0.996434  0.493128  1
  Li  Li1  1  0.503305  0.503305  0.506872  1
  Ga  Ga2  1  0.996715  0.996715  0.000000  1
  Ge  Ge3  1  0.502315  0.502315  0.000000  1
  Pt  Pt4  1  0.006134  0.494978  0.000000  1
  Pt  Pt5  1  0.494978  0.006134  0.000000  1
  Pt  Pt6  1  0.500060  0.000060  0.500000  1
  Pt  Pt7  1  0.000060  0.500060  0.500000  1
