# generated using pymatgen
data_Zr6Ta4Al12Os7
_symmetry_space_group_name_H-M   'P 1'
_cell_length_a   8.86131893
_cell_length_b   8.86131939
_cell_length_c   8.86131900
_cell_angle_alpha   59.99999773
_cell_angle_beta   59.99999602
_cell_angle_gamma   60.00000121
_symmetry_Int_Tables_number   1
_chemical_formula_structural   Zr6Ta4Al12Os7
_chemical_formula_sum   'Zr6 Ta4 Al12 Os7'
_cell_volume   492.01700698
_cell_formula_units_Z   1
loop_
 _symmetry_equiv_pos_site_id
 _symmetry_equiv_pos_as_xyz
  1  'x, y, z'
loop_
 _atom_site_type_symbol
 _atom_site_label
 _atom_site_symmetry_multiplicity
 _atom_site_fract_x
 _atom_site_fract_y
 _atom_site_fract_z
 _atom_site_occupancy
  Zr  Zr0  1  0.701093  0.701093  0.298907  1
  Zr  Zr1  1  0.298907  0.701093  0.298907  1
  Zr  Zr2  1  0.701093  0.298907  0.298907  1
  Zr  Zr3  1  0.298907  0.298907  0.701093  1
  Zr  Zr4  1  0.701093  0.298907  0.701093  1
  Zr  Zr5  1  0.298907  0.701093  0.701093  1
  Ta  Ta6  1  0.878922  0.878922  0.363234  1
  Ta  Ta7  1  0.878922  0.363234  0.878922  1
  Ta  Ta8  1  0.363234  0.878922  0.878922  1
  Ta  Ta9  1  0.878922  0.878922  0.878922  1
  Al  Al10  1  0.120948  0.120948  0.637155  1
  Al  Al11  1  0.120948  0.637155  0.120948  1
  Al  Al12  1  0.637155  0.120948  0.120948  1
  Al  Al13  1  0.120948  0.120948  0.120948  1
  Al  Al14  1  0.660218  0.660218  0.019345  1
  Al  Al15  1  0.660218  0.019345  0.660218  1
  Al  Al16  1  0.019345  0.660218  0.660218  1
  Al  Al17  1  0.660218  0.660218  0.660218  1
  Al  Al18  1  0.334497  0.334497  0.996510  1
  Al  Al19  1  0.334497  0.996510  0.334497  1
  Al  Al20  1  0.996510  0.334497  0.334497  1
  Al  Al21  1  0.334497  0.334497  0.334497  1
  Os  Os22  1  0.000000  0.000000  0.000000  1
  Os  Os23  1  0.997582  0.997582  0.502418  1
  Os  Os24  1  0.502418  0.997582  0.502418  1
  Os  Os25  1  0.997582  0.502418  0.502418  1
  Os  Os26  1  0.502418  0.502418  0.997582  1
  Os  Os27  1  0.997582  0.502418  0.997582  1
  Os  Os28  1  0.502418  0.997582  0.997582  1
