# generated using pymatgen
data_Dy3Y2Lu5(Si5Ir2)4
_symmetry_space_group_name_H-M   'P 1'
_cell_length_a   12.59583706
_cell_length_b   12.59586210
_cell_length_c   4.23788500
_cell_angle_alpha   90.00000000
_cell_angle_beta   90.00000000
_cell_angle_gamma   89.98189133
_symmetry_Int_Tables_number   1
_chemical_formula_structural   Dy3Y2Lu5(Si5Ir2)4
_chemical_formula_sum   'Dy3 Y2 Lu5 Si20 Ir8'
_cell_volume   672.36341927
_cell_formula_units_Z   1
loop_
 _symmetry_equiv_pos_site_id
 _symmetry_equiv_pos_as_xyz
  1  'x, y, z'
loop_
 _atom_site_type_symbol
 _atom_site_label
 _atom_site_symmetry_multiplicity
 _atom_site_fract_x
 _atom_site_fract_y
 _atom_site_fract_z
 _atom_site_occupancy
  Dy  Dy0  1  0.823434  0.676557  0.500000  1
  Dy  Dy1  1  0.883779  0.383557  0.500000  1
  Dy  Dy2  1  0.383888  0.116103  0.500000  1
  Y  Y3  1  0.116439  0.616236  0.500000  1
  Y  Y4  1  0.615678  0.884338  0.500000  1
  Lu  Lu5  1  0.499906  0.500141  0.000000  1
  Lu  Lu6  1  0.999862  0.000112  0.000000  1
  Lu  Lu7  1  0.676335  0.175612  0.500000  1
  Lu  Lu8  1  0.324390  0.823690  0.500000  1
  Lu  Lu9  1  0.176172  0.323837  0.500000  1
  Si  Si10  1  0.566081  0.066592  0.000000  1
  Si  Si11  1  0.433410  0.933926  0.000000  1
  Si  Si12  1  0.066684  0.433262  0.000000  1
  Si  Si13  1  0.934313  0.565628  0.000000  1
  Si  Si14  1  0.662206  0.701224  0.000000  1
  Si  Si15  1  0.336597  0.298886  0.000000  1
  Si  Si16  1  0.163974  0.799345  0.000000  1
  Si  Si17  1  0.836656  0.201239  0.000000  1
  Si  Si18  1  0.298832  0.663302  0.000000  1
  Si  Si19  1  0.700720  0.335988  0.000000  1
  Si  Si20  1  0.201119  0.163399  0.000000  1
  Si  Si21  1  0.798782  0.837797  0.000000  1
  Si  Si22  1  0.654081  0.501975  0.500000  1
  Si  Si23  1  0.345208  0.496060  0.500000  1
  Si  Si24  1  0.154288  0.995987  0.500000  1
  Si  Si25  1  0.845136  0.003375  0.500000  1
  Si  Si26  1  0.496627  0.654857  0.500000  1
  Si  Si27  1  0.504017  0.345707  0.500000  1
  Si  Si28  1  0.003926  0.154800  0.500000  1
  Si  Si29  1  0.998002  0.845926  0.500000  1
  Ir  Ir30  1  0.743835  0.520938  0.000000  1
  Ir  Ir31  1  0.255424  0.477550  0.000000  1
  Ir  Ir32  1  0.244887  0.978154  0.000000  1
  Ir  Ir33  1  0.755109  0.022991  0.000000  1
  Ir  Ir34  1  0.476998  0.744901  0.000000  1
  Ir  Ir35  1  0.521841  0.255112  0.000000  1
  Ir  Ir36  1  0.022376  0.244648  0.000000  1
  Ir  Ir37  1  0.978986  0.756250  0.000000  1
