# generated using pymatgen
data_YbHoEr2(B6Os)2
_symmetry_space_group_name_H-M   'P 1'
_cell_length_a   3.63060000
_cell_length_b   9.11991552
_cell_length_c   11.50795701
_cell_angle_alpha   89.83119449
_cell_angle_beta   90.00000000
_cell_angle_gamma   90.00000000
_symmetry_Int_Tables_number   1
_chemical_formula_structural   YbHoEr2(B6Os)2
_chemical_formula_sum   'Yb2 Ho2 Er4 B24 Os4'
_cell_volume   381.03560978
_cell_formula_units_Z   2
loop_
 _symmetry_equiv_pos_site_id
 _symmetry_equiv_pos_as_xyz
  1  'x, y, z'
loop_
 _atom_site_type_symbol
 _atom_site_label
 _atom_site_symmetry_multiplicity
 _atom_site_fract_x
 _atom_site_fract_y
 _atom_site_fract_z
 _atom_site_occupancy
  Yb  Yb0  1  0.000000  0.324351  0.414571  1
  Yb  Yb1  1  0.000000  0.675649  0.585429  1
  Ho  Ho2  1  0.000000  0.822041  0.086387  1
  Ho  Ho3  1  0.000000  0.177959  0.913613  1
  Er  Er4  1  0.000000  0.942363  0.370636  1
  Er  Er5  1  0.000000  0.057637  0.629364  1
  Er  Er6  1  0.000000  0.442957  0.130134  1
  Er  Er7  1  0.000000  0.557043  0.869866  1
  B  B8  1  0.500000  0.554079  0.432515  1
  B  B9  1  0.500000  0.445921  0.567485  1
  B  B10  1  0.500000  0.053604  0.066559  1
  B  B11  1  0.500000  0.946396  0.933441  1
  B  B12  1  0.500000  0.748281  0.418094  1
  B  B13  1  0.500000  0.251719  0.581906  1
  B  B14  1  0.500000  0.248442  0.081079  1
  B  B15  1  0.500000  0.751558  0.918921  1
  B  B16  1  0.500000  0.791375  0.264895  1
  B  B17  1  0.500000  0.208625  0.735105  1
  B  B18  1  0.500000  0.290216  0.234309  1
  B  B19  1  0.500000  0.709784  0.765691  1
  B  B20  1  0.500000  0.631275  0.185189  1
  B  B21  1  0.500000  0.368725  0.814811  1
  B  B22  1  0.500000  0.130724  0.313967  1
  B  B23  1  0.500000  0.869276  0.686033  1
  B  B24  1  0.500000  0.982830  0.211806  1
  B  B25  1  0.500000  0.017170  0.788194  1
  B  B26  1  0.500000  0.483527  0.287923  1
  B  B27  1  0.500000  0.516473  0.712077  1
  B  B28  1  0.500000  0.603304  0.028444  1
  B  B29  1  0.500000  0.396696  0.971556  1
  B  B30  1  0.500000  0.099636  0.472355  1
  B  B31  1  0.500000  0.900364  0.527645  1
  Os  Os32  1  0.000000  0.639805  0.318962  1
  Os  Os33  1  0.000000  0.360195  0.681038  1
  Os  Os34  1  0.000000  0.136739  0.177791  1
  Os  Os35  1  0.000000  0.863261  0.822209  1
