# generated using pymatgen
data_Pr2Eu7Ga4
_symmetry_space_group_name_H-M   'P 1'
_cell_length_a   9.08122193
_cell_length_b   9.08122130
_cell_length_c   9.10869300
_cell_angle_alpha   94.81867166
_cell_angle_beta   94.70371742
_cell_angle_gamma   146.45914067
_symmetry_Int_Tables_number   1
_chemical_formula_structural   Pr2Eu7Ga4
_chemical_formula_sum   'Pr2 Eu7 Ga4'
_cell_volume   397.50690251
_cell_formula_units_Z   1
loop_
 _symmetry_equiv_pos_site_id
 _symmetry_equiv_pos_as_xyz
  1  'x, y, z'
loop_
 _atom_site_type_symbol
 _atom_site_label
 _atom_site_symmetry_multiplicity
 _atom_site_fract_x
 _atom_site_fract_y
 _atom_site_fract_z
 _atom_site_occupancy
  Pr  Pr0  1  0.499320  0.498346  0.997666  1
  Pr  Pr1  1  0.814547  0.111989  0.926536  1
  Eu  Eu2  1  0.607008  0.873701  0.480709  1
  Eu  Eu3  1  0.393040  0.128028  0.521067  1
  Eu  Eu4  1  0.125245  0.605995  0.731239  1
  Eu  Eu5  1  0.874940  0.395375  0.270315  1
  Eu  Eu6  1  0.892247  0.814966  0.707212  1
  Eu  Eu7  1  0.105393  0.184801  0.290194  1
  Eu  Eu8  1  0.186857  0.892226  0.079084  1
  Ga  Ga9  1  0.733353  0.605063  0.338414  1
  Ga  Ga10  1  0.265546  0.394912  0.660458  1
  Ga  Ga11  1  0.394551  0.730844  0.125395  1
  Ga  Ga12  1  0.607954  0.263754  0.871707  1
