# generated using pymatgen
data_YHoCr2Co10As7
_symmetry_space_group_name_H-M   'P 1'
_cell_length_a   3.74781900
_cell_length_b   9.40157357
_cell_length_c   9.43625420
_cell_angle_alpha   119.88334767
_cell_angle_beta   90.00000000
_cell_angle_gamma   90.00000000
_symmetry_Int_Tables_number   1
_chemical_formula_structural   YHoCr2Co10As7
_chemical_formula_sum   'Y1 Ho1 Cr2 Co10 As7'
_cell_volume   288.28279238
_cell_formula_units_Z   1
loop_
 _symmetry_equiv_pos_site_id
 _symmetry_equiv_pos_as_xyz
  1  'x, y, z'
loop_
 _atom_site_type_symbol
 _atom_site_label
 _atom_site_symmetry_multiplicity
 _atom_site_fract_x
 _atom_site_fract_y
 _atom_site_fract_z
 _atom_site_occupancy
  Y  Y0  1  0.500000  0.331923  0.666626  1
  Ho  Ho1  1  0.000000  0.671781  0.337642  1
  Cr  Cr2  1  0.500000  0.775303  0.893198  1
  Cr  Cr3  1  0.500000  0.120681  0.222798  1
  Co  Co4  1  0.000000  0.569217  0.941727  1
  Co  Co5  1  0.000000  0.371227  0.430758  1
  Co  Co6  1  0.000000  0.058197  0.628294  1
  Co  Co7  1  0.500000  0.095165  0.878004  1
  Co  Co8  1  0.000000  0.879258  0.156204  1
  Co  Co9  1  0.000000  0.281386  0.123202  1
  Co  Co10  1  0.000000  0.842138  0.721694  1
  Co  Co11  1  0.500000  0.947262  0.381307  1
  Co  Co12  1  0.500000  0.433101  0.049513  1
  Co  Co13  1  0.500000  0.618847  0.565308  1
  As  As14  1  0.000000  0.002562  0.998513  1
  As  As15  1  0.500000  0.707854  0.117639  1
  As  As16  1  0.500000  0.413107  0.292014  1
  As  As17  1  0.500000  0.887161  0.595747  1
  As  As18  1  0.000000  0.586213  0.701407  1
  As  As19  1  0.000000  0.113623  0.412539  1
  As  As20  1  0.000000  0.293991  0.885867  1
