# generated using pymatgen
data_Tb3PuSe4
_symmetry_space_group_name_H-M   'P 1'
_cell_length_a   7.03830942
_cell_length_b   7.03830981
_cell_length_c   7.07978200
_cell_angle_alpha   80.79020559
_cell_angle_beta   80.79020508
_cell_angle_gamma   34.25524092
_symmetry_Int_Tables_number   1
_chemical_formula_structural   Tb3PuSe4
_chemical_formula_sum   'Tb3 Pu1 Se4'
_cell_volume   194.62342475
_cell_formula_units_Z   1
loop_
 _symmetry_equiv_pos_site_id
 _symmetry_equiv_pos_as_xyz
  1  'x, y, z'
loop_
 _atom_site_type_symbol
 _atom_site_label
 _atom_site_symmetry_multiplicity
 _atom_site_fract_x
 _atom_site_fract_y
 _atom_site_fract_z
 _atom_site_occupancy
  Tb  Tb0  1  0.248699  0.248699  0.250076  1
  Tb  Tb1  1  0.500000  0.500000  0.500000  1
  Tb  Tb2  1  0.751301  0.751301  0.749924  1
  Pu  Pu3  1  0.000000  0.000000  0.000000  1
  Se  Se4  1  0.626162  0.626162  0.125195  1
  Se  Se5  1  0.874363  0.874363  0.376102  1
  Se  Se6  1  0.125637  0.125637  0.623898  1
  Se  Se7  1  0.373838  0.373838  0.874805  1
