# generated using pymatgen
data_Ta3Nb13(Ni2N)4
_symmetry_space_group_name_H-M   'P 1'
_cell_length_a   8.24379174
_cell_length_b   8.24522644
_cell_length_c   8.24379200
_cell_angle_alpha   60.00575479
_cell_angle_beta   59.99999897
_cell_angle_gamma   60.00575976
_symmetry_Int_Tables_number   1
_chemical_formula_structural   Ta3Nb13(Ni2N)4
_chemical_formula_sum   'Ta3 Nb13 Ni8 N4'
_cell_volume   396.25924797
_cell_formula_units_Z   1
loop_
 _symmetry_equiv_pos_site_id
 _symmetry_equiv_pos_as_xyz
  1  'x, y, z'
loop_
 _atom_site_type_symbol
 _atom_site_label
 _atom_site_symmetry_multiplicity
 _atom_site_fract_x
 _atom_site_fract_y
 _atom_site_fract_z
 _atom_site_occupancy
  Ta  Ta0  1  0.125000  0.625000  0.625000  1
  Ta  Ta1  1  0.625000  0.625000  0.125000  1
  Ta  Ta2  1  0.625000  0.625000  0.625000  1
  Nb  Nb3  1  0.625000  0.125000  0.625000  1
  Nb  Nb4  1  0.817081  0.817309  0.182805  1
  Nb  Nb5  1  0.182686  0.182680  0.817317  1
  Nb  Nb6  1  0.817317  0.182680  0.817317  1
  Nb  Nb7  1  0.182805  0.817309  0.182805  1
  Nb  Nb8  1  0.182805  0.817309  0.817081  1
  Nb  Nb9  1  0.817317  0.182680  0.182686  1
  Nb  Nb10  1  0.432919  0.432691  0.067195  1
  Nb  Nb11  1  0.067314  0.067320  0.432683  1
  Nb  Nb12  1  0.432683  0.067320  0.432683  1
  Nb  Nb13  1  0.067195  0.432691  0.067195  1
  Nb  Nb14  1  0.067195  0.432691  0.432919  1
  Nb  Nb15  1  0.432683  0.067320  0.067314  1
  Ni  Ni16  1  0.739191  0.421086  0.419861  1
  Ni  Ni17  1  0.420184  0.739447  0.420184  1
  Ni  Ni18  1  0.419861  0.421086  0.739191  1
  Ni  Ni19  1  0.419861  0.421086  0.419861  1
  Ni  Ni20  1  0.510809  0.828914  0.830139  1
  Ni  Ni21  1  0.829816  0.510553  0.829816  1
  Ni  Ni22  1  0.830139  0.828914  0.510809  1
  Ni  Ni23  1  0.830139  0.828914  0.830139  1
  N  N24  1  0.625000  0.125000  0.125000  1
  N  N25  1  0.125000  0.625000  0.125000  1
  N  N26  1  0.125000  0.125000  0.625000  1
  N  N27  1  0.125000  0.125000  0.125000  1
