# generated using pymatgen
data_Y2Al9CoNi2
_symmetry_space_group_name_H-M   'P 1'
_cell_length_a   7.39766307
_cell_length_b   7.39766285
_cell_length_c   9.26813100
_cell_angle_alpha   90.00000000
_cell_angle_beta   90.00000000
_cell_angle_gamma   119.26216925
_symmetry_Int_Tables_number   1
_chemical_formula_structural   Y2Al9CoNi2
_chemical_formula_sum   'Y4 Al18 Co2 Ni4'
_cell_volume   442.47936540
_cell_formula_units_Z   2
loop_
 _symmetry_equiv_pos_site_id
 _symmetry_equiv_pos_as_xyz
  1  'x, y, z'
loop_
 _atom_site_type_symbol
 _atom_site_label
 _atom_site_symmetry_multiplicity
 _atom_site_fract_x
 _atom_site_fract_y
 _atom_site_fract_z
 _atom_site_occupancy
  Y  Y0  1  0.992245  0.669992  0.250000  1
  Y  Y1  1  0.007755  0.330008  0.750000  1
  Y  Y2  1  0.669992  0.992245  0.250000  1
  Y  Y3  1  0.330008  0.007755  0.750000  1
  Al  Al4  1  0.124305  0.124305  0.250000  1
  Al  Al5  1  0.875695  0.875695  0.750000  1
  Al  Al6  1  0.329759  0.329759  0.545154  1
  Al  Al7  1  0.670241  0.670241  0.045154  1
  Al  Al8  1  0.329759  0.329759  0.954846  1
  Al  Al9  1  0.670241  0.670241  0.454846  1
  Al  Al10  1  0.340629  0.552921  0.250000  1
  Al  Al11  1  0.659371  0.447079  0.750000  1
  Al  Al12  1  0.552921  0.340629  0.250000  1
  Al  Al13  1  0.447079  0.659371  0.750000  1
  Al  Al14  1  0.997054  0.331961  0.072228  1
  Al  Al15  1  0.002946  0.668039  0.572228  1
  Al  Al16  1  0.331961  0.997054  0.427772  1
  Al  Al17  1  0.668039  0.002946  0.927772  1
  Al  Al18  1  0.002946  0.668039  0.927772  1
  Al  Al19  1  0.997054  0.331961  0.427772  1
  Al  Al20  1  0.668039  0.002946  0.572228  1
  Al  Al21  1  0.331961  0.997054  0.072228  1
  Co  Co22  1  0.000000  0.000000  0.000000  1
  Co  Co23  1  0.000000  0.000000  0.500000  1
  Ni  Ni24  1  0.670958  0.329042  0.000000  1
  Ni  Ni25  1  0.329042  0.670958  0.500000  1
  Ni  Ni26  1  0.329042  0.670958  0.000000  1
  Ni  Ni27  1  0.670958  0.329042  0.500000  1
