# generated using pymatgen
data_Y2CoNiH8
_symmetry_space_group_name_H-M   'P 1'
_cell_length_a   6.04045513
_cell_length_b   6.04045487
_cell_length_c   4.75937100
_cell_angle_alpha   90.00000000
_cell_angle_beta   90.00000000
_cell_angle_gamma   145.55606249
_symmetry_Int_Tables_number   1
_chemical_formula_structural   Y2CoNiH8
_chemical_formula_sum   'Y2 Co1 Ni1 H8'
_cell_volume   98.21955102
_cell_formula_units_Z   1
loop_
 _symmetry_equiv_pos_site_id
 _symmetry_equiv_pos_as_xyz
  1  'x, y, z'
loop_
 _atom_site_type_symbol
 _atom_site_label
 _atom_site_symmetry_multiplicity
 _atom_site_fract_x
 _atom_site_fract_y
 _atom_site_fract_z
 _atom_site_occupancy
  Y  Y0  1  0.866443  0.133557  0.750000  1
  Y  Y1  1  0.131213  0.868787  0.250000  1
  Co  Co2  1  0.404341  0.595659  0.250000  1
  Ni  Ni3  1  0.598087  0.401913  0.750000  1
  H  H4  1  0.086714  0.913286  0.750000  1
  H  H5  1  0.911907  0.088093  0.250000  1
  H  H6  1  0.693001  0.306999  0.495686  1
  H  H7  1  0.307750  0.692250  0.494189  1
  H  H8  1  0.693001  0.306999  0.004314  1
  H  H9  1  0.307750  0.692250  0.005811  1
  H  H10  1  0.499897  0.500103  0.003215  1
  H  H11  1  0.499897  0.500103  0.496785  1
