# generated using pymatgen
data_Dy6HoLu13Sn16
_symmetry_space_group_name_H-M   'P 1'
_cell_length_a   7.93775812
_cell_length_b   8.06452326
_cell_length_c   15.23490400
_cell_angle_alpha   90.01544036
_cell_angle_beta   90.21097315
_cell_angle_gamma   89.90575609
_symmetry_Int_Tables_number   1
_chemical_formula_structural   Dy6HoLu13Sn16
_chemical_formula_sum   'Dy6 Ho1 Lu13 Sn16'
_cell_volume   975.24276046
_cell_formula_units_Z   1
loop_
 _symmetry_equiv_pos_site_id
 _symmetry_equiv_pos_as_xyz
  1  'x, y, z'
loop_
 _atom_site_type_symbol
 _atom_site_label
 _atom_site_symmetry_multiplicity
 _atom_site_fract_x
 _atom_site_fract_y
 _atom_site_fract_z
 _atom_site_occupancy
  Dy  Dy0  1  0.480676  0.678897  0.404460  1
  Dy  Dy1  1  0.979419  0.820869  0.095949  1
  Dy  Dy2  1  0.479313  0.678039  0.095837  1
  Dy  Dy3  1  0.980527  0.821330  0.404419  1
  Dy  Dy4  1  0.518537  0.321779  0.595425  1
  Dy  Dy5  1  0.020394  0.179147  0.903773  1
  Ho  Ho6  1  0.019496  0.179191  0.596480  1
  Lu  Lu7  1  0.364940  0.838238  0.876409  1
  Lu  Lu8  1  0.863465  0.662219  0.624054  1
  Lu  Lu9  1  0.635752  0.162174  0.376071  1
  Lu  Lu10  1  0.134047  0.338178  0.123183  1
  Lu  Lu11  1  0.634197  0.161852  0.123187  1
  Lu  Lu12  1  0.135926  0.337944  0.376311  1
  Lu  Lu13  1  0.364277  0.838435  0.624516  1
  Lu  Lu14  1  0.865973  0.661339  0.876645  1
  Lu  Lu15  1  0.522777  0.321206  0.903097  1
  Lu  Lu16  1  0.195830  0.504819  0.750509  1
  Lu  Lu17  1  0.695297  0.995172  0.750551  1
  Lu  Lu18  1  0.804304  0.494730  0.249752  1
  Lu  Lu19  1  0.304379  0.005091  0.249807  1
  Sn  Sn20  1  0.295907  0.039393  0.041653  1
  Sn  Sn21  1  0.797449  0.459337  0.458656  1
  Sn  Sn22  1  0.701620  0.960651  0.541264  1
  Sn  Sn23  1  0.207296  0.537353  0.957704  1
  Sn  Sn24  1  0.702937  0.960839  0.958143  1
  Sn  Sn25  1  0.201844  0.541068  0.541466  1
  Sn  Sn26  1  0.297859  0.040316  0.458601  1
  Sn  Sn27  1  0.794883  0.458930  0.040436  1
  Sn  Sn28  1  0.561540  0.619682  0.750494  1
  Sn  Sn29  1  0.061145  0.879414  0.750287  1
  Sn  Sn30  1  0.438814  0.380034  0.249606  1
  Sn  Sn31  1  0.938652  0.120035  0.249834  1
  Sn  Sn32  1  0.331611  0.151589  0.750982  1
  Sn  Sn33  1  0.829030  0.350379  0.750183  1
  Sn  Sn34  1  0.669944  0.850374  0.250163  1
  Sn  Sn35  1  0.169942  0.649959  0.250097  1
