# generated using pymatgen
data_Yb3PrOs5Ru3
_symmetry_space_group_name_H-M   'P 1'
_cell_length_a   5.25572706
_cell_length_b   5.20697055
_cell_length_c   9.08112920
_cell_angle_alpha   89.96906634
_cell_angle_beta   90.05961764
_cell_angle_gamma   119.35884201
_symmetry_Int_Tables_number   1
_chemical_formula_structural   Yb3PrOs5Ru3
_chemical_formula_sum   'Yb3 Pr1 Os5 Ru3'
_cell_volume   216.59974206
_cell_formula_units_Z   1
loop_
 _symmetry_equiv_pos_site_id
 _symmetry_equiv_pos_as_xyz
  1  'x, y, z'
loop_
 _atom_site_type_symbol
 _atom_site_label
 _atom_site_symmetry_multiplicity
 _atom_site_fract_x
 _atom_site_fract_y
 _atom_site_fract_z
 _atom_site_occupancy
  Yb  Yb0  1  0.333186  0.666930  0.429810  1
  Yb  Yb1  1  0.331160  0.665886  0.064621  1
  Yb  Yb2  1  0.664569  0.332286  0.940083  1
  Pr  Pr3  1  0.665812  0.333002  0.563242  1
  Os  Os4  1  0.173163  0.343543  0.753984  1
  Os  Os5  1  0.172998  0.829571  0.753745  1
  Os  Os6  1  0.661029  0.830221  0.754892  1
  Os  Os7  1  0.837403  0.662902  0.246637  1
  Os  Os8  1  0.838906  0.174555  0.246605  1
  Ru  Ru9  1  0.988718  0.994028  0.498496  1
  Ru  Ru10  1  0.983265  0.991681  0.000049  1
  Ru  Ru11  1  0.349789  0.175397  0.247837  1
