# generated using pymatgen
data_CsTbCr2O8
_symmetry_space_group_name_H-M   'P 1'
_cell_length_a   5.82963400
_cell_length_b   5.82963388
_cell_length_c   8.33673400
_cell_angle_alpha   90.00000000
_cell_angle_beta   90.00000000
_cell_angle_gamma   120.00000068
_symmetry_Int_Tables_number   1
_chemical_formula_structural   CsTbCr2O8
_chemical_formula_sum   'Cs1 Tb1 Cr2 O8'
_cell_volume   245.36303973
_cell_formula_units_Z   1
loop_
 _symmetry_equiv_pos_site_id
 _symmetry_equiv_pos_as_xyz
  1  'x, y, z'
loop_
 _atom_site_type_symbol
 _atom_site_label
 _atom_site_symmetry_multiplicity
 _atom_site_fract_x
 _atom_site_fract_y
 _atom_site_fract_z
 _atom_site_occupancy
  Cs  Cs0  1  0.000000  0.000000  0.500001  1
  Tb  Tb1  1  0.000000  0.000000  0.000000  1
  Cr  Cr2  1  0.666667  0.333333  0.233751  1
  Cr  Cr3  1  0.333333  0.666666  0.766249  1
  O  O4  1  0.352192  0.176096  0.168488  1
  O  O5  1  0.823904  0.176096  0.168488  1
  O  O6  1  0.823904  0.647808  0.168488  1
  O  O7  1  0.666667  0.333333  0.428675  1
  O  O8  1  0.333333  0.666666  0.571325  1
  O  O9  1  0.176096  0.352192  0.831512  1
  O  O10  1  0.176096  0.823903  0.831512  1
  O  O11  1  0.647809  0.823903  0.831512  1
