# generated using pymatgen
data_Dy7HoSc12Si15Ge
_symmetry_space_group_name_H-M   'P 1'
_cell_length_a   7.10391339
_cell_length_b   7.39231180
_cell_length_c   14.00928606
_cell_angle_alpha   90.00893804
_cell_angle_beta   89.84064637
_cell_angle_gamma   90.04556888
_symmetry_Int_Tables_number   1
_chemical_formula_structural   Dy7HoSc12Si15Ge
_chemical_formula_sum   'Dy7 Ho1 Sc12 Si15 Ge1'
_cell_volume   735.68536361
_cell_formula_units_Z   1
loop_
 _symmetry_equiv_pos_site_id
 _symmetry_equiv_pos_as_xyz
  1  'x, y, z'
loop_
 _atom_site_type_symbol
 _atom_site_label
 _atom_site_symmetry_multiplicity
 _atom_site_fract_x
 _atom_site_fract_y
 _atom_site_fract_z
 _atom_site_occupancy
  Dy  Dy0  1  0.011398  0.175580  0.096570  1
  Dy  Dy1  1  0.988702  0.824679  0.903458  1
  Dy  Dy2  1  0.489140  0.675569  0.903479  1
  Dy  Dy3  1  0.988828  0.824787  0.596776  1
  Dy  Dy4  1  0.511021  0.324699  0.096743  1
  Dy  Dy5  1  0.009704  0.175170  0.402837  1
  Dy  Dy6  1  0.511128  0.323243  0.402466  1
  Ho  Ho7  1  0.492113  0.677221  0.597235  1
  Sc  Sc8  1  0.162368  0.502494  0.751280  1
  Sc  Sc9  1  0.837532  0.497591  0.250123  1
  Sc  Sc10  1  0.337792  0.002466  0.249993  1
  Sc  Sc11  1  0.662215  0.997475  0.749992  1
  Sc  Sc12  1  0.334762  0.173844  0.626441  1
  Sc  Sc13  1  0.666468  0.824020  0.374045  1
  Sc  Sc14  1  0.165960  0.677138  0.374266  1
  Sc  Sc15  1  0.667696  0.822935  0.125197  1
  Sc  Sc16  1  0.831504  0.324111  0.625200  1
  Sc  Sc17  1  0.332007  0.176542  0.874720  1
  Sc  Sc18  1  0.831950  0.323196  0.874811  1
  Sc  Sc19  1  0.167771  0.676971  0.125218  1
  Si  Si20  1  0.034710  0.116448  0.750134  1
  Si  Si21  1  0.965021  0.884466  0.249501  1
  Si  Si22  1  0.464337  0.616119  0.249615  1
  Si  Si23  1  0.534882  0.384220  0.750348  1
  Si  Si24  1  0.286664  0.872210  0.750291  1
  Si  Si25  1  0.713558  0.126944  0.249454  1
  Si  Si26  1  0.212897  0.373176  0.249865  1
  Si  Si27  1  0.787132  0.627126  0.750096  1
  Si  Si28  1  0.835001  0.536980  0.459786  1
  Si  Si29  1  0.340320  0.964144  0.460777  1
  Si  Si30  1  0.841483  0.535125  0.039445  1
  Si  Si31  1  0.659710  0.035780  0.539126  1
  Si  Si32  1  0.158414  0.464806  0.960812  1
  Si  Si33  1  0.658326  0.035395  0.960758  1
  Si  Si34  1  0.341543  0.964750  0.039353  1
  Ge  Ge35  1  0.165940  0.462578  0.539792  1
