# generated using pymatgen
data_LaNd3(Al3Ir)6
_symmetry_space_group_name_H-M   'P 1'
_cell_length_a   7.63300343
_cell_length_b   7.63822468
_cell_length_c   9.61877900
_cell_angle_alpha   90.00000000
_cell_angle_beta   90.00000000
_cell_angle_gamma   119.28082905
_symmetry_Int_Tables_number   1
_chemical_formula_structural   LaNd3(Al3Ir)6
_chemical_formula_sum   'La1 Nd3 Al18 Ir6'
_cell_volume   489.14805560
_cell_formula_units_Z   1
loop_
 _symmetry_equiv_pos_site_id
 _symmetry_equiv_pos_as_xyz
  1  'x, y, z'
loop_
 _atom_site_type_symbol
 _atom_site_label
 _atom_site_symmetry_multiplicity
 _atom_site_fract_x
 _atom_site_fract_y
 _atom_site_fract_z
 _atom_site_occupancy
  La  La0  1  0.994782  0.670796  0.250000  1
  Nd  Nd1  1  0.005338  0.329424  0.750000  1
  Nd  Nd2  1  0.671137  0.994416  0.250000  1
  Nd  Nd3  1  0.328328  0.004835  0.750000  1
  Al  Al4  1  0.131966  0.133429  0.250000  1
  Al  Al5  1  0.868826  0.869682  0.750000  1
  Al  Al6  1  0.002480  0.334280  0.071212  1
  Al  Al7  1  0.997090  0.664347  0.925827  1
  Al  Al8  1  0.997090  0.664347  0.574173  1
  Al  Al9  1  0.336692  0.003595  0.428755  1
  Al  Al10  1  0.002480  0.334280  0.428788  1
  Al  Al11  1  0.664615  0.998070  0.572565  1
  Al  Al12  1  0.664615  0.998070  0.927435  1
  Al  Al13  1  0.336692  0.003595  0.071245  1
  Al  Al14  1  0.333703  0.333750  0.546884  1
  Al  Al15  1  0.665358  0.666144  0.456225  1
  Al  Al16  1  0.665358  0.666144  0.043775  1
  Al  Al17  1  0.333703  0.333750  0.953116  1
  Al  Al18  1  0.342140  0.546721  0.250000  1
  Al  Al19  1  0.659899  0.452451  0.750000  1
  Al  Al20  1  0.544438  0.337137  0.250000  1
  Al  Al21  1  0.453439  0.660784  0.750000  1
  Ir  Ir22  1  0.670844  0.328824  0.999666  1
  Ir  Ir23  1  0.328881  0.670956  0.999576  1
  Ir  Ir24  1  0.328881  0.670956  0.500424  1
  Ir  Ir25  1  0.670844  0.328824  0.500334  1
  Ir  Ir26  1  0.000192  0.000197  0.999668  1
  Ir  Ir27  1  0.000192  0.000197  0.500332  1
