# generated using pymatgen
data_Tb2CoB10
_symmetry_space_group_name_H-M   'P 1'
_cell_length_a   4.14662800
_cell_length_b   5.55706700
_cell_length_c   11.08251600
_cell_angle_alpha   90.00000000
_cell_angle_beta   90.00000000
_cell_angle_gamma   90.00000000
_symmetry_Int_Tables_number   1
_chemical_formula_structural   Tb2CoB10
_chemical_formula_sum   'Tb4 Co2 B20'
_cell_volume   255.37540940
_cell_formula_units_Z   2
loop_
 _symmetry_equiv_pos_site_id
 _symmetry_equiv_pos_as_xyz
  1  'x, y, z'
loop_
 _atom_site_type_symbol
 _atom_site_label
 _atom_site_symmetry_multiplicity
 _atom_site_fract_x
 _atom_site_fract_y
 _atom_site_fract_z
 _atom_site_occupancy
  Tb  Tb0  1  0.500000  0.299718  0.866422  1
  Tb  Tb1  1  0.500000  0.700282  0.133578  1
  Tb  Tb2  1  0.500000  0.799718  0.633578  1
  Tb  Tb3  1  0.500000  0.200282  0.366422  1
  Co  Co4  1  0.000000  0.500000  0.500000  1
  Co  Co5  1  0.000000  0.000000  0.000000  1
  B  B6  1  0.000000  0.127687  0.539766  1
  B  B7  1  0.000000  0.872313  0.460234  1
  B  B8  1  0.000000  0.627687  0.960234  1
  B  B9  1  0.000000  0.372313  0.039766  1
  B  B10  1  0.000000  0.156837  0.697817  1
  B  B11  1  0.000000  0.843163  0.302183  1
  B  B12  1  0.300064  0.201378  0.112899  1
  B  B13  1  0.300064  0.798622  0.887101  1
  B  B14  1  0.699936  0.701378  0.387101  1
  B  B15  1  0.699936  0.298622  0.612899  1
  B  B16  1  0.699936  0.798622  0.887101  1
  B  B17  1  0.699936  0.201378  0.112899  1
  B  B18  1  0.300064  0.298622  0.612899  1
  B  B19  1  0.300064  0.701378  0.387101  1
  B  B20  1  0.000000  0.031315  0.186454  1
  B  B21  1  0.000000  0.968685  0.813546  1
  B  B22  1  0.000000  0.531315  0.313546  1
  B  B23  1  0.000000  0.468685  0.686454  1
  B  B24  1  0.000000  0.343163  0.197817  1
  B  B25  1  0.000000  0.656837  0.802183  1
