# generated using pymatgen
data_K4Eu(SiO3)3
_symmetry_space_group_name_H-M   'P 1'
_cell_length_a   7.24918658
_cell_length_b   7.24918738
_cell_length_c   11.11090400
_cell_angle_alpha   90.00000000
_cell_angle_beta   90.00000000
_cell_angle_gamma   112.70987719
_symmetry_Int_Tables_number   1
_chemical_formula_structural   K4Eu(SiO3)3
_chemical_formula_sum   'K8 Eu2 Si6 O18'
_cell_volume   538.61814397
_cell_formula_units_Z   2
loop_
 _symmetry_equiv_pos_site_id
 _symmetry_equiv_pos_as_xyz
  1  'x, y, z'
loop_
 _atom_site_type_symbol
 _atom_site_label
 _atom_site_symmetry_multiplicity
 _atom_site_fract_x
 _atom_site_fract_y
 _atom_site_fract_z
 _atom_site_occupancy
  K  K0  1  0.342230  0.764679  0.750000  1
  K  K1  1  0.943607  0.056393  0.000000  1
  K  K2  1  0.501544  0.498456  0.000000  1
  K  K3  1  0.235321  0.657770  0.250000  1
  K  K4  1  0.221102  0.228283  0.750000  1
  K  K5  1  0.501544  0.498456  0.500000  1
  K  K6  1  0.771717  0.778898  0.250000  1
  K  K7  1  0.943607  0.056393  0.500000  1
  Eu  Eu8  1  0.725953  0.252846  0.750000  1
  Eu  Eu9  1  0.747154  0.274047  0.250000  1
  Si  Si10  1  0.408586  0.981044  0.031244  1
  Si  Si11  1  0.018956  0.591414  0.968756  1
  Si  Si12  1  0.018956  0.591414  0.531244  1
  Si  Si13  1  0.260979  0.188213  0.250000  1
  Si  Si14  1  0.811787  0.739021  0.750000  1
  Si  Si15  1  0.408586  0.981044  0.468756  1
  O  O16  1  0.946707  0.731387  0.871875  1
  O  O17  1  0.024761  0.400443  0.603763  1
  O  O18  1  0.886248  0.550299  0.090694  1
  O  O19  1  0.268613  0.053293  0.128125  1
  O  O20  1  0.268613  0.053293  0.371875  1
  O  O21  1  0.259619  0.740381  0.000000  1
  O  O22  1  0.449701  0.113752  0.590694  1
  O  O23  1  0.449701  0.113752  0.909306  1
  O  O24  1  0.600361  0.546898  0.750000  1
  O  O25  1  0.259619  0.740381  0.500000  1
  O  O26  1  0.599557  0.975239  0.103763  1
  O  O27  1  0.043504  0.201804  0.250000  1
  O  O28  1  0.798196  0.956496  0.750000  1
  O  O29  1  0.453102  0.399639  0.250000  1
  O  O30  1  0.886248  0.550299  0.409306  1
  O  O31  1  0.024761  0.400443  0.896237  1
  O  O32  1  0.599557  0.975239  0.396237  1
  O  O33  1  0.946707  0.731387  0.628125  1
