# generated using pymatgen
data_Mn3Co(MoP)4
_symmetry_space_group_name_H-M   'P 1'
_cell_length_a   3.67680700
_cell_length_b   5.93660175
_cell_length_c   6.81121276
_cell_angle_alpha   89.73354219
_cell_angle_beta   90.00000000
_cell_angle_gamma   90.00000000
_symmetry_Int_Tables_number   1
_chemical_formula_structural   Mn3Co(MoP)4
_chemical_formula_sum   'Mn3 Co1 Mo4 P4'
_cell_volume   148.67176580
_cell_formula_units_Z   1
loop_
 _symmetry_equiv_pos_site_id
 _symmetry_equiv_pos_as_xyz
  1  'x, y, z'
loop_
 _atom_site_type_symbol
 _atom_site_label
 _atom_site_symmetry_multiplicity
 _atom_site_fract_x
 _atom_site_fract_y
 _atom_site_fract_z
 _atom_site_occupancy
  Mn  Mn0  1  0.750000  0.636219  0.441236  1
  Mn  Mn1  1  0.250000  0.857340  0.938294  1
  Mn  Mn2  1  0.750000  0.143047  0.058032  1
  Co  Co3  1  0.250000  0.356998  0.565579  1
  Mo  Mo4  1  0.250000  0.474033  0.173129  1
  Mo  Mo5  1  0.250000  0.975004  0.321874  1
  Mo  Mo6  1  0.750000  0.021796  0.675515  1
  Mo  Mo7  1  0.750000  0.533428  0.827141  1
  P  P8  1  0.250000  0.731267  0.618535  1
  P  P9  1  0.250000  0.231016  0.877863  1
  P  P10  1  0.750000  0.267537  0.378351  1
  P  P11  1  0.750000  0.772316  0.124452  1
