# generated using pymatgen
data_Nd3GeAuS7
_symmetry_space_group_name_H-M   'P 1'
_cell_length_a   5.91060100
_cell_length_b   10.30295769
_cell_length_c   10.30295700
_cell_angle_alpha   59.99999899
_cell_angle_beta   90.00000000
_cell_angle_gamma   90.00000000
_symmetry_Int_Tables_number   1
_chemical_formula_structural   Nd3GeAuS7
_chemical_formula_sum   'Nd6 Ge2 Au2 S14'
_cell_volume   543.35801005
_cell_formula_units_Z   2
loop_
 _symmetry_equiv_pos_site_id
 _symmetry_equiv_pos_as_xyz
  1  'x, y, z'
loop_
 _atom_site_type_symbol
 _atom_site_label
 _atom_site_symmetry_multiplicity
 _atom_site_fract_x
 _atom_site_fract_y
 _atom_site_fract_z
 _atom_site_occupancy
  Nd  Nd0  1  0.754959  0.641740  0.127216  1
  Nd  Nd1  1  0.754959  0.127215  0.231045  1
  Nd  Nd2  1  0.254958  0.768956  0.358260  1
  Nd  Nd3  1  0.754959  0.231044  0.641741  1
  Nd  Nd4  1  0.254958  0.872784  0.768955  1
  Nd  Nd5  1  0.254958  0.358260  0.872785  1
  Ge  Ge6  1  0.169157  0.333333  0.333333  1
  Ge  Ge7  1  0.669158  0.666667  0.666667  1
  Au  Au8  1  0.288158  0.000000  0.000000  1
  Au  Au9  1  0.788158  0.000000  0.000000  1
  S  S10  1  0.276627  0.729817  0.096933  1
  S  S11  1  0.012476  0.414740  0.106415  1
  S  S12  1  0.276627  0.096933  0.173250  1
  S  S13  1  0.776626  0.826750  0.270183  1
  S  S14  1  0.543453  0.333333  0.333333  1
  S  S15  1  0.012476  0.478845  0.414739  1
  S  S16  1  0.012476  0.106416  0.478843  1
  S  S17  1  0.512475  0.893583  0.521156  1
  S  S18  1  0.512475  0.521156  0.585260  1
  S  S19  1  0.043453  0.666667  0.666667  1
  S  S20  1  0.276627  0.173249  0.729818  1
  S  S21  1  0.776626  0.903067  0.826750  1
  S  S22  1  0.512475  0.585260  0.893584  1
  S  S23  1  0.776626  0.270183  0.903067  1
