# generated using pymatgen
data_AcErIr2F14
_symmetry_space_group_name_H-M   'P 1'
_cell_length_a   5.70922077
_cell_length_b   6.04702923
_cell_length_c   8.38128200
_cell_angle_alpha   101.74969397
_cell_angle_beta   90.10597659
_cell_angle_gamma   89.96513534
_symmetry_Int_Tables_number   1
_chemical_formula_structural   AcErIr2F14
_chemical_formula_sum   'Ac1 Er1 Ir2 F14'
_cell_volume   283.29045945
_cell_formula_units_Z   1
loop_
 _symmetry_equiv_pos_site_id
 _symmetry_equiv_pos_as_xyz
  1  'x, y, z'
loop_
 _atom_site_type_symbol
 _atom_site_label
 _atom_site_symmetry_multiplicity
 _atom_site_fract_x
 _atom_site_fract_y
 _atom_site_fract_z
 _atom_site_occupancy
  Ac  Ac0  1  0.706743  0.652961  0.683874  1
  Er  Er1  1  0.197361  0.341680  0.299153  1
  Ir  Ir2  1  0.709083  0.818172  0.223688  1
  Ir  Ir3  1  0.210708  0.189644  0.783027  1
  F  F4  1  0.906557  0.421518  0.461019  1
  F  F5  1  0.378789  0.527993  0.504022  1
  F  F6  1  0.363617  0.898982  0.778190  1
  F  F7  1  0.949978  0.050001  0.225299  1
  F  F8  1  0.909278  0.030052  0.773810  1
  F  F9  1  0.458772  0.054361  0.246628  1
  F  F10  1  0.055757  0.483004  0.796955  1
  F  F11  1  0.474161  0.575809  0.210196  1
  F  F12  1  0.695858  0.770216  0.988496  1
  F  F13  1  0.207104  0.242711  0.020603  1
  F  F14  1  0.724575  0.877650  0.460977  1
  F  F15  1  0.219713  0.125198  0.547665  1
  F  F16  1  0.515394  0.345485  0.795146  1
  F  F17  1  0.969272  0.594565  0.201251  1
