# generated using pymatgen
data_Dy2NiP4Ru5
_symmetry_space_group_name_H-M   'P 1'
_cell_length_a   3.93229300
_cell_length_b   10.88840190
_cell_length_c   12.66093347
_cell_angle_alpha   89.90339573
_cell_angle_beta   90.00284446
_cell_angle_gamma   90.00261876
_symmetry_Int_Tables_number   1
_chemical_formula_structural   Dy2NiP4Ru5
_chemical_formula_sum   'Dy6 Ni3 P12 Ru15'
_cell_volume   542.09465039
_cell_formula_units_Z   3
loop_
 _symmetry_equiv_pos_site_id
 _symmetry_equiv_pos_as_xyz
  1  'x, y, z'
loop_
 _atom_site_type_symbol
 _atom_site_label
 _atom_site_symmetry_multiplicity
 _atom_site_fract_x
 _atom_site_fract_y
 _atom_site_fract_z
 _atom_site_occupancy
  Dy  Dy0  1  0.751823  0.001128  0.474340  1
  Dy  Dy1  1  0.251850  0.499129  0.526746  1
  Dy  Dy2  1  0.251824  0.680948  0.790360  1
  Dy  Dy3  1  0.251807  0.320068  0.795567  1
  Dy  Dy4  1  0.751791  0.817028  0.205081  1
  Dy  Dy5  1  0.751788  0.179837  0.203340  1
  Ni  Ni6  1  0.751966  0.668066  0.978166  1
  Ni  Ni7  1  0.251591  0.999271  0.303386  1
  Ni  Ni8  1  0.751786  0.500951  0.695160  1
  P  P9  1  0.251880  0.190355  0.384011  1
  P  P10  1  0.251822  0.811441  0.386027  1
  P  P11  1  0.751755  0.308821  0.615291  1
  P  P12  1  0.751804  0.691551  0.614672  1
  P  P13  1  0.251795  0.994634  0.122586  1
  P  P14  1  0.751815  0.503269  0.873227  1
  P  P15  1  0.251849  0.648655  0.116845  1
  P  P16  1  0.251753  0.351933  0.103106  1
  P  P17  1  0.751857  0.844411  0.893805  1
  P  P18  1  0.751833  0.151948  0.896123  1
  P  P19  1  0.251822  0.000263  0.661910  1
  P  P20  1  0.751821  0.499185  0.341012  1
  Ru  Ru21  1  0.751887  0.994047  0.016487  1
  Ru  Ru22  1  0.251865  0.513913  0.982290  1
  Ru  Ru23  1  0.251839  0.203609  0.572426  1
  Ru  Ru24  1  0.251800  0.798470  0.572583  1
  Ru  Ru25  1  0.751780  0.297044  0.426752  1
  Ru  Ru26  1  0.751876  0.705217  0.429533  1
  Ru  Ru27  1  0.251832  0.620749  0.292706  1
  Ru  Ru28  1  0.251780  0.378147  0.284344  1
  Ru  Ru29  1  0.751862  0.876838  0.715205  1
  Ru  Ru30  1  0.751824  0.121378  0.715434  1
  Ru  Ru31  1  0.251785  0.168224  0.013853  1
  Ru  Ru32  1  0.251925  0.816267  0.011171  1
  Ru  Ru33  1  0.751809  0.337394  0.985785  1
  Ru  Ru34  1  0.251899  0.996098  0.848340  1
  Ru  Ru35  1  0.751812  0.509712  0.152331  1
