# generated using pymatgen
data_Ho4TiAl3Ir4
_symmetry_space_group_name_H-M   'P 1'
_cell_length_a   4.28487500
_cell_length_b   6.86250625
_cell_length_c   7.89651430
_cell_angle_alpha   89.83839703
_cell_angle_beta   90.00000000
_cell_angle_gamma   90.00000000
_symmetry_Int_Tables_number   1
_chemical_formula_structural   Ho4TiAl3Ir4
_chemical_formula_sum   'Ho4 Ti1 Al3 Ir4'
_cell_volume   232.19593320
_cell_formula_units_Z   1
loop_
 _symmetry_equiv_pos_site_id
 _symmetry_equiv_pos_as_xyz
  1  'x, y, z'
loop_
 _atom_site_type_symbol
 _atom_site_label
 _atom_site_symmetry_multiplicity
 _atom_site_fract_x
 _atom_site_fract_y
 _atom_site_fract_z
 _atom_site_occupancy
  Ho  Ho0  1  0.250000  0.965734  0.317118  1
  Ho  Ho1  1  0.250000  0.473549  0.176060  1
  Ho  Ho2  1  0.750000  0.023974  0.684621  1
  Ho  Ho3  1  0.750000  0.532303  0.824769  1
  Ti  Ti4  1  0.250000  0.369571  0.565078  1
  Al  Al5  1  0.250000  0.858122  0.934939  1
  Al  Al6  1  0.750000  0.640285  0.437262  1
  Al  Al7  1  0.750000  0.143062  0.062285  1
  Ir  Ir8  1  0.250000  0.231790  0.876461  1
  Ir  Ir9  1  0.250000  0.727009  0.616623  1
  Ir  Ir10  1  0.750000  0.770803  0.117955  1
  Ir  Ir11  1  0.750000  0.263797  0.386830  1
