# generated using pymatgen
data_Nd3Ho(B2Ir5)2
_symmetry_space_group_name_H-M   'P 1'
_cell_length_a   11.12037883
_cell_length_b   11.12037828
_cell_length_c   11.12037805
_cell_angle_alpha   28.73200799
_cell_angle_beta   28.73201452
_cell_angle_gamma   28.73201357
_symmetry_Int_Tables_number   1
_chemical_formula_structural   Nd3Ho(B2Ir5)2
_chemical_formula_sum   'Nd3 Ho1 B4 Ir10'
_cell_volume   280.96875889
_cell_formula_units_Z   1
loop_
 _symmetry_equiv_pos_site_id
 _symmetry_equiv_pos_as_xyz
  1  'x, y, z'
loop_
 _atom_site_type_symbol
 _atom_site_label
 _atom_site_symmetry_multiplicity
 _atom_site_fract_x
 _atom_site_fract_y
 _atom_site_fract_z
 _atom_site_occupancy
  Nd  Nd0  1  0.151361  0.151361  0.151361  1
  Nd  Nd1  1  0.950544  0.950544  0.950544  1
  Nd  Nd2  1  0.848451  0.848451  0.848451  1
  Ho  Ho3  1  0.049669  0.049669  0.049669  1
  B  B4  1  0.618296  0.618296  0.618296  1
  B  B5  1  0.716312  0.716312  0.716312  1
  B  B6  1  0.381762  0.381762  0.381762  1
  B  B7  1  0.283905  0.283905  0.283905  1
  Ir  Ir8  1  0.408075  0.898510  0.408075  1
  Ir  Ir9  1  0.898510  0.408075  0.408075  1
  Ir  Ir10  1  0.500581  0.500581  0.000327  1
  Ir  Ir11  1  0.500581  0.000327  0.500581  1
  Ir  Ir12  1  0.000327  0.500581  0.500581  1
  Ir  Ir13  1  0.499810  0.499810  0.499810  1
  Ir  Ir14  1  0.591235  0.101271  0.591235  1
  Ir  Ir15  1  0.591235  0.591235  0.101271  1
  Ir  Ir16  1  0.101271  0.591235  0.591235  1
  Ir  Ir17  1  0.408075  0.408075  0.898510  1
