# generated using pymatgen
data_La9Nd(Bi3Cl)2
_symmetry_space_group_name_H-M   'P 1'
_cell_length_a   9.76511100
_cell_length_b   9.76511145
_cell_length_c   6.79310100
_cell_angle_alpha   90.00000000
_cell_angle_beta   90.00000000
_cell_angle_gamma   119.99999510
_symmetry_Int_Tables_number   1
_chemical_formula_structural   La9Nd(Bi3Cl)2
_chemical_formula_sum   'La9 Nd1 Bi6 Cl2'
_cell_volume   560.98740814
_cell_formula_units_Z   1
loop_
 _symmetry_equiv_pos_site_id
 _symmetry_equiv_pos_as_xyz
  1  'x, y, z'
loop_
 _atom_site_type_symbol
 _atom_site_label
 _atom_site_symmetry_multiplicity
 _atom_site_fract_x
 _atom_site_fract_y
 _atom_site_fract_z
 _atom_site_occupancy
  La  La0  1  0.666667  0.333333  0.000000  1
  La  La1  1  0.333333  0.666667  0.000000  1
  La  La2  1  0.333333  0.666667  0.500000  1
  La  La3  1  0.733672  0.733770  0.749836  1
  La  La4  1  0.266230  0.999902  0.749836  1
  La  La5  1  0.000098  0.266328  0.749836  1
  La  La6  1  0.266230  0.266328  0.250164  1
  La  La7  1  0.733672  0.999902  0.250164  1
  La  La8  1  0.000098  0.733770  0.250164  1
  Nd  Nd9  1  0.666667  0.333333  0.500000  1
  Bi  Bi10  1  0.385804  0.384267  0.748373  1
  Bi  Bi11  1  0.615733  0.001538  0.748373  1
  Bi  Bi12  1  0.998462  0.614196  0.748373  1
  Bi  Bi13  1  0.615733  0.614196  0.251627  1
  Bi  Bi14  1  0.385804  0.001538  0.251627  1
  Bi  Bi15  1  0.998462  0.384267  0.251627  1
  Cl  Cl16  1  0.000000  0.000000  0.000000  1
  Cl  Cl17  1  0.000000  0.000000  0.500000  1
