# generated using pymatgen
data_CaS4(IO8)2
_symmetry_space_group_name_H-M   'P 1'
_cell_length_a   6.56829031
_cell_length_b   6.56828887
_cell_length_c   9.16435377
_cell_angle_alpha   75.35703967
_cell_angle_beta   75.35704264
_cell_angle_gamma   89.96613398
_symmetry_Int_Tables_number   1
_chemical_formula_structural   CaS4(IO8)2
_chemical_formula_sum   'Ca1 S4 I2 O16'
_cell_volume   369.25857112
_cell_formula_units_Z   1
loop_
 _symmetry_equiv_pos_site_id
 _symmetry_equiv_pos_as_xyz
  1  'x, y, z'
loop_
 _atom_site_type_symbol
 _atom_site_label
 _atom_site_symmetry_multiplicity
 _atom_site_fract_x
 _atom_site_fract_y
 _atom_site_fract_z
 _atom_site_occupancy
  Ca  Ca0  1  0.000000  0.000000  0.000000  1
  S  S1  1  0.081380  0.583354  0.753217  1
  S  S2  1  0.583354  0.081380  0.753217  1
  S  S3  1  0.918620  0.416646  0.246783  1
  S  S4  1  0.416646  0.918620  0.246783  1
  I  I5  1  0.000000  0.000000  0.500000  1
  I  I6  1  0.500000  0.500000  0.500000  1
  O  O7  1  0.321747  0.634993  0.681807  1
  O  O8  1  0.634993  0.321747  0.681807  1
  O  O9  1  0.678253  0.365007  0.318193  1
  O  O10  1  0.365007  0.678253  0.318193  1
  O  O11  1  0.017163  0.703796  0.867436  1
  O  O12  1  0.703796  0.017163  0.867436  1
  O  O13  1  0.982837  0.296204  0.132564  1
  O  O14  1  0.296204  0.982837  0.132564  1
  O  O15  1  0.983382  0.665179  0.613006  1
  O  O16  1  0.665179  0.983382  0.613006  1
  O  O17  1  0.016618  0.334821  0.386994  1
  O  O18  1  0.334821  0.016618  0.386994  1
  O  O19  1  0.032198  0.357342  0.805431  1
  O  O20  1  0.357342  0.032198  0.805431  1
  O  O21  1  0.967802  0.642658  0.194569  1
  O  O22  1  0.642658  0.967802  0.194569  1
