# generated using pymatgen
data_LaEr(LuSb)3
_symmetry_space_group_name_H-M   'P 1'
_cell_length_a   8.18078600
_cell_length_b   9.37512300
_cell_length_c   12.05808900
_cell_angle_alpha   90.00000000
_cell_angle_beta   90.00000000
_cell_angle_gamma   90.00000000
_symmetry_Int_Tables_number   1
_chemical_formula_structural   LaEr(LuSb)3
_chemical_formula_sum   'La4 Er4 Lu12 Sb12'
_cell_volume   924.80568652
_cell_formula_units_Z   4
loop_
 _symmetry_equiv_pos_site_id
 _symmetry_equiv_pos_as_xyz
  1  'x, y, z'
loop_
 _atom_site_type_symbol
 _atom_site_label
 _atom_site_symmetry_multiplicity
 _atom_site_fract_x
 _atom_site_fract_y
 _atom_site_fract_z
 _atom_site_occupancy
  La  La0  1  0.180973  0.750000  0.720597  1
  La  La1  1  0.680973  0.750000  0.779403  1
  La  La2  1  0.819027  0.250000  0.279403  1
  La  La3  1  0.319027  0.250000  0.220597  1
  Er  Er4  1  0.025019  0.750000  0.988988  1
  Er  Er5  1  0.525019  0.750000  0.511012  1
  Er  Er6  1  0.974981  0.250000  0.011012  1
  Er  Er7  1  0.474981  0.250000  0.488988  1
  Lu  Lu8  1  0.191417  0.563060  0.435850  1
  Lu  Lu9  1  0.691417  0.936940  0.064150  1
  Lu  Lu10  1  0.808583  0.063060  0.564150  1
  Lu  Lu11  1  0.308583  0.436940  0.935850  1
  Lu  Lu12  1  0.808583  0.436940  0.564150  1
  Lu  Lu13  1  0.308583  0.063060  0.935850  1
  Lu  Lu14  1  0.191417  0.936940  0.435850  1
  Lu  Lu15  1  0.691417  0.563060  0.064150  1
  Lu  Lu16  1  0.853789  0.750000  0.280845  1
  Lu  Lu17  1  0.353789  0.750000  0.219155  1
  Lu  Lu18  1  0.146211  0.250000  0.719155  1
  Lu  Lu19  1  0.646211  0.250000  0.780845  1
  Sb  Sb20  1  0.933964  0.488236  0.830122  1
  Sb  Sb21  1  0.433964  0.011764  0.669878  1
  Sb  Sb22  1  0.066036  0.988236  0.169878  1
  Sb  Sb23  1  0.566036  0.511764  0.330122  1
  Sb  Sb24  1  0.066036  0.511764  0.169878  1
  Sb  Sb25  1  0.566036  0.988236  0.330122  1
  Sb  Sb26  1  0.933964  0.011764  0.830122  1
  Sb  Sb27  1  0.433964  0.488236  0.669878  1
  Sb  Sb28  1  0.906350  0.750000  0.530349  1
  Sb  Sb29  1  0.406350  0.750000  0.969651  1
  Sb  Sb30  1  0.093650  0.250000  0.469651  1
  Sb  Sb31  1  0.593650  0.250000  0.030349  1
