# generated using pymatgen
data_La3Er4Co4Sn13
_symmetry_space_group_name_H-M   'P 1'
_cell_length_a   11.22298900
_cell_length_b   11.22298900
_cell_length_c   4.55327200
_cell_angle_alpha   90.00000000
_cell_angle_beta   90.00000000
_cell_angle_gamma   90.00000000
_symmetry_Int_Tables_number   1
_chemical_formula_structural   La3Er4Co4Sn13
_chemical_formula_sum   'La3 Er4 Co4 Sn13'
_cell_volume   573.50956987
_cell_formula_units_Z   1
loop_
 _symmetry_equiv_pos_site_id
 _symmetry_equiv_pos_as_xyz
  1  'x, y, z'
loop_
 _atom_site_type_symbol
 _atom_site_label
 _atom_site_symmetry_multiplicity
 _atom_site_fract_x
 _atom_site_fract_y
 _atom_site_fract_z
 _atom_site_occupancy
  La  La0  1  0.000000  0.000000  0.000000  1
  La  La1  1  0.500000  0.000000  0.500000  1
  La  La2  1  0.000000  0.500000  0.500000  1
  Er  Er3  1  0.336048  0.672358  0.500000  1
  Er  Er4  1  0.663952  0.327642  0.500000  1
  Er  Er5  1  0.327642  0.336048  0.500000  1
  Er  Er6  1  0.672358  0.663952  0.500000  1
  Co  Co7  1  0.122609  0.721223  0.000000  1
  Co  Co8  1  0.877391  0.278777  0.000000  1
  Co  Co9  1  0.278777  0.122609  0.000000  1
  Co  Co10  1  0.721223  0.877391  0.000000  1
  Sn  Sn11  1  0.284774  0.887852  0.000000  1
  Sn  Sn12  1  0.715226  0.112148  0.000000  1
  Sn  Sn13  1  0.112148  0.284774  0.000000  1
  Sn  Sn14  1  0.887852  0.715226  0.000000  1
  Sn  Sn15  1  0.079351  0.803409  0.500000  1
  Sn  Sn16  1  0.920649  0.196591  0.500000  1
  Sn  Sn17  1  0.196591  0.079351  0.500000  1
  Sn  Sn18  1  0.803409  0.920649  0.500000  1
  Sn  Sn19  1  0.520175  0.778828  0.000000  1
  Sn  Sn20  1  0.479825  0.221172  0.000000  1
  Sn  Sn21  1  0.221172  0.520175  0.000000  1
  Sn  Sn22  1  0.778828  0.479825  0.000000  1
  Sn  Sn23  1  0.500000  0.500000  0.000000  1
