# generated using pymatgen
data_SmPu3(B4W)4
_symmetry_space_group_name_H-M   'P 1'
_cell_length_a   6.04912302
_cell_length_b   11.71522439
_cell_length_c   3.64303800
_cell_angle_alpha   90.00000000
_cell_angle_beta   90.00000000
_cell_angle_gamma   89.94946607
_symmetry_Int_Tables_number   1
_chemical_formula_structural   SmPu3(B4W)4
_chemical_formula_sum   'Sm1 Pu3 B16 W4'
_cell_volume   258.17046706
_cell_formula_units_Z   1
loop_
 _symmetry_equiv_pos_site_id
 _symmetry_equiv_pos_as_xyz
  1  'x, y, z'
loop_
 _atom_site_type_symbol
 _atom_site_label
 _atom_site_symmetry_multiplicity
 _atom_site_fract_x
 _atom_site_fract_y
 _atom_site_fract_z
 _atom_site_occupancy
  Sm  Sm0  1  0.626009  0.349551  0.000000  1
  Pu  Pu1  1  0.373825  0.650721  0.000000  1
  Pu  Pu2  1  0.125483  0.150481  0.000000  1
  Pu  Pu3  1  0.873886  0.849203  0.000000  1
  B  B4  1  0.789251  0.185404  0.500000  1
  B  B5  1  0.212167  0.813133  0.500000  1
  B  B6  1  0.284841  0.312301  0.500000  1
  B  B7  1  0.711537  0.687153  0.500000  1
  B  B8  1  0.866777  0.031510  0.500000  1
  B  B9  1  0.133814  0.967430  0.500000  1
  B  B10  1  0.365328  0.469308  0.500000  1
  B  B11  1  0.634118  0.533890  0.500000  1
  B  B12  1  0.887469  0.454176  0.500000  1
  B  B13  1  0.115728  0.548400  0.500000  1
  B  B14  1  0.384185  0.046851  0.500000  1
  B  B15  1  0.615261  0.952313  0.500000  1
  B  B16  1  0.977491  0.307004  0.500000  1
  B  B17  1  0.024992  0.693112  0.500000  1
  B  B18  1  0.472817  0.191399  0.500000  1
  B  B19  1  0.524631  0.806973  0.500000  1
  W  W20  1  0.632912  0.084081  0.000000  1
  W  W21  1  0.367823  0.912944  0.000000  1
  W  W22  1  0.131299  0.415202  0.000000  1
  W  W23  1  0.868356  0.587463  0.000000  1
