# generated using pymatgen
data_Li4MgRh3O8
_symmetry_space_group_name_H-M   'P 1'
_cell_length_a   6.08178300
_cell_length_b   5.95155513
_cell_length_c   8.49090659
_cell_angle_alpha   91.74354355
_cell_angle_beta   90.00046744
_cell_angle_gamma   90.00176997
_symmetry_Int_Tables_number   1
_chemical_formula_structural   Li4MgRh3O8
_chemical_formula_sum   'Li8 Mg2 Rh6 O16'
_cell_volume   307.19513244
_cell_formula_units_Z   2
loop_
 _symmetry_equiv_pos_site_id
 _symmetry_equiv_pos_as_xyz
  1  'x, y, z'
loop_
 _atom_site_type_symbol
 _atom_site_label
 _atom_site_symmetry_multiplicity
 _atom_site_fract_x
 _atom_site_fract_y
 _atom_site_fract_z
 _atom_site_occupancy
  Li  Li0  1  0.250017  0.249995  0.250005  1
  Li  Li1  1  0.750005  0.749975  0.750013  1
  Li  Li2  1  0.250020  0.749991  0.749993  1
  Li  Li3  1  0.750004  0.249985  0.250033  1
  Li  Li4  1  0.000161  0.999863  0.499965  1
  Li  Li5  1  0.499855  0.500125  0.000092  1
  Li  Li6  1  0.999907  0.499895  0.000115  1
  Li  Li7  1  0.500110  0.000058  0.499957  1
  Mg  Mg8  1  0.250001  0.250018  0.750000  1
  Mg  Mg9  1  0.750004  0.749992  0.249995  1
  Rh  Rh10  1  0.749975  0.250034  0.749978  1
  Rh  Rh11  1  0.000181  0.499922  0.499972  1
  Rh  Rh12  1  0.499832  0.000090  0.000016  1
  Rh  Rh13  1  0.249999  0.749980  0.250003  1
  Rh  Rh14  1  0.999776  0.000023  0.000025  1
  Rh  Rh15  1  0.500228  0.499999  0.499964  1
  O  O16  1  0.249780  0.764262  0.006889  1
  O  O17  1  0.750214  0.264302  0.506812  1
  O  O18  1  0.250226  0.735736  0.493153  1
  O  O19  1  0.749784  0.235717  0.993119  1
  O  O20  1  0.249782  0.236584  0.996878  1
  O  O21  1  0.750229  0.736556  0.496872  1
  O  O22  1  0.250215  0.263406  0.503105  1
  O  O23  1  0.749776  0.763420  0.003117  1
  O  O24  1  0.004023  0.510758  0.256665  1
  O  O25  1  0.503894  0.010866  0.756706  1
  O  O26  1  0.495965  0.989198  0.243319  1
  O  O27  1  0.996093  0.489144  0.743257  1
  O  O28  1  0.003892  0.989119  0.243330  1
  O  O29  1  0.504023  0.489295  0.743267  1
  O  O30  1  0.496135  0.510856  0.256661  1
  O  O31  1  0.995895  0.010833  0.756722  1
