# generated using pymatgen
data_CeGdCS
_symmetry_space_group_name_H-M   'P 1'
_cell_length_a   6.81553922
_cell_length_b   6.81553846
_cell_length_c   6.81553756
_cell_angle_alpha   32.26962839
_cell_angle_beta   32.26963434
_cell_angle_gamma   32.26961754
_symmetry_Int_Tables_number   1
_chemical_formula_structural   CeGdCS
_chemical_formula_sum   'Ce1 Gd1 C1 S1'
_cell_volume   80.21704165
_cell_formula_units_Z   1
loop_
 _symmetry_equiv_pos_site_id
 _symmetry_equiv_pos_as_xyz
  1  'x, y, z'
loop_
 _atom_site_type_symbol
 _atom_site_label
 _atom_site_symmetry_multiplicity
 _atom_site_fract_x
 _atom_site_fract_y
 _atom_site_fract_z
 _atom_site_occupancy
  Ce  Ce0  1  0.513117  0.513117  0.513117  1
  Gd  Gd1  1  0.990295  0.990295  0.990295  1
  C  C2  1  0.247875  0.247875  0.247875  1
  S  S3  1  0.748714  0.748714  0.748714  1
