# generated using pymatgen
data_PrCuPdO4
_symmetry_space_group_name_H-M   'P 1'
_cell_length_a   6.50051016
_cell_length_b   6.50050970
_cell_length_c   6.55281072
_cell_angle_alpha   126.88117407
_cell_angle_beta   125.06907005
_cell_angle_gamma   79.38712368
_symmetry_Int_Tables_number   1
_chemical_formula_structural   PrCuPdO4
_chemical_formula_sum   'Pr2 Cu2 Pd2 O8'
_cell_volume   175.73515194
_cell_formula_units_Z   2
loop_
 _symmetry_equiv_pos_site_id
 _symmetry_equiv_pos_as_xyz
  1  'x, y, z'
loop_
 _atom_site_type_symbol
 _atom_site_label
 _atom_site_symmetry_multiplicity
 _atom_site_fract_x
 _atom_site_fract_y
 _atom_site_fract_z
 _atom_site_occupancy
  Pr  Pr0  1  0.750409  0.250409  0.500000  1
  Pr  Pr1  1  0.999591  0.999591  0.000000  1
  Cu  Cu2  1  0.875000  0.625000  0.250000  1
  Cu  Cu3  1  0.375000  0.625000  0.750000  1
  Pd  Pd4  1  0.375000  0.625000  0.250000  1
  Pd  Pd5  1  0.375000  0.125000  0.750000  1
  O  O6  1  0.591142  0.937475  0.937852  1
  O  O7  1  0.400561  0.835637  0.126138  1
  O  O8  1  0.709500  0.274422  0.873862  1
  O  O9  1  0.999622  0.653291  0.062148  1
  O  O10  1  0.158858  0.312525  0.562148  1
  O  O11  1  0.349439  0.414363  0.373862  1
  O  O12  1  0.750378  0.596709  0.437852  1
  O  O13  1  0.040500  0.975578  0.626138  1
