# generated using pymatgen
data_Hf7ZrNb2(Sn3H)2
_symmetry_space_group_name_H-M   'P 1'
_cell_length_a   8.39430486
_cell_length_b   8.39508795
_cell_length_c   5.73225192
_cell_angle_alpha   90.36091142
_cell_angle_beta   89.81953845
_cell_angle_gamma   120.00307604
_symmetry_Int_Tables_number   1
_chemical_formula_structural   Hf7ZrNb2(Sn3H)2
_chemical_formula_sum   'Hf7 Zr1 Nb2 Sn6 H2'
_cell_volume   349.81933446
_cell_formula_units_Z   1
loop_
 _symmetry_equiv_pos_site_id
 _symmetry_equiv_pos_as_xyz
  1  'x, y, z'
loop_
 _atom_site_type_symbol
 _atom_site_label
 _atom_site_symmetry_multiplicity
 _atom_site_fract_x
 _atom_site_fract_y
 _atom_site_fract_z
 _atom_site_occupancy
  Hf  Hf0  1  0.331634  0.665598  0.472637  1
  Hf  Hf1  1  0.668366  0.333963  0.472637  1
  Hf  Hf2  1  0.758795  0.759569  0.721402  1
  Hf  Hf3  1  0.241205  0.000773  0.721402  1
  Hf  Hf4  1  0.000000  0.239515  0.710500  1
  Hf  Hf5  1  0.240956  0.240653  0.224615  1
  Hf  Hf6  1  0.759044  0.999697  0.224615  1
  Zr  Zr7  1  0.000000  0.759155  0.231870  1
  Nb  Nb8  1  0.665056  0.332497  0.972413  1
  Nb  Nb9  1  0.334944  0.667441  0.972413  1
  Sn  Sn10  1  0.395616  0.395646  0.727966  1
  Sn  Sn11  1  0.604384  0.000030  0.727966  1
  Sn  Sn12  1  0.000000  0.604477  0.733600  1
  Sn  Sn13  1  0.603445  0.603737  0.217719  1
  Sn  Sn14  1  0.396555  0.000291  0.217719  1
  Sn  Sn15  1  0.000000  0.394349  0.209495  1
  H  H16  1  0.000000  0.001387  0.180614  1
  H  H17  1  0.000000  0.001221  0.760418  1
