# generated using pymatgen
data_Tm12Co5Sb
_symmetry_space_group_name_H-M   'P 1'
_cell_length_a   8.14946597
_cell_length_b   8.14946547
_cell_length_c   8.14946563
_cell_angle_alpha   110.93206037
_cell_angle_beta   110.93774510
_cell_angle_gamma   106.58192747
_symmetry_Int_Tables_number   1
_chemical_formula_structural   Tm12Co5Sb
_chemical_formula_sum   'Tm12 Co5 Sb1'
_cell_volume   415.85478043
_cell_formula_units_Z   1
loop_
 _symmetry_equiv_pos_site_id
 _symmetry_equiv_pos_as_xyz
  1  'x, y, z'
loop_
 _atom_site_type_symbol
 _atom_site_label
 _atom_site_symmetry_multiplicity
 _atom_site_fract_x
 _atom_site_fract_y
 _atom_site_fract_z
 _atom_site_occupancy
  Tm  Tm0  1  0.285561  0.184185  0.469747  1
  Tm  Tm1  1  0.714439  0.815815  0.530253  1
  Tm  Tm2  1  0.285561  0.815815  0.101375  1
  Tm  Tm3  1  0.714439  0.184185  0.898625  1
  Tm  Tm4  1  0.619629  0.312518  0.307112  1
  Tm  Tm5  1  0.380371  0.687482  0.692888  1
  Tm  Tm6  1  0.005406  0.312518  0.692888  1
  Tm  Tm7  1  0.994594  0.687482  0.307112  1
  Tm  Tm8  1  0.212655  0.408018  0.195363  1
  Tm  Tm9  1  0.787345  0.591982  0.804637  1
  Tm  Tm10  1  0.212655  0.017292  0.804637  1
  Tm  Tm11  1  0.787345  0.982708  0.195363  1
  Co  Co12  1  0.000000  0.373453  0.373453  1
  Co  Co13  1  0.000000  0.626547  0.626547  1
  Co  Co14  1  0.387607  0.887607  0.500000  1
  Co  Co15  1  0.612393  0.112393  0.500000  1
  Co  Co16  1  0.000000  0.000000  0.000000  1
  Sb  Sb17  1  0.500000  0.500000  0.000000  1
