# generated using pymatgen
data_Pr4Al4Ga14Ir5Pt
_symmetry_space_group_name_H-M   'P 1'
_cell_length_a   7.67543907
_cell_length_b   7.67543817
_cell_length_c   9.63382600
_cell_angle_alpha   90.00059454
_cell_angle_beta   90.00059146
_cell_angle_gamma   119.57556461
_symmetry_Int_Tables_number   1
_chemical_formula_structural   Pr4Al4Ga14Ir5Pt
_chemical_formula_sum   'Pr4 Al4 Ga14 Ir5 Pt1'
_cell_volume   493.60258324
_cell_formula_units_Z   1
loop_
 _symmetry_equiv_pos_site_id
 _symmetry_equiv_pos_as_xyz
  1  'x, y, z'
loop_
 _atom_site_type_symbol
 _atom_site_label
 _atom_site_symmetry_multiplicity
 _atom_site_fract_x
 _atom_site_fract_y
 _atom_site_fract_z
 _atom_site_occupancy
  Pr  Pr0  1  0.000215  0.669444  0.250386  1
  Pr  Pr1  1  0.999527  0.329827  0.749834  1
  Pr  Pr2  1  0.670173  0.000473  0.250166  1
  Pr  Pr3  1  0.330556  0.999785  0.749614  1
  Al  Al4  1  0.332233  0.332268  0.547507  1
  Al  Al5  1  0.667732  0.667767  0.452493  1
  Al  Al6  1  0.667435  0.670867  0.049419  1
  Al  Al7  1  0.329133  0.332565  0.950581  1
  Ga  Ga8  1  0.127527  0.126622  0.250218  1
  Ga  Ga9  1  0.873378  0.872473  0.749782  1
  Ga  Ga10  1  0.005792  0.335199  0.079320  1
  Ga  Ga11  1  0.000717  0.667937  0.920921  1
  Ga  Ga12  1  0.997603  0.664506  0.577437  1
  Ga  Ga13  1  0.335494  0.002397  0.422563  1
  Ga  Ga14  1  0.002674  0.335333  0.422554  1
  Ga  Ga15  1  0.664667  0.997326  0.577446  1
  Ga  Ga16  1  0.664801  0.994208  0.920680  1
  Ga  Ga17  1  0.332063  0.999283  0.079079  1
  Ga  Ga18  1  0.349521  0.549938  0.250150  1
  Ga  Ga19  1  0.651013  0.452619  0.747297  1
  Ga  Ga20  1  0.547381  0.348987  0.252703  1
  Ga  Ga21  1  0.450062  0.650479  0.749850  1
  Ir  Ir22  1  0.332084  0.667916  0.000000  1
  Ir  Ir23  1  0.331679  0.668321  0.500000  1
  Ir  Ir24  1  0.668636  0.331364  0.500000  1
  Ir  Ir25  1  0.000282  0.999718  0.000000  1
  Ir  Ir26  1  0.999900  0.000100  0.500000  1
  Pt  Pt27  1  0.667723  0.332277  0.000000  1
