# generated using pymatgen
data_Er4Al24Cu2Pd6Rh
_symmetry_space_group_name_H-M   'P 1'
_cell_length_a   7.50427551
_cell_length_b   7.52977511
_cell_length_c   13.06694440
_cell_angle_alpha   84.72156972
_cell_angle_beta   79.09082596
_cell_angle_gamma   59.95716440
_symmetry_Int_Tables_number   1
_chemical_formula_structural   Er4Al24Cu2Pd6Rh
_chemical_formula_sum   'Er4 Al24 Cu2 Pd6 Rh1'
_cell_volume   627.60353737
_cell_formula_units_Z   1
loop_
 _symmetry_equiv_pos_site_id
 _symmetry_equiv_pos_as_xyz
  1  'x, y, z'
loop_
 _atom_site_type_symbol
 _atom_site_label
 _atom_site_symmetry_multiplicity
 _atom_site_fract_x
 _atom_site_fract_y
 _atom_site_fract_z
 _atom_site_occupancy
  Er  Er0  1  0.392888  0.169223  0.808070  1
  Er  Er1  1  0.607112  0.830777  0.191930  1
  Er  Er2  1  0.734027  0.498642  0.808078  1
  Er  Er3  1  0.265973  0.501358  0.191922  1
  Al  Al4  1  0.686692  0.830334  0.945961  1
  Al  Al5  1  0.313308  0.169666  0.054039  1
  Al  Al6  1  0.144885  0.833492  0.563447  1
  Al  Al7  1  0.855115  0.166508  0.436553  1
  Al  Al8  1  0.478363  0.167605  0.561178  1
  Al  Al9  1  0.521637  0.832395  0.438822  1
  Al  Al10  1  0.214303  0.168121  0.327629  1
  Al  Al11  1  0.785697  0.831879  0.672371  1
  Al  Al12  1  0.432567  0.507228  0.672778  1
  Al  Al13  1  0.567433  0.492772  0.327222  1
  Al  Al14  1  0.109606  0.162613  0.670722  1
  Al  Al15  1  0.890394  0.837387  0.329278  1
  Al  Al16  1  0.349639  0.498784  0.945820  1
  Al  Al17  1  0.650361  0.501216  0.054180  1
  Al  Al18  1  0.014986  0.171474  0.955087  1
  Al  Al19  1  0.985014  0.828526  0.044913  1
  Al  Al20  1  0.185229  0.499795  0.442022  1
  Al  Al21  1  0.814771  0.500205  0.557978  1
  Al  Al22  1  0.733189  0.163982  0.183803  1
  Al  Al23  1  0.266811  0.836018  0.816197  1
  Al  Al24  1  0.061166  0.627007  0.815657  1
  Al  Al25  1  0.938834  0.372993  0.184343  1
  Al  Al26  1  0.855249  0.042354  0.816084  1
  Al  Al27  1  0.144751  0.957646  0.183916  1
  Cu  Cu28  1  0.119253  0.492311  0.639590  1
  Cu  Cu29  1  0.880747  0.507689  0.360410  1
  Pd  Pd30  1  0.656857  0.171637  0.999882  1
  Pd  Pd31  1  0.343143  0.828363  0.000118  1
  Pd  Pd32  1  0.536120  0.167492  0.363188  1
  Pd  Pd33  1  0.463880  0.832508  0.636812  1
  Pd  Pd34  1  0.778679  0.176376  0.636388  1
  Pd  Pd35  1  0.221321  0.823624  0.363612  1
  Rh  Rh36  1  0.000000  0.500000  0.000000  1
