# generated using pymatgen
data_La2CoB10
_symmetry_space_group_name_H-M   'P 1'
_cell_length_a   4.21403100
_cell_length_b   5.66695900
_cell_length_c   11.28654500
_cell_angle_alpha   90.00000000
_cell_angle_beta   90.00000000
_cell_angle_gamma   90.00000000
_symmetry_Int_Tables_number   1
_chemical_formula_structural   La2CoB10
_chemical_formula_sum   'La4 Co2 B20'
_cell_volume   269.53105682
_cell_formula_units_Z   2
loop_
 _symmetry_equiv_pos_site_id
 _symmetry_equiv_pos_as_xyz
  1  'x, y, z'
loop_
 _atom_site_type_symbol
 _atom_site_label
 _atom_site_symmetry_multiplicity
 _atom_site_fract_x
 _atom_site_fract_y
 _atom_site_fract_z
 _atom_site_occupancy
  La  La0  1  0.500000  0.300616  0.865523  1
  La  La1  1  0.500000  0.699384  0.134477  1
  La  La2  1  0.500000  0.800616  0.634477  1
  La  La3  1  0.500000  0.199384  0.365523  1
  Co  Co4  1  0.000000  0.500000  0.500000  1
  Co  Co5  1  0.000000  0.000000  0.000000  1
  B  B6  1  0.000000  0.127773  0.540941  1
  B  B7  1  0.000000  0.872227  0.459059  1
  B  B8  1  0.000000  0.627773  0.959059  1
  B  B9  1  0.000000  0.372227  0.040941  1
  B  B10  1  0.000000  0.155130  0.696967  1
  B  B11  1  0.000000  0.844870  0.303033  1
  B  B12  1  0.298145  0.200972  0.112853  1
  B  B13  1  0.298145  0.799028  0.887147  1
  B  B14  1  0.701855  0.700972  0.387147  1
  B  B15  1  0.701855  0.299028  0.612853  1
  B  B16  1  0.701855  0.799028  0.887147  1
  B  B17  1  0.701855  0.200972  0.112853  1
  B  B18  1  0.298145  0.299028  0.612853  1
  B  B19  1  0.298145  0.700972  0.387147  1
  B  B20  1  0.000000  0.036012  0.187217  1
  B  B21  1  0.000000  0.963988  0.812783  1
  B  B22  1  0.000000  0.536012  0.312783  1
  B  B23  1  0.000000  0.463988  0.687217  1
  B  B24  1  0.000000  0.344870  0.196967  1
  B  B25  1  0.000000  0.655130  0.803033  1
