# generated using pymatgen
data_TbDy15Zn3CdCo4
_symmetry_space_group_name_H-M   'P 1'
_cell_length_a   9.39695328
_cell_length_b   9.38959569
_cell_length_c   9.39085600
_cell_angle_alpha   60.01074353
_cell_angle_beta   60.03007004
_cell_angle_gamma   60.02647499
_symmetry_Int_Tables_number   1
_chemical_formula_structural   TbDy15Zn3CdCo4
_chemical_formula_sum   'Tb1 Dy15 Zn3 Cd1 Co4'
_cell_volume   586.19874042
_cell_formula_units_Z   1
loop_
 _symmetry_equiv_pos_site_id
 _symmetry_equiv_pos_as_xyz
  1  'x, y, z'
loop_
 _atom_site_type_symbol
 _atom_site_label
 _atom_site_symmetry_multiplicity
 _atom_site_fract_x
 _atom_site_fract_y
 _atom_site_fract_z
 _atom_site_occupancy
  Tb  Tb0  1  0.150776  0.545513  0.151746  1
  Dy  Dy1  1  0.690063  0.309713  0.690477  1
  Dy  Dy2  1  0.690267  0.309713  0.309685  1
  Dy  Dy3  1  0.938499  0.562167  0.562180  1
  Dy  Dy4  1  0.549420  0.150244  0.150067  1
  Dy  Dy5  1  0.150665  0.151808  0.545682  1
  Dy  Dy6  1  0.938573  0.937180  0.562103  1
  Dy  Dy7  1  0.310060  0.689400  0.311211  1
  Dy  Dy8  1  0.566181  0.937734  0.937799  1
  Dy  Dy9  1  0.566243  0.937722  0.558288  1
  Dy  Dy10  1  0.690219  0.690376  0.309674  1
  Dy  Dy11  1  0.566246  0.558306  0.937745  1
  Dy  Dy12  1  0.938506  0.562128  0.937200  1
  Dy  Dy13  1  0.310062  0.689198  0.689462  1
  Dy  Dy14  1  0.150764  0.151978  0.151788  1
  Dy  Dy15  1  0.310074  0.311245  0.689506  1
  Zn  Zn16  1  0.917233  0.237926  0.922405  1
  Zn  Zn17  1  0.917235  0.922431  0.922422  1
  Zn  Zn18  1  0.917223  0.922396  0.237964  1
  Cd  Cd19  1  0.229782  0.923403  0.923389  1
  Co  Co20  1  0.359217  0.357935  0.924887  1
  Co  Co21  1  0.359257  0.924857  0.357882  1
  Co  Co22  1  0.924172  0.358630  0.358544  1
  Co  Co23  1  0.359264  0.357997  0.357892  1
