# generated using pymatgen
data_Tb2Ga5Ir3
_symmetry_space_group_name_H-M   'P 1'
_cell_length_a   8.60422580
_cell_length_b   8.60422614
_cell_length_c   8.60422608
_cell_angle_alpha   141.23205883
_cell_angle_beta   109.15595929
_cell_angle_gamma   83.80980988
_symmetry_Int_Tables_number   1
_chemical_formula_structural   Tb2Ga5Ir3
_chemical_formula_sum   'Tb4 Ga10 Ir6'
_cell_volume   364.79143775
_cell_formula_units_Z   2
loop_
 _symmetry_equiv_pos_site_id
 _symmetry_equiv_pos_as_xyz
  1  'x, y, z'
loop_
 _atom_site_type_symbol
 _atom_site_label
 _atom_site_symmetry_multiplicity
 _atom_site_fract_x
 _atom_site_fract_y
 _atom_site_fract_z
 _atom_site_occupancy
  Tb  Tb0  1  0.411047  0.640089  0.770959  1
  Tb  Tb1  1  0.588953  0.359911  0.229041  1
  Tb  Tb2  1  0.130870  0.859911  0.270959  1
  Tb  Tb3  1  0.869130  0.140089  0.729041  1
  Ga  Ga4  1  0.736110  0.912488  0.823623  1
  Ga  Ga5  1  0.263890  0.087512  0.176377  1
  Ga  Ga6  1  0.911135  0.587512  0.323623  1
  Ga  Ga7  1  0.088865  0.412488  0.676377  1
  Ga  Ga8  1  0.203852  0.953852  0.750000  1
  Ga  Ga9  1  0.796148  0.546148  0.750000  1
  Ga  Ga10  1  0.796148  0.046148  0.250000  1
  Ga  Ga11  1  0.203852  0.453852  0.250000  1
  Ga  Ga12  1  0.500000  0.750000  0.250000  1
  Ga  Ga13  1  0.500000  0.250000  0.750000  1
  Ir  Ir14  1  0.000000  0.750000  0.750000  1
  Ir  Ir15  1  0.000000  0.250000  0.250000  1
  Ir  Ir16  1  0.441426  0.849673  0.591752  1
  Ir  Ir17  1  0.558574  0.150327  0.408248  1
  Ir  Ir18  1  0.742080  0.650327  0.091752  1
  Ir  Ir19  1  0.257920  0.349673  0.908248  1
