# generated using pymatgen
data_Er2Tm2Hf5Si8Mo
_symmetry_space_group_name_H-M   'P 1'
_cell_length_a   7.20159640
_cell_length_b   6.95125764
_cell_length_c   7.16252350
_cell_angle_alpha   71.88803290
_cell_angle_beta   89.83408418
_cell_angle_gamma   90.02840907
_symmetry_Int_Tables_number   1
_chemical_formula_structural   Er2Tm2Hf5Si8Mo
_chemical_formula_sum   'Er2 Tm2 Hf5 Si8 Mo1'
_cell_volume   340.78901318
_cell_formula_units_Z   1
loop_
 _symmetry_equiv_pos_site_id
 _symmetry_equiv_pos_as_xyz
  1  'x, y, z'
loop_
 _atom_site_type_symbol
 _atom_site_label
 _atom_site_symmetry_multiplicity
 _atom_site_fract_x
 _atom_site_fract_y
 _atom_site_fract_z
 _atom_site_occupancy
  Er  Er0  1  0.326102  0.569461  0.807935  1
  Er  Er1  1  0.830119  0.928012  0.192434  1
  Tm  Tm2  1  0.674048  0.430421  0.192296  1
  Tm  Tm3  1  0.169967  0.072066  0.807348  1
  Hf  Hf4  1  0.499953  0.000094  0.500078  1
  Hf  Hf5  1  0.177033  0.253143  0.251811  1
  Hf  Hf6  1  0.681922  0.253560  0.746520  1
  Hf  Hf7  1  0.823085  0.746951  0.748251  1
  Hf  Hf8  1  0.318224  0.746382  0.253434  1
  Si  Si9  1  0.468879  0.131827  0.082424  1
  Si  Si10  1  0.969340  0.368108  0.915517  1
  Si  Si11  1  0.530860  0.868884  0.917369  1
  Si  Si12  1  0.030427  0.631202  0.084698  1
  Si  Si13  1  0.878016  0.133975  0.490911  1
  Si  Si14  1  0.374306  0.369985  0.509777  1
  Si  Si15  1  0.122042  0.866476  0.509167  1
  Si  Si16  1  0.625741  0.629639  0.490077  1
  Mo  Mo17  1  0.999937  0.499815  0.499953  1
