# generated using pymatgen
data_Y2Ga9PtRh2
_symmetry_space_group_name_H-M   'P 1'
_cell_length_a   7.60955546
_cell_length_b   7.60955536
_cell_length_c   9.52220933
_cell_angle_alpha   89.95213024
_cell_angle_beta   89.95213317
_cell_angle_gamma   119.75460567
_symmetry_Int_Tables_number   1
_chemical_formula_structural   Y2Ga9PtRh2
_chemical_formula_sum   'Y4 Ga18 Pt2 Rh4'
_cell_volume   478.69062694
_cell_formula_units_Z   2
loop_
 _symmetry_equiv_pos_site_id
 _symmetry_equiv_pos_as_xyz
  1  'x, y, z'
loop_
 _atom_site_type_symbol
 _atom_site_label
 _atom_site_symmetry_multiplicity
 _atom_site_fract_x
 _atom_site_fract_y
 _atom_site_fract_z
 _atom_site_occupancy
  Y  Y0  1  0.998578  0.667753  0.250160  1
  Y  Y1  1  0.001422  0.332247  0.749840  1
  Y  Y2  1  0.667753  0.998578  0.250160  1
  Y  Y3  1  0.332247  0.001422  0.749840  1
  Ga  Ga4  1  0.330821  0.330822  0.563324  1
  Ga  Ga5  1  0.669178  0.669179  0.436676  1
  Ga  Ga6  1  0.671788  0.671789  0.066282  1
  Ga  Ga7  1  0.328211  0.328212  0.933718  1
  Ga  Ga8  1  0.340959  0.544940  0.253430  1
  Ga  Ga9  1  0.659041  0.455060  0.746570  1
  Ga  Ga10  1  0.544940  0.340959  0.253430  1
  Ga  Ga11  1  0.455060  0.659041  0.746570  1
  Ga  Ga12  1  0.000274  0.330766  0.081521  1
  Ga  Ga13  1  0.999726  0.669234  0.918479  1
  Ga  Ga14  1  0.000279  0.665637  0.578678  1
  Ga  Ga15  1  0.334363  0.999721  0.421322  1
  Ga  Ga16  1  0.999721  0.334363  0.421322  1
  Ga  Ga17  1  0.665637  0.000279  0.578678  1
  Ga  Ga18  1  0.669234  0.999726  0.918479  1
  Ga  Ga19  1  0.330766  0.000274  0.081521  1
  Ga  Ga20  1  0.121103  0.121103  0.250379  1
  Ga  Ga21  1  0.878897  0.878897  0.749621  1
  Pt  Pt22  1  0.671349  0.328651  0.000000  1
  Pt  Pt23  1  0.328651  0.671349  0.000000  1
  Rh  Rh24  1  0.000000  0.000000  0.000000  1
  Rh  Rh25  1  0.000000  0.000000  0.500000  1
  Rh  Rh26  1  0.328355  0.671645  0.500000  1
  Rh  Rh27  1  0.671645  0.328355  0.500000  1
