# generated using pymatgen
data_Sr2La2TiV3O12
_symmetry_space_group_name_H-M   'P 1'
_cell_length_a   5.59018384
_cell_length_b   7.89706545
_cell_length_c   5.60322181
_cell_angle_alpha   90.03877572
_cell_angle_beta   90.87194213
_cell_angle_gamma   90.13699668
_symmetry_Int_Tables_number   1
_chemical_formula_structural   Sr2La2TiV3O12
_chemical_formula_sum   'Sr2 La2 Ti1 V3 O12'
_cell_volume   247.33068412
_cell_formula_units_Z   1
loop_
 _symmetry_equiv_pos_site_id
 _symmetry_equiv_pos_as_xyz
  1  'x, y, z'
loop_
 _atom_site_type_symbol
 _atom_site_label
 _atom_site_symmetry_multiplicity
 _atom_site_fract_x
 _atom_site_fract_y
 _atom_site_fract_z
 _atom_site_occupancy
  Sr  Sr0  1  0.017557  0.249389  0.496438  1
  Sr  Sr1  1  0.517934  0.249805  0.005000  1
  La  La2  1  0.975465  0.748346  0.503178  1
  La  La3  1  0.474485  0.747818  0.997988  1
  Ti  Ti4  1  0.999129  0.492772  0.004428  1
  V  V5  1  0.499039  0.497749  0.500285  1
  V  V6  1  0.500319  0.003212  0.498408  1
  V  V7  1  0.999828  0.998843  0.004298  1
  O  O8  1  0.991750  0.252907  0.946807  1
  O  O9  1  0.492642  0.249760  0.551179  1
  O  O10  1  0.011247  0.750349  0.066011  1
  O  O11  1  0.509170  0.750818  0.436556  1
  O  O12  1  0.778889  0.020817  0.275392  1
  O  O13  1  0.278352  0.480444  0.214584  1
  O  O14  1  0.786860  0.480043  0.270478  1
  O  O15  1  0.266743  0.022440  0.207546  1
  O  O16  1  0.214551  0.541928  0.730774  1
  O  O17  1  0.737346  0.962921  0.786494  1
  O  O18  1  0.223989  0.957945  0.724497  1
  O  O19  1  0.724706  0.541693  0.779655  1
