# generated using pymatgen
data_Er(ThRh2)5
_symmetry_space_group_name_H-M   'P 1'
_cell_length_a   5.97170224
_cell_length_b   5.97170264
_cell_length_c   9.24534200
_cell_angle_alpha   90.00000000
_cell_angle_beta   90.00000000
_cell_angle_gamma   104.32083778
_symmetry_Int_Tables_number   1
_chemical_formula_structural   Er(ThRh2)5
_chemical_formula_sum   'Er1 Th5 Rh10'
_cell_volume   319.45510755
_cell_formula_units_Z   1
loop_
 _symmetry_equiv_pos_site_id
 _symmetry_equiv_pos_as_xyz
  1  'x, y, z'
loop_
 _atom_site_type_symbol
 _atom_site_label
 _atom_site_symmetry_multiplicity
 _atom_site_fract_x
 _atom_site_fract_y
 _atom_site_fract_z
 _atom_site_occupancy
  Er  Er0  1  0.394346  0.394346  0.250000  1
  Th  Th1  1  0.611439  0.611439  0.750000  1
  Th  Th2  1  0.793848  0.201214  0.495718  1
  Th  Th3  1  0.201214  0.793848  0.004282  1
  Th  Th4  1  0.201214  0.793848  0.495718  1
  Th  Th5  1  0.793848  0.201214  0.004282  1
  Rh  Rh6  1  0.692759  0.692759  0.048655  1
  Rh  Rh7  1  0.692759  0.692759  0.451345  1
  Rh  Rh8  1  0.302802  0.302802  0.955887  1
  Rh  Rh9  1  0.302802  0.302802  0.544113  1
  Rh  Rh10  1  0.504212  0.052367  0.750000  1
  Rh  Rh11  1  0.495835  0.955176  0.250000  1
  Rh  Rh12  1  0.992616  0.992616  0.250000  1
  Rh  Rh13  1  0.012761  0.012761  0.750000  1
  Rh  Rh14  1  0.052367  0.504212  0.750000  1
  Rh  Rh15  1  0.955176  0.495835  0.250000  1
