# generated using pymatgen
data_PbS23
_symmetry_space_group_name_H-M   'P 1'
_cell_length_a   5.52676100
_cell_length_b   9.73169282
_cell_length_c   15.62274900
_cell_angle_alpha   89.32126794
_cell_angle_beta   87.71929618
_cell_angle_gamma   90.82233009
_symmetry_Int_Tables_number   1
_chemical_formula_structural   PbS23
_chemical_formula_sum   'Pb1 S23'
_cell_volume   839.44857520
_cell_formula_units_Z   1
loop_
 _symmetry_equiv_pos_site_id
 _symmetry_equiv_pos_as_xyz
  1  'x, y, z'
loop_
 _atom_site_type_symbol
 _atom_site_label
 _atom_site_symmetry_multiplicity
 _atom_site_fract_x
 _atom_site_fract_y
 _atom_site_fract_z
 _atom_site_occupancy
  Pb  Pb0  1  0.481748  0.177905  0.395546  1
  S  S1  1  0.516650  0.788834  0.392409  1
  S  S2  1  0.003377  0.299962  0.110523  1
  S  S3  1  0.797898  0.273825  0.504666  1
  S  S4  1  0.301688  0.760728  0.502781  1
  S  S5  1  0.195806  0.257312  0.998237  1
  S  S6  1  0.798283  0.742956  0.003723  1
  S  S7  1  0.211519  0.395344  0.369524  1
  S  S8  1  0.698237  0.606135  0.370376  1
  S  S9  1  0.800434  0.126972  0.146752  1
  S  S10  1  0.204302  0.872535  0.134694  1
  S  S11  1  0.700890  0.629387  0.634169  1
  S  S12  1  0.297966  0.375218  0.617744  1
  S  S13  1  0.202988  0.878628  0.860973  1
  S  S14  1  0.792621  0.127176  0.865764  1
  S  S15  1  0.000090  0.699784  0.108994  1
  S  S16  1  0.502101  0.802203  0.608872  1
  S  S17  1  0.515949  0.206043  0.585035  1
  S  S18  1  0.002961  0.703488  0.893455  1
  S  S19  1  0.990160  0.301499  0.894036  1
  S  S20  1  0.488383  0.484204  0.294276  1
  S  S21  1  0.009513  0.996659  0.217899  1
  S  S22  1  0.486375  0.488416  0.704069  1
  S  S23  1  0.000061  0.004785  0.785484  1
