# generated using pymatgen
data_TbHo3(AlZn)4
_symmetry_space_group_name_H-M   'P 1'
_cell_length_a   4.43466600
_cell_length_b   7.24731127
_cell_length_c   7.65852700
_cell_angle_alpha   90.03386844
_cell_angle_beta   90.00000000
_cell_angle_gamma   90.00000000
_symmetry_Int_Tables_number   1
_chemical_formula_structural   TbHo3(AlZn)4
_chemical_formula_sum   'Tb1 Ho3 Al4 Zn4'
_cell_volume   246.14045691
_cell_formula_units_Z   1
loop_
 _symmetry_equiv_pos_site_id
 _symmetry_equiv_pos_as_xyz
  1  'x, y, z'
loop_
 _atom_site_type_symbol
 _atom_site_label
 _atom_site_symmetry_multiplicity
 _atom_site_fract_x
 _atom_site_fract_y
 _atom_site_fract_z
 _atom_site_occupancy
  Tb  Tb0  1  0.250000  0.995389  0.755910  1
  Ho  Ho1  1  0.250000  0.495333  0.744302  1
  Ho  Ho2  1  0.750000  0.993994  0.244861  1
  Ho  Ho3  1  0.750000  0.494027  0.254909  1
  Al  Al4  1  0.250000  0.217749  0.415527  1
  Al  Al5  1  0.250000  0.715711  0.084207  1
  Al  Al6  1  0.750000  0.725682  0.582575  1
  Al  Al7  1  0.750000  0.230029  0.917642  1
  Zn  Zn8  1  0.250000  0.788939  0.416405  1
  Zn  Zn9  1  0.250000  0.290289  0.083402  1
  Zn  Zn10  1  0.750000  0.279079  0.582698  1
  Zn  Zn11  1  0.750000  0.773777  0.917561  1
