# generated using pymatgen
data_Sr4PrU5O18
_symmetry_space_group_name_H-M   'P 1'
_cell_length_a   6.97528175
_cell_length_b   7.77291073
_cell_length_c   8.75041222
_cell_angle_alpha   100.51829975
_cell_angle_beta   98.37149580
_cell_angle_gamma   107.24134199
_symmetry_Int_Tables_number   1
_chemical_formula_structural   Sr4PrU5O18
_chemical_formula_sum   'Sr4 Pr1 U5 O18'
_cell_volume   435.30848797
_cell_formula_units_Z   1
loop_
 _symmetry_equiv_pos_site_id
 _symmetry_equiv_pos_as_xyz
  1  'x, y, z'
loop_
 _atom_site_type_symbol
 _atom_site_label
 _atom_site_symmetry_multiplicity
 _atom_site_fract_x
 _atom_site_fract_y
 _atom_site_fract_z
 _atom_site_occupancy
  Sr  Sr0  1  0.801447  0.103818  0.585632  1
  Sr  Sr1  1  0.598353  0.696193  0.194867  1
  Sr  Sr2  1  0.401647  0.303807  0.805133  1
  Sr  Sr3  1  0.198553  0.896182  0.414368  1
  Pr  Pr4  1  0.000000  0.500000  0.000000  1
  U  U5  1  0.000000  0.000000  0.000000  1
  U  U6  1  0.794162  0.581087  0.589643  1
  U  U7  1  0.621706  0.198322  0.197026  1
  U  U8  1  0.378294  0.801678  0.802974  1
  U  U9  1  0.205838  0.418913  0.410357  1
  O  O10  1  0.826723  0.784607  0.470750  1
  O  O11  1  0.005222  0.236096  0.176604  1
  O  O12  1  0.674427  0.401226  0.069181  1
  O  O13  1  0.454206  0.000128  0.682485  1
  O  O14  1  0.858272  0.349302  0.417649  1
  O  O15  1  0.492285  0.387744  0.345788  1
  O  O16  1  0.237204  0.603896  0.269708  1
  O  O17  1  0.975256  0.809917  0.141733  1
  O  O18  1  0.664013  0.940130  0.990818  1
  O  O19  1  0.335987  0.059870  0.009182  1
  O  O20  1  0.024744  0.190083  0.858267  1
  O  O21  1  0.762796  0.396104  0.730292  1
  O  O22  1  0.507715  0.612256  0.654212  1
  O  O23  1  0.141728  0.650698  0.582351  1
  O  O24  1  0.545794  0.999872  0.317515  1
  O  O25  1  0.325573  0.598774  0.930819  1
  O  O26  1  0.994778  0.763904  0.823396  1
  O  O27  1  0.173277  0.215393  0.529250  1
