# generated using pymatgen
data_Sr4Mg2Co5Si8Ir3
_symmetry_space_group_name_H-M   'P 1'
_cell_length_a   6.31863549
_cell_length_b   6.27019762
_cell_length_c   10.89596602
_cell_angle_alpha   89.99396558
_cell_angle_beta   90.00058062
_cell_angle_gamma   113.20756832
_symmetry_Int_Tables_number   1
_chemical_formula_structural   Sr4Mg2Co5Si8Ir3
_chemical_formula_sum   'Sr4 Mg2 Co5 Si8 Ir3'
_cell_volume   396.75749617
_cell_formula_units_Z   1
loop_
 _symmetry_equiv_pos_site_id
 _symmetry_equiv_pos_as_xyz
  1  'x, y, z'
loop_
 _atom_site_type_symbol
 _atom_site_label
 _atom_site_symmetry_multiplicity
 _atom_site_fract_x
 _atom_site_fract_y
 _atom_site_fract_z
 _atom_site_occupancy
  Sr  Sr0  1  0.200016  0.794634  0.500694  1
  Sr  Sr1  1  0.200026  0.794649  0.999299  1
  Sr  Sr2  1  0.797399  0.200204  0.498123  1
  Sr  Sr3  1  0.797413  0.200207  0.001865  1
  Mg  Mg4  1  0.022680  0.015309  0.250006  1
  Mg  Mg5  1  0.984650  0.985105  0.749994  1
  Co  Co6  1  0.501276  0.251233  0.250032  1
  Co  Co7  1  0.665376  0.671988  0.365527  1
  Co  Co8  1  0.331730  0.329605  0.630790  1
  Co  Co9  1  0.665356  0.672023  0.134446  1
  Co  Co10  1  0.331742  0.329559  0.869239  1
  Si  Si11  1  0.526125  0.903368  0.250001  1
  Si  Si12  1  0.114962  0.469424  0.750010  1
  Si  Si13  1  0.472119  0.114111  0.750002  1
  Si  Si14  1  0.875824  0.518440  0.249995  1
  Si  Si15  1  0.353215  0.342841  0.426675  1
  Si  Si16  1  0.652805  0.650572  0.568120  1
  Si  Si17  1  0.353225  0.342869  0.073370  1
  Si  Si18  1  0.652780  0.650552  0.931838  1
  Ir  Ir19  1  0.763707  0.497925  0.749990  1
  Ir  Ir20  1  0.498585  0.760749  0.749964  1
  Ir  Ir21  1  0.238988  0.504632  0.250021  1
