# generated using pymatgen
data_TbYb9(CeRu2)2
_symmetry_space_group_name_H-M   'P 1'
_cell_length_a   6.37786022
_cell_length_b   7.50469183
_cell_length_c   9.55018886
_cell_angle_alpha   90.14414052
_cell_angle_beta   90.41895450
_cell_angle_gamma   87.50456884
_symmetry_Int_Tables_number   1
_chemical_formula_structural   TbYb9(CeRu2)2
_chemical_formula_sum   'Tb1 Yb9 Ce2 Ru4'
_cell_volume   456.66225931
_cell_formula_units_Z   1
loop_
 _symmetry_equiv_pos_site_id
 _symmetry_equiv_pos_as_xyz
  1  'x, y, z'
loop_
 _atom_site_type_symbol
 _atom_site_label
 _atom_site_symmetry_multiplicity
 _atom_site_fract_x
 _atom_site_fract_y
 _atom_site_fract_z
 _atom_site_occupancy
  Tb  Tb0  1  0.670458  0.165785  0.068934  1
  Yb  Yb1  1  0.364992  0.539068  0.249178  1
  Yb  Yb2  1  0.838913  0.672725  0.068192  1
  Yb  Yb3  1  0.159287  0.325621  0.930576  1
  Yb  Yb4  1  0.328471  0.831875  0.932973  1
  Yb  Yb5  1  0.634425  0.459857  0.751201  1
  Yb  Yb6  1  0.331391  0.833182  0.569748  1
  Yb  Yb7  1  0.160034  0.327197  0.570335  1
  Yb  Yb8  1  0.840827  0.672696  0.429741  1
  Yb  Yb9  1  0.670688  0.168111  0.433128  1
  Ce  Ce10  1  0.840791  0.938240  0.751697  1
  Ce  Ce11  1  0.161336  0.061220  0.247387  1
  Ru  Ru12  1  0.984463  0.342182  0.245972  1
  Ru  Ru13  1  0.520703  0.105936  0.759164  1
  Ru  Ru14  1  0.487395  0.899807  0.244006  1
  Ru  Ru15  1  0.005827  0.656497  0.747768  1
