# generated using pymatgen
data_YZn5Au3
_symmetry_space_group_name_H-M   'P 1'
_cell_length_a   4.29030900
_cell_length_b   11.73510000
_cell_length_c   12.90428500
_cell_angle_alpha   90.00000000
_cell_angle_beta   90.00000000
_cell_angle_gamma   90.00000000
_symmetry_Int_Tables_number   1
_chemical_formula_structural   YZn5Au3
_chemical_formula_sum   'Y4 Zn20 Au12'
_cell_volume   649.69468416
_cell_formula_units_Z   4
loop_
 _symmetry_equiv_pos_site_id
 _symmetry_equiv_pos_as_xyz
  1  'x, y, z'
loop_
 _atom_site_type_symbol
 _atom_site_label
 _atom_site_symmetry_multiplicity
 _atom_site_fract_x
 _atom_site_fract_y
 _atom_site_fract_z
 _atom_site_occupancy
  Y  Y0  1  0.250000  0.880597  0.296120  1
  Y  Y1  1  0.750000  0.119403  0.703880  1
  Y  Y2  1  0.750000  0.380597  0.203880  1
  Y  Y3  1  0.250000  0.619403  0.796120  1
  Zn  Zn4  1  0.250000  0.418367  0.987279  1
  Zn  Zn5  1  0.750000  0.581633  0.012721  1
  Zn  Zn6  1  0.750000  0.918367  0.512721  1
  Zn  Zn7  1  0.250000  0.081633  0.487279  1
  Zn  Zn8  1  0.250000  0.607503  0.340342  1
  Zn  Zn9  1  0.750000  0.392497  0.659658  1
  Zn  Zn10  1  0.750000  0.107503  0.159658  1
  Zn  Zn11  1  0.250000  0.892497  0.840342  1
  Zn  Zn12  1  0.250000  0.002345  0.064584  1
  Zn  Zn13  1  0.750000  0.997655  0.935416  1
  Zn  Zn14  1  0.750000  0.502345  0.435416  1
  Zn  Zn15  1  0.250000  0.497655  0.564584  1
  Zn  Zn16  1  0.250000  0.767334  0.041029  1
  Zn  Zn17  1  0.750000  0.232666  0.958971  1
  Zn  Zn18  1  0.750000  0.267334  0.458971  1
  Zn  Zn19  1  0.250000  0.732666  0.541029  1
  Zn  Zn20  1  0.250000  0.180529  0.289788  1
  Zn  Zn21  1  0.750000  0.819471  0.710212  1
  Zn  Zn22  1  0.750000  0.680529  0.210212  1
  Zn  Zn23  1  0.250000  0.319471  0.789788  1
  Au  Au24  1  0.250000  0.567118  0.138742  1
  Au  Au25  1  0.750000  0.432882  0.861258  1
  Au  Au26  1  0.750000  0.067118  0.361258  1
  Au  Au27  1  0.250000  0.932882  0.638742  1
  Au  Au28  1  0.250000  0.228891  0.091026  1
  Au  Au29  1  0.750000  0.771109  0.908974  1
  Au  Au30  1  0.750000  0.728891  0.408974  1
  Au  Au31  1  0.250000  0.271109  0.591026  1
  Au  Au32  1  0.250000  0.381958  0.374634  1
  Au  Au33  1  0.750000  0.618042  0.625366  1
  Au  Au34  1  0.750000  0.881958  0.125366  1
  Au  Au35  1  0.250000  0.118042  0.874634  1
