# generated using pymatgen
data_Zr3Al3Ru5Pt
_symmetry_space_group_name_H-M   'P 1'
_cell_length_a   4.47302600
_cell_length_b   6.39020100
_cell_length_c   13.35303500
_cell_angle_alpha   90.00000000
_cell_angle_beta   89.99995728
_cell_angle_gamma   90.00000000
_symmetry_Int_Tables_number   1
_chemical_formula_structural   Zr3Al3Ru5Pt
_chemical_formula_sum   'Zr6 Al6 Ru10 Pt2'
_cell_volume   381.67694619
_cell_formula_units_Z   2
loop_
 _symmetry_equiv_pos_site_id
 _symmetry_equiv_pos_as_xyz
  1  'x, y, z'
loop_
 _atom_site_type_symbol
 _atom_site_label
 _atom_site_symmetry_multiplicity
 _atom_site_fract_x
 _atom_site_fract_y
 _atom_site_fract_z
 _atom_site_occupancy
  Zr  Zr0  1  0.000000  0.500001  0.000000  1
  Zr  Zr1  1  0.499986  0.000000  0.172651  1
  Zr  Zr2  1  0.999988  0.500001  0.334655  1
  Zr  Zr3  1  0.500001  0.000000  0.500000  1
  Zr  Zr4  1  0.000012  0.500001  0.665346  1
  Zr  Zr5  1  0.500014  0.000000  0.827349  1
  Al  Al6  1  0.000000  0.000000  0.000000  1
  Al  Al7  1  0.499980  0.500001  0.171906  1
  Al  Al8  1  0.999990  0.000000  0.333853  1
  Al  Al9  1  0.500001  0.500001  0.500000  1
  Al  Al10  1  0.000010  0.000000  0.666148  1
  Al  Al11  1  0.500020  0.500001  0.828094  1
  Ru  Ru12  1  0.999986  0.249332  0.164004  1
  Ru  Ru13  1  0.999986  0.750668  0.164004  1
  Ru  Ru14  1  0.499985  0.251109  0.332723  1
  Ru  Ru15  1  0.499985  0.748891  0.332723  1
  Ru  Ru16  1  0.000000  0.248390  0.500000  1
  Ru  Ru17  1  0.000000  0.751610  0.500000  1
  Ru  Ru18  1  0.500014  0.251109  0.667277  1
  Ru  Ru19  1  0.500014  0.748891  0.667277  1
  Ru  Ru20  1  0.000014  0.249332  0.835996  1
  Ru  Ru21  1  0.000014  0.750668  0.835996  1
  Pt  Pt22  1  0.499999  0.248565  0.000000  1
  Pt  Pt23  1  0.499999  0.751434  0.000000  1
