# generated using pymatgen
data_YEr3Al24Pd7Au2
_symmetry_space_group_name_H-M   'P 1'
_cell_length_a   7.57595963
_cell_length_b   7.59404964
_cell_length_c   13.15812403
_cell_angle_alpha   84.54110671
_cell_angle_beta   78.98917834
_cell_angle_gamma   59.92874719
_symmetry_Int_Tables_number   1
_chemical_formula_structural   YEr3Al24Pd7Au2
_chemical_formula_sum   'Y1 Er3 Al24 Pd7 Au2'
_cell_volume   643.06363210
_cell_formula_units_Z   1
loop_
 _symmetry_equiv_pos_site_id
 _symmetry_equiv_pos_as_xyz
  1  'x, y, z'
loop_
 _atom_site_type_symbol
 _atom_site_label
 _atom_site_symmetry_multiplicity
 _atom_site_fract_x
 _atom_site_fract_y
 _atom_site_fract_z
 _atom_site_occupancy
  Y  Y0  1  0.392227  0.169586  0.809366  1
  Er  Er1  1  0.607724  0.830395  0.190861  1
  Er  Er2  1  0.733906  0.498543  0.809666  1
  Er  Er3  1  0.266059  0.501525  0.190343  1
  Al  Al4  1  0.682918  0.834002  0.944884  1
  Al  Al5  1  0.317334  0.165611  0.055568  1
  Al  Al6  1  0.145265  0.838899  0.562531  1
  Al  Al7  1  0.854768  0.161081  0.437452  1
  Al  Al8  1  0.487147  0.159985  0.559783  1
  Al  Al9  1  0.512915  0.839981  0.440056  1
  Al  Al10  1  0.224270  0.159899  0.325020  1
  Al  Al11  1  0.776121  0.839775  0.674770  1
  Al  Al12  1  0.440045  0.507001  0.675280  1
  Al  Al13  1  0.560004  0.493323  0.324521  1
  Al  Al14  1  0.108433  0.153995  0.673486  1
  Al  Al15  1  0.891346  0.845969  0.326305  1
  Al  Al16  1  0.353912  0.498984  0.944629  1
  Al  Al17  1  0.646023  0.501410  0.055597  1
  Al  Al18  1  0.015049  0.167666  0.954039  1
  Al  Al19  1  0.984539  0.832318  0.046185  1
  Al  Al20  1  0.195164  0.499794  0.437005  1
  Al  Al21  1  0.804841  0.500211  0.562967  1
  Al  Al22  1  0.731554  0.164103  0.183189  1
  Al  Al23  1  0.268341  0.835524  0.816806  1
  Al  Al24  1  0.059945  0.634752  0.818367  1
  Al  Al25  1  0.939716  0.365665  0.181637  1
  Al  Al26  1  0.853682  0.043470  0.816362  1
  Al  Al27  1  0.146750  0.956443  0.183646  1
  Pd  Pd28  1  0.657129  0.171615  0.999842  1
  Pd  Pd29  1  0.342917  0.828302  0.000277  1
  Pd  Pd30  1  0.537510  0.167081  0.362033  1
  Pd  Pd31  1  0.462515  0.832636  0.637832  1
  Pd  Pd32  1  0.779390  0.175392  0.637072  1
  Pd  Pd33  1  0.220937  0.824579  0.362749  1
  Pd  Pd34  1  0.999887  0.500116  0.000080  1
  Au  Au35  1  0.119482  0.491318  0.637955  1
  Au  Au36  1  0.880235  0.509053  0.361837  1
