# generated using pymatgen
data_Th10Ga2Sn5Sb
_symmetry_space_group_name_H-M   'P 1'
_cell_length_a   9.59360362
_cell_length_b   9.59360361
_cell_length_c   6.54287600
_cell_angle_alpha   90.00000000
_cell_angle_beta   90.00000000
_cell_angle_gamma   119.96327390
_symmetry_Int_Tables_number   1
_chemical_formula_structural   Th10Ga2Sn5Sb
_chemical_formula_sum   'Th10 Ga2 Sn5 Sb1'
_cell_volume   521.70315810
_cell_formula_units_Z   1
loop_
 _symmetry_equiv_pos_site_id
 _symmetry_equiv_pos_as_xyz
  1  'x, y, z'
loop_
 _atom_site_type_symbol
 _atom_site_label
 _atom_site_symmetry_multiplicity
 _atom_site_fract_x
 _atom_site_fract_y
 _atom_site_fract_z
 _atom_site_occupancy
  Th  Th0  1  0.732880  0.732880  0.750000  1
  Th  Th1  1  0.265894  0.001821  0.750000  1
  Th  Th2  1  0.001821  0.265894  0.750000  1
  Th  Th3  1  0.266381  0.266381  0.250000  1
  Th  Th4  1  0.733309  0.999561  0.250000  1
  Th  Th5  1  0.999561  0.733309  0.250000  1
  Th  Th6  1  0.666816  0.333238  0.999973  1
  Th  Th7  1  0.333238  0.666816  0.999973  1
  Th  Th8  1  0.333238  0.666816  0.500027  1
  Th  Th9  1  0.666816  0.333238  0.500027  1
  Ga  Ga10  1  0.999860  0.999860  0.000739  1
  Ga  Ga11  1  0.999860  0.999860  0.499261  1
  Sn  Sn12  1  0.617494  0.000125  0.750000  1
  Sn  Sn13  1  0.000125  0.617494  0.750000  1
  Sn  Sn14  1  0.617264  0.617264  0.250000  1
  Sn  Sn15  1  0.382067  0.999146  0.250000  1
  Sn  Sn16  1  0.999146  0.382067  0.250000  1
  Sb  Sb17  1  0.384232  0.384232  0.750000  1
