# generated using pymatgen
data_Pr5NdIr18
_symmetry_space_group_name_H-M   'P 1'
_cell_length_a   5.40251713
_cell_length_b   5.40281666
_cell_length_c   17.68957647
_cell_angle_alpha   90.00004158
_cell_angle_beta   89.99901668
_cell_angle_gamma   120.00179112
_symmetry_Int_Tables_number   1
_chemical_formula_structural   Pr5NdIr18
_chemical_formula_sum   'Pr5 Nd1 Ir18'
_cell_volume   447.15347590
_cell_formula_units_Z   1
loop_
 _symmetry_equiv_pos_site_id
 _symmetry_equiv_pos_as_xyz
  1  'x, y, z'
loop_
 _atom_site_type_symbol
 _atom_site_label
 _atom_site_symmetry_multiplicity
 _atom_site_fract_x
 _atom_site_fract_y
 _atom_site_fract_z
 _atom_site_occupancy
  Pr  Pr0  1  0.333290  0.666646  0.958957  1
  Pr  Pr1  1  0.666714  0.333358  0.041018  1
  Pr  Pr2  1  0.666572  0.333285  0.459848  1
  Pr  Pr3  1  0.333357  0.666678  0.749558  1
  Pr  Pr4  1  0.666628  0.333314  0.250719  1
  Nd  Nd5  1  0.333478  0.666738  0.540778  1
  Ir  Ir6  1  0.166370  0.833496  0.371980  1
  Ir  Ir7  1  0.166371  0.332875  0.371980  1
  Ir  Ir8  1  0.666964  0.833482  0.371952  1
  Ir  Ir9  1  0.833786  0.166513  0.627950  1
  Ir  Ir10  1  0.833786  0.667273  0.627948  1
  Ir  Ir11  1  0.332963  0.166481  0.627871  1
  Ir  Ir12  1  0.833630  0.166240  0.870901  1
  Ir  Ir13  1  0.833631  0.667389  0.870904  1
  Ir  Ir14  1  0.332457  0.166228  0.870964  1
  Ir  Ir15  1  0.166286  0.833793  0.128894  1
  Ir  Ir16  1  0.166286  0.332493  0.128894  1
  Ir  Ir17  1  0.667524  0.833762  0.128928  1
  Ir  Ir18  1  0.333129  0.666565  0.250333  1
  Ir  Ir19  1  0.666363  0.333189  0.749590  1
  Ir  Ir20  1  0.000124  0.000062  0.250516  1
  Ir  Ir21  1  0.000419  0.000201  0.749537  1
  Ir  Ir22  1  0.999878  0.999938  0.500089  1
  Ir  Ir23  1  0.999994  0.999999  0.999890  1
