# generated using pymatgen
data_Ta4Co3Si4Ir
_symmetry_space_group_name_H-M   'P 1'
_cell_length_a   6.27902555
_cell_length_b   3.69572100
_cell_length_c   7.12202153
_cell_angle_alpha   90.00000000
_cell_angle_beta   89.60884801
_cell_angle_gamma   90.00000000
_symmetry_Int_Tables_number   1
_chemical_formula_structural   Ta4Co3Si4Ir
_chemical_formula_sum   'Ta4 Co3 Si4 Ir1'
_cell_volume   165.26640854
_cell_formula_units_Z   1
loop_
 _symmetry_equiv_pos_site_id
 _symmetry_equiv_pos_as_xyz
  1  'x, y, z'
loop_
 _atom_site_type_symbol
 _atom_site_label
 _atom_site_symmetry_multiplicity
 _atom_site_fract_x
 _atom_site_fract_y
 _atom_site_fract_z
 _atom_site_occupancy
  Ta  Ta0  1  0.016805  0.250000  0.823217  1
  Ta  Ta1  1  0.526908  0.250000  0.680652  1
  Ta  Ta2  1  0.975375  0.750000  0.172354  1
  Ta  Ta3  1  0.479951  0.750000  0.320392  1
  Co  Co4  1  0.641134  0.250000  0.062570  1
  Co  Co5  1  0.854855  0.750000  0.565164  1
  Co  Co6  1  0.360697  0.750000  0.938652  1
  Si  Si7  1  0.766984  0.250000  0.377916  1
  Si  Si8  1  0.277866  0.250000  0.109864  1
  Si  Si9  1  0.232227  0.750000  0.632695  1
  Si  Si10  1  0.723742  0.750000  0.880820  1
  Ir  Ir11  1  0.143457  0.250000  0.435705  1
