# generated using pymatgen
data_DyHfB6Ru
_symmetry_space_group_name_H-M   'P 1'
_cell_length_a   3.54829400
_cell_length_b   9.01328600
_cell_length_c   11.37923300
_cell_angle_alpha   90.00000000
_cell_angle_beta   90.00000000
_cell_angle_gamma   90.00000000
_symmetry_Int_Tables_number   1
_chemical_formula_structural   DyHfB6Ru
_chemical_formula_sum   'Dy4 Hf4 B24 Ru4'
_cell_volume   363.92822462
_cell_formula_units_Z   4
loop_
 _symmetry_equiv_pos_site_id
 _symmetry_equiv_pos_as_xyz
  1  'x, y, z'
loop_
 _atom_site_type_symbol
 _atom_site_label
 _atom_site_symmetry_multiplicity
 _atom_site_fract_x
 _atom_site_fract_y
 _atom_site_fract_z
 _atom_site_occupancy
  Dy  Dy0  1  0.000000  0.321728  0.413993  1
  Dy  Dy1  1  0.000000  0.678272  0.586007  1
  Dy  Dy2  1  0.000000  0.821728  0.086007  1
  Dy  Dy3  1  0.000000  0.178272  0.913993  1
  Hf  Hf4  1  0.000000  0.944954  0.373947  1
  Hf  Hf5  1  0.000000  0.055046  0.626053  1
  Hf  Hf6  1  0.000000  0.444954  0.126053  1
  Hf  Hf7  1  0.000000  0.555046  0.873947  1
  B  B8  1  0.500000  0.554709  0.433645  1
  B  B9  1  0.500000  0.445291  0.566355  1
  B  B10  1  0.500000  0.054709  0.066355  1
  B  B11  1  0.500000  0.945291  0.933645  1
  B  B12  1  0.500000  0.752659  0.418600  1
  B  B13  1  0.500000  0.247341  0.581400  1
  B  B14  1  0.500000  0.252659  0.081400  1
  B  B15  1  0.500000  0.747341  0.918600  1
  B  B16  1  0.500000  0.795391  0.263834  1
  B  B17  1  0.500000  0.204609  0.736166  1
  B  B18  1  0.500000  0.295391  0.236166  1
  B  B19  1  0.500000  0.704609  0.763834  1
  B  B20  1  0.500000  0.630007  0.182466  1
  B  B21  1  0.500000  0.369993  0.817534  1
  B  B22  1  0.500000  0.130007  0.317534  1
  B  B23  1  0.500000  0.869993  0.682466  1
  B  B24  1  0.500000  0.982116  0.213443  1
  B  B25  1  0.500000  0.017884  0.786557  1
  B  B26  1  0.500000  0.482116  0.286557  1
  B  B27  1  0.500000  0.517884  0.713443  1
  B  B28  1  0.500000  0.600811  0.027148  1
  B  B29  1  0.500000  0.399189  0.972852  1
  B  B30  1  0.500000  0.100811  0.472852  1
  B  B31  1  0.500000  0.899189  0.527148  1
  Ru  Ru32  1  0.000000  0.642246  0.318506  1
  Ru  Ru33  1  0.000000  0.357754  0.681494  1
  Ru  Ru34  1  0.000000  0.142246  0.181494  1
  Ru  Ru35  1  0.000000  0.857754  0.818506  1
