# generated using pymatgen
data_Tb6SmThC10
_symmetry_space_group_name_H-M   'P 1'
_cell_length_a   3.72141300
_cell_length_b   6.69250946
_cell_length_c   12.08691700
_cell_angle_alpha   88.95550578
_cell_angle_beta   90.00000000
_cell_angle_gamma   90.00000000
_symmetry_Int_Tables_number   1
_chemical_formula_structural   Tb6SmThC10
_chemical_formula_sum   'Tb6 Sm1 Th1 C10'
_cell_volume   300.98180055
_cell_formula_units_Z   1
loop_
 _symmetry_equiv_pos_site_id
 _symmetry_equiv_pos_as_xyz
  1  'x, y, z'
loop_
 _atom_site_type_symbol
 _atom_site_label
 _atom_site_symmetry_multiplicity
 _atom_site_fract_x
 _atom_site_fract_y
 _atom_site_fract_z
 _atom_site_occupancy
  Tb  Tb0  1  0.000000  0.743798  0.455784  1
  Tb  Tb1  1  0.000000  0.756338  0.959537  1
  Tb  Tb2  1  0.000000  0.243492  0.042257  1
  Tb  Tb3  1  0.500000  0.899422  0.199180  1
  Tb  Tb4  1  0.500000  0.614060  0.696793  1
  Tb  Tb5  1  0.500000  0.388859  0.299379  1
  Sm  Sm6  1  0.500000  0.105448  0.803653  1
  Th  Th7  1  0.000000  0.245192  0.542233  1
  C  C8  1  0.500000  0.493424  0.499445  1
  C  C9  1  0.500000  0.998522  0.002833  1
  C  C10  1  0.000000  0.365554  0.740878  1
  C  C11  1  0.000000  0.643717  0.260161  1
  C  C12  1  0.000000  0.859034  0.766260  1
  C  C13  1  0.000000  0.137269  0.231466  1
  C  C14  1  0.000000  0.430226  0.844421  1
  C  C15  1  0.000000  0.577422  0.157541  1
  C  C16  1  0.000000  0.113415  0.342319  1
  C  C17  1  0.000000  0.884808  0.655860  1
