# generated using pymatgen
data_CdHg4(SbI2)2
_symmetry_space_group_name_H-M   'P 1'
_cell_length_a   13.98661200
_cell_length_b   8.76594870
_cell_length_c   8.74732146
_cell_angle_alpha   63.14248520
_cell_angle_beta   90.00000000
_cell_angle_gamma   90.00000000
_symmetry_Int_Tables_number   1
_chemical_formula_structural   CdHg4(SbI2)2
_chemical_formula_sum   'Cd2 Hg8 Sb4 I8'
_cell_volume   956.78868296
_cell_formula_units_Z   2
loop_
 _symmetry_equiv_pos_site_id
 _symmetry_equiv_pos_as_xyz
  1  'x, y, z'
loop_
 _atom_site_type_symbol
 _atom_site_label
 _atom_site_symmetry_multiplicity
 _atom_site_fract_x
 _atom_site_fract_y
 _atom_site_fract_z
 _atom_site_occupancy
  Cd  Cd0  1  0.833213  0.987488  0.013974  1
  Cd  Cd1  1  0.333213  0.012512  0.986026  1
  Hg  Hg2  1  0.793220  0.676431  0.666785  1
  Hg  Hg3  1  0.563067  0.038895  0.604026  1
  Hg  Hg4  1  0.063067  0.961105  0.395974  1
  Hg  Hg5  1  0.558260  0.529526  0.065241  1
  Hg  Hg6  1  0.293220  0.323569  0.333215  1
  Hg  Hg7  1  0.020305  0.468808  0.437745  1
  Hg  Hg8  1  0.520305  0.531192  0.562255  1
  Hg  Hg9  1  0.058260  0.470474  0.934759  1
  Sb  Sb10  1  0.484194  0.348780  0.385493  1
  Sb  Sb11  1  0.603095  0.697910  0.726505  1
  Sb  Sb12  1  0.984194  0.651220  0.614507  1
  Sb  Sb13  1  0.103095  0.302090  0.273495  1
  I  I14  1  0.228289  0.300582  0.750906  1
  I  I15  1  0.322555  0.713371  0.943308  1
  I  I16  1  0.030125  0.873626  0.082875  1
  I  I17  1  0.728289  0.699418  0.249094  1
  I  I18  1  0.530125  0.126374  0.917125  1
  I  I19  1  0.822555  0.286629  0.056692  1
  I  I20  1  0.802408  0.076667  0.662607  1
  I  I21  1  0.302408  0.923333  0.337393  1
