# generated using pymatgen
data_YHo2Al3CuAu2
_symmetry_space_group_name_H-M   'P 1'
_cell_length_a   7.20126857
_cell_length_b   7.20126802
_cell_length_c   4.07922100
_cell_angle_alpha   90.00000000
_cell_angle_beta   90.00000000
_cell_angle_gamma   120.11416481
_symmetry_Int_Tables_number   1
_chemical_formula_structural   YHo2Al3CuAu2
_chemical_formula_sum   'Y1 Ho2 Al3 Cu1 Au2'
_cell_volume   182.98904341
_cell_formula_units_Z   1
loop_
 _symmetry_equiv_pos_site_id
 _symmetry_equiv_pos_as_xyz
  1  'x, y, z'
loop_
 _atom_site_type_symbol
 _atom_site_label
 _atom_site_symmetry_multiplicity
 _atom_site_fract_x
 _atom_site_fract_y
 _atom_site_fract_z
 _atom_site_occupancy
  Y  Y0  1  0.407095  0.407095  0.500000  1
  Ho  Ho1  1  0.593643  0.000154  0.500000  1
  Ho  Ho2  1  0.000154  0.593643  0.500000  1
  Al  Al3  1  0.770548  0.770548  0.000000  1
  Al  Al4  1  0.229044  0.999958  0.000000  1
  Al  Al5  1  0.999958  0.229044  0.000000  1
  Cu  Cu6  1  0.998282  0.998282  0.500000  1
  Au  Au7  1  0.668860  0.332415  0.000000  1
  Au  Au8  1  0.332415  0.668860  0.000000  1
