# generated using pymatgen
data_Ho5Tm2Sn23Rh6
_symmetry_space_group_name_H-M   'P 1'
_cell_length_a   9.83732804
_cell_length_b   9.83872940
_cell_length_c   10.09464900
_cell_angle_alpha   89.99999854
_cell_angle_beta   90.00275953
_cell_angle_gamma   120.00471300
_symmetry_Int_Tables_number   1
_chemical_formula_structural   Ho5Tm2Sn23Rh6
_chemical_formula_sum   'Ho5 Tm2 Sn23 Rh6'
_cell_volume   846.09162509
_cell_formula_units_Z   1
loop_
 _symmetry_equiv_pos_site_id
 _symmetry_equiv_pos_as_xyz
  1  'x, y, z'
loop_
 _atom_site_type_symbol
 _atom_site_label
 _atom_site_symmetry_multiplicity
 _atom_site_fract_x
 _atom_site_fract_y
 _atom_site_fract_z
 _atom_site_occupancy
  Ho  Ho0  1  0.000003  0.000002  0.999972  1
  Ho  Ho1  1  0.959115  0.479557  0.692241  1
  Ho  Ho2  1  0.040893  0.520447  0.307760  1
  Ho  Ho3  1  0.479555  0.959105  0.307840  1
  Ho  Ho4  1  0.479555  0.520451  0.307840  1
  Tm  Tm5  1  0.520303  0.479715  0.692266  1
  Tm  Tm6  1  0.520303  0.040587  0.692266  1
  Sn  Sn7  1  0.666652  0.333325  0.179420  1
  Sn  Sn8  1  0.666320  0.333160  0.876574  1
  Sn  Sn9  1  0.333357  0.666679  0.123011  1
  Sn  Sn10  1  0.351177  0.351152  0.999944  1
  Sn  Sn11  1  0.000015  0.648890  0.999975  1
  Sn  Sn12  1  0.648826  0.999973  0.999936  1
  Sn  Sn13  1  0.648826  0.648853  0.999936  1
  Sn  Sn14  1  0.333393  0.666697  0.820550  1
  Sn  Sn15  1  0.444539  0.222270  0.455934  1
  Sn  Sn16  1  0.222495  0.777936  0.544455  1
  Sn  Sn17  1  0.222495  0.444558  0.544455  1
  Sn  Sn18  1  0.555440  0.777720  0.544559  1
  Sn  Sn19  1  0.119773  0.880264  0.281742  1
  Sn  Sn20  1  0.777623  0.555471  0.455815  1
  Sn  Sn21  1  0.777623  0.222153  0.455815  1
  Sn  Sn22  1  0.351177  0.000025  0.999944  1
  Sn  Sn23  1  0.119773  0.239508  0.281742  1
  Sn  Sn24  1  0.760464  0.880232  0.281743  1
  Sn  Sn25  1  0.239868  0.119935  0.718213  1
  Sn  Sn26  1  0.880032  0.760328  0.718235  1
  Sn  Sn27  1  0.880032  0.119705  0.718235  1
  Sn  Sn28  1  0.000010  0.000005  0.499996  1
  Sn  Sn29  1  0.000015  0.351124  0.999975  1
  Rh  Rh30  1  0.168945  0.831522  0.801509  1
  Rh  Rh31  1  0.168945  0.337422  0.801509  1
  Rh  Rh32  1  0.662452  0.831226  0.801425  1
  Rh  Rh33  1  0.337330  0.168665  0.198402  1
  Rh  Rh34  1  0.831337  0.662652  0.198382  1
  Rh  Rh35  1  0.831337  0.168686  0.198382  1
