# generated using pymatgen
data_Tm12Ni4BiRh
_symmetry_space_group_name_H-M   'P 1'
_cell_length_a   8.21019913
_cell_length_b   8.21210301
_cell_length_c   8.21019716
_cell_angle_alpha   110.33070282
_cell_angle_beta   111.65819527
_cell_angle_gamma   106.46005209
_symmetry_Int_Tables_number   1
_chemical_formula_structural   Tm12Ni4BiRh
_chemical_formula_sum   'Tm12 Ni4 Bi1 Rh1'
_cell_volume   425.23895407
_cell_formula_units_Z   1
loop_
 _symmetry_equiv_pos_site_id
 _symmetry_equiv_pos_as_xyz
  1  'x, y, z'
loop_
 _atom_site_type_symbol
 _atom_site_label
 _atom_site_symmetry_multiplicity
 _atom_site_fract_x
 _atom_site_fract_y
 _atom_site_fract_z
 _atom_site_occupancy
  Tm  Tm0  1  0.290693  0.180418  0.471143  1
  Tm  Tm1  1  0.709307  0.819582  0.528857  1
  Tm  Tm2  1  0.290724  0.819582  0.110274  1
  Tm  Tm3  1  0.709276  0.180418  0.889726  1
  Tm  Tm4  1  0.623586  0.317492  0.306035  1
  Tm  Tm5  1  0.376414  0.682508  0.693965  1
  Tm  Tm6  1  0.011457  0.317492  0.693906  1
  Tm  Tm7  1  0.988543  0.682508  0.306094  1
  Tm  Tm8  1  0.212494  0.408323  0.195830  1
  Tm  Tm9  1  0.787506  0.591677  0.804170  1
  Tm  Tm10  1  0.212542  0.016708  0.804166  1
  Tm  Tm11  1  0.787458  0.983292  0.195834  1
  Ni  Ni12  1  0.999961  0.365057  0.365095  1
  Ni  Ni13  1  0.000039  0.634943  0.634905  1
  Ni  Ni14  1  0.376371  0.876406  0.500035  1
  Ni  Ni15  1  0.623629  0.123594  0.499965  1
  Bi  Bi16  1  0.500000  0.500000  0.000000  1
  Rh  Rh17  1  0.000000  0.000000  0.000000  1
