# generated using pymatgen
data_Li6Sc12OsPt5
_symmetry_space_group_name_H-M   'P 1'
_cell_length_a   4.66888500
_cell_length_b   6.65860900
_cell_length_c   13.84932500
_cell_angle_alpha   89.99979332
_cell_angle_beta   90.00168259
_cell_angle_gamma   89.99968558
_symmetry_Int_Tables_number   1
_chemical_formula_structural   Li6Sc12OsPt5
_chemical_formula_sum   'Li6 Sc12 Os1 Pt5'
_cell_volume   430.55168890
_cell_formula_units_Z   1
loop_
 _symmetry_equiv_pos_site_id
 _symmetry_equiv_pos_as_xyz
  1  'x, y, z'
loop_
 _atom_site_type_symbol
 _atom_site_label
 _atom_site_symmetry_multiplicity
 _atom_site_fract_x
 _atom_site_fract_y
 _atom_site_fract_z
 _atom_site_occupancy
  Li  Li0  1  0.000016  0.999999  0.999855  1
  Li  Li1  1  0.499337  0.500000  0.166455  1
  Li  Li2  1  0.999326  0.000000  0.333331  1
  Li  Li3  1  0.500001  0.499999  0.500205  1
  Li  Li4  1  0.000661  0.000000  0.666806  1
  Li  Li5  1  0.500670  0.500000  0.833323  1
  Sc  Sc6  1  0.500020  0.246302  0.997312  1
  Sc  Sc7  1  0.500014  0.753694  0.997308  1
  Sc  Sc8  1  0.999533  0.250903  0.166660  1
  Sc  Sc9  1  0.999531  0.749093  0.166660  1
  Sc  Sc10  1  0.499541  0.249384  0.333310  1
  Sc  Sc11  1  0.499540  0.750614  0.333313  1
  Sc  Sc12  1  0.999995  0.250892  0.499991  1
  Sc  Sc13  1  0.999994  0.749116  0.499990  1
  Sc  Sc14  1  0.500454  0.246291  0.669378  1
  Sc  Sc15  1  0.500461  0.753712  0.669380  1
  Sc  Sc16  1  0.000442  0.243040  0.833360  1
  Sc  Sc17  1  0.000462  0.756965  0.833363  1
  Os  Os18  1  0.500472  0.999999  0.833340  1
  Pt  Pt19  1  0.999992  0.500001  0.002175  1
  Pt  Pt20  1  0.499503  0.999999  0.167791  1
  Pt  Pt21  1  0.999537  0.500000  0.333330  1
  Pt  Pt22  1  0.499996  0.999999  0.498866  1
  Pt  Pt23  1  0.000499  0.500000  0.664494  1
