# generated using pymatgen
data_La6MnSn2Sb13
_symmetry_space_group_name_H-M   'P 1'
_cell_length_a   12.85149607
_cell_length_b   12.85149592
_cell_length_c   4.30743874
_cell_angle_alpha   80.26494572
_cell_angle_beta   80.26495031
_cell_angle_gamma   102.70078024
_symmetry_Int_Tables_number   1
_chemical_formula_structural   La6MnSn2Sb13
_chemical_formula_sum   'La6 Mn1 Sn2 Sb13'
_cell_volume   668.09363231
_cell_formula_units_Z   1
loop_
 _symmetry_equiv_pos_site_id
 _symmetry_equiv_pos_as_xyz
  1  'x, y, z'
loop_
 _atom_site_type_symbol
 _atom_site_label
 _atom_site_symmetry_multiplicity
 _atom_site_fract_x
 _atom_site_fract_y
 _atom_site_fract_z
 _atom_site_occupancy
  La  La0  1  0.003301  0.272038  0.946043  1
  La  La1  1  0.996243  0.725289  0.220508  1
  La  La2  1  0.725289  0.996243  0.220508  1
  La  La3  1  0.272038  0.003301  0.946043  1
  La  La4  1  0.678725  0.323542  0.084411  1
  La  La5  1  0.323542  0.678725  0.084411  1
  Mn  Mn6  1  0.280724  0.280724  0.805120  1
  Sn  Sn7  1  0.398289  0.398289  0.187834  1
  Sn  Sn8  1  0.591010  0.591010  0.998505  1
  Sb  Sb9  1  0.912548  0.512059  0.875138  1
  Sb  Sb10  1  0.075666  0.486831  0.305198  1
  Sb  Sb11  1  0.486831  0.075666  0.305198  1
  Sb  Sb12  1  0.512059  0.912548  0.875138  1
  Sb  Sb13  1  0.244120  0.472861  0.730385  1
  Sb  Sb14  1  0.744731  0.540816  0.442803  1
  Sb  Sb15  1  0.540816  0.744731  0.442803  1
  Sb  Sb16  1  0.472861  0.244120  0.730385  1
  Sb  Sb17  1  0.171988  0.171988  0.418409  1
  Sb  Sb18  1  0.856531  0.856531  0.728585  1
  Sb  Sb19  1  0.800425  0.198087  0.583950  1
  Sb  Sb20  1  0.198087  0.800425  0.583950  1
  Sb  Sb21  1  0.991377  0.991377  0.084874  1
