# generated using pymatgen
data_Li2TmPuC4
_symmetry_space_group_name_H-M   'P 1'
_cell_length_a   3.55651400
_cell_length_b   3.55651400
_cell_length_c   7.79177800
_cell_angle_alpha   90.00000000
_cell_angle_beta   90.00000000
_cell_angle_gamma   90.00000000
_symmetry_Int_Tables_number   1
_chemical_formula_structural   Li2TmPuC4
_chemical_formula_sum   'Li2 Tm1 Pu1 C4'
_cell_volume   98.55657792
_cell_formula_units_Z   1
loop_
 _symmetry_equiv_pos_site_id
 _symmetry_equiv_pos_as_xyz
  1  'x, y, z'
loop_
 _atom_site_type_symbol
 _atom_site_label
 _atom_site_symmetry_multiplicity
 _atom_site_fract_x
 _atom_site_fract_y
 _atom_site_fract_z
 _atom_site_occupancy
  Li  Li0  1  0.000000  0.000000  0.000799  1
  Li  Li1  1  0.500000  0.500000  0.000799  1
  Tm  Tm2  1  0.000000  0.500000  0.656618  1
  Pu  Pu3  1  0.500000  0.000000  0.338222  1
  C  C4  1  0.000000  0.500000  0.186835  1
  C  C5  1  0.500000  0.000000  0.814707  1
  C  C6  1  0.000000  0.500000  0.362183  1
  C  C7  1  0.500000  0.000000  0.639838  1
