# generated using pymatgen
data_Hf3Zr3TaTi3Al12Ir7
_symmetry_space_group_name_H-M   'P 1'
_cell_length_a   8.78371575
_cell_length_b   8.78371537
_cell_length_c   8.79552857
_cell_angle_alpha   60.04441378
_cell_angle_beta   60.04441614
_cell_angle_gamma   60.00000434
_symmetry_Int_Tables_number   1
_chemical_formula_structural   Hf3Zr3TaTi3Al12Ir7
_chemical_formula_sum   'Hf3 Zr3 Ta1 Ti3 Al12 Ir7'
_cell_volume   480.16966210
_cell_formula_units_Z   1
loop_
 _symmetry_equiv_pos_site_id
 _symmetry_equiv_pos_as_xyz
  1  'x, y, z'
loop_
 _atom_site_type_symbol
 _atom_site_label
 _atom_site_symmetry_multiplicity
 _atom_site_fract_x
 _atom_site_fract_y
 _atom_site_fract_z
 _atom_site_occupancy
  Hf  Hf0  1  0.687679  0.687679  0.310243  1
  Hf  Hf1  1  0.314398  0.687679  0.310243  1
  Hf  Hf2  1  0.687679  0.314398  0.310243  1
  Zr  Zr3  1  0.310059  0.310059  0.688912  1
  Zr  Zr4  1  0.690970  0.310059  0.688912  1
  Zr  Zr5  1  0.310059  0.690970  0.688912  1
  Ta  Ta6  1  0.879627  0.879627  0.361119  1
  Ti  Ti7  1  0.879836  0.360587  0.879743  1
  Ti  Ti8  1  0.360587  0.879836  0.879743  1
  Ti  Ti9  1  0.879836  0.879836  0.879743  1
  Al  Al10  1  0.120656  0.120656  0.638032  1
  Al  Al11  1  0.121870  0.638269  0.117990  1
  Al  Al12  1  0.638269  0.121870  0.117990  1
  Al  Al13  1  0.121870  0.121870  0.117990  1
  Al  Al14  1  0.661833  0.661833  0.014500  1
  Al  Al15  1  0.659472  0.016749  0.664306  1
  Al  Al16  1  0.016749  0.659472  0.664306  1
  Al  Al17  1  0.659472  0.659472  0.664306  1
  Al  Al18  1  0.337105  0.337105  0.988689  1
  Al  Al19  1  0.336833  0.988679  0.337657  1
  Al  Al20  1  0.988679  0.336833  0.337657  1
  Al  Al21  1  0.336833  0.336833  0.337657  1
  Ir  Ir22  1  0.000221  0.000221  0.999339  1
  Ir  Ir23  1  0.997437  0.997437  0.499732  1
  Ir  Ir24  1  0.505394  0.997437  0.499732  1
  Ir  Ir25  1  0.997437  0.505394  0.499732  1
  Ir  Ir26  1  0.501445  0.501445  0.000860  1
  Ir  Ir27  1  0.996251  0.501445  0.000860  1
  Ir  Ir28  1  0.501445  0.996251  0.000860  1
