# generated using pymatgen
data_La3MgZnSb3O14
_symmetry_space_group_name_H-M   'P 1'
_cell_length_a   7.35155716
_cell_length_b   7.35169267
_cell_length_c   7.35160951
_cell_angle_alpha   117.59532409
_cell_angle_beta   62.40539126
_cell_angle_gamma   117.59469249
_symmetry_Int_Tables_number   1
_chemical_formula_structural   La3MgZnSb3O14
_chemical_formula_sum   'La3 Mg1 Zn1 Sb3 O14'
_cell_volume   296.02273734
_cell_formula_units_Z   1
loop_
 _symmetry_equiv_pos_site_id
 _symmetry_equiv_pos_as_xyz
  1  'x, y, z'
loop_
 _atom_site_type_symbol
 _atom_site_label
 _atom_site_symmetry_multiplicity
 _atom_site_fract_x
 _atom_site_fract_y
 _atom_site_fract_z
 _atom_site_occupancy
  La  La0  1  0.000017  0.499916  0.999846  1
  La  La1  1  0.500217  0.999661  0.999972  1
  La  La2  1  0.499688  0.500138  0.499620  1
  Mg  Mg3  1  0.000186  0.999653  0.499848  1
  Zn  Zn4  1  0.500174  0.497112  0.996851  1
  Sb  Sb5  1  0.500004  0.000206  0.500203  1
  Sb  Sb6  1  0.999861  0.500235  0.500155  1
  Sb  Sb7  1  0.000000  0.000151  0.000255  1
  O  O8  1  0.608831  0.390935  0.108496  1
  O  O9  1  0.391260  0.608516  0.890934  1
  O  O10  1  0.072445  0.318745  0.181623  1
  O  O11  1  0.681620  0.928443  0.181837  1
  O  O12  1  0.681079  0.319061  0.573611  1
  O  O13  1  0.927461  0.681475  0.818876  1
  O  O14  1  0.318912  0.073495  0.819137  1
  O  O15  1  0.318352  0.681754  0.428562  1
  O  O16  1  0.656141  0.913238  0.586974  1
  O  O17  1  0.086736  0.344101  0.586911  1
  O  O18  1  0.086991  0.913060  0.156096  1
  O  O19  1  0.343922  0.087027  0.413182  1
  O  O20  1  0.912908  0.656217  0.413089  1
  O  O21  1  0.913195  0.086863  0.843922  1
