# generated using pymatgen
data_Tb3Y5Np4O24
_symmetry_space_group_name_H-M   'P 1'
_cell_length_a   5.55460600
_cell_length_b   7.86532419
_cell_length_c   11.88157511
_cell_angle_alpha   73.94340359
_cell_angle_beta   90.00000000
_cell_angle_gamma   90.00000000
_symmetry_Int_Tables_number   1
_chemical_formula_structural   Tb3Y5Np4O24
_chemical_formula_sum   'Tb3 Y5 Np4 O24'
_cell_volume   498.84118290
_cell_formula_units_Z   1
loop_
 _symmetry_equiv_pos_site_id
 _symmetry_equiv_pos_as_xyz
  1  'x, y, z'
loop_
 _atom_site_type_symbol
 _atom_site_label
 _atom_site_symmetry_multiplicity
 _atom_site_fract_x
 _atom_site_fract_y
 _atom_site_fract_z
 _atom_site_occupancy
  Tb  Tb0  1  0.255534  0.000000  0.750000  1
  Tb  Tb1  1  0.303115  0.500000  0.750000  1
  Tb  Tb2  1  0.696815  0.500000  0.250000  1
  Y  Y3  1  0.186262  0.793759  0.079414  1
  Y  Y4  1  0.744379  0.000000  0.250000  1
  Y  Y5  1  0.186262  0.206241  0.420586  1
  Y  Y6  1  0.813714  0.206233  0.920561  1
  Y  Y7  1  0.813714  0.793767  0.579439  1
  Np  Np8  1  0.744316  0.721727  0.886120  1
  Np  Np9  1  0.255713  0.721887  0.386027  1
  Np  Np10  1  0.744316  0.278273  0.613880  1
  Np  Np11  1  0.255713  0.278113  0.113973  1
  O  O12  1  0.872180  0.371579  0.446173  1
  O  O13  1  0.447199  0.847852  0.931556  1
  O  O14  1  0.872180  0.628421  0.053827  1
  O  O15  1  0.034963  0.287341  0.732735  1
  O  O16  1  0.965303  0.287487  0.232732  1
  O  O17  1  0.127978  0.371423  0.946251  1
  O  O18  1  0.613206  0.482604  0.883289  1
  O  O19  1  0.552652  0.152026  0.068503  1
  O  O20  1  0.127978  0.628577  0.553749  1
  O  O21  1  0.034963  0.712659  0.767265  1
  O  O22  1  0.449852  0.199310  0.273550  1
  O  O23  1  0.045084  0.944431  0.395960  1
  O  O24  1  0.447199  0.152148  0.568444  1
  O  O25  1  0.965303  0.712513  0.267268  1
  O  O26  1  0.954462  0.055669  0.603875  1
  O  O27  1  0.550496  0.199482  0.773498  1
  O  O28  1  0.550496  0.800518  0.726502  1
  O  O29  1  0.045084  0.055569  0.104040  1
  O  O30  1  0.613206  0.517396  0.616711  1
  O  O31  1  0.386699  0.517187  0.116708  1
  O  O32  1  0.449852  0.800690  0.226450  1
  O  O33  1  0.386699  0.482813  0.383292  1
  O  O34  1  0.552652  0.847974  0.431497  1
  O  O35  1  0.954462  0.944331  0.896125  1
