# generated using pymatgen
data_Lu2Tc3Ge4
_symmetry_space_group_name_H-M   'P 1'
_cell_length_a   8.30829700
_cell_length_b   5.62792209
_cell_length_c   6.96224392
_cell_angle_alpha   75.83293194
_cell_angle_beta   90.00000000
_cell_angle_gamma   90.00000000
_symmetry_Int_Tables_number   1
_chemical_formula_structural   Lu2Tc3Ge4
_chemical_formula_sum   'Lu4 Tc6 Ge8'
_cell_volume   315.64269525
_cell_formula_units_Z   2
loop_
 _symmetry_equiv_pos_site_id
 _symmetry_equiv_pos_as_xyz
  1  'x, y, z'
loop_
 _atom_site_type_symbol
 _atom_site_label
 _atom_site_symmetry_multiplicity
 _atom_site_fract_x
 _atom_site_fract_y
 _atom_site_fract_z
 _atom_site_occupancy
  Lu  Lu0  1  0.550233  0.078046  0.244720  1
  Lu  Lu1  1  0.050233  0.421954  0.755280  1
  Lu  Lu2  1  0.449767  0.921954  0.755280  1
  Lu  Lu3  1  0.949767  0.578046  0.244720  1
  Tc  Tc4  1  0.205346  0.117265  0.110749  1
  Tc  Tc5  1  0.705346  0.382735  0.889251  1
  Tc  Tc6  1  0.794654  0.882735  0.889251  1
  Tc  Tc7  1  0.294654  0.617265  0.110749  1
  Tc  Tc8  1  0.000000  0.000000  0.500000  1
  Tc  Tc9  1  0.500000  0.500000  0.500000  1
  Ge  Ge10  1  0.899971  0.119549  0.131322  1
  Ge  Ge11  1  0.399971  0.380451  0.868678  1
  Ge  Ge12  1  0.100029  0.880451  0.868678  1
  Ge  Ge13  1  0.600029  0.619549  0.131322  1
  Ge  Ge14  1  0.749358  0.224951  0.576655  1
  Ge  Ge15  1  0.249358  0.275049  0.423345  1
  Ge  Ge16  1  0.250642  0.775049  0.423345  1
  Ge  Ge17  1  0.750642  0.724951  0.576655  1
