# generated using pymatgen
data_Er10Tm2Ga9Si9Ge2
_symmetry_space_group_name_H-M   'P 1'
_cell_length_a   5.91667103
_cell_length_b   5.91667182
_cell_length_c   18.59166502
_cell_angle_alpha   90.00293907
_cell_angle_beta   90.00293904
_cell_angle_gamma   102.94983818
_symmetry_Int_Tables_number   1
_chemical_formula_structural   Er10Tm2Ga9Si9Ge2
_chemical_formula_sum   'Er10 Tm2 Ga9 Si9 Ge2'
_cell_volume   634.28541629
_cell_formula_units_Z   1
loop_
 _symmetry_equiv_pos_site_id
 _symmetry_equiv_pos_as_xyz
  1  'x, y, z'
loop_
 _atom_site_type_symbol
 _atom_site_label
 _atom_site_symmetry_multiplicity
 _atom_site_fract_x
 _atom_site_fract_y
 _atom_site_fract_z
 _atom_site_occupancy
  Er  Er0  1  0.659304  0.659304  0.499999  1
  Er  Er1  1  0.341733  0.341733  0.749622  1
  Er  Er2  1  0.200334  0.802249  0.127894  1
  Er  Er3  1  0.198639  0.801601  0.625049  1
  Er  Er4  1  0.200300  0.802264  0.872150  1
  Er  Er5  1  0.198624  0.801607  0.374919  1
  Er  Er6  1  0.802249  0.200334  0.127894  1
  Er  Er7  1  0.801601  0.198639  0.625049  1
  Er  Er8  1  0.801607  0.198624  0.374919  1
  Er  Er9  1  0.802264  0.200300  0.872150  1
  Tm  Tm10  1  0.651699  0.651699  0.999999  1
  Tm  Tm11  1  0.341456  0.341456  0.250381  1
  Ga  Ga12  1  0.317660  0.317660  0.901901  1
  Ga  Ga13  1  0.322796  0.322796  0.401794  1
  Ga  Ga14  1  0.678117  0.678117  0.348082  1
  Ga  Ga15  1  0.678125  0.678125  0.848227  1
  Ga  Ga16  1  0.317687  0.317687  0.098212  1
  Ga  Ga17  1  0.322700  0.322700  0.598088  1
  Ga  Ga18  1  0.677972  0.677972  0.151792  1
  Ga  Ga19  1  0.678237  0.678237  0.651901  1
  Ga  Ga20  1  0.038539  0.038539  0.000003  1
  Si  Si21  1  0.484769  0.087638  0.499974  1
  Si  Si22  1  0.913657  0.516335  0.250420  1
  Si  Si23  1  0.913406  0.516479  0.749589  1
  Si  Si24  1  0.516335  0.913657  0.250420  1
  Si  Si25  1  0.516479  0.913406  0.749589  1
  Si  Si26  1  0.087638  0.484769  0.499974  1
  Si  Si27  1  0.051402  0.051402  0.499988  1
  Si  Si28  1  0.950118  0.950118  0.250653  1
  Si  Si29  1  0.949816  0.949816  0.749347  1
  Ge  Ge30  1  0.498323  0.086415  0.000009  1
  Ge  Ge31  1  0.086415  0.498323  0.000009  1
