# generated using pymatgen
data_Sm3Gd(Pd2O7)2
_symmetry_space_group_name_H-M   'P 1'
_cell_length_a   7.35333173
_cell_length_b   7.35333161
_cell_length_c   7.35959733
_cell_angle_alpha   60.02816215
_cell_angle_beta   60.02815976
_cell_angle_gamma   59.99999867
_symmetry_Int_Tables_number   1
_chemical_formula_structural   Sm3Gd(Pd2O7)2
_chemical_formula_sum   'Sm3 Gd1 Pd4 O14'
_cell_volume   281.50887361
_cell_formula_units_Z   1
loop_
 _symmetry_equiv_pos_site_id
 _symmetry_equiv_pos_as_xyz
  1  'x, y, z'
loop_
 _atom_site_type_symbol
 _atom_site_label
 _atom_site_symmetry_multiplicity
 _atom_site_fract_x
 _atom_site_fract_y
 _atom_site_fract_z
 _atom_site_occupancy
  Sm  Sm0  1  0.125000  0.125000  0.125000  1
  Sm  Sm1  1  0.625000  0.125000  0.125000  1
  Sm  Sm2  1  0.125000  0.625000  0.125000  1
  Gd  Gd3  1  0.125000  0.125000  0.625000  1
  Pd  Pd4  1  0.625000  0.625000  0.625000  1
  Pd  Pd5  1  0.125000  0.625000  0.625000  1
  Pd  Pd6  1  0.625000  0.125000  0.625000  1
  Pd  Pd7  1  0.625000  0.625000  0.125000  1
  O  O8  1  0.287907  0.287907  0.711121  1
  O  O9  1  0.287757  0.712201  0.287840  1
  O  O10  1  0.962243  0.537799  0.962160  1
  O  O11  1  0.712201  0.287757  0.287840  1
  O  O12  1  0.001218  0.001218  0.996346  1
  O  O13  1  0.537799  0.537799  0.962160  1
  O  O14  1  0.287907  0.713066  0.711121  1
  O  O15  1  0.536934  0.962093  0.538879  1
  O  O16  1  0.537799  0.962243  0.962160  1
  O  O17  1  0.712201  0.712201  0.287840  1
  O  O18  1  0.248782  0.248782  0.253654  1
  O  O19  1  0.962093  0.962093  0.538879  1
  O  O20  1  0.962093  0.536934  0.538879  1
  O  O21  1  0.713066  0.287907  0.711121  1
