# generated using pymatgen
data_Tb4CuHg2Pd3
_symmetry_space_group_name_H-M   'P 1'
_cell_length_a   3.74674100
_cell_length_b   7.67647883
_cell_length_c   7.67647804
_cell_angle_alpha   90.08457274
_cell_angle_beta   90.00000000
_cell_angle_gamma   90.00000000
_symmetry_Int_Tables_number   1
_chemical_formula_structural   Tb4CuHg2Pd3
_chemical_formula_sum   'Tb4 Cu1 Hg2 Pd3'
_cell_volume   220.78891625
_cell_formula_units_Z   1
loop_
 _symmetry_equiv_pos_site_id
 _symmetry_equiv_pos_as_xyz
  1  'x, y, z'
loop_
 _atom_site_type_symbol
 _atom_site_label
 _atom_site_symmetry_multiplicity
 _atom_site_fract_x
 _atom_site_fract_y
 _atom_site_fract_z
 _atom_site_occupancy
  Tb  Tb0  1  0.500000  0.175296  0.675296  1
  Tb  Tb1  1  0.500000  0.827264  0.327264  1
  Tb  Tb2  1  0.500000  0.324620  0.172623  1
  Tb  Tb3  1  0.500000  0.672623  0.824620  1
  Cu  Cu4  1  0.000000  0.622652  0.122652  1
  Hg  Hg5  1  0.000000  0.994780  0.001829  1
  Hg  Hg6  1  0.000000  0.501829  0.494780  1
  Pd  Pd7  1  0.000000  0.379655  0.879655  1
  Pd  Pd8  1  0.000000  0.873296  0.627985  1
  Pd  Pd9  1  0.000000  0.127985  0.373296  1
