# generated using pymatgen
data_Pr11In(NiHg2)4
_symmetry_space_group_name_H-M   'P 1'
_cell_length_a   13.40243199
_cell_length_b   13.40243220
_cell_length_c   3.77306900
_cell_angle_alpha   90.00000000
_cell_angle_beta   90.00000000
_cell_angle_gamma   111.98585882
_symmetry_Int_Tables_number   1
_chemical_formula_structural   Pr11In(NiHg2)4
_chemical_formula_sum   'Pr11 In1 Ni4 Hg8'
_cell_volume   628.45057839
_cell_formula_units_Z   1
loop_
 _symmetry_equiv_pos_site_id
 _symmetry_equiv_pos_as_xyz
  1  'x, y, z'
loop_
 _atom_site_type_symbol
 _atom_site_label
 _atom_site_symmetry_multiplicity
 _atom_site_fract_x
 _atom_site_fract_y
 _atom_site_fract_z
 _atom_site_occupancy
  Pr  Pr0  1  0.500000  0.500000  0.500000  1
  Pr  Pr1  1  0.808027  0.808027  0.500000  1
  Pr  Pr2  1  0.191973  0.191973  0.500000  1
  Pr  Pr3  1  0.583070  0.919350  0.500000  1
  Pr  Pr4  1  0.416930  0.080650  0.500000  1
  Pr  Pr5  1  0.919350  0.583070  0.500000  1
  Pr  Pr6  1  0.080650  0.416930  0.500000  1
  Pr  Pr7  1  0.126737  0.873263  0.500000  1
  Pr  Pr8  1  0.873263  0.126737  0.500000  1
  Pr  Pr9  1  0.333978  0.666022  0.500000  1
  Pr  Pr10  1  0.666022  0.333978  0.500000  1
  In  In11  1  0.000000  0.000000  0.000000  1
  Ni  Ni12  1  0.753336  0.951931  0.000000  1
  Ni  Ni13  1  0.246664  0.048069  0.000000  1
  Ni  Ni14  1  0.951931  0.753336  0.000000  1
  Ni  Ni15  1  0.048069  0.246664  0.000000  1
  Hg  Hg16  1  0.339456  0.869315  0.000000  1
  Hg  Hg17  1  0.660544  0.130685  0.000000  1
  Hg  Hg18  1  0.869315  0.339456  0.000000  1
  Hg  Hg19  1  0.130685  0.660544  0.000000  1
  Hg  Hg20  1  0.571746  0.718147  0.000000  1
  Hg  Hg21  1  0.428254  0.281853  0.000000  1
  Hg  Hg22  1  0.718147  0.571746  0.000000  1
  Hg  Hg23  1  0.281853  0.428254  0.000000  1
