# generated using pymatgen
data_MnBr35
_symmetry_space_group_name_H-M   'P 1'
_cell_length_a   15.98197694
_cell_length_b   11.40028128
_cell_length_c   10.79188300
_cell_angle_alpha   88.81408278
_cell_angle_beta   66.02770512
_cell_angle_gamma   92.31545406
_symmetry_Int_Tables_number   1
_chemical_formula_structural   MnBr35
_chemical_formula_sum   'Mn1 Br35'
_cell_volume   1793.71352310
_cell_formula_units_Z   1
loop_
 _symmetry_equiv_pos_site_id
 _symmetry_equiv_pos_as_xyz
  1  'x, y, z'
loop_
 _atom_site_type_symbol
 _atom_site_label
 _atom_site_symmetry_multiplicity
 _atom_site_fract_x
 _atom_site_fract_y
 _atom_site_fract_z
 _atom_site_occupancy
  Mn  Mn0  1  0.230820  0.441238  0.450527  1
  Br  Br1  1  0.510873  0.265392  0.519948  1
  Br  Br2  1  0.765727  0.577407  0.556991  1
  Br  Br3  1  0.492087  0.684181  0.746477  1
  Br  Br4  1  0.050092  0.887274  0.866460  1
  Br  Br5  1  0.891449  0.159400  0.005616  1
  Br  Br6  1  0.646972  0.321249  0.290792  1
  Br  Br7  1  0.622770  0.345931  0.836046  1
  Br  Br8  1  0.354450  0.756382  0.710393  1
  Br  Br9  1  0.332479  0.577530  0.237843  1
  Br  Br10  1  0.648616  0.142366  0.809066  1
  Br  Br11  1  0.905414  0.539727  0.352319  1
  Br  Br12  1  0.055329  0.953617  0.639156  1
  Br  Br13  1  0.895488  0.108321  0.241586  1
  Br  Br14  1  0.887658  0.216039  0.785196  1
  Br  Br15  1  0.647671  0.048461  0.233656  1
  Br  Br16  1  0.022150  0.816477  0.111158  1
  Br  Br17  1  0.369184  0.977319  0.724755  1
  Br  Br18  1  0.897980  0.318405  0.306084  1
  Br  Br19  1  0.872978  0.928606  0.714170  1
  Br  Br20  1  0.898901  0.660800  0.789070  1
  Br  Br21  1  0.317726  0.025107  0.284372  1
  Br  Br22  1  0.333017  0.316677  0.286046  1
  Br  Br23  1  0.628059  0.612991  0.789104  1
  Br  Br24  1  0.113915  0.433985  0.368571  1
  Br  Br25  1  0.705998  0.906707  0.793935  1
  Br  Br26  1  0.874900  0.451704  0.798412  1
  Br  Br27  1  0.487510  0.036092  0.258421  1
  Br  Br28  1  0.158978  0.288468  0.612699  1
  Br  Br29  1  0.673741  0.773025  0.268305  1
  Br  Br30  1  0.847642  0.797539  0.192584  1
  Br  Br31  1  0.378498  0.201674  0.740409  1
  Br  Br32  1  0.341476  0.490319  0.547742  1
  Br  Br33  1  0.654705  0.545018  0.270929  1
  Br  Br34  1  0.160863  0.602273  0.585265  1
  Br  Br35  1  0.323883  0.792300  0.275900  1
