# generated using pymatgen
data_Pr5Nd5Tl2(Bi2Br)2
_symmetry_space_group_name_H-M   'P 1'
_cell_length_a   9.75031600
_cell_length_b   9.65842157
_cell_length_c   6.79674000
_cell_angle_alpha   90.00000000
_cell_angle_beta   90.00000000
_cell_angle_gamma   120.31523727
_symmetry_Int_Tables_number   1
_chemical_formula_structural   Pr5Nd5Tl2(Bi2Br)2
_chemical_formula_sum   'Pr5 Nd5 Tl2 Bi4 Br2'
_cell_volume   552.54518702
_cell_formula_units_Z   1
loop_
 _symmetry_equiv_pos_site_id
 _symmetry_equiv_pos_as_xyz
  1  'x, y, z'
loop_
 _atom_site_type_symbol
 _atom_site_label
 _atom_site_symmetry_multiplicity
 _atom_site_fract_x
 _atom_site_fract_y
 _atom_site_fract_z
 _atom_site_occupancy
  Pr  Pr0  1  0.727909  0.000000  0.250000  1
  Pr  Pr1  1  0.997894  0.267793  0.750000  1
  Pr  Pr2  1  0.002037  0.732425  0.250000  1
  Pr  Pr3  1  0.730101  0.732207  0.750000  1
  Pr  Pr4  1  0.269613  0.267575  0.250000  1
  Nd  Nd5  1  0.272519  0.000000  0.750000  1
  Nd  Nd6  1  0.334431  0.669153  0.500208  1
  Nd  Nd7  1  0.665279  0.330847  0.500208  1
  Nd  Nd8  1  0.665279  0.330847  0.999792  1
  Nd  Nd9  1  0.334431  0.669153  0.999792  1
  Tl  Tl10  1  0.610593  0.000000  0.750000  1
  Tl  Tl11  1  0.388427  0.000000  0.250000  1
  Bi  Bi12  1  0.000336  0.616315  0.750000  1
  Bi  Bi13  1  0.000271  0.384693  0.250000  1
  Bi  Bi14  1  0.384020  0.383685  0.750000  1
  Bi  Bi15  1  0.615578  0.615307  0.250000  1
  Br  Br16  1  0.000642  0.000000  0.500550  1
  Br  Br17  1  0.000642  0.000000  0.999450  1
