# generated using pymatgen
data_Er5Tm5(In2Sb)2
_symmetry_space_group_name_H-M   'P 1'
_cell_length_a   8.89443547
_cell_length_b   8.89479506
_cell_length_c   6.47070100
_cell_angle_alpha   90.00000000
_cell_angle_beta   90.00000000
_cell_angle_gamma   119.96153084
_symmetry_Int_Tables_number   1
_chemical_formula_structural   Er5Tm5(In2Sb)2
_chemical_formula_sum   'Er5 Tm5 In4 Sb2'
_cell_volume   443.51112512
_cell_formula_units_Z   1
loop_
 _symmetry_equiv_pos_site_id
 _symmetry_equiv_pos_as_xyz
  1  'x, y, z'
loop_
 _atom_site_type_symbol
 _atom_site_label
 _atom_site_symmetry_multiplicity
 _atom_site_fract_x
 _atom_site_fract_y
 _atom_site_fract_z
 _atom_site_occupancy
  Er  Er0  1  0.236411  0.999957  0.250000  1
  Er  Er1  1  0.760502  0.999894  0.750000  1
  Er  Er2  1  0.999564  0.238305  0.250000  1
  Er  Er3  1  0.239347  0.235462  0.750000  1
  Er  Er4  1  0.003753  0.764717  0.750000  1
  Tm  Tm5  1  0.331432  0.665100  0.003608  1
  Tm  Tm6  1  0.666381  0.335141  0.496390  1
  Tm  Tm7  1  0.666381  0.335141  0.003610  1
  Tm  Tm8  1  0.331432  0.665100  0.496392  1
  Tm  Tm9  1  0.761374  0.761576  0.250000  1
  In  In10  1  0.601931  0.999629  0.250000  1
  In  In11  1  0.402147  0.999851  0.750000  1
  In  In12  1  0.998889  0.605046  0.250000  1
  In  In13  1  0.394388  0.395149  0.250000  1
  Sb  Sb14  1  0.606095  0.606101  0.750000  1
  Sb  Sb15  1  0.999975  0.393832  0.750000  1
