# generated using pymatgen
data_Ho2Tm2Lu(In2Pt)2
_symmetry_space_group_name_H-M   'P 1'
_cell_length_a   3.62957500
_cell_length_b   8.06434903
_cell_length_c   18.07928761
_cell_angle_alpha   89.84995972
_cell_angle_beta   90.00000000
_cell_angle_gamma   90.00000000
_symmetry_Int_Tables_number   1
_chemical_formula_structural   Ho2Tm2Lu(In2Pt)2
_chemical_formula_sum   'Ho4 Tm4 Lu2 In8 Pt4'
_cell_volume   529.18181995
_cell_formula_units_Z   2
loop_
 _symmetry_equiv_pos_site_id
 _symmetry_equiv_pos_as_xyz
  1  'x, y, z'
loop_
 _atom_site_type_symbol
 _atom_site_label
 _atom_site_symmetry_multiplicity
 _atom_site_fract_x
 _atom_site_fract_y
 _atom_site_fract_z
 _atom_site_occupancy
  Ho  Ho0  1  0.000000  0.256841  0.720132  1
  Ho  Ho1  1  0.000000  0.743159  0.279868  1
  Ho  Ho2  1  0.000000  0.000000  0.000000  1
  Ho  Ho3  1  0.000000  0.500000  0.500000  1
  Tm  Tm4  1  0.000000  0.383392  0.914225  1
  Tm  Tm5  1  0.000000  0.616608  0.085775  1
  Tm  Tm6  1  0.000000  0.243404  0.220962  1
  Tm  Tm7  1  0.000000  0.756596  0.779038  1
  Lu  Lu8  1  0.000000  0.116727  0.413864  1
  Lu  Lu9  1  0.000000  0.883273  0.586136  1
  In  In10  1  0.500000  0.421406  0.351519  1
  In  In11  1  0.500000  0.578594  0.648481  1
  In  In12  1  0.500000  0.076329  0.851002  1
  In  In13  1  0.500000  0.923671  0.148998  1
  In  In14  1  0.500000  0.292922  0.066651  1
  In  In15  1  0.500000  0.707078  0.933349  1
  In  In16  1  0.500000  0.205040  0.565452  1
  In  In17  1  0.500000  0.794960  0.434548  1
  Pt  Pt18  1  0.500000  0.027258  0.304911  1
  Pt  Pt19  1  0.500000  0.972742  0.695089  1
  Pt  Pt20  1  0.500000  0.476143  0.804295  1
  Pt  Pt21  1  0.500000  0.523857  0.195705  1
