# generated using pymatgen
data_Dy4Tm4Lu4Co5Bi
_symmetry_space_group_name_H-M   'P 1'
_cell_length_a   8.19462904
_cell_length_b   8.19462759
_cell_length_c   8.19462821
_cell_angle_alpha   111.28117870
_cell_angle_beta   110.60760500
_cell_angle_gamma   106.56416622
_symmetry_Int_Tables_number   1
_chemical_formula_structural   Dy4Tm4Lu4Co5Bi
_chemical_formula_sum   'Dy4 Tm4 Lu4 Co5 Bi1'
_cell_volume   422.78163907
_cell_formula_units_Z   1
loop_
 _symmetry_equiv_pos_site_id
 _symmetry_equiv_pos_as_xyz
  1  'x, y, z'
loop_
 _atom_site_type_symbol
 _atom_site_label
 _atom_site_symmetry_multiplicity
 _atom_site_fract_x
 _atom_site_fract_y
 _atom_site_fract_z
 _atom_site_occupancy
  Dy  Dy0  1  0.593160  0.789437  0.803723  1
  Dy  Dy1  1  0.406840  0.210563  0.196277  1
  Dy  Dy2  1  0.985714  0.789437  0.196277  1
  Dy  Dy3  1  0.014286  0.210563  0.803723  1
  Tm  Tm4  1  0.817825  0.713070  0.530895  1
  Tm  Tm5  1  0.182175  0.286930  0.469105  1
  Tm  Tm6  1  0.182175  0.713070  0.895243  1
  Tm  Tm7  1  0.817825  0.286930  0.104757  1
  Lu  Lu8  1  0.687011  0.377172  0.690161  1
  Lu  Lu9  1  0.312989  0.622828  0.309839  1
  Lu  Lu10  1  0.687011  0.996850  0.309839  1
  Lu  Lu11  1  0.312989  0.003150  0.690161  1
  Co  Co12  1  0.624266  0.000000  0.624266  1
  Co  Co13  1  0.375734  0.000000  0.375734  1
  Co  Co14  1  0.112165  0.612165  0.500000  1
  Co  Co15  1  0.887835  0.387835  0.500000  1
  Co  Co16  1  0.000000  0.000000  0.000000  1
  Bi  Bi17  1  0.500000  0.500000  0.000000  1
