# generated using pymatgen
data_Sr2TmMoO6
_symmetry_space_group_name_H-M   'P 1'
_cell_length_a   5.84315277
_cell_length_b   8.25164812
_cell_length_c   5.85246803
_cell_angle_alpha   89.99326957
_cell_angle_beta   90.00982847
_cell_angle_gamma   90.47992350
_symmetry_Int_Tables_number   1
_chemical_formula_structural   Sr2TmMoO6
_chemical_formula_sum   'Sr4 Tm2 Mo2 O12'
_cell_volume   282.17059014
_cell_formula_units_Z   2
loop_
 _symmetry_equiv_pos_site_id
 _symmetry_equiv_pos_as_xyz
  1  'x, y, z'
loop_
 _atom_site_type_symbol
 _atom_site_label
 _atom_site_symmetry_multiplicity
 _atom_site_fract_x
 _atom_site_fract_y
 _atom_site_fract_z
 _atom_site_occupancy
  Sr  Sr0  1  0.493970  0.251115  0.531617  1
  Sr  Sr1  1  0.006234  0.248974  0.031760  1
  Sr  Sr2  1  0.993764  0.751026  0.968238  1
  Sr  Sr3  1  0.506028  0.748886  0.468384  1
  Tm  Tm4  1  0.999994  0.500002  0.499997  1
  Tm  Tm5  1  0.500001  0.999999  0.000000  1
  Mo  Mo6  1  0.000001  0.000000  0.500000  1
  Mo  Mo7  1  0.499998  0.499998  0.000001  1
  O  O8  1  0.772215  0.534129  0.200357  1
  O  O9  1  0.227783  0.465870  0.799641  1
  O  O10  1  0.272317  0.034199  0.299591  1
  O  O11  1  0.727687  0.965801  0.700410  1
  O  O12  1  0.573509  0.262891  0.987578  1
  O  O13  1  0.926617  0.237119  0.487510  1
  O  O14  1  0.073384  0.762882  0.512492  1
  O  O15  1  0.426492  0.737108  0.012422  1
  O  O16  1  0.295530  0.458369  0.274662  1
  O  O17  1  0.795519  0.958209  0.225518  1
  O  O18  1  0.204486  0.041792  0.774482  1
  O  O19  1  0.704469  0.541633  0.725338  1
