# generated using pymatgen
data_Tb12Th4Mg4Ru3Rh
_symmetry_space_group_name_H-M   'P 1'
_cell_length_a   9.79077433
_cell_length_b   9.81623582
_cell_length_c   9.81623600
_cell_angle_alpha   59.99999940
_cell_angle_beta   59.91393623
_cell_angle_gamma   59.91393404
_symmetry_Int_Tables_number   1
_chemical_formula_structural   Tb12Th4Mg4Ru3Rh
_chemical_formula_sum   'Tb12 Th4 Mg4 Ru3 Rh1'
_cell_volume   666.23252004
_cell_formula_units_Z   1
loop_
 _symmetry_equiv_pos_site_id
 _symmetry_equiv_pos_as_xyz
  1  'x, y, z'
loop_
 _atom_site_type_symbol
 _atom_site_label
 _atom_site_symmetry_multiplicity
 _atom_site_fract_x
 _atom_site_fract_y
 _atom_site_fract_z
 _atom_site_occupancy
  Tb  Tb0  1  0.814674  0.187120  0.187120  1
  Tb  Tb1  1  0.186483  0.813320  0.813320  1
  Tb  Tb2  1  0.186483  0.813320  0.186877  1
  Tb  Tb3  1  0.814674  0.187120  0.811085  1
  Tb  Tb4  1  0.186483  0.186877  0.813320  1
  Tb  Tb5  1  0.814674  0.811085  0.187120  1
  Tb  Tb6  1  0.934813  0.564621  0.564621  1
  Tb  Tb7  1  0.563132  0.935382  0.935382  1
  Tb  Tb8  1  0.563132  0.935382  0.566104  1
  Tb  Tb9  1  0.934813  0.564621  0.935945  1
  Tb  Tb10  1  0.563132  0.566104  0.935382  1
  Tb  Tb11  1  0.934813  0.935945  0.564621  1
  Th  Th12  1  0.343801  0.348361  0.348361  1
  Th  Th13  1  0.343801  0.348361  0.959477  1
  Th  Th14  1  0.343801  0.959477  0.348361  1
  Th  Th15  1  0.962367  0.345878  0.345878  1
  Mg  Mg16  1  0.579445  0.579854  0.579854  1
  Mg  Mg17  1  0.579445  0.579854  0.260847  1
  Mg  Mg18  1  0.579445  0.260847  0.579854  1
  Mg  Mg19  1  0.260514  0.579829  0.579829  1
  Ru  Ru20  1  0.146362  0.143617  0.143617  1
  Ru  Ru21  1  0.146362  0.143617  0.566402  1
  Ru  Ru22  1  0.146362  0.566402  0.143617  1
  Rh  Rh23  1  0.570991  0.143002  0.143002  1
