# generated using pymatgen
data_YbLu(MnB4)2
_symmetry_space_group_name_H-M   'P 1'
_cell_length_a   3.35668500
_cell_length_b   5.87990514
_cell_length_c   11.35927312
_cell_angle_alpha   89.87550077
_cell_angle_beta   90.00000000
_cell_angle_gamma   90.00000000
_symmetry_Int_Tables_number   1
_chemical_formula_structural   YbLu(MnB4)2
_chemical_formula_sum   'Yb2 Lu2 Mn4 B16'
_cell_volume   224.19732354
_cell_formula_units_Z   2
loop_
 _symmetry_equiv_pos_site_id
 _symmetry_equiv_pos_as_xyz
  1  'x, y, z'
loop_
 _atom_site_type_symbol
 _atom_site_label
 _atom_site_symmetry_multiplicity
 _atom_site_fract_x
 _atom_site_fract_y
 _atom_site_fract_z
 _atom_site_occupancy
  Yb  Yb0  1  0.000000  0.625576  0.349493  1
  Yb  Yb1  1  0.000000  0.374424  0.650507  1
  Lu  Lu2  1  0.000000  0.127094  0.151139  1
  Lu  Lu3  1  0.000000  0.872906  0.848861  1
  Mn  Mn4  1  0.000000  0.627784  0.082850  1
  Mn  Mn5  1  0.000000  0.372216  0.917150  1
  Mn  Mn6  1  0.000000  0.122593  0.419715  1
  Mn  Mn7  1  0.000000  0.877407  0.580285  1
  B  B8  1  0.500000  0.781981  0.183682  1
  B  B9  1  0.500000  0.218019  0.816318  1
  B  B10  1  0.500000  0.280611  0.316614  1
  B  B11  1  0.500000  0.719389  0.683386  1
  B  B12  1  0.500000  0.863235  0.031782  1
  B  B13  1  0.500000  0.136765  0.968218  1
  B  B14  1  0.500000  0.362109  0.467288  1
  B  B15  1  0.500000  0.637891  0.532712  1
  B  B16  1  0.500000  0.886814  0.453224  1
  B  B17  1  0.500000  0.113186  0.546776  1
  B  B18  1  0.500000  0.386946  0.047141  1
  B  B19  1  0.500000  0.613054  0.952859  1
  B  B20  1  0.500000  0.976945  0.308335  1
  B  B21  1  0.500000  0.023055  0.691665  1
  B  B22  1  0.500000  0.474237  0.191552  1
  B  B23  1  0.500000  0.525763  0.808448  1
