# generated using pymatgen
data_P2HWO8
_symmetry_space_group_name_H-M   'P 1'
_cell_length_a   5.09617313
_cell_length_b   5.09619153
_cell_length_c   7.79210334
_cell_angle_alpha   70.43987762
_cell_angle_beta   70.44003369
_cell_angle_gamma   63.34189842
_symmetry_Int_Tables_number   1
_chemical_formula_structural   P2HWO8
_chemical_formula_sum   'P2 H1 W1 O8'
_cell_volume   166.27614117
_cell_formula_units_Z   1
loop_
 _symmetry_equiv_pos_site_id
 _symmetry_equiv_pos_as_xyz
  1  'x, y, z'
loop_
 _atom_site_type_symbol
 _atom_site_label
 _atom_site_symmetry_multiplicity
 _atom_site_fract_x
 _atom_site_fract_y
 _atom_site_fract_z
 _atom_site_occupancy
  P  P0  1  0.728076  0.728080  0.275174  1
  P  P1  1  0.271924  0.271920  0.724826  1
  H  H2  1  0.000000  0.000000  0.000000  1
  W  W3  1  0.000000  0.000000  0.500000  1
  O  O4  1  0.805599  0.805613  0.424446  1
  O  O5  1  0.850623  0.850621  0.075351  1
  O  O6  1  0.843281  0.377545  0.314911  1
  O  O7  1  0.377545  0.843265  0.314906  1
  O  O8  1  0.622455  0.156735  0.685094  1
  O  O9  1  0.156719  0.622455  0.685089  1
  O  O10  1  0.149377  0.149379  0.924649  1
  O  O11  1  0.194401  0.194387  0.575554  1
