# generated using pymatgen
data_Ho3Er4Lu(CdPt)2
_symmetry_space_group_name_H-M   'P 1'
_cell_length_a   9.60454111
_cell_length_b   9.60454216
_cell_length_c   9.60016300
_cell_angle_alpha   60.01507800
_cell_angle_beta   60.01507438
_cell_angle_gamma   59.96984210
_symmetry_Int_Tables_number   1
_chemical_formula_structural   Ho3Er4Lu(CdPt)2
_chemical_formula_sum   'Ho6 Er8 Lu2 Cd4 Pt4'
_cell_volume   626.20524000
_cell_formula_units_Z   2
loop_
 _symmetry_equiv_pos_site_id
 _symmetry_equiv_pos_as_xyz
  1  'x, y, z'
loop_
 _atom_site_type_symbol
 _atom_site_label
 _atom_site_symmetry_multiplicity
 _atom_site_fract_x
 _atom_site_fract_y
 _atom_site_fract_z
 _atom_site_occupancy
  Ho  Ho0  1  0.185452  0.814548  0.814548  1
  Ho  Ho1  1  0.814548  0.185452  0.185452  1
  Ho  Ho2  1  0.814548  0.185452  0.814548  1
  Ho  Ho3  1  0.185452  0.814548  0.185452  1
  Ho  Ho4  1  0.814591  0.814591  0.185409  1
  Ho  Ho5  1  0.185409  0.185409  0.814591  1
  Er  Er6  1  0.602082  0.602082  0.602488  1
  Er  Er7  1  0.602082  0.602082  0.193347  1
  Er  Er8  1  0.602488  0.193347  0.602082  1
  Er  Er9  1  0.193347  0.602488  0.602082  1
  Er  Er10  1  0.060948  0.439052  0.439052  1
  Er  Er11  1  0.439052  0.060948  0.060948  1
  Er  Er12  1  0.439052  0.060948  0.439052  1
  Er  Er13  1  0.060948  0.439052  0.060948  1
  Lu  Lu14  1  0.439191  0.439191  0.060809  1
  Lu  Lu15  1  0.060809  0.060809  0.439191  1
  Cd  Cd16  1  0.831741  0.831741  0.831651  1
  Cd  Cd17  1  0.831741  0.831741  0.504866  1
  Cd  Cd18  1  0.831651  0.504866  0.831741  1
  Cd  Cd19  1  0.504866  0.831651  0.831741  1
  Pt  Pt20  1  0.393261  0.393261  0.392382  1
  Pt  Pt21  1  0.393261  0.393261  0.821095  1
  Pt  Pt22  1  0.392382  0.821095  0.393261  1
  Pt  Pt23  1  0.821095  0.392382  0.393261  1
