# generated using pymatgen
data_Sc9Re4S
_symmetry_space_group_name_H-M   'P 1'
_cell_length_a   8.51987700
_cell_length_b   8.65132946
_cell_length_c   8.65132801
_cell_angle_alpha   120.00639092
_cell_angle_beta   90.00000000
_cell_angle_gamma   90.00000000
_symmetry_Int_Tables_number   1
_chemical_formula_structural   Sc9Re4S
_chemical_formula_sum   'Sc18 Re8 S2'
_cell_volume   552.20662697
_cell_formula_units_Z   2
loop_
 _symmetry_equiv_pos_site_id
 _symmetry_equiv_pos_as_xyz
  1  'x, y, z'
loop_
 _atom_site_type_symbol
 _atom_site_label
 _atom_site_symmetry_multiplicity
 _atom_site_fract_x
 _atom_site_fract_y
 _atom_site_fract_z
 _atom_site_occupancy
  Sc  Sc0  1  0.549927  0.803399  0.606796  1
  Sc  Sc1  1  0.549902  0.803392  0.196608  1
  Sc  Sc2  1  0.549927  0.393204  0.196601  1
  Sc  Sc3  1  0.450073  0.196601  0.393204  1
  Sc  Sc4  1  0.450098  0.196608  0.803392  1
  Sc  Sc5  1  0.450073  0.606796  0.803399  1
  Sc  Sc6  1  0.049927  0.196601  0.393204  1
  Sc  Sc7  1  0.049902  0.196608  0.803392  1
  Sc  Sc8  1  0.049927  0.606796  0.803399  1
  Sc  Sc9  1  0.950073  0.803399  0.606796  1
  Sc  Sc10  1  0.950098  0.803392  0.196608  1
  Sc  Sc11  1  0.950073  0.393204  0.196601  1
  Sc  Sc12  1  0.750000  0.457311  0.914601  1
  Sc  Sc13  1  0.750000  0.457284  0.542716  1
  Sc  Sc14  1  0.750000  0.085399  0.542689  1
  Sc  Sc15  1  0.250000  0.542689  0.085399  1
  Sc  Sc16  1  0.250000  0.542716  0.457284  1
  Sc  Sc17  1  0.250000  0.914601  0.457311  1
  Re  Re18  1  0.750000  0.107918  0.215807  1
  Re  Re19  1  0.750000  0.107938  0.892062  1
  Re  Re20  1  0.750000  0.784193  0.892082  1
  Re  Re21  1  0.250000  0.892082  0.784193  1
  Re  Re22  1  0.250000  0.892062  0.107938  1
  Re  Re23  1  0.250000  0.215807  0.107918  1
  Re  Re24  1  0.500000  0.000000  0.000000  1
  Re  Re25  1  0.000000  0.000000  0.000000  1
  S  S26  1  0.750000  0.666695  0.333305  1
  S  S27  1  0.250000  0.333305  0.666695  1
