# generated using pymatgen
data_Be8Tc2MoOs
_symmetry_space_group_name_H-M   'P 1'
_cell_length_a   4.38077900
_cell_length_b   4.38077797
_cell_length_c   7.15833000
_cell_angle_alpha   90.00000000
_cell_angle_beta   90.00000000
_cell_angle_gamma   120.00000024
_symmetry_Int_Tables_number   1
_chemical_formula_structural   Be8Tc2MoOs
_chemical_formula_sum   'Be8 Tc2 Mo1 Os1'
_cell_volume   118.97204676
_cell_formula_units_Z   1
loop_
 _symmetry_equiv_pos_site_id
 _symmetry_equiv_pos_as_xyz
  1  'x, y, z'
loop_
 _atom_site_type_symbol
 _atom_site_label
 _atom_site_symmetry_multiplicity
 _atom_site_fract_x
 _atom_site_fract_y
 _atom_site_fract_z
 _atom_site_occupancy
  Be  Be0  1  0.000000  0.000000  0.502050  1
  Be  Be1  1  0.000000  0.000000  0.998961  1
  Be  Be2  1  0.831147  0.168853  0.251661  1
  Be  Be3  1  0.831147  0.662293  0.251661  1
  Be  Be4  1  0.337707  0.168853  0.251661  1
  Be  Be5  1  0.168550  0.831450  0.748375  1
  Be  Be6  1  0.168550  0.337100  0.748375  1
  Be  Be7  1  0.662900  0.831450  0.748375  1
  Tc  Tc8  1  0.333333  0.666667  0.435783  1
  Tc  Tc9  1  0.666667  0.333333  0.560385  1
  Mo  Mo10  1  0.333333  0.666667  0.063080  1
  Os  Os11  1  0.666667  0.333333  0.939632  1
