# generated using pymatgen
data_Dy5Lu(Si3Os)8
_symmetry_space_group_name_H-M   'P 1'
_cell_length_a   10.11984343
_cell_length_b   10.11984409
_cell_length_c   8.16186236
_cell_angle_alpha   90.02348140
_cell_angle_beta   90.02348593
_cell_angle_gamma   132.45577954
_symmetry_Int_Tables_number   1
_chemical_formula_structural   Dy5Lu(Si3Os)8
_chemical_formula_sum   'Dy5 Lu1 Si24 Os8'
_cell_volume   616.70070451
_cell_formula_units_Z   1
loop_
 _symmetry_equiv_pos_site_id
 _symmetry_equiv_pos_as_xyz
  1  'x, y, z'
loop_
 _atom_site_type_symbol
 _atom_site_label
 _atom_site_symmetry_multiplicity
 _atom_site_fract_x
 _atom_site_fract_y
 _atom_site_fract_z
 _atom_site_occupancy
  Dy  Dy0  1  0.000000  0.000000  0.000000  1
  Dy  Dy1  1  0.502081  0.001819  0.749398  1
  Dy  Dy2  1  0.998181  0.497919  0.250602  1
  Dy  Dy3  1  0.497919  0.998181  0.250602  1
  Dy  Dy4  1  0.001819  0.502081  0.749398  1
  Lu  Lu5  1  0.500000  0.500000  0.500000  1
  Si  Si6  1  0.794831  0.205169  0.500000  1
  Si  Si7  1  0.295483  0.704517  0.000000  1
  Si  Si8  1  0.205169  0.794831  0.500000  1
  Si  Si9  1  0.704517  0.295483  0.000000  1
  Si  Si10  1  0.331880  0.331880  0.833055  1
  Si  Si11  1  0.668120  0.668120  0.166945  1
  Si  Si12  1  0.167371  0.167371  0.332787  1
  Si  Si13  1  0.832629  0.832629  0.667213  1
  Si  Si14  1  0.121338  0.886478  0.727619  1
  Si  Si15  1  0.113522  0.878662  0.272381  1
  Si  Si16  1  0.611205  0.377137  0.228552  1
  Si  Si17  1  0.622863  0.388795  0.771448  1
  Si  Si18  1  0.878662  0.113522  0.272381  1
  Si  Si19  1  0.886478  0.121338  0.727619  1
  Si  Si20  1  0.388795  0.622863  0.771448  1
  Si  Si21  1  0.377137  0.611205  0.228552  1
  Si  Si22  1  0.344929  0.111172  0.504778  1
  Si  Si23  1  0.888828  0.655071  0.495222  1
  Si  Si24  1  0.388145  0.154591  0.005044  1
  Si  Si25  1  0.845409  0.611855  0.994956  1
  Si  Si26  1  0.655071  0.888828  0.495222  1
  Si  Si27  1  0.111172  0.344929  0.504778  1
  Si  Si28  1  0.611855  0.845409  0.994956  1
  Si  Si29  1  0.154591  0.388145  0.005044  1
  Os  Os30  1  0.668112  0.331888  0.500000  1
  Os  Os31  1  0.169369  0.830631  0.000000  1
  Os  Os32  1  0.331888  0.668112  0.500000  1
  Os  Os33  1  0.830631  0.169369  0.000000  1
  Os  Os34  1  0.127731  0.127731  0.626357  1
  Os  Os35  1  0.872269  0.872269  0.373643  1
  Os  Os36  1  0.374055  0.374055  0.129204  1
  Os  Os37  1  0.625945  0.625945  0.870796  1
