# generated using pymatgen
data_Nd8Ho12Sn13Bi3
_symmetry_space_group_name_H-M   'P 1'
_cell_length_a   8.19451823
_cell_length_b   8.27866603
_cell_length_c   15.62435600
_cell_angle_alpha   90.11230544
_cell_angle_beta   89.64507163
_cell_angle_gamma   90.05788888
_symmetry_Int_Tables_number   1
_chemical_formula_structural   Nd8Ho12Sn13Bi3
_chemical_formula_sum   'Nd8 Ho12 Sn13 Bi3'
_cell_volume   1059.92840462
_cell_formula_units_Z   1
loop_
 _symmetry_equiv_pos_site_id
 _symmetry_equiv_pos_as_xyz
  1  'x, y, z'
loop_
 _atom_site_type_symbol
 _atom_site_label
 _atom_site_symmetry_multiplicity
 _atom_site_fract_x
 _atom_site_fract_y
 _atom_site_fract_z
 _atom_site_occupancy
  Nd  Nd0  1  0.523384  0.325152  0.900495  1
  Nd  Nd1  1  0.032312  0.177398  0.602259  1
  Nd  Nd2  1  0.467892  0.677170  0.398157  1
  Nd  Nd3  1  0.972317  0.820304  0.100058  1
  Nd  Nd4  1  0.479951  0.675275  0.098197  1
  Nd  Nd5  1  0.980741  0.823763  0.398703  1
  Nd  Nd6  1  0.518890  0.322718  0.601171  1
  Nd  Nd7  1  0.017636  0.181334  0.900052  1
  Ho  Ho8  1  0.368044  0.833867  0.876144  1
  Ho  Ho9  1  0.873267  0.661348  0.624666  1
  Ho  Ho10  1  0.627815  0.160990  0.374945  1
  Ho  Ho11  1  0.131366  0.340867  0.123647  1
  Ho  Ho12  1  0.638619  0.163206  0.122938  1
  Ho  Ho13  1  0.136448  0.336387  0.377179  1
  Ho  Ho14  1  0.363918  0.836411  0.622703  1
  Ho  Ho15  1  0.865955  0.663092  0.876654  1
  Ho  Ho16  1  0.197602  0.502109  0.750555  1
  Ho  Ho17  1  0.696719  0.997867  0.754132  1
  Ho  Ho18  1  0.802527  0.498451  0.247003  1
  Ho  Ho19  1  0.302902  0.002215  0.252522  1
  Sn  Sn20  1  0.203621  0.538257  0.957746  1
  Sn  Sn21  1  0.707109  0.961575  0.957480  1
  Sn  Sn22  1  0.208818  0.536664  0.543374  1
  Sn  Sn23  1  0.291781  0.037161  0.456945  1
  Sn  Sn24  1  0.797036  0.461491  0.042044  1
  Sn  Sn25  1  0.565117  0.625589  0.747812  1
  Sn  Sn26  1  0.065033  0.876163  0.750541  1
  Sn  Sn27  1  0.436304  0.374636  0.248898  1
  Sn  Sn28  1  0.935734  0.125382  0.250883  1
  Sn  Sn29  1  0.331090  0.142943  0.751413  1
  Sn  Sn30  1  0.829239  0.356518  0.749233  1
  Sn  Sn31  1  0.668298  0.855316  0.249965  1
  Sn  Sn32  1  0.168736  0.643529  0.248977  1
  Bi  Bi33  1  0.293446  0.038472  0.042491  1
  Bi  Bi34  1  0.790733  0.463248  0.457129  1
  Bi  Bi35  1  0.709601  0.963131  0.542890  1
