# generated using pymatgen
data_LiYb2HC3
_symmetry_space_group_name_H-M   'P 1'
_cell_length_a   6.72765400
_cell_length_b   6.72765400
_cell_length_c   3.73911900
_cell_angle_alpha   90.00000000
_cell_angle_beta   90.00000000
_cell_angle_gamma   90.00000000
_symmetry_Int_Tables_number   1
_chemical_formula_structural   LiYb2HC3
_chemical_formula_sum   'Li2 Yb4 H2 C6'
_cell_volume   169.23749278
_cell_formula_units_Z   2
loop_
 _symmetry_equiv_pos_site_id
 _symmetry_equiv_pos_as_xyz
  1  'x, y, z'
loop_
 _atom_site_type_symbol
 _atom_site_label
 _atom_site_symmetry_multiplicity
 _atom_site_fract_x
 _atom_site_fract_y
 _atom_site_fract_z
 _atom_site_occupancy
  Li  Li0  1  0.500000  0.500000  0.000000  1
  Li  Li1  1  0.000000  0.000000  0.000000  1
  Yb  Yb2  1  0.680315  0.180315  0.500000  1
  Yb  Yb3  1  0.319685  0.819685  0.500000  1
  Yb  Yb4  1  0.180315  0.319685  0.500000  1
  Yb  Yb5  1  0.819685  0.680315  0.500000  1
  H  H6  1  0.500000  0.500000  0.500000  1
  H  H7  1  0.000000  0.000000  0.500000  1
  C  C8  1  0.139351  0.639351  0.000000  1
  C  C9  1  0.860649  0.360649  0.000000  1
  C  C10  1  0.639351  0.860649  0.000000  1
  C  C11  1  0.360649  0.139351  0.000000  1
  C  C12  1  0.500000  0.000000  0.000000  1
  C  C13  1  0.000000  0.500000  0.000000  1
