# generated using pymatgen
data_NdV(SnRh2)3
_symmetry_space_group_name_H-M   'P 1'
_cell_length_a   7.56661100
_cell_length_b   7.56661045
_cell_length_c   3.99702800
_cell_angle_alpha   90.00000000
_cell_angle_beta   90.00000000
_cell_angle_gamma   119.99999803
_symmetry_Int_Tables_number   1
_chemical_formula_structural   NdV(SnRh2)3
_chemical_formula_sum   'Nd1 V1 Sn3 Rh6'
_cell_volume   198.18492387
_cell_formula_units_Z   1
loop_
 _symmetry_equiv_pos_site_id
 _symmetry_equiv_pos_as_xyz
  1  'x, y, z'
loop_
 _atom_site_type_symbol
 _atom_site_label
 _atom_site_symmetry_multiplicity
 _atom_site_fract_x
 _atom_site_fract_y
 _atom_site_fract_z
 _atom_site_occupancy
  Nd  Nd0  1  0.000000  0.000000  0.000000  1
  V  V1  1  0.333333  0.666667  0.000000  1
  Sn  Sn2  1  0.390767  0.195383  0.499999  1
  Sn  Sn3  1  0.804617  0.195383  0.499999  1
  Sn  Sn4  1  0.804618  0.609234  0.499999  1
  Rh  Rh5  1  0.520942  0.041883  0.000000  1
  Rh  Rh6  1  0.520941  0.479058  0.000000  1
  Rh  Rh7  1  0.958116  0.479058  0.000000  1
  Rh  Rh8  1  0.211716  0.423430  0.499999  1
  Rh  Rh9  1  0.211716  0.788283  0.499999  1
  Rh  Rh10  1  0.576569  0.788283  0.499999  1
