# generated using pymatgen
data_Sm6MgCd22Sb
_symmetry_space_group_name_H-M   'P 1'
_cell_length_a   10.07743413
_cell_length_b   10.07743460
_cell_length_c   10.07743400
_cell_angle_alpha   60.00000196
_cell_angle_beta   60.00000043
_cell_angle_gamma   59.99999992
_symmetry_Int_Tables_number   1
_chemical_formula_structural   Sm6MgCd22Sb
_chemical_formula_sum   'Sm6 Mg1 Cd22 Sb1'
_cell_volume   723.66060113
_cell_formula_units_Z   1
loop_
 _symmetry_equiv_pos_site_id
 _symmetry_equiv_pos_as_xyz
  1  'x, y, z'
loop_
 _atom_site_type_symbol
 _atom_site_label
 _atom_site_symmetry_multiplicity
 _atom_site_fract_x
 _atom_site_fract_y
 _atom_site_fract_z
 _atom_site_occupancy
  Sm  Sm0  1  0.783771  0.783771  0.216229  1
  Sm  Sm1  1  0.216229  0.783771  0.216229  1
  Sm  Sm2  1  0.783771  0.216229  0.216229  1
  Sm  Sm3  1  0.216229  0.216229  0.783771  1
  Sm  Sm4  1  0.783771  0.216229  0.783771  1
  Sm  Sm5  1  0.216229  0.783771  0.783771  1
  Mg  Mg6  1  0.500000  0.500000  0.500000  1
  Cd  Cd7  1  0.835548  0.835548  0.493356  1
  Cd  Cd8  1  0.835548  0.493356  0.835548  1
  Cd  Cd9  1  0.493356  0.835548  0.835548  1
  Cd  Cd10  1  0.835548  0.835548  0.835548  1
  Cd  Cd11  1  0.164452  0.164452  0.506644  1
  Cd  Cd12  1  0.164452  0.506644  0.164452  1
  Cd  Cd13  1  0.506644  0.164452  0.164452  1
  Cd  Cd14  1  0.164452  0.164452  0.164452  1
  Cd  Cd15  1  0.621994  0.621994  0.134021  1
  Cd  Cd16  1  0.621994  0.134021  0.621994  1
  Cd  Cd17  1  0.134021  0.621994  0.621994  1
  Cd  Cd18  1  0.621994  0.621994  0.621994  1
  Cd  Cd19  1  0.378006  0.378006  0.865979  1
  Cd  Cd20  1  0.378006  0.865979  0.378006  1
  Cd  Cd21  1  0.865979  0.378006  0.378006  1
  Cd  Cd22  1  0.378006  0.378006  0.378006  1
  Cd  Cd23  1  0.000000  0.000000  0.500000  1
  Cd  Cd24  1  0.500000  0.000000  0.500000  1
  Cd  Cd25  1  0.000000  0.500000  0.500000  1
  Cd  Cd26  1  0.500000  0.500000  0.000000  1
  Cd  Cd27  1  0.000000  0.500000  0.000000  1
  Cd  Cd28  1  0.500000  0.000000  0.000000  1
  Sb  Sb29  1  0.000000  0.000000  0.000000  1
