# generated using pymatgen
data_RbBaPb4
_symmetry_space_group_name_H-M   'P 1'
_cell_length_a   6.93385367
_cell_length_b   6.93385372
_cell_length_c   6.93385291
_cell_angle_alpha   123.04296419
_cell_angle_beta   123.03939207
_cell_angle_gamma   84.80859188
_symmetry_Int_Tables_number   1
_chemical_formula_structural   RbBaPb4
_chemical_formula_sum   'Rb1 Ba1 Pb4'
_cell_volume   223.88714442
_cell_formula_units_Z   1
loop_
 _symmetry_equiv_pos_site_id
 _symmetry_equiv_pos_as_xyz
  1  'x, y, z'
loop_
 _atom_site_type_symbol
 _atom_site_label
 _atom_site_symmetry_multiplicity
 _atom_site_fract_x
 _atom_site_fract_y
 _atom_site_fract_z
 _atom_site_occupancy
  Rb  Rb0  1  0.625044  0.875044  0.750000  1
  Ba  Ba1  1  0.374971  0.124971  0.250000  1
  Pb  Pb2  1  0.001494  0.498642  0.997148  1
  Pb  Pb3  1  0.495579  0.498498  0.997081  1
  Pb  Pb4  1  0.001494  0.004345  0.502852  1
  Pb  Pb5  1  0.001417  0.498498  0.502919  1
