# generated using pymatgen
data_Ho2TmZr2Sn3
_symmetry_space_group_name_H-M   'P 1'
_cell_length_a   6.09731400
_cell_length_b   8.80744834
_cell_length_c   8.80744922
_cell_angle_alpha   59.95222986
_cell_angle_beta   90.00009251
_cell_angle_gamma   89.99991290
_symmetry_Int_Tables_number   1
_chemical_formula_structural   Ho2TmZr2Sn3
_chemical_formula_sum   'Ho4 Tm2 Zr4 Sn6'
_cell_volume   409.41164395
_cell_formula_units_Z   2
loop_
 _symmetry_equiv_pos_site_id
 _symmetry_equiv_pos_as_xyz
  1  'x, y, z'
loop_
 _atom_site_type_symbol
 _atom_site_label
 _atom_site_symmetry_multiplicity
 _atom_site_fract_x
 _atom_site_fract_y
 _atom_site_fract_z
 _atom_site_occupancy
  Ho  Ho0  1  0.749998  0.239765  0.760235  1
  Ho  Ho1  1  0.750006  0.760128  0.999892  1
  Ho  Ho2  1  0.750006  0.000108  0.239872  1
  Ho  Ho3  1  0.249999  0.760265  0.239735  1
  Tm  Tm4  1  0.250008  0.239967  0.999897  1
  Tm  Tm5  1  0.250008  0.000103  0.760033  1
  Zr  Zr6  1  0.499948  0.333338  0.333377  1
  Zr  Zr7  1  0.499948  0.666623  0.666662  1
  Zr  Zr8  1  0.000060  0.666621  0.666664  1
  Zr  Zr9  1  0.000060  0.333336  0.333379  1
  Sn  Sn10  1  0.750000  0.599844  0.400156  1
  Sn  Sn11  1  0.749990  0.400048  0.000052  1
  Sn  Sn12  1  0.749990  0.999948  0.599952  1
  Sn  Sn13  1  0.250004  0.399687  0.600313  1
  Sn  Sn14  1  0.249989  0.599971  0.999753  1
  Sn  Sn15  1  0.249989  0.000247  0.400029  1
