# generated using pymatgen
data_Np4B16Os3Rh
_symmetry_space_group_name_H-M   'P 1'
_cell_length_a   3.51371900
_cell_length_b   6.00574040
_cell_length_c   11.63345777
_cell_angle_alpha   90.04158605
_cell_angle_beta   90.00000000
_cell_angle_gamma   90.00000000
_symmetry_Int_Tables_number   1
_chemical_formula_structural   Np4B16Os3Rh
_chemical_formula_sum   'Np4 B16 Os3 Rh1'
_cell_volume   245.49479330
_cell_formula_units_Z   1
loop_
 _symmetry_equiv_pos_site_id
 _symmetry_equiv_pos_as_xyz
  1  'x, y, z'
loop_
 _atom_site_type_symbol
 _atom_site_label
 _atom_site_symmetry_multiplicity
 _atom_site_fract_x
 _atom_site_fract_y
 _atom_site_fract_z
 _atom_site_occupancy
  Np  Np0  1  0.000000  0.127655  0.650441  1
  Np  Np1  1  0.000000  0.873407  0.350795  1
  Np  Np2  1  0.000000  0.626787  0.850176  1
  Np  Np3  1  0.000000  0.370645  0.149827  1
  B  B4  1  0.500000  0.788321  0.687599  1
  B  B5  1  0.500000  0.211756  0.312212  1
  B  B6  1  0.500000  0.287324  0.812436  1
  B  B7  1  0.500000  0.711385  0.188306  1
  B  B8  1  0.500000  0.865927  0.531971  1
  B  B9  1  0.500000  0.134405  0.468439  1
  B  B10  1  0.500000  0.366340  0.967730  1
  B  B11  1  0.500000  0.633694  0.031104  1
  B  B12  1  0.500000  0.028287  0.192306  1
  B  B13  1  0.500000  0.973551  0.807440  1
  B  B14  1  0.500000  0.529774  0.307940  1
  B  B15  1  0.500000  0.471220  0.691856  1
  B  B16  1  0.500000  0.116812  0.045413  1
  B  B17  1  0.500000  0.886572  0.951398  1
  B  B18  1  0.500000  0.614968  0.453513  1
  B  B19  1  0.500000  0.385294  0.546831  1
  Os  Os20  1  0.000000  0.638840  0.593348  1
  Os  Os21  1  0.000000  0.361191  0.407123  1
  Os  Os22  1  0.000000  0.136851  0.907907  1
  Rh  Rh23  1  0.000000  0.858994  0.093891  1
