# generated using pymatgen
data_La12Nd8Si15Te
_symmetry_space_group_name_H-M   'P 1'
_cell_length_a   7.99762738
_cell_length_b   8.01248857
_cell_length_c   15.40057800
_cell_angle_alpha   90.10137708
_cell_angle_beta   89.72312090
_cell_angle_gamma   90.00493765
_symmetry_Int_Tables_number   1
_chemical_formula_structural   La12Nd8Si15Te
_chemical_formula_sum   'La12 Nd8 Si15 Te1'
_cell_volume   986.86979647
_cell_formula_units_Z   1
loop_
 _symmetry_equiv_pos_site_id
 _symmetry_equiv_pos_as_xyz
  1  'x, y, z'
loop_
 _atom_site_type_symbol
 _atom_site_label
 _atom_site_symmetry_multiplicity
 _atom_site_fract_x
 _atom_site_fract_y
 _atom_site_fract_z
 _atom_site_occupancy
  La  La0  1  0.989407  0.621155  0.050937  1
  La  La1  1  0.012661  0.371357  0.555057  1
  La  La2  1  0.624720  0.987490  0.949348  1
  La  La3  1  0.124507  0.511670  0.801239  1
  La  La4  1  0.865034  0.480587  0.292927  1
  La  La5  1  0.508671  0.121215  0.195404  1
  La  La6  1  0.494228  0.879733  0.701152  1
  La  La7  1  0.379174  0.012613  0.447314  1
  La  La8  1  0.674559  0.693783  0.501826  1
  La  La9  1  0.811598  0.188271  0.752000  1
  La  La10  1  0.193020  0.811735  0.240902  1
  La  La11  1  0.308161  0.310902  0.000299  1
  Nd  Nd12  1  0.375674  0.483636  0.374917  1
  Nd  Nd13  1  0.860003  0.025827  0.370163  1
  Nd  Nd14  1  0.984084  0.128764  0.124303  1
  Nd  Nd15  1  0.019346  0.872302  0.626937  1
  Nd  Nd16  1  0.629575  0.514967  0.874778  1
  Nd  Nd17  1  0.488833  0.367426  0.628038  1
  Nd  Nd18  1  0.514093  0.627976  0.124144  1
  Nd  Nd19  1  0.129062  0.984646  0.876369  1
  Si  Si20  1  0.919547  0.287187  0.941907  1
  Si  Si21  1  0.719472  0.080219  0.558699  1
  Si  Si22  1  0.211327  0.421854  0.192794  1
  Si  Si23  1  0.795156  0.577311  0.691671  1
  Si  Si24  1  0.420998  0.213386  0.810252  1
  Si  Si25  1  0.574916  0.788182  0.307780  1
  Si  Si26  1  0.288907  0.923059  0.055635  1
  Si  Si27  1  0.836922  0.799289  0.800334  1
  Si  Si28  1  0.166029  0.198550  0.301788  1
  Si  Si29  1  0.799348  0.833278  0.196951  1
  Si  Si30  1  0.317617  0.663338  0.567457  1
  Si  Si31  1  0.699834  0.334747  0.051453  1
  Si  Si32  1  0.668953  0.306049  0.452359  1
  Si  Si33  1  0.334807  0.699037  0.948390  1
  Si  Si34  1  0.199197  0.166775  0.701202  1
  Te  Te35  1  0.060565  0.711684  0.433268  1
