# generated using pymatgen
data_La2SmTc4(P2O)2
_symmetry_space_group_name_H-M   'P 1'
_cell_length_a   4.15715425
_cell_length_b   4.15717228
_cell_length_c   13.52756372
_cell_angle_alpha   98.81871390
_cell_angle_beta   98.81905945
_cell_angle_gamma   89.96800313
_symmetry_Int_Tables_number   1
_chemical_formula_structural   La2SmTc4(P2O)2
_chemical_formula_sum   'La2 Sm1 Tc4 P4 O2'
_cell_volume   228.22545765
_cell_formula_units_Z   1
loop_
 _symmetry_equiv_pos_site_id
 _symmetry_equiv_pos_as_xyz
  1  'x, y, z'
loop_
 _atom_site_type_symbol
 _atom_site_label
 _atom_site_symmetry_multiplicity
 _atom_site_fract_x
 _atom_site_fract_y
 _atom_site_fract_z
 _atom_site_occupancy
  La  La0  1  0.705596  0.705601  0.410480  1
  La  La1  1  0.294306  0.294328  0.589344  1
  Sm  Sm2  1  0.000163  0.000160  0.000318  1
  Tc  Tc3  1  0.590608  0.090547  0.181307  1
  Tc  Tc4  1  0.090550  0.590625  0.181319  1
  Tc  Tc5  1  0.909424  0.409376  0.818654  1
  Tc  Tc6  1  0.409395  0.909426  0.818667  1
  P  P7  1  0.547785  0.547768  0.095551  1
  P  P8  1  0.132788  0.132788  0.265656  1
  P  P9  1  0.867029  0.867031  0.733980  1
  P  P10  1  0.452415  0.452416  0.904811  1
  O  O11  1  0.750067  0.249877  0.499954  1
  O  O12  1  0.249883  0.750065  0.499958  1
