# generated using pymatgen
data_Ta3(NbSb2)2
_symmetry_space_group_name_H-M   'P 1'
_cell_length_a   7.58376329
_cell_length_b   7.58376152
_cell_length_c   7.58151448
_cell_angle_alpha   93.10446813
_cell_angle_beta   93.13927789
_cell_angle_gamma   153.01350640
_symmetry_Int_Tables_number   1
_chemical_formula_structural   Ta3(NbSb2)2
_chemical_formula_sum   'Ta3 Nb2 Sb4'
_cell_volume   192.40097331
_cell_formula_units_Z   1
loop_
 _symmetry_equiv_pos_site_id
 _symmetry_equiv_pos_as_xyz
  1  'x, y, z'
loop_
 _atom_site_type_symbol
 _atom_site_label
 _atom_site_symmetry_multiplicity
 _atom_site_fract_x
 _atom_site_fract_y
 _atom_site_fract_z
 _atom_site_occupancy
  Ta  Ta0  1  0.312837  0.627566  0.940400  1
  Ta  Ta1  1  0.626579  0.687762  0.314340  1
  Ta  Ta2  1  0.999688  0.999879  0.999566  1
  Nb  Nb3  1  0.371378  0.311150  0.682530  1
  Nb  Nb4  1  0.689530  0.372413  0.061947  1
  Sb  Sb5  1  0.295024  0.053448  0.348470  1
  Sb  Sb6  1  0.946774  0.295997  0.242771  1
  Sb  Sb7  1  0.053756  0.705387  0.759147  1
  Sb  Sb8  1  0.704434  0.946399  0.650829  1
