# generated using pymatgen
data_SmHoFe2(Co3B)2
_symmetry_space_group_name_H-M   'P 1'
_cell_length_a   5.06919433
_cell_length_b   5.07227858
_cell_length_c   6.79777100
_cell_angle_alpha   90.00000000
_cell_angle_beta   90.00000000
_cell_angle_gamma   120.01970370
_symmetry_Int_Tables_number   1
_chemical_formula_structural   SmHoFe2(Co3B)2
_chemical_formula_sum   'Sm1 Ho1 Fe2 Co6 B2'
_cell_volume   151.33972419
_cell_formula_units_Z   1
loop_
 _symmetry_equiv_pos_site_id
 _symmetry_equiv_pos_as_xyz
  1  'x, y, z'
loop_
 _atom_site_type_symbol
 _atom_site_label
 _atom_site_symmetry_multiplicity
 _atom_site_fract_x
 _atom_site_fract_y
 _atom_site_fract_z
 _atom_site_occupancy
  Sm  Sm0  1  0.999973  0.999999  0.000000  1
  Ho  Ho1  1  0.999998  0.000008  0.500000  1
  Fe  Fe2  1  0.333406  0.666672  0.000000  1
  Fe  Fe3  1  0.666539  0.333320  0.000000  1
  Co  Co4  1  0.499995  0.000013  0.290211  1
  Co  Co5  1  0.499993  0.499996  0.290185  1
  Co  Co6  1  0.999972  0.499991  0.290213  1
  Co  Co7  1  0.499995  0.000013  0.709789  1
  Co  Co8  1  0.499993  0.499996  0.709814  1
  Co  Co9  1  0.999972  0.499991  0.709786  1
  B  B10  1  0.333213  0.666661  0.500000  1
  B  B11  1  0.666753  0.333342  0.500000  1
