# generated using pymatgen
data_Ca5TmCo14(P3Rh)4
_symmetry_space_group_name_H-M   'P 1'
_cell_length_a   3.72171800
_cell_length_b   10.71328909
_cell_length_c   12.35392000
_cell_angle_alpha   89.97304379
_cell_angle_beta   90.00000000
_cell_angle_gamma   90.00000000
_symmetry_Int_Tables_number   1
_chemical_formula_structural   Ca5TmCo14(P3Rh)4
_chemical_formula_sum   'Ca5 Tm1 Co14 P12 Rh4'
_cell_volume   492.57347752
_cell_formula_units_Z   1
loop_
 _symmetry_equiv_pos_site_id
 _symmetry_equiv_pos_as_xyz
  1  'x, y, z'
loop_
 _atom_site_type_symbol
 _atom_site_label
 _atom_site_symmetry_multiplicity
 _atom_site_fract_x
 _atom_site_fract_y
 _atom_site_fract_z
 _atom_site_occupancy
  Ca  Ca0  1  0.000000  0.499896  0.523815  1
  Ca  Ca1  1  0.500000  0.000476  0.476030  1
  Ca  Ca2  1  0.500000  0.817536  0.205083  1
  Ca  Ca3  1  0.500000  0.182459  0.205207  1
  Ca  Ca4  1  0.000000  0.683530  0.794757  1
  Tm  Tm5  1  0.000000  0.316707  0.794658  1
  Co  Co6  1  0.000000  0.499024  0.988612  1
  Co  Co7  1  0.500000  0.000793  0.009636  1
  Co  Co8  1  0.500000  0.332224  0.992440  1
  Co  Co9  1  0.500000  0.667927  0.994060  1
  Co  Co10  1  0.000000  0.169109  0.004883  1
  Co  Co11  1  0.000000  0.831984  0.005588  1
  Co  Co12  1  0.500000  0.298688  0.432447  1
  Co  Co13  1  0.500000  0.700896  0.431869  1
  Co  Co14  1  0.000000  0.201059  0.569923  1
  Co  Co15  1  0.000000  0.798280  0.568117  1
  Co  Co16  1  0.500000  0.881961  0.707074  1
  Co  Co17  1  0.500000  0.121541  0.710662  1
  Co  Co18  1  0.000000  0.619074  0.291979  1
  Co  Co19  1  0.000000  0.380551  0.292616  1
  P  P20  1  0.500000  0.499817  0.889892  1
  P  P21  1  0.000000  0.000330  0.109717  1
  P  P22  1  0.500000  0.499954  0.347864  1
  P  P23  1  0.000000  0.999578  0.651591  1
  P  P24  1  0.500000  0.300693  0.615880  1
  P  P25  1  0.500000  0.698622  0.615362  1
  P  P26  1  0.000000  0.198559  0.385324  1
  P  P27  1  0.000000  0.800955  0.384734  1
  P  P28  1  0.500000  0.845254  0.894784  1
  P  P29  1  0.500000  0.156453  0.894474  1
  P  P30  1  0.000000  0.654739  0.104789  1
  P  P31  1  0.000000  0.345052  0.105607  1
  Rh  Rh32  1  0.500000  0.499134  0.159133  1
  Rh  Rh33  1  0.000000  0.000605  0.840163  1
  Rh  Rh34  1  0.500000  0.496741  0.703668  1
  Rh  Rh35  1  0.000000  0.999801  0.297563  1
