# generated using pymatgen
data_NdAl3Ag
_symmetry_space_group_name_H-M   'P 1'
_cell_length_a   4.29667308
_cell_length_b   4.29667299
_cell_length_c   6.37034913
_cell_angle_alpha   70.29119604
_cell_angle_beta   70.29120066
_cell_angle_gamma   90.00000022
_symmetry_Int_Tables_number   1
_chemical_formula_structural   NdAl3Ag
_chemical_formula_sum   'Nd1 Al3 Ag1'
_cell_volume   103.36843027
_cell_formula_units_Z   1
loop_
 _symmetry_equiv_pos_site_id
 _symmetry_equiv_pos_as_xyz
  1  'x, y, z'
loop_
 _atom_site_type_symbol
 _atom_site_label
 _atom_site_symmetry_multiplicity
 _atom_site_fract_x
 _atom_site_fract_y
 _atom_site_fract_z
 _atom_site_occupancy
  Nd  Nd0  1  0.986855  0.986855  0.026289  1
  Al  Al1  1  0.749683  0.249683  0.500633  1
  Al  Al2  1  0.249683  0.749683  0.500633  1
  Al  Al3  1  0.394400  0.394400  0.211200  1
  Ag  Ag4  1  0.619378  0.619378  0.761244  1
