# generated using pymatgen
data_La2U(SnIr)3
_symmetry_space_group_name_H-M   'P 1'
_cell_length_a   7.66126000
_cell_length_b   7.59120376
_cell_length_c   4.09276100
_cell_angle_alpha   90.00000000
_cell_angle_beta   90.00000000
_cell_angle_gamma   120.30575233
_symmetry_Int_Tables_number   1
_chemical_formula_structural   La2U(SnIr)3
_chemical_formula_sum   'La2 U1 Sn3 Ir3'
_cell_volume   205.49987350
_cell_formula_units_Z   1
loop_
 _symmetry_equiv_pos_site_id
 _symmetry_equiv_pos_as_xyz
  1  'x, y, z'
loop_
 _atom_site_type_symbol
 _atom_site_label
 _atom_site_symmetry_multiplicity
 _atom_site_fract_x
 _atom_site_fract_y
 _atom_site_fract_z
 _atom_site_occupancy
  La  La0  1  0.001147  0.587824  0.000000  1
  La  La1  1  0.413323  0.412176  0.000000  1
  U  U2  1  0.585609  0.000000  0.000000  1
  Sn  Sn3  1  0.240917  0.000000  0.500000  1
  Sn  Sn4  1  0.004643  0.255569  0.500000  1
  Sn  Sn5  1  0.749074  0.744431  0.500000  1
  Ir  Ir6  1  0.367934  0.709449  0.500000  1
  Ir  Ir7  1  0.658486  0.290551  0.500000  1
  Ir  Ir8  1  0.978866  0.000000  0.000000  1
