# generated using pymatgen
data_RbW2Br11
_symmetry_space_group_name_H-M   'P 1'
_cell_length_a   7.50327407
_cell_length_b   7.57638867
_cell_length_c   18.64914119
_cell_angle_alpha   79.13094193
_cell_angle_beta   78.98402865
_cell_angle_gamma   87.83737819
_symmetry_Int_Tables_number   1
_chemical_formula_structural   RbW2Br11
_chemical_formula_sum   'Rb2 W4 Br22'
_cell_volume   1021.95687168
_cell_formula_units_Z   2
loop_
 _symmetry_equiv_pos_site_id
 _symmetry_equiv_pos_as_xyz
  1  'x, y, z'
loop_
 _atom_site_type_symbol
 _atom_site_label
 _atom_site_symmetry_multiplicity
 _atom_site_fract_x
 _atom_site_fract_y
 _atom_site_fract_z
 _atom_site_occupancy
  Rb  Rb0  1  0.747961  0.746734  0.504069  1
  Rb  Rb1  1  0.252039  0.253266  0.495931  1
  W  W2  1  0.325315  0.821297  0.341715  1
  W  W3  1  0.674685  0.178703  0.658285  1
  W  W4  1  0.837015  0.333769  0.085401  1
  W  W5  1  0.162985  0.666231  0.914599  1
  Br  Br6  1  0.256262  0.772130  0.487520  1
  Br  Br7  1  0.743738  0.227870  0.512480  1
  Br  Br8  1  0.574208  0.028772  0.344409  1
  Br  Br9  1  0.425792  0.971228  0.655591  1
  Br  Br10  1  0.542568  0.559920  0.352247  1
  Br  Br11  1  0.457432  0.440080  0.647753  1
  Br  Br12  1  0.388978  0.864466  0.206656  1
  Br  Br13  1  0.611022  0.135534  0.793344  1
  Br  Br14  1  0.068022  0.604891  0.353575  1
  Br  Br15  1  0.931978  0.395109  0.646425  1
  Br  Br16  1  0.102379  0.076314  0.341532  1
  Br  Br17  1  0.897621  0.923686  0.658468  1
  Br  Br18  1  0.885551  0.033667  0.151523  1
  Br  Br19  1  0.114449  0.966333  0.848477  1
  Br  Br20  1  0.531625  0.370436  0.152525  1
  Br  Br21  1  0.468375  0.629564  0.847475  1
  Br  Br22  1  0.730906  0.225300  0.984840  1
  Br  Br23  1  0.269094  0.774700  0.015160  1
  Br  Br24  1  0.978667  0.481227  0.166351  1
  Br  Br25  1  0.021333  0.518773  0.833649  1
  Br  Br26  1  0.169772  0.337205  0.999690  1
  Br  Br27  1  0.830228  0.662795  0.000310  1
