# generated using pymatgen
data_LaZnGa3
_symmetry_space_group_name_H-M   'P 1'
_cell_length_a   4.37947480
_cell_length_b   4.37947551
_cell_length_c   6.13052786
_cell_angle_alpha   69.07252540
_cell_angle_beta   69.07252874
_cell_angle_gamma   90.00000029
_symmetry_Int_Tables_number   1
_chemical_formula_structural   LaZnGa3
_chemical_formula_sum   'La1 Zn1 Ga3'
_cell_volume   101.47813279
_cell_formula_units_Z   1
loop_
 _symmetry_equiv_pos_site_id
 _symmetry_equiv_pos_as_xyz
  1  'x, y, z'
loop_
 _atom_site_type_symbol
 _atom_site_label
 _atom_site_symmetry_multiplicity
 _atom_site_fract_x
 _atom_site_fract_y
 _atom_site_fract_z
 _atom_site_occupancy
  La  La0  1  0.000000  0.000000  0.000000  1
  Zn  Zn1  1  0.750000  0.250000  0.500000  1
  Ga  Ga2  1  0.382589  0.382589  0.234822  1
  Ga  Ga3  1  0.617411  0.617411  0.765178  1
  Ga  Ga4  1  0.250000  0.750000  0.500000  1
