# generated using pymatgen
data_Rb8Tb2Dy4BeBr20
_symmetry_space_group_name_H-M   'P 1'
_cell_length_a   12.35865732
_cell_length_b   12.36347889
_cell_length_c   12.36347794
_cell_angle_alpha   59.97419652
_cell_angle_beta   60.01289705
_cell_angle_gamma   60.01289668
_symmetry_Int_Tables_number   1
_chemical_formula_structural   Rb8Tb2Dy4BeBr20
_chemical_formula_sum   'Rb8 Tb2 Dy4 Be1 Br20'
_cell_volume   1335.78781788
_cell_formula_units_Z   1
loop_
 _symmetry_equiv_pos_site_id
 _symmetry_equiv_pos_as_xyz
  1  'x, y, z'
loop_
 _atom_site_type_symbol
 _atom_site_label
 _atom_site_symmetry_multiplicity
 _atom_site_fract_x
 _atom_site_fract_y
 _atom_site_fract_z
 _atom_site_occupancy
  Rb  Rb0  1  0.358943  0.358945  0.358945  1
  Rb  Rb1  1  0.641057  0.641055  0.641055  1
  Rb  Rb2  1  0.358945  0.358943  0.923167  1
  Rb  Rb3  1  0.358945  0.923167  0.358943  1
  Rb  Rb4  1  0.641055  0.641057  0.076833  1
  Rb  Rb5  1  0.641055  0.076833  0.641057  1
  Rb  Rb6  1  0.923167  0.358945  0.358945  1
  Rb  Rb7  1  0.076833  0.641055  0.641055  1
  Tb  Tb8  1  0.844551  0.155449  0.155449  1
  Tb  Tb9  1  0.155449  0.844551  0.844551  1
  Dy  Dy10  1  0.155302  0.844698  0.155302  1
  Dy  Dy11  1  0.844698  0.155302  0.844698  1
  Dy  Dy12  1  0.155302  0.155302  0.844698  1
  Dy  Dy13  1  0.844698  0.844698  0.155302  1
  Be  Be14  1  0.000000  0.000000  0.000000  1
  Br  Br15  1  0.330127  0.000000  0.000000  1
  Br  Br16  1  0.669873  0.000000  0.000000  1
  Br  Br17  1  0.000000  0.330127  0.669873  1
  Br  Br18  1  0.000000  0.669873  0.330127  1
  Br  Br19  1  0.000474  0.330506  0.999526  1
  Br  Br20  1  0.669494  0.999526  0.330506  1
  Br  Br21  1  0.999526  0.669494  0.000474  1
  Br  Br22  1  0.330506  0.000474  0.669494  1
  Br  Br23  1  0.000474  0.999526  0.330506  1
  Br  Br24  1  0.999526  0.000474  0.669494  1
  Br  Br25  1  0.669494  0.330506  0.999526  1
  Br  Br26  1  0.330506  0.669494  0.000474  1
  Br  Br27  1  0.678708  0.321292  0.321292  1
  Br  Br28  1  0.321292  0.678708  0.678708  1
  Br  Br29  1  0.320719  0.679281  0.320719  1
  Br  Br30  1  0.679281  0.320719  0.679281  1
  Br  Br31  1  0.320719  0.320719  0.679281  1
  Br  Br32  1  0.679281  0.679281  0.320719  1
  Br  Br33  1  0.250000  0.250000  0.250000  1
  Br  Br34  1  0.750000  0.750000  0.750000  1
