# generated using pymatgen
data_TbTm(ThH5)6
_symmetry_space_group_name_H-M   'P 1'
_cell_length_a   7.82886892
_cell_length_b   7.82555404
_cell_length_c   7.79834669
_cell_angle_alpha   109.47617085
_cell_angle_beta   109.50000410
_cell_angle_gamma   109.66620344
_symmetry_Int_Tables_number   1
_chemical_formula_structural   TbTm(ThH5)6
_chemical_formula_sum   'Tb1 Tm1 Th6 H30'
_cell_volume   366.74292930
_cell_formula_units_Z   1
loop_
 _symmetry_equiv_pos_site_id
 _symmetry_equiv_pos_as_xyz
  1  'x, y, z'
loop_
 _atom_site_type_symbol
 _atom_site_label
 _atom_site_symmetry_multiplicity
 _atom_site_fract_x
 _atom_site_fract_y
 _atom_site_fract_z
 _atom_site_occupancy
  Tb  Tb0  1  0.498499  0.999446  0.083600  1
  Tm  Tm1  1  0.913038  0.913731  0.914545  1
  Th  Th2  1  0.994492  0.080130  0.495263  1
  Th  Th3  1  0.085149  0.504281  0.000927  1
  Th  Th4  1  0.998685  0.585337  0.505555  1
  Th  Th5  1  0.584943  0.504482  0.998717  1
  Th  Th6  1  0.504852  0.998390  0.587977  1
  Th  Th7  1  0.415567  0.410487  0.411770  1
  H  H8  1  0.651346  0.964728  0.370558  1
  H  H9  1  0.218077  0.316151  0.846528  1
  H  H10  1  0.186564  0.403803  0.534505  1
  H  H11  1  0.094189  0.277642  0.124466  1
  H  H12  1  0.278375  0.122331  0.092121  1
  H  H13  1  0.123539  0.092111  0.274520  1
  H  H14  1  0.469252  0.154430  0.873168  1
  H  H15  1  0.718883  0.350186  0.813690  1
  H  H16  1  0.627400  0.380366  0.251357  1
  H  H17  1  0.250077  0.624394  0.375778  1
  H  H18  1  0.751453  0.873255  0.126365  1
  H  H19  1  0.122201  0.746030  0.873238  1
  H  H20  1  0.374420  0.248739  0.624084  1
  H  H21  1  0.876729  0.128000  0.749232  1
  H  H22  1  0.781683  0.596776  0.631760  1
  H  H23  1  0.316930  0.848274  0.221265  1
  H  H24  1  0.372784  0.656585  0.966942  1
  H  H25  1  0.964538  0.368839  0.651141  1
  H  H26  1  0.536270  0.186187  0.406436  1
  H  H27  1  0.405160  0.536362  0.186191  1
  H  H28  1  0.842744  0.218089  0.313323  1
  H  H29  1  0.906310  0.692798  0.031299  1
  H  H30  1  0.813447  0.717840  0.348946  1
  H  H31  1  0.152335  0.869266  0.465691  1
  H  H32  1  0.691773  0.029146  0.906626  1
  H  H33  1  0.348026  0.815659  0.721793  1
  H  H34  1  0.871436  0.469694  0.153738  1
  H  H35  1  0.632468  0.780959  0.596366  1
  H  H36  1  0.598521  0.629795  0.780121  1
  H  H37  1  0.027844  0.905281  0.690395  1
