# generated using pymatgen
data_La3Ho6TmC4I15
_symmetry_space_group_name_H-M   'P 1'
_cell_length_a   9.69194224
_cell_length_b   10.46327928
_cell_length_c   11.62941201
_cell_angle_alpha   93.25308214
_cell_angle_beta   114.24474145
_cell_angle_gamma   109.49370886
_symmetry_Int_Tables_number   1
_chemical_formula_structural   La3Ho6TmC4I15
_chemical_formula_sum   'La3 Ho6 Tm1 C4 I15'
_cell_volume   987.58030546
_cell_formula_units_Z   1
loop_
 _symmetry_equiv_pos_site_id
 _symmetry_equiv_pos_as_xyz
  1  'x, y, z'
loop_
 _atom_site_type_symbol
 _atom_site_label
 _atom_site_symmetry_multiplicity
 _atom_site_fract_x
 _atom_site_fract_y
 _atom_site_fract_z
 _atom_site_occupancy
  La  La0  1  0.705814  0.568710  0.044813  1
  La  La1  1  0.292729  0.432857  0.955316  1
  La  La2  1  0.663947  0.253803  0.835536  1
  Ho  Ho3  1  0.352915  0.742809  0.162835  1
  Ho  Ho4  1  0.766020  0.872888  0.251915  1
  Ho  Ho5  1  0.525732  0.186678  0.097604  1
  Ho  Ho6  1  0.237904  0.125316  0.750955  1
  Ho  Ho7  1  0.405296  0.456773  0.663117  1
  Ho  Ho8  1  0.473198  0.814095  0.902249  1
  Tm  Tm9  1  0.590570  0.543797  0.335585  1
  C  C10  1  0.481809  0.296406  0.937971  1
  C  C11  1  0.517827  0.706155  0.063111  1
  C  C12  1  0.452699  0.361079  0.831717  1
  C  C13  1  0.545865  0.639292  0.168856  1
  I  I14  1  0.218195  0.908661  0.940925  1
  I  I15  1  0.113556  0.193077  0.480969  1
  I  I16  1  0.166259  0.566436  0.698077  1
  I  I17  1  0.392518  0.961510  0.652169  1
  I  I18  1  0.696740  0.738318  0.810223  1
  I  I19  1  0.301866  0.263117  0.188813  1
  I  I20  1  0.829835  0.433569  0.302513  1
  I  I21  1  0.882929  0.803072  0.520049  1
  I  I22  1  0.359919  0.627572  0.405989  1
  I  I23  1  0.051653  0.844581  0.226579  1
  I  I24  1  0.785156  0.087729  0.069610  1
  I  I25  1  0.636525  0.380982  0.581527  1
  I  I26  1  0.949374  0.154613  0.773987  1
  I  I27  1  0.591588  0.024103  0.340123  1
  I  I28  1  0.011563  0.512008  0.006867  1
