# generated using pymatgen
data_Tm20GaBi8Sb3
_symmetry_space_group_name_H-M   'P 1'
_cell_length_a   8.06052954
_cell_length_b   9.34331200
_cell_length_c   11.81860640
_cell_angle_alpha   90.00000000
_cell_angle_beta   89.70541848
_cell_angle_gamma   90.00000000
_symmetry_Int_Tables_number   1
_chemical_formula_structural   Tm20GaBi8Sb3
_chemical_formula_sum   'Tm20 Ga1 Bi8 Sb3'
_cell_volume   890.07162152
_cell_formula_units_Z   1
loop_
 _symmetry_equiv_pos_site_id
 _symmetry_equiv_pos_as_xyz
  1  'x, y, z'
loop_
 _atom_site_type_symbol
 _atom_site_label
 _atom_site_symmetry_multiplicity
 _atom_site_fract_x
 _atom_site_fract_y
 _atom_site_fract_z
 _atom_site_occupancy
  Tm  Tm0  1  0.037169  0.250000  0.510076  1
  Tm  Tm1  1  0.975225  0.750000  0.489665  1
  Tm  Tm2  1  0.472004  0.750000  0.011235  1
  Tm  Tm3  1  0.529065  0.250000  0.988530  1
  Tm  Tm4  1  0.355619  0.250000  0.293645  1
  Tm  Tm5  1  0.646974  0.750000  0.713852  1
  Tm  Tm6  1  0.147695  0.750000  0.785298  1
  Tm  Tm7  1  0.853513  0.250000  0.213358  1
  Tm  Tm8  1  0.189055  0.250000  0.779369  1
  Tm  Tm9  1  0.812847  0.750000  0.217514  1
  Tm  Tm10  1  0.315055  0.750000  0.281822  1
  Tm  Tm11  1  0.675186  0.250000  0.711824  1
  Tm  Tm12  1  0.190190  0.064236  0.059253  1
  Tm  Tm13  1  0.810253  0.936219  0.941803  1
  Tm  Tm14  1  0.311054  0.947474  0.558164  1
  Tm  Tm15  1  0.810253  0.563781  0.941803  1
  Tm  Tm16  1  0.683877  0.068740  0.445085  1
  Tm  Tm17  1  0.190190  0.435764  0.059253  1
  Tm  Tm18  1  0.683877  0.431260  0.445085  1
  Tm  Tm19  1  0.311054  0.552526  0.558164  1
  Ga  Ga20  1  0.407806  0.250000  0.539942  1
  Bi  Bi21  1  0.063656  0.002685  0.324371  1
  Bi  Bi22  1  0.934796  0.997759  0.675159  1
  Bi  Bi23  1  0.435240  0.996174  0.825187  1
  Bi  Bi24  1  0.934796  0.502241  0.675159  1
  Bi  Bi25  1  0.564854  0.004290  0.174787  1
  Bi  Bi26  1  0.063656  0.497315  0.324371  1
  Bi  Bi27  1  0.564854  0.495710  0.174787  1
  Bi  Bi28  1  0.435240  0.503826  0.825187  1
  Sb  Sb29  1  0.593461  0.750000  0.458286  1
  Sb  Sb30  1  0.093356  0.750000  0.041708  1
  Sb  Sb31  1  0.908130  0.250000  0.956253  1
