# generated using pymatgen
data_CaYb2Ag3SnPb2
_symmetry_space_group_name_H-M   'P 1'
_cell_length_a   4.91080300
_cell_length_b   4.91080362
_cell_length_c   10.95826700
_cell_angle_alpha   90.00000000
_cell_angle_beta   90.00000000
_cell_angle_gamma   120.00001604
_symmetry_Int_Tables_number   1
_chemical_formula_structural   CaYb2Ag3SnPb2
_chemical_formula_sum   'Ca1 Yb2 Ag3 Sn1 Pb2'
_cell_volume   228.86401845
_cell_formula_units_Z   1
loop_
 _symmetry_equiv_pos_site_id
 _symmetry_equiv_pos_as_xyz
  1  'x, y, z'
loop_
 _atom_site_type_symbol
 _atom_site_label
 _atom_site_symmetry_multiplicity
 _atom_site_fract_x
 _atom_site_fract_y
 _atom_site_fract_z
 _atom_site_occupancy
  Ca  Ca0  1  0.666667  0.333333  0.497789  1
  Yb  Yb1  1  0.666667  0.333333  0.836278  1
  Yb  Yb2  1  0.666667  0.333333  0.159341  1
  Ag  Ag3  1  0.333333  0.666667  0.996485  1
  Ag  Ag4  1  0.000000  0.000000  0.701661  1
  Ag  Ag5  1  0.000000  0.000000  0.292399  1
  Sn  Sn6  1  0.000000  0.000000  0.998118  1
  Pb  Pb7  1  0.333333  0.666667  0.651094  1
  Pb  Pb8  1  0.333333  0.666667  0.344736  1
