# generated using pymatgen
data_Pr2LuMgSn2
_symmetry_space_group_name_H-M   'P 1'
_cell_length_a   8.91759900
_cell_length_b   8.91759916
_cell_length_c   8.91759874
_cell_angle_alpha   150.39195642
_cell_angle_beta   149.83046050
_cell_angle_gamma   42.77994587
_symmetry_Int_Tables_number   1
_chemical_formula_structural   Pr2LuMgSn2
_chemical_formula_sum   'Pr2 Lu1 Mg1 Sn2'
_cell_volume   175.63478121
_cell_formula_units_Z   1
loop_
 _symmetry_equiv_pos_site_id
 _symmetry_equiv_pos_as_xyz
  1  'x, y, z'
loop_
 _atom_site_type_symbol
 _atom_site_label
 _atom_site_symmetry_multiplicity
 _atom_site_fract_x
 _atom_site_fract_y
 _atom_site_fract_z
 _atom_site_occupancy
  Pr  Pr0  1  0.670301  0.670301  0.000000  1
  Pr  Pr1  1  0.329699  0.329699  0.000000  1
  Lu  Lu2  1  0.000000  0.500000  0.500000  1
  Mg  Mg3  1  0.500000  0.000000  0.500000  1
  Sn  Sn4  1  0.868881  0.868881  0.000000  1
  Sn  Sn5  1  0.131119  0.131119  0.000000  1
