# generated using pymatgen
data_Hf10CuSn6Bi
_symmetry_space_group_name_H-M   'P 1'
_cell_length_a   5.91987402
_cell_length_b   8.69379198
_cell_length_c   8.69381701
_cell_angle_alpha   119.99990379
_cell_angle_beta   90.00050785
_cell_angle_gamma   89.99897527
_symmetry_Int_Tables_number   1
_chemical_formula_structural   Hf10CuSn6Bi
_chemical_formula_sum   'Hf10 Cu1 Sn6 Bi1'
_cell_volume   387.49245993
_cell_formula_units_Z   1
loop_
 _symmetry_equiv_pos_site_id
 _symmetry_equiv_pos_as_xyz
  1  'x, y, z'
loop_
 _atom_site_type_symbol
 _atom_site_label
 _atom_site_symmetry_multiplicity
 _atom_site_fract_x
 _atom_site_fract_y
 _atom_site_fract_z
 _atom_site_occupancy
  Hf  Hf0  1  0.500000  0.333337  0.666675  1
  Hf  Hf1  1  0.500000  0.666662  0.333325  1
  Hf  Hf2  1  0.000000  0.666667  0.333334  1
  Hf  Hf3  1  0.000000  0.333333  0.666666  1
  Hf  Hf4  1  0.728784  0.275640  0.000000  1
  Hf  Hf5  1  0.728795  0.724369  0.724362  1
  Hf  Hf6  1  0.728795  0.000007  0.275638  1
  Hf  Hf7  1  0.271211  0.724361  0.000000  1
  Hf  Hf8  1  0.271206  0.275630  0.275637  1
  Hf  Hf9  1  0.271206  0.999993  0.724363  1
  Cu  Cu10  1  0.500002  0.000000  0.000000  1
  Sn  Sn11  1  0.755072  0.613992  0.000000  1
  Sn  Sn12  1  0.755044  0.386014  0.386014  1
  Sn  Sn13  1  0.755044  0.000000  0.613986  1
  Sn  Sn14  1  0.244924  0.386008  0.000000  1
  Sn  Sn15  1  0.244958  0.613986  0.613986  1
  Sn  Sn16  1  0.244958  0.999999  0.386014  1
  Bi  Bi17  1  0.999998  0.000002  0.000000  1
