# generated using pymatgen
data_SrLaPr5IrBr12
_symmetry_space_group_name_H-M   'P 1'
_cell_length_a   9.72262952
_cell_length_b   9.58624125
_cell_length_c   9.73053602
_cell_angle_alpha   106.16085384
_cell_angle_beta   106.33484894
_cell_angle_gamma   106.50458833
_symmetry_Int_Tables_number   1
_chemical_formula_structural   SrLaPr5IrBr12
_chemical_formula_sum   'Sr1 La1 Pr5 Ir1 Br12'
_cell_volume   768.60633093
_cell_formula_units_Z   1
loop_
 _symmetry_equiv_pos_site_id
 _symmetry_equiv_pos_as_xyz
  1  'x, y, z'
loop_
 _atom_site_type_symbol
 _atom_site_label
 _atom_site_symmetry_multiplicity
 _atom_site_fract_x
 _atom_site_fract_y
 _atom_site_fract_z
 _atom_site_occupancy
  Sr  Sr0  1  0.500373  0.499826  0.500731  1
  La  La1  1  0.102099  0.306203  0.019554  1
  Pr  Pr2  1  0.316216  0.020249  0.106007  1
  Pr  Pr3  1  0.019726  0.105293  0.314923  1
  Pr  Pr4  1  0.980005  0.893227  0.684205  1
  Pr  Pr5  1  0.683770  0.980316  0.893941  1
  Pr  Pr6  1  0.897890  0.695879  0.980022  1
  Ir  Ir7  1  0.001009  0.003288  0.999648  1
  Br  Br8  1  0.215803  0.680047  0.072854  1
  Br  Br9  1  0.451604  0.367732  0.155833  1
  Br  Br10  1  0.681571  0.073062  0.216404  1
  Br  Br11  1  0.925647  0.780383  0.317112  1
  Br  Br12  1  0.155054  0.450695  0.369750  1
  Br  Br13  1  0.365369  0.150447  0.448020  1
  Br  Br14  1  0.634566  0.848733  0.551794  1
  Br  Br15  1  0.845667  0.549245  0.634014  1
  Br  Br16  1  0.073248  0.216621  0.678943  1
  Br  Br17  1  0.318424  0.926401  0.783551  1
  Br  Br18  1  0.551503  0.632374  0.846371  1
  Br  Br19  1  0.780460  0.319981  0.926323  1
