# generated using pymatgen
data_Er5Ta3(B6Os)4
_symmetry_space_group_name_H-M   'P 1'
_cell_length_a   3.52407200
_cell_length_b   9.00382753
_cell_length_c   11.32110794
_cell_angle_alpha   89.91876275
_cell_angle_beta   90.00000000
_cell_angle_gamma   90.00000000
_symmetry_Int_Tables_number   1
_chemical_formula_structural   Er5Ta3(B6Os)4
_chemical_formula_sum   'Er5 Ta3 B24 Os4'
_cell_volume   359.21993920
_cell_formula_units_Z   1
loop_
 _symmetry_equiv_pos_site_id
 _symmetry_equiv_pos_as_xyz
  1  'x, y, z'
loop_
 _atom_site_type_symbol
 _atom_site_label
 _atom_site_symmetry_multiplicity
 _atom_site_fract_x
 _atom_site_fract_y
 _atom_site_fract_z
 _atom_site_occupancy
  Er  Er0  1  0.000000  0.322664  0.414378  1
  Er  Er1  1  0.000000  0.677377  0.588591  1
  Er  Er2  1  0.000000  0.822703  0.084267  1
  Er  Er3  1  0.000000  0.177068  0.911693  1
  Er  Er4  1  0.000000  0.944863  0.374152  1
  Ta  Ta5  1  0.000000  0.055724  0.627262  1
  Ta  Ta6  1  0.000000  0.446956  0.120248  1
  Ta  Ta7  1  0.000000  0.552928  0.878087  1
  B  B8  1  0.500000  0.552316  0.433970  1
  B  B9  1  0.500000  0.444614  0.566294  1
  B  B10  1  0.500000  0.056090  0.064153  1
  B  B11  1  0.500000  0.945622  0.934525  1
  B  B12  1  0.500000  0.748193  0.418657  1
  B  B13  1  0.500000  0.246455  0.582218  1
  B  B14  1  0.500000  0.254406  0.079027  1
  B  B15  1  0.500000  0.746002  0.920113  1
  B  B16  1  0.500000  0.793054  0.261757  1
  B  B17  1  0.500000  0.203566  0.738403  1
  B  B18  1  0.500000  0.297645  0.235119  1
  B  B19  1  0.500000  0.702634  0.763814  1
  B  B20  1  0.500000  0.628517  0.180661  1
  B  B21  1  0.500000  0.370933  0.819093  1
  B  B22  1  0.500000  0.133174  0.315790  1
  B  B23  1  0.500000  0.871129  0.683130  1
  B  B24  1  0.500000  0.983896  0.211367  1
  B  B25  1  0.500000  0.018917  0.787580  1
  B  B26  1  0.500000  0.479468  0.285206  1
  B  B27  1  0.500000  0.520287  0.714120  1
  B  B28  1  0.500000  0.600433  0.026631  1
  B  B29  1  0.500000  0.399991  0.972519  1
  B  B30  1  0.500000  0.104518  0.477311  1
  B  B31  1  0.500000  0.899652  0.532225  1
  Os  Os32  1  0.000000  0.637336  0.316534  1
  Os  Os33  1  0.000000  0.360236  0.682666  1
  Os  Os34  1  0.000000  0.145981  0.179220  1
  Os  Os35  1  0.000000  0.854649  0.819217  1
