# generated using pymatgen
data_Th3Ge2PtRh3
_symmetry_space_group_name_H-M   'P 1'
_cell_length_a   7.30036645
_cell_length_b   7.72844299
_cell_length_c   3.87977000
_cell_angle_alpha   90.00000000
_cell_angle_beta   90.00000000
_cell_angle_gamma   121.95945020
_symmetry_Int_Tables_number   1
_chemical_formula_structural   Th3Ge2PtRh3
_chemical_formula_sum   'Th3 Ge2 Pt1 Rh3'
_cell_volume   185.71844660
_cell_formula_units_Z   1
loop_
 _symmetry_equiv_pos_site_id
 _symmetry_equiv_pos_as_xyz
  1  'x, y, z'
loop_
 _atom_site_type_symbol
 _atom_site_label
 _atom_site_symmetry_multiplicity
 _atom_site_fract_x
 _atom_site_fract_y
 _atom_site_fract_z
 _atom_site_occupancy
  Th  Th0  1  0.000000  0.412312  0.500000  1
  Th  Th1  1  0.621811  0.609520  0.500000  1
  Th  Th2  1  0.378189  0.987709  0.500000  1
  Ge  Ge3  1  0.257444  0.258953  0.000000  1
  Ge  Ge4  1  0.742556  0.001509  0.000000  1
  Pt  Pt5  1  0.000000  0.740715  0.000000  1
  Rh  Rh6  1  0.351621  0.650367  0.000000  1
  Rh  Rh7  1  0.648379  0.298745  0.000000  1
  Rh  Rh8  1  0.000000  0.040170  0.500000  1
