# generated using pymatgen
data_GdThCrN3
_symmetry_space_group_name_H-M   'P 1'
_cell_length_a   3.52069701
_cell_length_b   3.76149416
_cell_length_c   6.86447946
_cell_angle_alpha   105.90137770
_cell_angle_beta   104.85913125
_cell_angle_gamma   89.99999853
_symmetry_Int_Tables_number   1
_chemical_formula_structural   GdThCrN3
_chemical_formula_sum   'Gd1 Th1 Cr1 N3'
_cell_volume   84.26288414
_cell_formula_units_Z   1
loop_
 _symmetry_equiv_pos_site_id
 _symmetry_equiv_pos_as_xyz
  1  'x, y, z'
loop_
 _atom_site_type_symbol
 _atom_site_label
 _atom_site_symmetry_multiplicity
 _atom_site_fract_x
 _atom_site_fract_y
 _atom_site_fract_z
 _atom_site_occupancy
  Gd  Gd0  1  0.643865  0.643865  0.287728  1
  Th  Th1  1  0.351191  0.351191  0.702382  1
  Cr  Cr2  1  0.004411  0.004411  0.008822  1
  N  N3  1  0.000512  0.500513  0.001024  1
  N  N4  1  0.164226  0.164226  0.328452  1
  N  N5  1  0.835797  0.835797  0.671592  1
