# generated using pymatgen
data_Sr2LiInPb2
_symmetry_space_group_name_H-M   'P 1'
_cell_length_a   5.03014900
_cell_length_b   7.83385100
_cell_length_c   18.87388400
_cell_angle_alpha   90.00000000
_cell_angle_beta   90.00000000
_cell_angle_gamma   90.00000000
_symmetry_Int_Tables_number   1
_chemical_formula_structural   Sr2LiInPb2
_chemical_formula_sum   'Sr8 Li4 In4 Pb8'
_cell_volume   743.73366151
_cell_formula_units_Z   4
loop_
 _symmetry_equiv_pos_site_id
 _symmetry_equiv_pos_as_xyz
  1  'x, y, z'
loop_
 _atom_site_type_symbol
 _atom_site_label
 _atom_site_symmetry_multiplicity
 _atom_site_fract_x
 _atom_site_fract_y
 _atom_site_fract_z
 _atom_site_occupancy
  Sr  Sr0  1  0.250000  0.340686  0.940452  1
  Sr  Sr1  1  0.250000  0.840686  0.559548  1
  Sr  Sr2  1  0.750000  0.159314  0.440452  1
  Sr  Sr3  1  0.750000  0.500855  0.273754  1
  Sr  Sr4  1  0.750000  0.000855  0.226246  1
  Sr  Sr5  1  0.750000  0.659314  0.059548  1
  Sr  Sr6  1  0.250000  0.499145  0.726246  1
  Sr  Sr7  1  0.250000  0.999145  0.773754  1
  Li  Li8  1  0.250000  0.990330  0.071827  1
  Li  Li9  1  0.750000  0.509670  0.571827  1
  Li  Li10  1  0.750000  0.009670  0.928173  1
  Li  Li11  1  0.250000  0.490330  0.428173  1
  In  In12  1  0.750000  0.173346  0.653907  1
  In  In13  1  0.250000  0.826654  0.346093  1
  In  In14  1  0.750000  0.673346  0.846093  1
  In  In15  1  0.250000  0.326654  0.153907  1
  Pb  Pb16  1  0.750000  0.208452  0.063497  1
  Pb  Pb17  1  0.750000  0.780428  0.683699  1
  Pb  Pb18  1  0.250000  0.219572  0.316301  1
  Pb  Pb19  1  0.250000  0.719572  0.183699  1
  Pb  Pb20  1  0.250000  0.291548  0.563497  1
  Pb  Pb21  1  0.750000  0.280428  0.816301  1
  Pb  Pb22  1  0.250000  0.791548  0.936503  1
  Pb  Pb23  1  0.750000  0.708452  0.436503  1
