# generated using pymatgen
data_Zr6Al16Ir2Pt5
_symmetry_space_group_name_H-M   'P 1'
_cell_length_a   8.77578547
_cell_length_b   8.77217270
_cell_length_c   8.77217207
_cell_angle_alpha   59.92131331
_cell_angle_beta   59.98637354
_cell_angle_gamma   59.98637934
_symmetry_Int_Tables_number   1
_chemical_formula_structural   Zr6Al16Ir2Pt5
_chemical_formula_sum   'Zr6 Al16 Ir2 Pt5'
_cell_volume   477.13033744
_cell_formula_units_Z   1
loop_
 _symmetry_equiv_pos_site_id
 _symmetry_equiv_pos_as_xyz
  1  'x, y, z'
loop_
 _atom_site_type_symbol
 _atom_site_label
 _atom_site_symmetry_multiplicity
 _atom_site_fract_x
 _atom_site_fract_y
 _atom_site_fract_z
 _atom_site_occupancy
  Zr  Zr0  1  0.687078  0.685594  0.314406  1
  Zr  Zr1  1  0.312922  0.685594  0.314406  1
  Zr  Zr2  1  0.686745  0.313255  0.313255  1
  Zr  Zr3  1  0.312922  0.314406  0.685594  1
  Zr  Zr4  1  0.687078  0.314406  0.685594  1
  Zr  Zr5  1  0.313255  0.686745  0.686745  1
  Al  Al6  1  0.883930  0.874459  0.357682  1
  Al  Al7  1  0.883930  0.357682  0.874459  1
  Al  Al8  1  0.356149  0.881010  0.881010  1
  Al  Al9  1  0.881831  0.881010  0.881010  1
  Al  Al10  1  0.116070  0.125541  0.642318  1
  Al  Al11  1  0.116070  0.642318  0.125541  1
  Al  Al12  1  0.643851  0.118990  0.118990  1
  Al  Al13  1  0.118169  0.118990  0.118990  1
  Al  Al14  1  0.664206  0.663846  0.007740  1
  Al  Al15  1  0.664206  0.007740  0.663846  1
  Al  Al16  1  0.007386  0.663275  0.663275  1
  Al  Al17  1  0.666062  0.663275  0.663275  1
  Al  Al18  1  0.335794  0.336154  0.992260  1
  Al  Al19  1  0.335794  0.992260  0.336154  1
  Al  Al20  1  0.992614  0.336725  0.336725  1
  Al  Al21  1  0.333938  0.336725  0.336725  1
  Ir  Ir22  1  0.000000  0.000000  0.000000  1
  Ir  Ir23  1  0.000000  0.500000  0.500000  1
  Pt  Pt24  1  0.000000  0.000000  0.500000  1
  Pt  Pt25  1  0.500000  0.000000  0.500000  1
  Pt  Pt26  1  0.500000  0.500000  0.000000  1
  Pt  Pt27  1  0.000000  0.500000  0.000000  1
  Pt  Pt28  1  0.500000  0.000000  0.000000  1
