# generated using pymatgen
data_Y8Er12(GaBi3)3
_symmetry_space_group_name_H-M   'P 1'
_cell_length_a   8.10520935
_cell_length_b   9.34218600
_cell_length_c   12.00332018
_cell_angle_alpha   90.00000000
_cell_angle_beta   90.20642063
_cell_angle_gamma   90.00000000
_symmetry_Int_Tables_number   1
_chemical_formula_structural   Y8Er12(GaBi3)3
_chemical_formula_sum   'Y8 Er12 Ga3 Bi9'
_cell_volume   908.88998662
_cell_formula_units_Z   1
loop_
 _symmetry_equiv_pos_site_id
 _symmetry_equiv_pos_as_xyz
  1  'x, y, z'
loop_
 _atom_site_type_symbol
 _atom_site_label
 _atom_site_symmetry_multiplicity
 _atom_site_fract_x
 _atom_site_fract_y
 _atom_site_fract_z
 _atom_site_occupancy
  Y  Y0  1  0.177904  0.750000  0.713835  1
  Y  Y1  1  0.676030  0.750000  0.786467  1
  Y  Y2  1  0.808606  0.250000  0.277075  1
  Y  Y3  1  0.325350  0.250000  0.211389  1
  Y  Y4  1  0.349774  0.750000  0.205291  1
  Y  Y5  1  0.853204  0.750000  0.292938  1
  Y  Y6  1  0.650472  0.250000  0.794842  1
  Y  Y7  1  0.152364  0.250000  0.714535  1
  Er  Er8  1  0.035836  0.750000  0.991014  1
  Er  Er9  1  0.537757  0.750000  0.509340  1
  Er  Er10  1  0.964491  0.250000  0.008314  1
  Er  Er11  1  0.477945  0.250000  0.490619  1
  Er  Er12  1  0.316526  0.444750  0.944469  1
  Er  Er13  1  0.808459  0.048655  0.561528  1
  Er  Er14  1  0.682815  0.944114  0.056243  1
  Er  Er15  1  0.186656  0.569980  0.443608  1
  Er  Er16  1  0.682815  0.555886  0.056243  1
  Er  Er17  1  0.186656  0.930020  0.443608  1
  Er  Er18  1  0.316526  0.055250  0.944469  1
  Er  Er19  1  0.808459  0.451345  0.561528  1
  Ga  Ga20  1  0.410337  0.750000  0.959843  1
  Ga  Ga21  1  0.910496  0.750000  0.539315  1
  Ga  Ga22  1  0.592221  0.250000  0.038588  1
  Bi  Bi23  1  0.438463  0.001891  0.675776  1
  Bi  Bi24  1  0.940079  0.499307  0.824422  1
  Bi  Bi25  1  0.559843  0.503190  0.324870  1
  Bi  Bi26  1  0.060431  0.998673  0.174505  1
  Bi  Bi27  1  0.559843  0.996810  0.324870  1
  Bi  Bi28  1  0.060431  0.501327  0.174505  1
  Bi  Bi29  1  0.438463  0.498109  0.675776  1
  Bi  Bi30  1  0.940079  0.000693  0.824422  1
  Bi  Bi31  1  0.090670  0.250000  0.455753  1
