# generated using pymatgen
data_Eu4TiN4
_symmetry_space_group_name_H-M   'P 1'
_cell_length_a   6.20866424
_cell_length_b   6.24550686
_cell_length_c   9.11898185
_cell_angle_alpha   72.42016333
_cell_angle_beta   79.37331149
_cell_angle_gamma   67.48358993
_symmetry_Int_Tables_number   1
_chemical_formula_structural   Eu4TiN4
_chemical_formula_sum   'Eu8 Ti2 N8'
_cell_volume   310.43944222
_cell_formula_units_Z   2
loop_
 _symmetry_equiv_pos_site_id
 _symmetry_equiv_pos_as_xyz
  1  'x, y, z'
loop_
 _atom_site_type_symbol
 _atom_site_label
 _atom_site_symmetry_multiplicity
 _atom_site_fract_x
 _atom_site_fract_y
 _atom_site_fract_z
 _atom_site_occupancy
  Eu  Eu0  1  0.217583  0.419711  0.829409  1
  Eu  Eu1  1  0.727997  0.480999  0.573101  1
  Eu  Eu2  1  0.261789  0.773513  0.028893  1
  Eu  Eu3  1  0.224544  0.961752  0.618050  1
  Eu  Eu4  1  0.782507  0.580495  0.170548  1
  Eu  Eu5  1  0.738553  0.226327  0.971210  1
  Eu  Eu6  1  0.271660  0.518993  0.426951  1
  Eu  Eu7  1  0.775290  0.038351  0.382092  1
  Ti  Ti8  1  0.716584  0.851511  0.756698  1
  Ti  Ti9  1  0.283416  0.148489  0.243320  1
  N  N10  1  0.959704  0.712838  0.610096  1
  N  N11  1  0.520574  0.172326  0.636027  1
  N  N12  1  0.040084  0.287187  0.389863  1
  N  N13  1  0.522751  0.645987  0.807314  1
  N  N14  1  0.094260  0.179890  0.080494  1
  N  N15  1  0.479215  0.827545  0.363883  1
  N  N16  1  0.477359  0.353872  0.192766  1
  N  N17  1  0.906129  0.820215  0.919283  1
