# generated using pymatgen
data_Tm2Co6Ni6P7
_symmetry_space_group_name_H-M   'P 1'
_cell_length_a   8.98080029
_cell_length_b   8.99816999
_cell_length_c   3.59239100
_cell_angle_alpha   90.00000000
_cell_angle_beta   90.00000000
_cell_angle_gamma   119.87531373
_symmetry_Int_Tables_number   1
_chemical_formula_structural   Tm2Co6Ni6P7
_chemical_formula_sum   'Tm2 Co6 Ni6 P7'
_cell_volume   251.72581199
_cell_formula_units_Z   1
loop_
 _symmetry_equiv_pos_site_id
 _symmetry_equiv_pos_as_xyz
  1  'x, y, z'
loop_
 _atom_site_type_symbol
 _atom_site_label
 _atom_site_symmetry_multiplicity
 _atom_site_fract_x
 _atom_site_fract_y
 _atom_site_fract_z
 _atom_site_occupancy
  Tm  Tm0  1  0.333265  0.666456  0.000000  1
  Tm  Tm1  1  0.666967  0.333669  0.499998  1
  Co  Co2  1  0.157141  0.274725  0.000000  1
  Co  Co3  1  0.725423  0.882611  0.000000  1
  Co  Co4  1  0.117604  0.843047  0.000000  1
  Co  Co5  1  0.385659  0.435184  0.499998  1
  Co  Co6  1  0.565009  0.950453  0.499998  1
  Co  Co7  1  0.049613  0.614430  0.499998  1
  Ni  Ni8  1  0.433048  0.063561  0.000000  1
  Ni  Ni9  1  0.936064  0.369041  0.000000  1
  Ni  Ni10  1  0.629953  0.567305  0.000000  1
  Ni  Ni11  1  0.213419  0.090121  0.499998  1
  Ni  Ni12  1  0.910401  0.123176  0.499998  1
  Ni  Ni13  1  0.875976  0.785676  0.499998  1
  P  P14  1  0.117255  0.404457  0.499998  1
  P  P15  1  0.595182  0.712872  0.499998  1
  P  P16  1  0.287246  0.882806  0.499998  1
  P  P17  1  0.410388  0.299361  0.000000  1
  P  P18  1  0.701185  0.110703  0.000000  1
  P  P19  1  0.889028  0.590081  0.000000  1
  P  P20  1  0.000172  0.000262  0.000000  1
