# generated using pymatgen
data_CsS3
_symmetry_space_group_name_H-M   'P 1'
_cell_length_a   4.89878743
_cell_length_b   9.58900340
_cell_length_c   11.62900648
_cell_angle_alpha   85.05678540
_cell_angle_beta   85.16511918
_cell_angle_gamma   89.75697165
_symmetry_Int_Tables_number   1
_chemical_formula_structural   CsS3
_chemical_formula_sum   'Cs4 S12'
_cell_volume   542.29580630
_cell_formula_units_Z   4
loop_
 _symmetry_equiv_pos_site_id
 _symmetry_equiv_pos_as_xyz
  1  'x, y, z'
loop_
 _atom_site_type_symbol
 _atom_site_label
 _atom_site_symmetry_multiplicity
 _atom_site_fract_x
 _atom_site_fract_y
 _atom_site_fract_z
 _atom_site_occupancy
  Cs  Cs0  1  0.952155  0.677631  0.097168  1
  Cs  Cs1  1  0.047845  0.322369  0.902832  1
  Cs  Cs2  1  0.887738  0.311024  0.385876  1
  Cs  Cs3  1  0.112262  0.688976  0.614124  1
  S  S4  1  0.465281  0.345395  0.147083  1
  S  S5  1  0.534719  0.654605  0.852917  1
  S  S6  1  0.429214  0.613423  0.328452  1
  S  S7  1  0.570786  0.386577  0.671548  1
  S  S8  1  0.484235  0.141852  0.103901  1
  S  S9  1  0.515765  0.858148  0.896099  1
  S  S10  1  0.208969  0.017677  0.210735  1
  S  S11  1  0.791031  0.982323  0.789265  1
  S  S12  1  0.362940  0.960221  0.372064  1
  S  S13  1  0.637060  0.039779  0.627936  1
  S  S14  1  0.628377  0.790703  0.361662  1
  S  S15  1  0.371623  0.209297  0.638338  1
