# generated using pymatgen
data_ScNb3(GaCo2)4
_symmetry_space_group_name_H-M   'P 1'
_cell_length_a   14.00105927
_cell_length_b   14.00105931
_cell_length_c   14.00106001
_cell_angle_alpha   17.35366389
_cell_angle_beta   17.35366421
_cell_angle_gamma   17.35366118
_symmetry_Int_Tables_number   1
_chemical_formula_structural   ScNb3(GaCo2)4
_chemical_formula_sum   'Sc1 Nb3 Ga4 Co8'
_cell_volume   213.07689743
_cell_formula_units_Z   1
loop_
 _symmetry_equiv_pos_site_id
 _symmetry_equiv_pos_as_xyz
  1  'x, y, z'
loop_
 _atom_site_type_symbol
 _atom_site_label
 _atom_site_symmetry_multiplicity
 _atom_site_fract_x
 _atom_site_fract_y
 _atom_site_fract_z
 _atom_site_occupancy
  Sc  Sc0  1  0.000000  0.000000  0.000000  1
  Nb  Nb1  1  0.250275  0.250275  0.250275  1
  Nb  Nb2  1  0.500000  0.500000  0.500000  1
  Nb  Nb3  1  0.749725  0.749725  0.749725  1
  Ga  Ga4  1  0.125279  0.125279  0.125279  1
  Ga  Ga5  1  0.374715  0.374715  0.374715  1
  Ga  Ga6  1  0.625285  0.625285  0.625285  1
  Ga  Ga7  1  0.874721  0.874721  0.874721  1
  Co  Co8  1  0.812854  0.812854  0.812854  1
  Co  Co9  1  0.064196  0.064196  0.064196  1
  Co  Co10  1  0.311021  0.311021  0.311021  1
  Co  Co11  1  0.562228  0.562228  0.562228  1
  Co  Co12  1  0.437772  0.437772  0.437772  1
  Co  Co13  1  0.688979  0.688979  0.688979  1
  Co  Co14  1  0.935804  0.935804  0.935804  1
  Co  Co15  1  0.187146  0.187146  0.187146  1
