# generated using pymatgen
data_Sm6TmCoI12
_symmetry_space_group_name_H-M   'P 1'
_cell_length_a   9.86644963
_cell_length_b   9.86644946
_cell_length_c   9.86645219
_cell_angle_alpha   106.93060679
_cell_angle_beta   106.93060216
_cell_angle_gamma   106.93060940
_symmetry_Int_Tables_number   1
_chemical_formula_structural   Sm6TmCoI12
_chemical_formula_sum   'Sm6 Tm1 Co1 I12'
_cell_volume   801.39613941
_cell_formula_units_Z   1
loop_
 _symmetry_equiv_pos_site_id
 _symmetry_equiv_pos_as_xyz
  1  'x, y, z'
loop_
 _atom_site_type_symbol
 _atom_site_label
 _atom_site_symmetry_multiplicity
 _atom_site_fract_x
 _atom_site_fract_y
 _atom_site_fract_z
 _atom_site_occupancy
  Sm  Sm0  1  0.520585  0.593279  0.791743  1
  Sm  Sm1  1  0.791743  0.520585  0.593279  1
  Sm  Sm2  1  0.593279  0.791743  0.520585  1
  Sm  Sm3  1  0.477339  0.404622  0.206433  1
  Sm  Sm4  1  0.206433  0.477339  0.404622  1
  Sm  Sm5  1  0.404622  0.206433  0.477339  1
  Tm  Tm6  1  0.997043  0.997043  0.997043  1
  Co  Co7  1  0.499151  0.499151  0.499151  1
  I  I8  1  0.272552  0.822309  0.426443  1
  I  I9  1  0.426443  0.272552  0.822309  1
  I  I10  1  0.822309  0.426443  0.272552  1
  I  I11  1  0.725850  0.176215  0.572130  1
  I  I12  1  0.572130  0.725850  0.176215  1
  I  I13  1  0.176215  0.572130  0.725850  1
  I  I14  1  0.031936  0.109294  0.328077  1
  I  I15  1  0.328077  0.031936  0.109294  1
  I  I16  1  0.109294  0.328077  0.031936  1
  I  I17  1  0.965437  0.887822  0.667106  1
  I  I18  1  0.667106  0.965437  0.887822  1
  I  I19  1  0.887822  0.667106  0.965437  1
