# generated using pymatgen
data_Pr7Tm(Si3Pt)4
_symmetry_space_group_name_H-M   'P 1'
_cell_length_a   8.24036109
_cell_length_b   8.24036203
_cell_length_c   8.63615400
_cell_angle_alpha   90.00000000
_cell_angle_beta   90.00000000
_cell_angle_gamma   119.91830895
_symmetry_Int_Tables_number   1
_chemical_formula_structural   Pr7Tm(Si3Pt)4
_chemical_formula_sum   'Pr7 Tm1 Si12 Pt4'
_cell_volume   508.27699799
_cell_formula_units_Z   1
loop_
 _symmetry_equiv_pos_site_id
 _symmetry_equiv_pos_as_xyz
  1  'x, y, z'
loop_
 _atom_site_type_symbol
 _atom_site_label
 _atom_site_symmetry_multiplicity
 _atom_site_fract_x
 _atom_site_fract_y
 _atom_site_fract_z
 _atom_site_occupancy
  Pr  Pr0  1  0.500188  0.499812  0.250000  1
  Pr  Pr1  1  0.000512  0.500232  0.750000  1
  Pr  Pr2  1  0.999653  0.499830  0.250000  1
  Pr  Pr3  1  0.499768  0.999488  0.750000  1
  Pr  Pr4  1  0.500170  0.000347  0.250000  1
  Pr  Pr5  1  0.999988  0.000012  0.750000  1
  Pr  Pr6  1  0.999986  0.000014  0.250000  1
  Tm  Tm7  1  0.499894  0.500106  0.750000  1
  Si  Si8  1  0.833571  0.166429  0.000389  1
  Si  Si9  1  0.166394  0.833606  0.999882  1
  Si  Si10  1  0.331823  0.166856  0.998101  1
  Si  Si11  1  0.166394  0.833606  0.500118  1
  Si  Si12  1  0.668144  0.833094  0.997314  1
  Si  Si13  1  0.833571  0.166429  0.499611  1
  Si  Si14  1  0.833144  0.668177  0.998101  1
  Si  Si15  1  0.668144  0.833094  0.502686  1
  Si  Si16  1  0.166906  0.331856  0.997314  1
  Si  Si17  1  0.331823  0.166856  0.501899  1
  Si  Si18  1  0.166906  0.331856  0.502686  1
  Si  Si19  1  0.833144  0.668177  0.501899  1
  Pt  Pt20  1  0.665042  0.334958  0.993102  1
  Pt  Pt21  1  0.334897  0.665103  0.994830  1
  Pt  Pt22  1  0.334897  0.665103  0.505170  1
  Pt  Pt23  1  0.665042  0.334958  0.506898  1
