# generated using pymatgen
data_La3Yb(Pr4Ga3)4
_symmetry_space_group_name_H-M   'P 1'
_cell_length_a   7.90227000
_cell_length_b   7.90227000
_cell_length_c   14.91495400
_cell_angle_alpha   90.00000000
_cell_angle_beta   90.00000000
_cell_angle_gamma   90.00000000
_symmetry_Int_Tables_number   1
_chemical_formula_structural   La3Yb(Pr4Ga3)4
_chemical_formula_sum   'La3 Yb1 Pr16 Ga12'
_cell_volume   931.37729574
_cell_formula_units_Z   1
loop_
 _symmetry_equiv_pos_site_id
 _symmetry_equiv_pos_as_xyz
  1  'x, y, z'
loop_
 _atom_site_type_symbol
 _atom_site_label
 _atom_site_symmetry_multiplicity
 _atom_site_fract_x
 _atom_site_fract_y
 _atom_site_fract_z
 _atom_site_occupancy
  La  La0  1  0.000000  0.500000  0.717618  1
  La  La1  1  0.000000  0.500000  0.213197  1
  La  La2  1  0.500000  0.000000  0.286685  1
  Yb  Yb3  1  0.500000  0.000000  0.762961  1
  Pr  Pr4  1  0.819067  0.839146  0.603657  1
  Pr  Pr5  1  0.185630  0.840140  0.104118  1
  Pr  Pr6  1  0.161212  0.815208  0.397084  1
  Pr  Pr7  1  0.838788  0.184792  0.397084  1
  Pr  Pr8  1  0.684792  0.661212  0.397084  1
  Pr  Pr9  1  0.660854  0.319067  0.603657  1
  Pr  Pr10  1  0.339146  0.680933  0.603657  1
  Pr  Pr11  1  0.659860  0.685630  0.104118  1
  Pr  Pr12  1  0.682220  0.331168  0.896681  1
  Pr  Pr13  1  0.831168  0.817780  0.896681  1
  Pr  Pr14  1  0.315208  0.338788  0.397084  1
  Pr  Pr15  1  0.180933  0.160854  0.603657  1
  Pr  Pr16  1  0.814370  0.159860  0.104118  1
  Pr  Pr17  1  0.317780  0.668832  0.896681  1
  Pr  Pr18  1  0.340140  0.314370  0.104118  1
  Pr  Pr19  1  0.168832  0.182220  0.896681  1
  Ga  Ga20  1  0.617798  0.382166  0.250402  1
  Ga  Ga21  1  0.118041  0.882864  0.752847  1
  Ga  Ga22  1  0.382864  0.381959  0.752847  1
  Ga  Ga23  1  0.382202  0.617834  0.250402  1
  Ga  Ga24  1  0.882166  0.882202  0.250402  1
  Ga  Ga25  1  0.617136  0.618041  0.752847  1
  Ga  Ga26  1  0.000000  0.500000  0.505455  1
  Ga  Ga27  1  0.881959  0.117136  0.752847  1
  Ga  Ga28  1  0.500000  0.000000  0.499096  1
  Ga  Ga29  1  0.500000  0.000000  0.992751  1
  Ga  Ga30  1  0.117834  0.117798  0.250402  1
  Ga  Ga31  1  0.000000  0.500000  0.003086  1
