# generated using pymatgen
data_ZrCd(SbPt)2
_symmetry_space_group_name_H-M   'P 1'
_cell_length_a   6.44754326
_cell_length_b   6.44754457
_cell_length_c   7.94146866
_cell_angle_alpha   66.04987436
_cell_angle_beta   66.04986353
_cell_angle_gamma   90.00000271
_symmetry_Int_Tables_number   1
_chemical_formula_structural   ZrCd(SbPt)2
_chemical_formula_sum   'Zr2 Cd2 Sb4 Pt4'
_cell_volume   270.31115241
_cell_formula_units_Z   2
loop_
 _symmetry_equiv_pos_site_id
 _symmetry_equiv_pos_as_xyz
  1  'x, y, z'
loop_
 _atom_site_type_symbol
 _atom_site_label
 _atom_site_symmetry_multiplicity
 _atom_site_fract_x
 _atom_site_fract_y
 _atom_site_fract_z
 _atom_site_occupancy
  Zr  Zr0  1  0.500000  0.500000  0.000000  1
  Zr  Zr1  1  0.750000  0.250000  0.500000  1
  Cd  Cd2  1  0.000000  0.000000  0.000000  1
  Cd  Cd3  1  0.250000  0.750000  0.500000  1
  Sb  Sb4  1  0.496103  0.996102  0.007794  1
  Sb  Sb5  1  0.753897  0.753897  0.492205  1
  Sb  Sb6  1  0.246103  0.246103  0.507794  1
  Sb  Sb7  1  0.003897  0.503897  0.992205  1
  Pt  Pt8  1  0.625001  0.607092  0.250000  1
  Pt  Pt9  1  0.124998  0.142906  0.250001  1
  Pt  Pt10  1  0.857092  0.374999  0.749999  1
  Pt  Pt11  1  0.392906  0.874998  0.750001  1
