# generated using pymatgen
data_Sc4BI5
_symmetry_space_group_name_H-M   'P 1'
_cell_length_a   10.26897217
_cell_length_b   10.26897246
_cell_length_c   8.14384605
_cell_angle_alpha   101.18775256
_cell_angle_beta   101.18775337
_cell_angle_gamma   21.93455631
_symmetry_Int_Tables_number   1
_chemical_formula_structural   Sc4BI5
_chemical_formula_sum   'Sc4 B1 I5'
_cell_volume   314.46870440
_cell_formula_units_Z   1
loop_
 _symmetry_equiv_pos_site_id
 _symmetry_equiv_pos_as_xyz
  1  'x, y, z'
loop_
 _atom_site_type_symbol
 _atom_site_label
 _atom_site_symmetry_multiplicity
 _atom_site_fract_x
 _atom_site_fract_y
 _atom_site_fract_z
 _atom_site_occupancy
  Sc  Sc0  1  0.615631  0.615631  0.056796  1
  Sc  Sc1  1  0.000079  0.000079  0.186965  1
  Sc  Sc2  1  0.999921  0.999921  0.813036  1
  Sc  Sc3  1  0.384369  0.384369  0.943203  1
  B  B4  1  0.500000  0.500000  0.000000  1
  I  I5  1  0.846920  0.846920  0.176582  1
  I  I6  1  0.152453  0.152453  0.325931  1
  I  I7  1  0.500000  0.500000  0.499999  1
  I  I8  1  0.847548  0.847548  0.674069  1
  I  I9  1  0.153080  0.153080  0.823418  1
