# generated using pymatgen
data_Dy5Y5(SiSn3)2
_symmetry_space_group_name_H-M   'P 1'
_cell_length_a   9.23709206
_cell_length_b   9.23709230
_cell_length_c   6.47330900
_cell_angle_alpha   90.00000000
_cell_angle_beta   90.00000000
_cell_angle_gamma   119.98658996
_symmetry_Int_Tables_number   1
_chemical_formula_structural   Dy5Y5(SiSn3)2
_chemical_formula_sum   'Dy5 Y5 Si2 Sn6'
_cell_volume   478.39451870
_cell_formula_units_Z   1
loop_
 _symmetry_equiv_pos_site_id
 _symmetry_equiv_pos_as_xyz
  1  'x, y, z'
loop_
 _atom_site_type_symbol
 _atom_site_label
 _atom_site_symmetry_multiplicity
 _atom_site_fract_x
 _atom_site_fract_y
 _atom_site_fract_z
 _atom_site_occupancy
  Dy  Dy0  1  0.252496  0.999988  0.750000  1
  Dy  Dy1  1  0.999988  0.252496  0.750000  1
  Dy  Dy2  1  0.252504  0.252504  0.250000  1
  Dy  Dy3  1  0.747483  0.000020  0.250000  1
  Dy  Dy4  1  0.000020  0.747483  0.250000  1
  Y  Y5  1  0.666659  0.333324  0.000013  1
  Y  Y6  1  0.333324  0.666659  0.000013  1
  Y  Y7  1  0.333324  0.666659  0.499987  1
  Y  Y8  1  0.666659  0.333324  0.499987  1
  Y  Y9  1  0.747459  0.747459  0.750000  1
  Si  Si10  1  0.000099  0.000099  0.000071  1
  Si  Si11  1  0.000099  0.000099  0.499929  1
  Sn  Sn12  1  0.391096  0.391096  0.750000  1
  Sn  Sn13  1  0.608830  0.000053  0.750000  1
  Sn  Sn14  1  0.000053  0.608830  0.750000  1
  Sn  Sn15  1  0.608776  0.608776  0.250000  1
  Sn  Sn16  1  0.391136  0.999992  0.250000  1
  Sn  Sn17  1  0.999992  0.391136  0.250000  1
