# generated using pymatgen
data_Cs4Na2YErAs4
_symmetry_space_group_name_H-M   'P 1'
_cell_length_a   9.82980148
_cell_length_b   9.82980141
_cell_length_c   9.82980100
_cell_angle_alpha   136.27335058
_cell_angle_beta   136.82927771
_cell_angle_gamma   63.13023560
_symmetry_Int_Tables_number   1
_chemical_formula_structural   Cs4Na2YErAs4
_chemical_formula_sum   'Cs4 Na2 Y1 Er1 As4'
_cell_volume   443.47996017
_cell_formula_units_Z   1
loop_
 _symmetry_equiv_pos_site_id
 _symmetry_equiv_pos_as_xyz
  1  'x, y, z'
loop_
 _atom_site_type_symbol
 _atom_site_label
 _atom_site_symmetry_multiplicity
 _atom_site_fract_x
 _atom_site_fract_y
 _atom_site_fract_z
 _atom_site_occupancy
  Cs  Cs0  1  0.681164  0.395232  0.715514  1
  Cs  Cs1  1  0.818836  0.034349  0.214069  1
  Cs  Cs2  1  0.179720  0.965651  0.784486  1
  Cs  Cs3  1  0.320280  0.604768  0.285931  1
  Na  Na4  1  0.750000  0.000000  0.750000  1
  Na  Na5  1  0.250000  0.000000  0.250000  1
  Y  Y6  1  0.250000  0.500000  0.750000  1
  Er  Er7  1  0.750000  0.500000  0.250000  1
  As  As8  1  0.412111  0.191078  0.781867  1
  As  As9  1  0.590789  0.808922  0.221033  1
  As  As10  1  0.087889  0.369757  0.278967  1
  As  As11  1  0.909211  0.630243  0.718133  1
