# generated using pymatgen
data_Er2FeCo16
_symmetry_space_group_name_H-M   'P 1'
_cell_length_a   6.25934832
_cell_length_b   6.25934912
_cell_length_c   6.25934874
_cell_angle_alpha   83.01345666
_cell_angle_beta   83.01345126
_cell_angle_gamma   83.01346538
_symmetry_Int_Tables_number   1
_chemical_formula_structural   Er2FeCo16
_chemical_formula_sum   'Er2 Fe1 Co16'
_cell_volume   240.18452287
_cell_formula_units_Z   1
loop_
 _symmetry_equiv_pos_site_id
 _symmetry_equiv_pos_as_xyz
  1  'x, y, z'
loop_
 _atom_site_type_symbol
 _atom_site_label
 _atom_site_symmetry_multiplicity
 _atom_site_fract_x
 _atom_site_fract_y
 _atom_site_fract_z
 _atom_site_occupancy
  Er  Er0  1  0.655663  0.655663  0.655663  1
  Er  Er1  1  0.345972  0.345973  0.345973  1
  Fe  Fe2  1  0.096443  0.096443  0.096443  1
  Co  Co3  1  0.347648  0.347648  0.849078  1
  Co  Co4  1  0.849078  0.347648  0.347648  1
  Co  Co5  1  0.347648  0.849078  0.347648  1
  Co  Co6  1  0.653335  0.653335  0.151582  1
  Co  Co7  1  0.151582  0.653335  0.653335  1
  Co  Co8  1  0.653335  0.151582  0.653335  1
  Co  Co9  1  0.709295  0.290412  0.999192  1
  Co  Co10  1  0.999192  0.709295  0.290412  1
  Co  Co11  1  0.290412  0.999192  0.709295  1
  Co  Co12  1  0.999192  0.290412  0.709295  1
  Co  Co13  1  0.709295  0.999192  0.290412  1
  Co  Co14  1  0.290412  0.709295  0.999192  1
  Co  Co15  1  0.998906  0.998906  0.501684  1
  Co  Co16  1  0.501684  0.998906  0.998906  1
  Co  Co17  1  0.998906  0.501684  0.998906  1
  Co  Co18  1  0.902000  0.902000  0.902000  1
