# generated using pymatgen
data_ZnIn8Hg3Ir4
_symmetry_space_group_name_H-M   'P 1'
_cell_length_a   7.17793104
_cell_length_b   7.09080658
_cell_length_c   7.22015200
_cell_angle_alpha   90.00000000
_cell_angle_beta   90.00000000
_cell_angle_gamma   91.26311130
_symmetry_Int_Tables_number   1
_chemical_formula_structural   ZnIn8Hg3Ir4
_chemical_formula_sum   'Zn1 In8 Hg3 Ir4'
_cell_volume   367.39709594
_cell_formula_units_Z   1
loop_
 _symmetry_equiv_pos_site_id
 _symmetry_equiv_pos_as_xyz
  1  'x, y, z'
loop_
 _atom_site_type_symbol
 _atom_site_label
 _atom_site_symmetry_multiplicity
 _atom_site_fract_x
 _atom_site_fract_y
 _atom_site_fract_z
 _atom_site_occupancy
  Zn  Zn0  1  0.500000  0.000000  0.500000  1
  In  In1  1  0.339228  0.338770  0.268375  1
  In  In2  1  0.161477  0.843956  0.763069  1
  In  In3  1  0.161477  0.843956  0.236931  1
  In  In4  1  0.838523  0.156044  0.236931  1
  In  In5  1  0.838523  0.156044  0.763069  1
  In  In6  1  0.660772  0.661230  0.268375  1
  In  In7  1  0.660772  0.661230  0.731625  1
  In  In8  1  0.339228  0.338770  0.731625  1
  Hg  Hg9  1  0.000000  0.500000  0.000000  1
  Hg  Hg10  1  0.500000  0.000000  0.000000  1
  Hg  Hg11  1  0.000000  0.500000  0.500000  1
  Ir  Ir12  1  0.152223  0.153739  0.000000  1
  Ir  Ir13  1  0.644795  0.333837  0.500000  1
  Ir  Ir14  1  0.355205  0.666163  0.500000  1
  Ir  Ir15  1  0.847777  0.846261  0.000000  1
