# generated using pymatgen
data_PaPd8
_symmetry_space_group_name_H-M   'P 1'
_cell_length_a   6.32778869
_cell_length_b   6.32778947
_cell_length_c   6.32778907
_cell_angle_alpha   96.21390910
_cell_angle_beta   96.21391465
_cell_angle_gamma   141.58387707
_symmetry_Int_Tables_number   1
_chemical_formula_structural   PaPd8
_chemical_formula_sum   'Pa1 Pd8'
_cell_volume   148.67189106
_cell_formula_units_Z   1
loop_
 _symmetry_equiv_pos_site_id
 _symmetry_equiv_pos_as_xyz
  1  'x, y, z'
loop_
 _atom_site_type_symbol
 _atom_site_label
 _atom_site_symmetry_multiplicity
 _atom_site_fract_x
 _atom_site_fract_y
 _atom_site_fract_z
 _atom_site_occupancy
  Pa  Pa0  1  0.000000  0.000000  0.000000  1
  Pd  Pd1  1  0.667258  0.332743  0.000000  1
  Pd  Pd2  1  0.332743  0.667258  0.000000  1
  Pd  Pd3  1  0.331350  0.000000  0.331350  1
  Pd  Pd4  1  0.000000  0.331350  0.331350  1
  Pd  Pd5  1  0.667258  0.667258  0.334516  1
  Pd  Pd6  1  0.332743  0.332743  0.665485  1
  Pd  Pd7  1  0.668650  0.000000  0.668650  1
  Pd  Pd8  1  0.000000  0.668650  0.668650  1
