# generated using pymatgen
data_Tb7NdMg2(SiB4)4
_symmetry_space_group_name_H-M   'P 1'
_cell_length_a   7.20614012
_cell_length_b   7.20614012
_cell_length_c   7.95144325
_cell_angle_alpha   90.02026923
_cell_angle_beta   90.02026923
_cell_angle_gamma   89.99409859
_symmetry_Int_Tables_number   1
_chemical_formula_structural   Tb7NdMg2(SiB4)4
_chemical_formula_sum   'Tb7 Nd1 Mg2 Si4 B16'
_cell_volume   412.90611274
_cell_formula_units_Z   1
loop_
 _symmetry_equiv_pos_site_id
 _symmetry_equiv_pos_as_xyz
  1  'x, y, z'
loop_
 _atom_site_type_symbol
 _atom_site_label
 _atom_site_symmetry_multiplicity
 _atom_site_fract_x
 _atom_site_fract_y
 _atom_site_fract_z
 _atom_site_occupancy
  Tb  Tb0  1  0.316439  0.816439  0.766602  1
  Tb  Tb1  1  0.316252  0.816252  0.233268  1
  Tb  Tb2  1  0.816952  0.683381  0.233177  1
  Tb  Tb3  1  0.816789  0.683400  0.767078  1
  Tb  Tb4  1  0.683280  0.183280  0.766594  1
  Tb  Tb5  1  0.183400  0.316789  0.767078  1
  Tb  Tb6  1  0.183381  0.316952  0.233177  1
  Nd  Nd7  1  0.683389  0.183389  0.239239  1
  Mg  Mg8  1  0.001291  0.999110  0.501648  1
  Mg  Mg9  1  0.499110  0.501291  0.501648  1
  Si  Si10  1  0.116320  0.616320  0.500467  1
  Si  Si11  1  0.887311  0.387311  0.503603  1
  Si  Si12  1  0.382277  0.113116  0.502811  1
  Si  Si13  1  0.613116  0.882277  0.502811  1
  B  B14  1  0.173824  0.039490  0.998777  1
  B  B15  1  0.827349  0.959163  0.998784  1
  B  B16  1  0.961161  0.172979  0.998937  1
  B  B17  1  0.326062  0.540374  0.999039  1
  B  B18  1  0.040374  0.826062  0.999039  1
  B  B19  1  0.672979  0.461161  0.998937  1
  B  B20  1  0.539490  0.673824  0.998777  1
  B  B21  1  0.459163  0.327349  0.998784  1
  B  B22  1  0.089575  0.589575  0.999244  1
  B  B23  1  0.910484  0.410484  0.999357  1
  B  B24  1  0.409774  0.089832  0.997903  1
  B  B25  1  0.589832  0.909774  0.997903  1
  B  B26  1  0.001860  0.999001  0.158239  1
  B  B27  1  0.000135  0.999632  0.839422  1
  B  B28  1  0.499632  0.500135  0.839422  1
  B  B29  1  0.499001  0.501860  0.158239  1
