# generated using pymatgen
data_Dy11In9Ru3Au
_symmetry_space_group_name_H-M   'P 1'
_cell_length_a   3.73372700
_cell_length_b   13.09906744
_cell_length_c   13.11246359
_cell_angle_alpha   111.67758302
_cell_angle_beta   90.00000000
_cell_angle_gamma   90.00000000
_symmetry_Int_Tables_number   1
_chemical_formula_structural   Dy11In9Ru3Au
_chemical_formula_sum   'Dy11 In9 Ru3 Au1'
_cell_volume   595.95366993
_cell_formula_units_Z   1
loop_
 _symmetry_equiv_pos_site_id
 _symmetry_equiv_pos_as_xyz
  1  'x, y, z'
loop_
 _atom_site_type_symbol
 _atom_site_label
 _atom_site_symmetry_multiplicity
 _atom_site_fract_x
 _atom_site_fract_y
 _atom_site_fract_z
 _atom_site_occupancy
  Dy  Dy0  1  0.000000  0.933851  0.584965  1
  Dy  Dy1  1  0.000000  0.085582  0.419757  1
  Dy  Dy2  1  0.000000  0.581012  0.920357  1
  Dy  Dy3  1  0.000000  0.415288  0.077954  1
  Dy  Dy4  1  0.000000  0.161725  0.839315  1
  Dy  Dy5  1  0.000000  0.836856  0.160831  1
  Dy  Dy6  1  0.000000  0.375169  0.625222  1
  Dy  Dy7  1  0.000000  0.613335  0.362841  1
  Dy  Dy8  1  0.000000  0.680093  0.693601  1
  Dy  Dy9  1  0.000000  0.311173  0.311859  1
  Dy  Dy10  1  0.000000  0.000162  0.001833  1
  In  In11  1  0.500000  0.162086  0.632122  1
  In  In12  1  0.500000  0.849572  0.366897  1
  In  In13  1  0.500000  0.629381  0.159543  1
  In  In14  1  0.500000  0.367018  0.842768  1
  In  In15  1  0.500000  0.931492  0.785668  1
  In  In16  1  0.500000  0.073687  0.219200  1
  In  In17  1  0.500000  0.779330  0.922896  1
  In  In18  1  0.500000  0.217718  0.075669  1
  In  In19  1  0.500000  0.498519  0.498298  1
  Ru  Ru20  1  0.500000  0.254473  0.452352  1
  Ru  Ru21  1  0.500000  0.547509  0.752401  1
  Ru  Ru22  1  0.500000  0.443962  0.245289  1
  Au  Au23  1  0.500000  0.751007  0.548360  1
