# generated using pymatgen
data_NaNd7(US5)4
_symmetry_space_group_name_H-M   'P 1'
_cell_length_a   7.52176322
_cell_length_b   8.10949821
_cell_length_c   11.87648800
_cell_angle_alpha   89.98069062
_cell_angle_beta   89.79272428
_cell_angle_gamma   90.05502475
_symmetry_Int_Tables_number   1
_chemical_formula_structural   NaNd7(US5)4
_chemical_formula_sum   'Na1 Nd7 U4 S20'
_cell_volume   724.43363679
_cell_formula_units_Z   1
loop_
 _symmetry_equiv_pos_site_id
 _symmetry_equiv_pos_as_xyz
  1  'x, y, z'
loop_
 _atom_site_type_symbol
 _atom_site_label
 _atom_site_symmetry_multiplicity
 _atom_site_fract_x
 _atom_site_fract_y
 _atom_site_fract_z
 _atom_site_occupancy
  Na  Na0  1  0.531157  0.500576  0.323603  1
  Nd  Nd1  1  0.969910  0.999659  0.824702  1
  Nd  Nd2  1  0.468969  0.000209  0.675336  1
  Nd  Nd3  1  0.030356  0.499224  0.181106  1
  Nd  Nd4  1  0.468572  0.499511  0.670487  1
  Nd  Nd5  1  0.035899  0.999379  0.176768  1
  Nd  Nd6  1  0.529471  0.997456  0.322990  1
  Nd  Nd7  1  0.965749  0.500761  0.826994  1
  U  U8  1  0.067950  0.752239  0.490487  1
  U  U9  1  0.433895  0.748240  0.992783  1
  U  U10  1  0.927002  0.252361  0.505175  1
  U  U11  1  0.564210  0.252855  0.011203  1
  S  S12  1  0.837960  0.959274  0.593586  1
  S  S13  1  0.671378  0.542007  0.080710  1
  S  S14  1  0.159285  0.461967  0.411236  1
  S  S15  1  0.335077  0.038892  0.907337  1
  S  S16  1  0.166899  0.042787  0.410200  1
  S  S17  1  0.333595  0.458943  0.906567  1
  S  S18  1  0.835591  0.542303  0.594799  1
  S  S19  1  0.666318  0.958766  0.089150  1
  S  S20  1  0.846802  0.756997  0.312187  1
  S  S21  1  0.661453  0.750971  0.811411  1
  S  S22  1  0.158680  0.250956  0.687562  1
  S  S23  1  0.332359  0.242044  0.183722  1
  S  S24  1  0.447827  0.757960  0.502683  1
  S  S25  1  0.049019  0.748173  0.999293  1
  S  S26  1  0.551657  0.242611  0.505342  1
  S  S27  1  0.950904  0.247771  0.001810  1
  S  S28  1  0.185990  0.748162  0.713985  1
  S  S29  1  0.312634  0.752713  0.210701  1
  S  S30  1  0.816646  0.242978  0.286006  1
  S  S31  1  0.686786  0.251253  0.790076  1
