# generated using pymatgen
data_Er4CdSb5Rh7
_symmetry_space_group_name_H-M   'P 1'
_cell_length_a   7.60863432
_cell_length_b   7.60863528
_cell_length_c   7.60863600
_cell_angle_alpha   108.70964915
_cell_angle_beta   109.85334473
_cell_angle_gamma   109.85333987
_symmetry_Int_Tables_number   1
_chemical_formula_structural   Er4CdSb5Rh7
_chemical_formula_sum   'Er4 Cd1 Sb5 Rh7'
_cell_volume   339.03219922
_cell_formula_units_Z   1
loop_
 _symmetry_equiv_pos_site_id
 _symmetry_equiv_pos_as_xyz
  1  'x, y, z'
loop_
 _atom_site_type_symbol
 _atom_site_label
 _atom_site_symmetry_multiplicity
 _atom_site_fract_x
 _atom_site_fract_y
 _atom_site_fract_z
 _atom_site_occupancy
  Er  Er0  1  0.999960  0.994024  0.489347  1
  Er  Er1  1  0.999960  0.489347  0.994024  1
  Er  Er2  1  0.504717  0.994122  0.994122  1
  Er  Er3  1  0.495333  0.489355  0.489355  1
  Cd  Cd4  1  0.000045  0.702378  0.702378  1
  Sb  Sb5  1  0.686141  0.679445  0.993257  1
  Sb  Sb6  1  0.313821  0.993277  0.307131  1
  Sb  Sb7  1  0.000014  0.335158  0.335158  1
  Sb  Sb8  1  0.313821  0.307131  0.993277  1
  Sb  Sb9  1  0.686141  0.993257  0.679445  1
  Rh  Rh10  1  0.746894  0.247294  0.500402  1
  Rh  Rh11  1  0.746894  0.500402  0.247294  1
  Rh  Rh12  1  0.500046  0.245602  0.745649  1
  Rh  Rh13  1  0.253087  0.500383  0.753505  1
  Rh  Rh14  1  0.253087  0.753505  0.500383  1
  Rh  Rh15  1  0.500046  0.745649  0.245602  1
  Rh  Rh16  1  0.999992  0.029671  0.029671  1
