# generated using pymatgen
data_ZrF35
_symmetry_space_group_name_H-M   'P 1'
_cell_length_a   9.23393948
_cell_length_b   8.41844126
_cell_length_c   10.75691263
_cell_angle_alpha   81.18762579
_cell_angle_beta   89.32654553
_cell_angle_gamma   64.34907509
_symmetry_Int_Tables_number   1
_chemical_formula_structural   ZrF35
_chemical_formula_sum   'Zr1 F35'
_cell_volume   743.48744846
_cell_formula_units_Z   1
loop_
 _symmetry_equiv_pos_site_id
 _symmetry_equiv_pos_as_xyz
  1  'x, y, z'
loop_
 _atom_site_type_symbol
 _atom_site_label
 _atom_site_symmetry_multiplicity
 _atom_site_fract_x
 _atom_site_fract_y
 _atom_site_fract_z
 _atom_site_occupancy
  Zr  Zr0  1  0.836941  0.273906  0.763579  1
  F  F1  1  0.040499  0.732107  0.127013  1
  F  F2  1  0.590293  0.229485  0.498712  1
  F  F3  1  0.383407  0.786980  0.525244  1
  F  F4  1  0.828874  0.717050  0.710702  1
  F  F5  1  0.174619  0.302617  0.297188  1
  F  F6  1  0.133492  0.716473  0.860591  1
  F  F7  1  0.927229  0.212808  0.148036  1
  F  F8  1  0.575426  0.157716  0.389997  1
  F  F9  1  0.447935  0.853602  0.613402  1
  F  F10  1  0.618290  0.323780  0.719139  1
  F  F11  1  0.351698  0.778192  0.228473  1
  F  F12  1  0.945463  0.114712  0.620848  1
  F  F13  1  0.037058  0.868412  0.415248  1
  F  F14  1  0.935819  0.362424  0.609232  1
  F  F15  1  0.115600  0.679536  0.421309  1
  F  F16  1  0.843806  0.857812  0.626428  1
  F  F17  1  0.149933  0.176267  0.390341  1
  F  F18  1  0.801038  0.479172  0.842068  1
  F  F19  1  0.214732  0.505521  0.138102  1
  F  F20  1  0.233563  0.680256  0.756723  1
  F  F21  1  0.792367  0.286867  0.222125  1
  F  F22  1  0.867391  0.825758  0.146816  1
  F  F23  1  0.046622  0.111445  0.888484  1
  F  F24  1  0.859555  0.050727  0.893897  1
  F  F25  1  0.261876  0.896878  0.118477  1
  F  F26  1  0.490149  0.572678  0.988185  1
  F  F27  1  0.485501  0.406252  0.030085  1
  F  F28  1  0.427224  0.090502  0.862839  1
  F  F29  1  0.570091  0.953298  0.127625  1
  F  F30  1  0.280942  0.263777  0.598106  1
  F  F31  1  0.726613  0.717397  0.404244  1
  F  F32  1  0.247906  0.406313  0.667384  1
  F  F33  1  0.751527  0.577727  0.334235  1
  F  F34  1  0.545332  0.918806  0.844956  1
  F  F35  1  0.461191  0.112746  0.170165  1
