# generated using pymatgen
data_TiCu3(TeO6)2
_symmetry_space_group_name_H-M   'P 1'
_cell_length_a   4.66815333
_cell_length_b   4.66817416
_cell_length_c   9.08375300
_cell_angle_alpha   90.00013718
_cell_angle_beta   90.00057012
_cell_angle_gamma   89.11664612
_symmetry_Int_Tables_number   1
_chemical_formula_structural   TiCu3(TeO6)2
_chemical_formula_sum   'Ti1 Cu3 Te2 O12'
_cell_volume   197.92737375
_cell_formula_units_Z   1
loop_
 _symmetry_equiv_pos_site_id
 _symmetry_equiv_pos_as_xyz
  1  'x, y, z'
loop_
 _atom_site_type_symbol
 _atom_site_label
 _atom_site_symmetry_multiplicity
 _atom_site_fract_x
 _atom_site_fract_y
 _atom_site_fract_z
 _atom_site_occupancy
  Ti  Ti0  1  0.500003  0.500097  0.161779  1
  Cu  Cu1  1  0.000012  0.999911  0.666422  1
  Cu  Cu2  1  0.500011  0.500061  0.832843  1
  Cu  Cu3  1  0.000005  0.999952  0.333533  1
  Te  Te4  1  0.999998  0.000094  0.997537  1
  Te  Te5  1  0.499991  0.499903  0.502539  1
  O  O6  1  0.298530  0.298612  0.007568  1
  O  O7  1  0.701466  0.701548  0.007586  1
  O  O8  1  0.196652  0.803293  0.499508  1
  O  O9  1  0.803396  0.196544  0.499509  1
  O  O10  1  0.314560  0.314521  0.332837  1
  O  O11  1  0.690603  0.690566  0.667085  1
  O  O12  1  0.685436  0.685394  0.332857  1
  O  O13  1  0.191576  0.808412  0.835315  1
  O  O14  1  0.194446  0.805614  0.160339  1
  O  O15  1  0.309392  0.309359  0.667118  1
  O  O16  1  0.805547  0.194512  0.160345  1
  O  O17  1  0.808374  0.191611  0.835277  1
