# generated using pymatgen
data_HoErU8(Re3C8)2
_symmetry_space_group_name_H-M   'P 1'
_cell_length_a   11.35543875
_cell_length_b   11.35543915
_cell_length_c   3.26612100
_cell_angle_alpha   90.00000000
_cell_angle_beta   90.00000000
_cell_angle_gamma   89.93288252
_symmetry_Int_Tables_number   1
_chemical_formula_structural   HoErU8(Re3C8)2
_chemical_formula_sum   'Ho1 Er1 U8 Re6 C16'
_cell_volume   421.15292930
_cell_formula_units_Z   1
loop_
 _symmetry_equiv_pos_site_id
 _symmetry_equiv_pos_as_xyz
  1  'x, y, z'
loop_
 _atom_site_type_symbol
 _atom_site_label
 _atom_site_symmetry_multiplicity
 _atom_site_fract_x
 _atom_site_fract_y
 _atom_site_fract_z
 _atom_site_occupancy
  Ho  Ho0  1  0.500000  0.000000  0.000000  1
  Er  Er1  1  0.000000  0.500000  0.000000  1
  U  U2  1  0.270750  0.542225  0.500000  1
  U  U3  1  0.729250  0.457775  0.500000  1
  U  U4  1  0.542255  0.728748  0.500000  1
  U  U5  1  0.771252  0.957745  0.500000  1
  U  U6  1  0.228748  0.042255  0.500000  1
  U  U7  1  0.957775  0.229250  0.500000  1
  U  U8  1  0.457745  0.271252  0.500000  1
  U  U9  1  0.042225  0.770750  0.500000  1
  Re  Re10  1  0.202695  0.297305  0.000000  1
  Re  Re11  1  0.703376  0.203376  0.000000  1
  Re  Re12  1  0.296624  0.796624  0.000000  1
  Re  Re13  1  0.500000  0.500000  0.000000  1
  Re  Re14  1  0.797305  0.702695  0.000000  1
  Re  Re15  1  0.000000  0.000000  0.000000  1
  C  C16  1  0.347103  0.402753  0.000000  1
  C  C17  1  0.618547  0.118547  0.500000  1
  C  C18  1  0.902753  0.847103  0.000000  1
  C  C19  1  0.655416  0.844584  0.000000  1
  C  C20  1  0.344584  0.155416  0.000000  1
  C  C21  1  0.117842  0.382158  0.500000  1
  C  C22  1  0.152715  0.902584  0.000000  1
  C  C23  1  0.845181  0.345181  0.000000  1
  C  C24  1  0.652897  0.597247  0.000000  1
  C  C25  1  0.597416  0.347285  0.000000  1
  C  C26  1  0.882158  0.617842  0.500000  1
  C  C27  1  0.847285  0.097416  0.000000  1
  C  C28  1  0.381453  0.881453  0.500000  1
  C  C29  1  0.154819  0.654819  0.000000  1
  C  C30  1  0.097247  0.152897  0.000000  1
  C  C31  1  0.402584  0.652715  0.000000  1
