# generated using pymatgen
data_Fe5Si7(Mo6C)2
_symmetry_space_group_name_H-M   'P 1'
_cell_length_a   7.75144449
_cell_length_b   7.75144412
_cell_length_c   7.75144400
_cell_angle_alpha   60.30726789
_cell_angle_beta   60.30727059
_cell_angle_gamma   60.30727230
_symmetry_Int_Tables_number   1
_chemical_formula_structural   Fe5Si7(Mo6C)2
_chemical_formula_sum   'Fe5 Si7 Mo12 C2'
_cell_volume   331.62102780
_cell_formula_units_Z   1
loop_
 _symmetry_equiv_pos_site_id
 _symmetry_equiv_pos_as_xyz
  1  'x, y, z'
loop_
 _atom_site_type_symbol
 _atom_site_label
 _atom_site_symmetry_multiplicity
 _atom_site_fract_x
 _atom_site_fract_y
 _atom_site_fract_z
 _atom_site_occupancy
  Fe  Fe0  1  0.834649  0.834649  0.834649  1
  Fe  Fe1  1  0.620864  0.620864  0.132334  1
  Fe  Fe2  1  0.620864  0.132334  0.620864  1
  Fe  Fe3  1  0.132334  0.620864  0.620864  1
  Fe  Fe4  1  0.625504  0.625504  0.625504  1
  Si  Si5  1  0.415027  0.415027  0.752847  1
  Si  Si6  1  0.415027  0.752847  0.415027  1
  Si  Si7  1  0.752847  0.415027  0.415027  1
  Si  Si8  1  0.414426  0.414426  0.414426  1
  Si  Si9  1  0.835495  0.835495  0.503183  1
  Si  Si10  1  0.835495  0.503183  0.835495  1
  Si  Si11  1  0.503183  0.835495  0.835495  1
  Mo  Mo12  1  0.054997  0.054997  0.445312  1
  Mo  Mo13  1  0.444025  0.054677  0.444025  1
  Mo  Mo14  1  0.054677  0.444025  0.444025  1
  Mo  Mo15  1  0.444025  0.444025  0.054677  1
  Mo  Mo16  1  0.054997  0.445312  0.054997  1
  Mo  Mo17  1  0.445312  0.054997  0.054997  1
  Mo  Mo18  1  0.192526  0.192526  0.807512  1
  Mo  Mo19  1  0.808724  0.185984  0.808724  1
  Mo  Mo20  1  0.185984  0.808724  0.808724  1
  Mo  Mo21  1  0.808724  0.808724  0.185984  1
  Mo  Mo22  1  0.192526  0.807512  0.192526  1
  Mo  Mo23  1  0.807512  0.192526  0.192526  1
  C  C24  1  0.249353  0.249353  0.249353  1
  C  C25  1  0.000902  0.000902  0.000902  1
