# generated using pymatgen
data_LiDy5Mn2(Co4P3)4
_symmetry_space_group_name_H-M   'P 1'
_cell_length_a   12.05131426
_cell_length_b   12.01656781
_cell_length_c   3.67609600
_cell_angle_alpha   90.00000000
_cell_angle_beta   90.00000000
_cell_angle_gamma   119.90466335
_symmetry_Int_Tables_number   1
_chemical_formula_structural   LiDy5Mn2(Co4P3)4
_chemical_formula_sum   'Li1 Dy5 Mn2 Co16 P12'
_cell_volume   461.47560097
_cell_formula_units_Z   1
loop_
 _symmetry_equiv_pos_site_id
 _symmetry_equiv_pos_as_xyz
  1  'x, y, z'
loop_
 _atom_site_type_symbol
 _atom_site_label
 _atom_site_symmetry_multiplicity
 _atom_site_fract_x
 _atom_site_fract_y
 _atom_site_fract_z
 _atom_site_occupancy
  Li  Li0  1  0.000000  0.439733  0.000000  1
  Dy  Dy1  1  0.665217  0.332469  0.000000  1
  Dy  Dy2  1  0.334783  0.667253  0.000000  1
  Dy  Dy3  1  0.187468  0.186494  0.500000  1
  Dy  Dy4  1  0.812532  0.999026  0.500000  1
  Dy  Dy5  1  0.000000  0.812932  0.500000  1
  Mn  Mn6  1  0.557971  0.557079  0.000000  1
  Mn  Mn7  1  0.442029  0.999108  0.000000  1
  Co  Co8  1  0.820482  0.198725  0.000000  1
  Co  Co9  1  0.800879  0.623668  0.000000  1
  Co  Co10  1  0.377014  0.178291  0.000000  1
  Co  Co11  1  0.199121  0.822788  0.000000  1
  Co  Co12  1  0.622986  0.801277  0.000000  1
  Co  Co13  1  0.179518  0.378243  0.000000  1
  Co  Co14  1  0.641046  0.123706  0.500000  1
  Co  Co15  1  0.873264  0.517465  0.500000  1
  Co  Co16  1  0.484206  0.358083  0.500000  1
  Co  Co17  1  0.126736  0.644201  0.500000  1
  Co  Co18  1  0.515794  0.873876  0.500000  1
  Co  Co19  1  0.358954  0.482660  0.500000  1
  Co  Co20  1  0.716296  0.716787  0.500000  1
  Co  Co21  1  0.283704  0.000491  0.500000  1
  Co  Co22  1  0.000000  0.283626  0.500000  1
  Co  Co23  1  0.000000  0.001936  0.000000  1
  P  P24  1  0.365505  0.365125  0.000000  1
  P  P25  1  0.634495  0.999619  0.000000  1
  P  P26  1  0.000000  0.632821  0.000000  1
  P  P27  1  0.830719  0.311742  0.500000  1
  P  P28  1  0.687183  0.520793  0.500000  1
  P  P29  1  0.479464  0.165756  0.500000  1
  P  P30  1  0.312817  0.833610  0.500000  1
  P  P31  1  0.520536  0.686292  0.500000  1
  P  P32  1  0.169281  0.481023  0.500000  1
  P  P33  1  0.819577  0.820064  0.000000  1
  P  P34  1  0.180423  0.000487  0.000000  1
  P  P35  1  0.000000  0.182748  0.000000  1
