# generated using pymatgen
data_RuPbF7
_symmetry_space_group_name_H-M   'P 1'
_cell_length_a   4.82188336
_cell_length_b   7.50300450
_cell_length_c   7.89232532
_cell_angle_alpha   104.69605544
_cell_angle_beta   100.95055245
_cell_angle_gamma   91.16612750
_symmetry_Int_Tables_number   1
_chemical_formula_structural   RuPbF7
_chemical_formula_sum   'Ru2 Pb2 F14'
_cell_volume   270.45596315
_cell_formula_units_Z   2
loop_
 _symmetry_equiv_pos_site_id
 _symmetry_equiv_pos_as_xyz
  1  'x, y, z'
loop_
 _atom_site_type_symbol
 _atom_site_label
 _atom_site_symmetry_multiplicity
 _atom_site_fract_x
 _atom_site_fract_y
 _atom_site_fract_z
 _atom_site_occupancy
  Ru  Ru0  1  0.354721  0.188289  0.285385  1
  Ru  Ru1  1  0.645279  0.811711  0.714615  1
  Pb  Pb2  1  0.821812  0.643729  0.188007  1
  Pb  Pb3  1  0.178188  0.356271  0.811993  1
  F  F4  1  0.722548  0.428691  0.913252  1
  F  F5  1  0.277452  0.571309  0.086748  1
  F  F6  1  0.062070  0.051879  0.335643  1
  F  F7  1  0.937930  0.948121  0.664357  1
  F  F8  1  0.499966  0.962472  0.183430  1
  F  F9  1  0.500034  0.037528  0.816570  1
  F  F10  1  0.572681  0.200113  0.514229  1
  F  F11  1  0.427319  0.799887  0.485771  1
  F  F12  1  0.649959  0.325956  0.232819  1
  F  F13  1  0.350041  0.674044  0.767181  1
  F  F14  1  0.202414  0.412611  0.387830  1
  F  F15  1  0.797586  0.587389  0.612170  1
  F  F16  1  0.134046  0.187837  0.055084  1
  F  F17  1  0.865954  0.812163  0.944916  1
