# generated using pymatgen
data_Sm2ErGa6(Ni2Pd)3
_symmetry_space_group_name_H-M   'P 1'
_cell_length_a   8.97417500
_cell_length_b   8.97417539
_cell_length_c   4.17377200
_cell_angle_alpha   90.00000000
_cell_angle_beta   90.00000000
_cell_angle_gamma   119.99999829
_symmetry_Int_Tables_number   1
_chemical_formula_structural   Sm2ErGa6(Ni2Pd)3
_chemical_formula_sum   'Sm2 Er1 Ga6 Ni6 Pd3'
_cell_volume   291.10418411
_cell_formula_units_Z   1
loop_
 _symmetry_equiv_pos_site_id
 _symmetry_equiv_pos_as_xyz
  1  'x, y, z'
loop_
 _atom_site_type_symbol
 _atom_site_label
 _atom_site_symmetry_multiplicity
 _atom_site_fract_x
 _atom_site_fract_y
 _atom_site_fract_z
 _atom_site_occupancy
  Sm  Sm0  1  0.666667  0.333333  0.500000  1
  Sm  Sm1  1  0.000000  0.000000  0.000000  1
  Er  Er2  1  0.333333  0.666667  0.500000  1
  Ga  Ga3  1  0.464819  0.464366  0.000000  1
  Ga  Ga4  1  0.535634  0.000453  0.000000  1
  Ga  Ga5  1  0.999547  0.535181  0.000000  1
  Ga  Ga6  1  0.713989  0.715269  0.500000  1
  Ga  Ga7  1  0.284731  0.998719  0.500000  1
  Ga  Ga8  1  0.001281  0.286011  0.500000  1
  Ni  Ni9  1  0.836584  0.220953  0.000000  1
  Ni  Ni10  1  0.779047  0.615632  0.000000  1
  Ni  Ni11  1  0.384368  0.163416  0.000000  1
  Ni  Ni12  1  0.224270  0.832196  0.000000  1
  Ni  Ni13  1  0.607925  0.775730  0.000000  1
  Ni  Ni14  1  0.167804  0.392075  0.000000  1
  Pd  Pd15  1  0.284971  0.286518  0.500000  1
  Pd  Pd16  1  0.713482  0.998453  0.500000  1
  Pd  Pd17  1  0.001547  0.715029  0.500000  1
