# generated using pymatgen
data_Pa4Si6Ru7
_symmetry_space_group_name_H-M   'P 1'
_cell_length_a   7.08527774
_cell_length_b   7.08527717
_cell_length_c   7.08527700
_cell_angle_alpha   109.47122016
_cell_angle_beta   109.47121853
_cell_angle_gamma   109.47121629
_symmetry_Int_Tables_number   1
_chemical_formula_structural   Pa4Si6Ru7
_chemical_formula_sum   'Pa4 Si6 Ru7'
_cell_volume   273.80962025
_cell_formula_units_Z   1
loop_
 _symmetry_equiv_pos_site_id
 _symmetry_equiv_pos_as_xyz
  1  'x, y, z'
loop_
 _atom_site_type_symbol
 _atom_site_label
 _atom_site_symmetry_multiplicity
 _atom_site_fract_x
 _atom_site_fract_y
 _atom_site_fract_z
 _atom_site_occupancy
  Pa  Pa0  1  0.000000  0.000000  0.500000  1
  Pa  Pa1  1  0.500000  0.000000  0.000000  1
  Pa  Pa2  1  0.000000  0.500000  0.000000  1
  Pa  Pa3  1  0.500000  0.500000  0.500000  1
  Si  Si4  1  0.316508  0.000000  0.316508  1
  Si  Si5  1  0.000000  0.316508  0.316508  1
  Si  Si6  1  0.000000  0.683492  0.683492  1
  Si  Si7  1  0.316508  0.316508  0.000000  1
  Si  Si8  1  0.683492  0.683492  0.000000  1
  Si  Si9  1  0.683492  0.000000  0.683492  1
  Ru  Ru10  1  0.750000  0.500000  0.250000  1
  Ru  Ru11  1  0.500000  0.750000  0.250000  1
  Ru  Ru12  1  0.500000  0.250000  0.750000  1
  Ru  Ru13  1  0.750000  0.250000  0.500000  1
  Ru  Ru14  1  0.250000  0.750000  0.500000  1
  Ru  Ru15  1  0.250000  0.500000  0.750000  1
  Ru  Ru16  1  0.000000  0.000000  0.000000  1
