# generated using pymatgen
data_Dy4AgPd
_symmetry_space_group_name_H-M   'P 1'
_cell_length_a   9.58929382
_cell_length_b   9.58929345
_cell_length_c   9.58929300
_cell_angle_alpha   59.99999811
_cell_angle_beta   59.99999938
_cell_angle_gamma   59.99999633
_symmetry_Int_Tables_number   1
_chemical_formula_structural   Dy4AgPd
_chemical_formula_sum   'Dy16 Ag4 Pd4'
_cell_volume   623.51198446
_cell_formula_units_Z   4
loop_
 _symmetry_equiv_pos_site_id
 _symmetry_equiv_pos_as_xyz
  1  'x, y, z'
loop_
 _atom_site_type_symbol
 _atom_site_label
 _atom_site_symmetry_multiplicity
 _atom_site_fract_x
 _atom_site_fract_y
 _atom_site_fract_z
 _atom_site_occupancy
  Dy  Dy0  1  0.607490  0.607490  0.607490  1
  Dy  Dy1  1  0.607490  0.607490  0.177531  1
  Dy  Dy2  1  0.607490  0.177531  0.607490  1
  Dy  Dy3  1  0.177531  0.607490  0.607490  1
  Dy  Dy4  1  0.061555  0.438445  0.438445  1
  Dy  Dy5  1  0.438445  0.061555  0.061555  1
  Dy  Dy6  1  0.438445  0.061555  0.438445  1
  Dy  Dy7  1  0.061555  0.438445  0.061555  1
  Dy  Dy8  1  0.438445  0.438445  0.061555  1
  Dy  Dy9  1  0.061555  0.061555  0.438445  1
  Dy  Dy10  1  0.183529  0.816471  0.816471  1
  Dy  Dy11  1  0.816471  0.183529  0.183529  1
  Dy  Dy12  1  0.816471  0.183529  0.816471  1
  Dy  Dy13  1  0.183529  0.816471  0.183529  1
  Dy  Dy14  1  0.816471  0.816471  0.183529  1
  Dy  Dy15  1  0.183529  0.183529  0.816471  1
  Ag  Ag16  1  0.833364  0.833364  0.833364  1
  Ag  Ag17  1  0.833364  0.833364  0.499910  1
  Ag  Ag18  1  0.833364  0.499910  0.833364  1
  Ag  Ag19  1  0.499910  0.833364  0.833364  1
  Pd  Pd20  1  0.395802  0.395802  0.395802  1
  Pd  Pd21  1  0.395802  0.395802  0.812594  1
  Pd  Pd22  1  0.395802  0.812594  0.395802  1
  Pd  Pd23  1  0.812594  0.395802  0.395802  1
