# generated using pymatgen
data_Mn3GeF12
_symmetry_space_group_name_H-M   'P 1'
_cell_length_a   7.88705833
_cell_length_b   5.44541220
_cell_length_c   5.44698800
_cell_angle_alpha   89.96330082
_cell_angle_beta   90.02153637
_cell_angle_gamma   89.84456472
_symmetry_Int_Tables_number   1
_chemical_formula_structural   Mn3GeF12
_chemical_formula_sum   'Mn3 Ge1 F12'
_cell_volume   233.93786033
_cell_formula_units_Z   1
loop_
 _symmetry_equiv_pos_site_id
 _symmetry_equiv_pos_as_xyz
  1  'x, y, z'
loop_
 _atom_site_type_symbol
 _atom_site_label
 _atom_site_symmetry_multiplicity
 _atom_site_fract_x
 _atom_site_fract_y
 _atom_site_fract_z
 _atom_site_occupancy
  Mn  Mn0  1  0.000000  0.000000  0.000000  1
  Mn  Mn1  1  0.500000  0.000000  0.000000  1
  Mn  Mn2  1  0.500000  0.500000  0.500000  1
  Ge  Ge3  1  0.000000  0.500000  0.500000  1
  F  F4  1  0.260899  0.013417  0.998915  1
  F  F5  1  0.508158  0.309208  0.209681  1
  F  F6  1  0.991008  0.325630  0.212161  1
  F  F7  1  0.007487  0.787821  0.325071  1
  F  F8  1  0.493218  0.791157  0.308538  1
  F  F9  1  0.770276  0.517424  0.505314  1
  F  F10  1  0.229724  0.482576  0.494686  1
  F  F11  1  0.506782  0.208843  0.691462  1
  F  F12  1  0.992513  0.212179  0.674929  1
  F  F13  1  0.008992  0.674370  0.787839  1
  F  F14  1  0.491842  0.690792  0.790319  1
  F  F15  1  0.739101  0.986583  0.001085  1
