# generated using pymatgen
data_Ba3ErTc2O9
_symmetry_space_group_name_H-M   'P 1'
_cell_length_a   5.97512800
_cell_length_b   5.97677693
_cell_length_c   14.49726300
_cell_angle_alpha   90.00000000
_cell_angle_beta   90.00000000
_cell_angle_gamma   119.99088511
_symmetry_Int_Tables_number   1
_chemical_formula_structural   Ba3ErTc2O9
_chemical_formula_sum   'Ba6 Er2 Tc4 O18'
_cell_volume   448.40535621
_cell_formula_units_Z   2
loop_
 _symmetry_equiv_pos_site_id
 _symmetry_equiv_pos_as_xyz
  1  'x, y, z'
loop_
 _atom_site_type_symbol
 _atom_site_label
 _atom_site_symmetry_multiplicity
 _atom_site_fract_x
 _atom_site_fract_y
 _atom_site_fract_z
 _atom_site_occupancy
  Ba  Ba0  1  0.666676  0.333354  0.094004  1
  Ba  Ba1  1  0.000000  0.000000  0.250000  1
  Ba  Ba2  1  0.666676  0.333354  0.405996  1
  Ba  Ba3  1  0.333323  0.666645  0.594004  1
  Ba  Ba4  1  0.000000  0.000000  0.750000  1
  Ba  Ba5  1  0.333323  0.666645  0.905996  1
  Er  Er6  1  0.000000  0.000000  0.000000  1
  Er  Er7  1  0.000000  0.000000  0.500000  1
  Tc  Tc8  1  0.333377  0.666753  0.163869  1
  Tc  Tc9  1  0.333377  0.666753  0.336132  1
  Tc  Tc10  1  0.666622  0.333247  0.663869  1
  Tc  Tc11  1  0.666622  0.333247  0.836132  1
  O  O12  1  0.175305  0.350611  0.087851  1
  O  O13  1  0.175401  0.824680  0.087842  1
  O  O14  1  0.649279  0.824680  0.087842  1
  O  O15  1  0.016761  0.508190  0.250000  1
  O  O16  1  0.491429  0.508190  0.250000  1
  O  O17  1  0.491762  0.983524  0.250000  1
  O  O18  1  0.175305  0.350611  0.412149  1
  O  O19  1  0.175401  0.824680  0.412158  1
  O  O20  1  0.649279  0.824680  0.412158  1
  O  O21  1  0.824694  0.649388  0.587851  1
  O  O22  1  0.350721  0.175319  0.587843  1
  O  O23  1  0.824598  0.175319  0.587843  1
  O  O24  1  0.508237  0.016475  0.750000  1
  O  O25  1  0.508573  0.491811  0.750000  1
  O  O26  1  0.983239  0.491811  0.750000  1
  O  O27  1  0.350721  0.175319  0.912157  1
  O  O28  1  0.824598  0.175319  0.912157  1
  O  O29  1  0.824694  0.649388  0.912149  1
