# generated using pymatgen
data_DyTm7Re2(OsC4)2
_symmetry_space_group_name_H-M   'P 1'
_cell_length_a   5.03798100
_cell_length_b   6.49308252
_cell_length_c   9.71448301
_cell_angle_alpha   89.59506407
_cell_angle_beta   90.00000000
_cell_angle_gamma   90.00000000
_symmetry_Int_Tables_number   1
_chemical_formula_structural   DyTm7Re2(OsC4)2
_chemical_formula_sum   'Dy1 Tm7 Re2 Os2 C8'
_cell_volume   317.77248798
_cell_formula_units_Z   1
loop_
 _symmetry_equiv_pos_site_id
 _symmetry_equiv_pos_as_xyz
  1  'x, y, z'
loop_
 _atom_site_type_symbol
 _atom_site_label
 _atom_site_symmetry_multiplicity
 _atom_site_fract_x
 _atom_site_fract_y
 _atom_site_fract_z
 _atom_site_occupancy
  Dy  Dy0  1  0.250000  0.030529  0.286129  1
  Tm  Tm1  1  0.250000  0.676646  0.556478  1
  Tm  Tm2  1  0.750000  0.323831  0.444072  1
  Tm  Tm3  1  0.750000  0.822044  0.056393  1
  Tm  Tm4  1  0.250000  0.177432  0.943002  1
  Tm  Tm5  1  0.250000  0.532185  0.216565  1
  Tm  Tm6  1  0.750000  0.467486  0.782925  1
  Tm  Tm7  1  0.750000  0.969420  0.715091  1
  Re  Re8  1  0.250000  0.720609  0.867043  1
  Re  Re9  1  0.750000  0.279321  0.132360  1
  Os  Os10  1  0.750000  0.776715  0.366809  1
  Os  Os11  1  0.250000  0.222955  0.633544  1
  C  C12  1  0.250000  0.455068  0.760229  1
  C  C13  1  0.750000  0.544548  0.239891  1
  C  C14  1  0.750000  0.044385  0.258212  1
  C  C15  1  0.250000  0.955329  0.741085  1
  C  C16  1  0.250000  0.824055  0.053838  1
  C  C17  1  0.750000  0.174914  0.945254  1
  C  C18  1  0.750000  0.673288  0.554164  1
  C  C19  1  0.250000  0.329240  0.446915  1
