# generated using pymatgen
data_Li4Er8Sc8Si13Ge3
_symmetry_space_group_name_H-M   'P 1'
_cell_length_a   6.86597086
_cell_length_b   7.39822745
_cell_length_c   14.04219896
_cell_angle_alpha   90.01786002
_cell_angle_beta   89.94217377
_cell_angle_gamma   90.13805630
_symmetry_Int_Tables_number   1
_chemical_formula_structural   Li4Er8Sc8Si13Ge3
_chemical_formula_sum   'Li4 Er8 Sc8 Si13 Ge3'
_cell_volume   713.28526846
_cell_formula_units_Z   1
loop_
 _symmetry_equiv_pos_site_id
 _symmetry_equiv_pos_as_xyz
  1  'x, y, z'
loop_
 _atom_site_type_symbol
 _atom_site_label
 _atom_site_symmetry_multiplicity
 _atom_site_fract_x
 _atom_site_fract_y
 _atom_site_fract_z
 _atom_site_occupancy
  Li  Li0  1  0.158620  0.510401  0.750801  1
  Li  Li1  1  0.841162  0.489576  0.250047  1
  Li  Li2  1  0.342545  0.010659  0.249710  1
  Li  Li3  1  0.657842  0.989244  0.750962  1
  Er  Er4  1  0.012991  0.183996  0.097666  1
  Er  Er5  1  0.986951  0.816135  0.902281  1
  Er  Er6  1  0.486665  0.682747  0.901947  1
  Er  Er7  1  0.986761  0.817489  0.597944  1
  Er  Er8  1  0.513052  0.317272  0.098045  1
  Er  Er9  1  0.012103  0.183370  0.401466  1
  Er  Er10  1  0.513541  0.316202  0.400902  1
  Er  Er11  1  0.489360  0.684611  0.598614  1
  Sc  Sc12  1  0.333331  0.176089  0.627701  1
  Sc  Sc13  1  0.668244  0.821945  0.372729  1
  Sc  Sc14  1  0.171934  0.677597  0.373608  1
  Sc  Sc15  1  0.668418  0.821081  0.126497  1
  Sc  Sc16  1  0.825527  0.322835  0.625982  1
  Sc  Sc17  1  0.331122  0.178560  0.873549  1
  Sc  Sc18  1  0.826957  0.322780  0.874099  1
  Sc  Sc19  1  0.172840  0.676894  0.125734  1
  Si  Si20  1  0.471550  0.600050  0.249815  1
  Si  Si21  1  0.527953  0.400169  0.750300  1
  Si  Si22  1  0.283257  0.875316  0.750349  1
  Si  Si23  1  0.716436  0.123935  0.249461  1
  Si  Si24  1  0.218198  0.378447  0.249909  1
  Si  Si25  1  0.782140  0.621436  0.750170  1
  Si  Si26  1  0.836468  0.537963  0.463555  1
  Si  Si27  1  0.339522  0.963766  0.464754  1
  Si  Si28  1  0.840735  0.536668  0.035750  1
  Si  Si29  1  0.660369  0.036733  0.534593  1
  Si  Si30  1  0.159107  0.463214  0.964204  1
  Si  Si31  1  0.659922  0.036075  0.964783  1
  Si  Si32  1  0.339937  0.963918  0.035187  1
  Ge  Ge33  1  0.025593  0.104739  0.750157  1
  Ge  Ge34  1  0.974584  0.895887  0.249475  1
  Ge  Ge35  1  0.164265  0.462200  0.537256  1
