# generated using pymatgen
data_SmHo3Er2CoBr10
_symmetry_space_group_name_H-M   'P 1'
_cell_length_a   7.33820990
_cell_length_b   9.09212641
_cell_length_c   9.19301225
_cell_angle_alpha   108.00753840
_cell_angle_beta   97.12496183
_cell_angle_gamma   104.46565959
_symmetry_Int_Tables_number   1
_chemical_formula_structural   SmHo3Er2CoBr10
_chemical_formula_sum   'Sm1 Ho3 Er2 Co1 Br10'
_cell_volume   551.16555098
_cell_formula_units_Z   1
loop_
 _symmetry_equiv_pos_site_id
 _symmetry_equiv_pos_as_xyz
  1  'x, y, z'
loop_
 _atom_site_type_symbol
 _atom_site_label
 _atom_site_symmetry_multiplicity
 _atom_site_fract_x
 _atom_site_fract_y
 _atom_site_fract_z
 _atom_site_occupancy
  Sm  Sm0  1  0.033983  0.713523  0.412246  1
  Ho  Ho1  1  0.646795  0.870600  0.323053  1
  Ho  Ho2  1  0.353251  0.131926  0.677380  1
  Ho  Ho3  1  0.966836  0.280368  0.586358  1
  Er  Er4  1  0.879743  0.954297  0.742673  1
  Er  Er5  1  0.121265  0.045835  0.257746  1
  Co  Co6  1  0.000708  0.999061  0.499924  1
  Br  Br7  1  0.545946  0.179767  0.416892  1
  Br  Br8  1  0.460044  0.824130  0.587126  1
  Br  Br9  1  0.222343  0.751010  0.150778  1
  Br  Br10  1  0.783572  0.253663  0.844129  1
  Br  Br11  1  0.910913  0.628808  0.677699  1
  Br  Br12  1  0.085894  0.366116  0.327730  1
  Br  Br13  1  0.752811  0.915034  0.040511  1
  Br  Br14  1  0.248041  0.086349  0.959628  1
  Br  Br15  1  0.645534  0.550157  0.225266  1
  Br  Br16  1  0.342321  0.449355  0.770860  1
