# generated using pymatgen
data_Dy2YAl12Os3Rh
_symmetry_space_group_name_H-M   'P 1'
_cell_length_a   8.79838712
_cell_length_b   8.87113475
_cell_length_c   9.59191700
_cell_angle_alpha   90.00000000
_cell_angle_beta   90.00000000
_cell_angle_gamma   120.30570584
_symmetry_Int_Tables_number   1
_chemical_formula_structural   Dy2YAl12Os3Rh
_chemical_formula_sum   'Dy4 Y2 Al24 Os6 Rh2'
_cell_volume   646.35659558
_cell_formula_units_Z   2
loop_
 _symmetry_equiv_pos_site_id
 _symmetry_equiv_pos_as_xyz
  1  'x, y, z'
loop_
 _atom_site_type_symbol
 _atom_site_label
 _atom_site_symmetry_multiplicity
 _atom_site_fract_x
 _atom_site_fract_y
 _atom_site_fract_z
 _atom_site_occupancy
  Dy  Dy0  1  0.199509  0.385389  0.250000  1
  Dy  Dy1  1  0.800491  0.614611  0.750000  1
  Dy  Dy2  1  0.611430  0.805248  0.250000  1
  Dy  Dy3  1  0.388570  0.194752  0.750000  1
  Y  Y4  1  0.199071  0.813704  0.250000  1
  Y  Y5  1  0.800929  0.186296  0.750000  1
  Al  Al6  1  0.333954  0.666881  0.021090  1
  Al  Al7  1  0.666046  0.333119  0.978910  1
  Al  Al8  1  0.666046  0.333119  0.521090  1
  Al  Al9  1  0.333954  0.666881  0.478910  1
  Al  Al10  1  0.162900  0.325939  0.576702  1
  Al  Al11  1  0.837100  0.674061  0.423298  1
  Al  Al12  1  0.671423  0.835588  0.575092  1
  Al  Al13  1  0.837100  0.674061  0.076702  1
  Al  Al14  1  0.328577  0.164412  0.424908  1
  Al  Al15  1  0.162900  0.325939  0.923298  1
  Al  Al16  1  0.162807  0.837396  0.577049  1
  Al  Al17  1  0.328577  0.164412  0.075092  1
  Al  Al18  1  0.837193  0.162604  0.422951  1
  Al  Al19  1  0.671423  0.835588  0.924908  1
  Al  Al20  1  0.837193  0.162604  0.077049  1
  Al  Al21  1  0.162807  0.837396  0.922951  1
  Al  Al22  1  0.565195  0.125955  0.250000  1
  Al  Al23  1  0.434805  0.874045  0.750000  1
  Al  Al24  1  0.880549  0.440245  0.250000  1
  Al  Al25  1  0.119451  0.559755  0.750000  1
  Al  Al26  1  0.564813  0.439175  0.250000  1
  Al  Al27  1  0.435187  0.560825  0.750000  1
  Al  Al28  1  0.002190  0.001618  0.250000  1
  Al  Al29  1  0.997810  0.998382  0.750000  1
  Os  Os30  1  0.500000  0.000000  0.000000  1
  Os  Os31  1  0.500000  0.000000  0.500000  1
  Os  Os32  1  0.500000  0.500000  0.000000  1
  Os  Os33  1  0.500000  0.500000  0.500000  1
  Os  Os34  1  0.000000  0.000000  0.000000  1
  Os  Os35  1  0.000000  0.000000  0.500000  1
  Rh  Rh36  1  0.000000  0.500000  0.000000  1
  Rh  Rh37  1  0.000000  0.500000  0.500000  1
