# generated using pymatgen
data_CdCo(MoO4)2
_symmetry_space_group_name_H-M   'P 1'
_cell_length_a   7.23273521
_cell_length_b   8.77964486
_cell_length_c   10.23426778
_cell_angle_alpha   97.10655278
_cell_angle_beta   105.93118103
_cell_angle_gamma   101.68623044
_symmetry_Int_Tables_number   1
_chemical_formula_structural   CdCo(MoO4)2
_chemical_formula_sum   'Cd3 Co3 Mo6 O24'
_cell_volume   600.77268985
_cell_formula_units_Z   3
loop_
 _symmetry_equiv_pos_site_id
 _symmetry_equiv_pos_as_xyz
  1  'x, y, z'
loop_
 _atom_site_type_symbol
 _atom_site_label
 _atom_site_symmetry_multiplicity
 _atom_site_fract_x
 _atom_site_fract_y
 _atom_site_fract_z
 _atom_site_occupancy
  Cd  Cd0  1  0.244405  0.687580  0.912039  1
  Cd  Cd1  1  0.756621  0.316160  0.093875  1
  Cd  Cd2  1  0.535018  0.691955  0.488994  1
  Co  Co3  1  0.467794  0.294397  0.510533  1
  Co  Co4  1  0.974390  0.892602  0.713223  1
  Co  Co5  1  0.029346  0.116228  0.294688  1
  Mo  Mo6  1  0.503580  0.996927  0.751662  1
  Mo  Mo7  1  0.496697  0.013191  0.246371  1
  Mo  Mo8  1  0.698629  0.601581  0.828312  1
  Mo  Mo9  1  0.300723  0.385479  0.169697  1
  Mo  Mo10  1  0.983474  0.722666  0.382453  1
  Mo  Mo11  1  0.009689  0.284840  0.612900  1
  O  O12  1  0.761178  0.291079  0.528304  1
  O  O13  1  0.228574  0.714273  0.466968  1
  O  O14  1  0.649330  0.869689  0.691325  1
  O  O15  1  0.356462  0.132178  0.324548  1
  O  O16  1  0.993407  0.889839  0.297464  1
  O  O17  1  0.002376  0.116085  0.696378  1
  O  O18  1  0.762915  0.454380  0.921331  1
  O  O19  1  0.253595  0.545656  0.088123  1
  O  O20  1  0.869995  0.750563  0.521765  1
  O  O21  1  0.143990  0.262921  0.483520  1
  O  O22  1  0.936892  0.736682  0.838913  1
  O  O23  1  0.059125  0.255318  0.154862  1
  O  O24  1  0.551801  0.870063  0.346855  1
  O  O25  1  0.457074  0.134008  0.640344  1
  O  O26  1  0.265780  0.886475  0.762845  1
  O  O27  1  0.737318  0.124728  0.239153  1
  O  O28  1  0.856654  0.544297  0.259970  1
  O  O29  1  0.129661  0.460167  0.739424  1
  O  O30  1  0.652354  0.102362  0.916673  1
  O  O31  1  0.342363  0.910209  0.080993  1
  O  O32  1  0.555236  0.506268  0.650245  1
  O  O33  1  0.442518  0.456787  0.351689  1
  O  O34  1  0.556512  0.698990  0.910590  1
  O  O35  1  0.434522  0.283376  0.082971  1
