# generated using pymatgen
data_Cs2Li14Hf3O14
_symmetry_space_group_name_H-M   'P 1'
_cell_length_a   8.32476759
_cell_length_b   8.32476774
_cell_length_c   8.32476729
_cell_angle_alpha   127.52935948
_cell_angle_beta   123.64815774
_cell_angle_gamma   80.60387265
_symmetry_Int_Tables_number   1
_chemical_formula_structural   Cs2Li14Hf3O14
_chemical_formula_sum   'Cs2 Li14 Hf3 O14'
_cell_volume   367.35642391
_cell_formula_units_Z   1
loop_
 _symmetry_equiv_pos_site_id
 _symmetry_equiv_pos_as_xyz
  1  'x, y, z'
loop_
 _atom_site_type_symbol
 _atom_site_label
 _atom_site_symmetry_multiplicity
 _atom_site_fract_x
 _atom_site_fract_y
 _atom_site_fract_z
 _atom_site_occupancy
  Cs  Cs0  1  0.500000  0.769987  0.269987  1
  Cs  Cs1  1  0.500000  0.230013  0.730013  1
  Li  Li2  1  0.705666  0.135681  0.113945  1
  Li  Li3  1  0.978264  0.864319  0.569985  1
  Li  Li4  1  0.021736  0.591721  0.886055  1
  Li  Li5  1  0.294334  0.408279  0.430015  1
  Li  Li6  1  0.021736  0.135681  0.430015  1
  Li  Li7  1  0.845312  0.500000  0.345312  1
  Li  Li8  1  0.154688  0.500000  0.654688  1
  Li  Li9  1  0.413643  0.770201  0.643442  1
  Li  Li10  1  0.586357  0.229799  0.356558  1
  Li  Li11  1  0.873241  0.229799  0.643442  1
  Li  Li12  1  0.126759  0.770201  0.356558  1
  Li  Li13  1  0.705666  0.591721  0.569985  1
  Li  Li14  1  0.294334  0.864319  0.886055  1
  Li  Li15  1  0.978264  0.408279  0.113945  1
  Hf  Hf16  1  0.000000  0.000000  0.000000  1
  Hf  Hf17  1  0.267719  0.267719  0.000000  1
  Hf  Hf18  1  0.732281  0.732281  0.000000  1
  O  O19  1  0.047894  0.872574  0.175320  1
  O  O20  1  0.425562  0.634852  0.790710  1
  O  O21  1  0.844142  0.634852  0.209290  1
  O  O22  1  0.574438  0.365148  0.209290  1
  O  O23  1  0.155858  0.365148  0.790710  1
  O  O24  1  0.747263  0.030570  0.283307  1
  O  O25  1  0.252737  0.536045  0.283307  1
  O  O26  1  0.252737  0.969430  0.716693  1
  O  O27  1  0.747263  0.463955  0.716693  1
  O  O28  1  0.000000  0.714828  0.714828  1
  O  O29  1  0.000000  0.285172  0.285172  1
  O  O30  1  0.697253  0.872574  0.824680  1
  O  O31  1  0.302747  0.127426  0.175320  1
  O  O32  1  0.952106  0.127426  0.824680  1
