# generated using pymatgen
data_Pr17Dy3Si15Hg
_symmetry_space_group_name_H-M   'P 1'
_cell_length_a   7.92373227
_cell_length_b   7.89978744
_cell_length_c   15.26564932
_cell_angle_alpha   90.10007555
_cell_angle_beta   89.63342316
_cell_angle_gamma   89.95967427
_symmetry_Int_Tables_number   1
_chemical_formula_structural   Pr17Dy3Si15Hg
_chemical_formula_sum   'Pr17 Dy3 Si15 Hg1'
_cell_volume   955.54428178
_cell_formula_units_Z   1
loop_
 _symmetry_equiv_pos_site_id
 _symmetry_equiv_pos_as_xyz
  1  'x, y, z'
loop_
 _atom_site_type_symbol
 _atom_site_label
 _atom_site_symmetry_multiplicity
 _atom_site_fract_x
 _atom_site_fract_y
 _atom_site_fract_z
 _atom_site_occupancy
  Pr  Pr0  1  0.693051  0.691453  0.498170  1
  Pr  Pr1  1  0.373735  0.012949  0.448574  1
  Pr  Pr2  1  0.491375  0.870551  0.699877  1
  Pr  Pr3  1  0.511502  0.123579  0.197385  1
  Pr  Pr4  1  0.878954  0.487778  0.300198  1
  Pr  Pr5  1  0.118935  0.518254  0.803921  1
  Pr  Pr6  1  0.626353  0.986710  0.951043  1
  Pr  Pr7  1  0.001872  0.382697  0.547597  1
  Pr  Pr8  1  0.989953  0.625268  0.053181  1
  Pr  Pr9  1  0.130346  0.979643  0.879807  1
  Pr  Pr10  1  0.521379  0.629734  0.126711  1
  Pr  Pr11  1  0.483466  0.377026  0.627481  1
  Pr  Pr12  1  0.628210  0.521836  0.876206  1
  Pr  Pr13  1  0.374532  0.481281  0.370439  1
  Pr  Pr14  1  0.872754  0.021515  0.375951  1
  Pr  Pr15  1  0.981211  0.127824  0.123010  1
  Pr  Pr16  1  0.010885  0.860122  0.620487  1
  Dy  Dy17  1  0.309829  0.310626  0.999546  1
  Dy  Dy18  1  0.191066  0.811438  0.249525  1
  Dy  Dy19  1  0.800038  0.186621  0.753062  1
  Si  Si20  1  0.329230  0.690639  0.955645  1
  Si  Si21  1  0.663017  0.302958  0.452194  1
  Si  Si22  1  0.694860  0.331508  0.046680  1
  Si  Si23  1  0.306337  0.669033  0.544477  1
  Si  Si24  1  0.810576  0.830332  0.204472  1
  Si  Si25  1  0.171473  0.191720  0.295541  1
  Si  Si26  1  0.832111  0.808608  0.797590  1
  Si  Si27  1  0.286548  0.923145  0.063244  1
  Si  Si28  1  0.576147  0.789640  0.309266  1
  Si  Si29  1  0.436488  0.209650  0.818122  1
  Si  Si30  1  0.786399  0.574130  0.692447  1
  Si  Si31  1  0.214662  0.422586  0.186953  1
  Si  Si32  1  0.710658  0.081566  0.562776  1
  Si  Si33  1  0.924395  0.287706  0.938495  1
  Si  Si34  1  0.082839  0.714533  0.434783  1
  Hg  Hg35  1  0.184811  0.165341  0.695146  1
