# generated using pymatgen
data_K6Li4TiNbAs6
_symmetry_space_group_name_H-M   'P 1'
_cell_length_a   10.17876198
_cell_length_b   10.17876324
_cell_length_c   15.16176600
_cell_angle_alpha   90.00000000
_cell_angle_beta   90.00000000
_cell_angle_gamma   143.06101257
_symmetry_Int_Tables_number   1
_chemical_formula_structural   K6Li4TiNbAs6
_chemical_formula_sum   'K12 Li8 Ti2 Nb2 As12'
_cell_volume   944.03564057
_cell_formula_units_Z   2
loop_
 _symmetry_equiv_pos_site_id
 _symmetry_equiv_pos_as_xyz
  1  'x, y, z'
loop_
 _atom_site_type_symbol
 _atom_site_label
 _atom_site_symmetry_multiplicity
 _atom_site_fract_x
 _atom_site_fract_y
 _atom_site_fract_z
 _atom_site_occupancy
  K  K0  1  0.604524  0.946287  0.826958  1
  K  K1  1  0.280776  0.283183  0.320459  1
  K  K2  1  0.219224  0.216817  0.820459  1
  K  K3  1  0.716817  0.719224  0.679541  1
  K  K4  1  0.446287  0.104524  0.673042  1
  K  K5  1  0.895476  0.553713  0.326958  1
  K  K6  1  0.053713  0.395476  0.173042  1
  K  K7  1  0.395291  0.056030  0.170750  1
  K  K8  1  0.556030  0.895291  0.329250  1
  K  K9  1  0.104709  0.443970  0.670750  1
  K  K10  1  0.943970  0.604709  0.829250  1
  K  K11  1  0.783183  0.780776  0.179541  1
  Li  Li12  1  0.083222  0.916778  0.000000  1
  Li  Li13  1  0.581767  0.418233  0.500000  1
  Li  Li14  1  0.918233  0.081767  0.000000  1
  Li  Li15  1  0.749019  0.250981  0.000000  1
  Li  Li16  1  0.750981  0.249019  0.500000  1
  Li  Li17  1  0.248456  0.751544  0.000000  1
  Li  Li18  1  0.251544  0.748456  0.500000  1
  Li  Li19  1  0.416778  0.583222  0.500000  1
  Ti  Ti20  1  0.913927  0.086073  0.500000  1
  Ti  Ti21  1  0.586073  0.413927  0.000000  1
  Nb  Nb22  1  0.084676  0.915324  0.500000  1
  Nb  Nb23  1  0.415324  0.584676  0.000000  1
  As  As24  1  0.067217  0.388945  0.408034  1
  As  As25  1  0.888945  0.567217  0.091966  1
  As  As26  1  0.432783  0.111055  0.908034  1
  As  As27  1  0.611055  0.932783  0.591966  1
  As  As28  1  0.932377  0.611651  0.592477  1
  As  As29  1  0.111651  0.432377  0.907523  1
  As  As30  1  0.567623  0.888349  0.092477  1
  As  As31  1  0.388349  0.067623  0.407523  1
  As  As32  1  0.224111  0.223139  0.589662  1
  As  As33  1  0.723139  0.724111  0.910338  1
  As  As34  1  0.275889  0.276861  0.089662  1
  As  As35  1  0.776861  0.775889  0.410338  1
