# generated using pymatgen
data_K3Si2Pt7
_symmetry_space_group_name_H-M   'P 1'
_cell_length_a   8.80042059
_cell_length_b   8.80042026
_cell_length_c   8.80042088
_cell_angle_alpha   38.33325303
_cell_angle_beta   38.33325492
_cell_angle_gamma   38.33326128
_symmetry_Int_Tables_number   1
_chemical_formula_structural   K3Si2Pt7
_chemical_formula_sum   'K3 Si2 Pt7'
_cell_volume   235.50153494
_cell_formula_units_Z   1
loop_
 _symmetry_equiv_pos_site_id
 _symmetry_equiv_pos_as_xyz
  1  'x, y, z'
loop_
 _atom_site_type_symbol
 _atom_site_label
 _atom_site_symmetry_multiplicity
 _atom_site_fract_x
 _atom_site_fract_y
 _atom_site_fract_z
 _atom_site_occupancy
  K  K0  1  0.357640  0.357640  0.357640  1
  K  K1  1  0.500000  0.500000  0.500000  1
  K  K2  1  0.642360  0.642360  0.642360  1
  Si  Si3  1  0.168714  0.168714  0.168714  1
  Si  Si4  1  0.831286  0.831286  0.831286  1
  Pt  Pt5  1  0.000000  0.000000  0.000000  1
  Pt  Pt6  1  0.577751  0.067351  0.067350  1
  Pt  Pt7  1  0.067351  0.577751  0.067350  1
  Pt  Pt8  1  0.932649  0.932649  0.422250  1
  Pt  Pt9  1  0.067351  0.067351  0.577750  1
  Pt  Pt10  1  0.932649  0.422249  0.932650  1
  Pt  Pt11  1  0.422249  0.932649  0.932650  1
