# generated using pymatgen
data_Er4C5
_symmetry_space_group_name_H-M   'P 1'
_cell_length_a   3.61631300
_cell_length_b   6.52401100
_cell_length_c   11.86079200
_cell_angle_alpha   90.00000000
_cell_angle_beta   90.00000000
_cell_angle_gamma   90.00000000
_symmetry_Int_Tables_number   1
_chemical_formula_structural   Er4C5
_chemical_formula_sum   'Er8 C10'
_cell_volume   279.83007384
_cell_formula_units_Z   2
loop_
 _symmetry_equiv_pos_site_id
 _symmetry_equiv_pos_as_xyz
  1  'x, y, z'
loop_
 _atom_site_type_symbol
 _atom_site_label
 _atom_site_symmetry_multiplicity
 _atom_site_fract_x
 _atom_site_fract_y
 _atom_site_fract_z
 _atom_site_occupancy
  Er  Er0  1  0.000000  0.256324  0.542377  1
  Er  Er1  1  0.000000  0.743676  0.457623  1
  Er  Er2  1  0.000000  0.756324  0.957623  1
  Er  Er3  1  0.000000  0.243676  0.042377  1
  Er  Er4  1  0.500000  0.106534  0.804618  1
  Er  Er5  1  0.500000  0.893466  0.195382  1
  Er  Er6  1  0.500000  0.606534  0.695382  1
  Er  Er7  1  0.500000  0.393466  0.304618  1
  C  C8  1  0.500000  0.500000  0.500000  1
  C  C9  1  0.500000  0.000000  0.000000  1
  C  C10  1  0.000000  0.361263  0.734814  1
  C  C11  1  0.000000  0.638737  0.265186  1
  C  C12  1  0.000000  0.861263  0.765186  1
  C  C13  1  0.000000  0.138737  0.234814  1
  C  C14  1  0.000000  0.402208  0.845195  1
  C  C15  1  0.000000  0.597792  0.154805  1
  C  C16  1  0.000000  0.097792  0.345195  1
  C  C17  1  0.000000  0.902208  0.654805  1
