# generated using pymatgen
data_Nd3SiAuS7
_symmetry_space_group_name_H-M   'P 1'
_cell_length_a   10.30612700
_cell_length_b   10.30606908
_cell_length_c   5.81912200
_cell_angle_alpha   90.00000000
_cell_angle_beta   90.00000000
_cell_angle_gamma   119.99999039
_symmetry_Int_Tables_number   1
_chemical_formula_structural   Nd3SiAuS7
_chemical_formula_sum   'Nd6 Si2 Au2 S14'
_cell_volume   535.27464876
_cell_formula_units_Z   2
loop_
 _symmetry_equiv_pos_site_id
 _symmetry_equiv_pos_as_xyz
  1  'x, y, z'
loop_
 _atom_site_type_symbol
 _atom_site_label
 _atom_site_symmetry_multiplicity
 _atom_site_fract_x
 _atom_site_fract_y
 _atom_site_fract_z
 _atom_site_occupancy
  Nd  Nd0  1  0.124123  0.358730  0.251694  1
  Nd  Nd1  1  0.234606  0.875877  0.251692  1
  Nd  Nd2  1  0.641278  0.765397  0.251691  1
  Nd  Nd3  1  0.875877  0.641270  0.751692  1
  Nd  Nd4  1  0.765394  0.124123  0.751692  1
  Nd  Nd5  1  0.358722  0.234603  0.751690  1
  Si  Si6  1  0.666658  0.333329  0.164128  1
  Si  Si7  1  0.333342  0.666670  0.664129  1
  Au  Au8  1  0.000000  0.999998  0.274957  1
  Au  Au9  1  0.000000  0.000002  0.774957  1
  S  S10  1  0.525342  0.114831  0.017956  1
  S  S11  1  0.589485  0.474652  0.017959  1
  S  S12  1  0.885159  0.410507  0.017969  1
  S  S13  1  0.333345  0.666672  0.028460  1
  S  S14  1  0.269326  0.177473  0.263833  1
  S  S15  1  0.908146  0.730670  0.263831  1
  S  S16  1  0.822531  0.091858  0.263832  1
  S  S17  1  0.474658  0.885169  0.517956  1
  S  S18  1  0.410515  0.525348  0.517959  1
  S  S19  1  0.114841  0.589492  0.517969  1
  S  S20  1  0.666654  0.333327  0.528461  1
  S  S21  1  0.091854  0.269330  0.763830  1
  S  S22  1  0.730673  0.822526  0.763833  1
  S  S23  1  0.177469  0.908142  0.763832  1
