# generated using pymatgen
data_Ho8Sc12Sn11Sb5
_symmetry_space_group_name_H-M   'P 1'
_cell_length_a   7.78220459
_cell_length_b   7.81518007
_cell_length_c   14.71974300
_cell_angle_alpha   90.01382692
_cell_angle_beta   89.49474071
_cell_angle_gamma   90.05691566
_symmetry_Int_Tables_number   1
_chemical_formula_structural   Ho8Sc12Sn11Sb5
_chemical_formula_sum   'Ho8 Sc12 Sn11 Sb5'
_cell_volume   895.20963477
_cell_formula_units_Z   1
loop_
 _symmetry_equiv_pos_site_id
 _symmetry_equiv_pos_as_xyz
  1  'x, y, z'
loop_
 _atom_site_type_symbol
 _atom_site_label
 _atom_site_symmetry_multiplicity
 _atom_site_fract_x
 _atom_site_fract_y
 _atom_site_fract_z
 _atom_site_occupancy
  Ho  Ho0  1  0.982522  0.177756  0.093101  1
  Ho  Ho1  1  0.019545  0.822461  0.906384  1
  Ho  Ho2  1  0.519046  0.678485  0.904823  1
  Ho  Ho3  1  0.024466  0.820118  0.596982  1
  Ho  Ho4  1  0.477321  0.322847  0.095603  1
  Ho  Ho5  1  0.975245  0.179102  0.403224  1
  Ho  Ho6  1  0.476171  0.318776  0.402785  1
  Ho  Ho7  1  0.524557  0.680632  0.597177  1
  Sc  Sc8  1  0.183453  0.494559  0.752012  1
  Sc  Sc9  1  0.815773  0.505424  0.249187  1
  Sc  Sc10  1  0.316360  0.995530  0.248951  1
  Sc  Sc11  1  0.683151  0.004878  0.751197  1
  Sc  Sc12  1  0.359125  0.155859  0.625532  1
  Sc  Sc13  1  0.641111  0.844183  0.374278  1
  Sc  Sc14  1  0.139443  0.655949  0.375065  1
  Sc  Sc15  1  0.644952  0.839899  0.127873  1
  Sc  Sc16  1  0.860922  0.343899  0.625003  1
  Sc  Sc17  1  0.355431  0.160092  0.872060  1
  Sc  Sc18  1  0.855441  0.340777  0.873471  1
  Sc  Sc19  1  0.145218  0.659055  0.126366  1
  Sn  Sn20  1  0.049098  0.124145  0.748329  1
  Sn  Sn21  1  0.951080  0.875866  0.251407  1
  Sn  Sn22  1  0.448995  0.623924  0.252154  1
  Sn  Sn23  1  0.550732  0.376243  0.747652  1
  Sn  Sn24  1  0.325203  0.848976  0.750230  1
  Sn  Sn25  1  0.674733  0.151446  0.248862  1
  Sn  Sn26  1  0.172020  0.349108  0.249738  1
  Sn  Sn27  1  0.826578  0.651191  0.750571  1
  Sn  Sn28  1  0.199982  0.457258  0.956805  1
  Sn  Sn29  1  0.693778  0.042368  0.957837  1
  Sn  Sn30  1  0.307294  0.957508  0.042664  1
  Sb  Sb31  1  0.207403  0.457526  0.543278  1
  Sb  Sb32  1  0.793036  0.542388  0.456747  1
  Sb  Sb33  1  0.293838  0.957648  0.456465  1
  Sb  Sb34  1  0.800450  0.541953  0.042842  1
  Sb  Sb35  1  0.706523  0.042171  0.543345  1
