# generated using pymatgen
data_Cs6Rb2Y6BeBr20
_symmetry_space_group_name_H-M   'P 1'
_cell_length_a   12.59938227
_cell_length_b   12.63752928
_cell_length_c   12.63752900
_cell_angle_alpha   60.00000334
_cell_angle_beta   59.89979757
_cell_angle_gamma   59.89980021
_symmetry_Int_Tables_number   1
_chemical_formula_structural   Cs6Rb2Y6BeBr20
_chemical_formula_sum   'Cs6 Rb2 Y6 Be1 Br20'
_cell_volume   1420.68955201
_cell_formula_units_Z   1
loop_
 _symmetry_equiv_pos_site_id
 _symmetry_equiv_pos_as_xyz
  1  'x, y, z'
loop_
 _atom_site_type_symbol
 _atom_site_label
 _atom_site_symmetry_multiplicity
 _atom_site_fract_x
 _atom_site_fract_y
 _atom_site_fract_z
 _atom_site_occupancy
  Cs  Cs0  1  0.358255  0.358410  0.358410  1
  Cs  Cs1  1  0.641745  0.641590  0.641590  1
  Cs  Cs2  1  0.358255  0.358410  0.924926  1
  Cs  Cs3  1  0.358255  0.924926  0.358410  1
  Cs  Cs4  1  0.641745  0.641590  0.075074  1
  Cs  Cs5  1  0.641745  0.075074  0.641590  1
  Rb  Rb6  1  0.915351  0.361550  0.361550  1
  Rb  Rb7  1  0.084649  0.638450  0.638450  1
  Y  Y8  1  0.847299  0.152724  0.152724  1
  Y  Y9  1  0.152701  0.847276  0.847276  1
  Y  Y10  1  0.152701  0.847276  0.152747  1
  Y  Y11  1  0.847299  0.152724  0.847253  1
  Y  Y12  1  0.152701  0.152747  0.847276  1
  Y  Y13  1  0.847299  0.847253  0.152724  1
  Be  Be14  1  0.000000  0.000000  0.000000  1
  Br  Br15  1  0.325451  0.998941  0.998941  1
  Br  Br16  1  0.674549  0.001059  0.001059  1
  Br  Br17  1  0.000000  0.322658  0.677342  1
  Br  Br18  1  0.000000  0.677342  0.322658  1
  Br  Br19  1  0.000000  0.322658  0.000000  1
  Br  Br20  1  0.674549  0.001059  0.323333  1
  Br  Br21  1  0.000000  0.677342  0.000000  1
  Br  Br22  1  0.325451  0.998941  0.676667  1
  Br  Br23  1  0.000000  0.000000  0.322658  1
  Br  Br24  1  0.000000  0.000000  0.677342  1
  Br  Br25  1  0.674549  0.323333  0.001059  1
  Br  Br26  1  0.325451  0.676667  0.998941  1
  Br  Br27  1  0.689767  0.314779  0.314779  1
  Br  Br28  1  0.310233  0.685221  0.685221  1
  Br  Br29  1  0.310233  0.685221  0.319325  1
  Br  Br30  1  0.689767  0.314779  0.680675  1
  Br  Br31  1  0.310233  0.319325  0.685221  1
  Br  Br32  1  0.689767  0.680675  0.314779  1
  Br  Br33  1  0.233166  0.255611  0.255611  1
  Br  Br34  1  0.766834  0.744389  0.744389  1
