# generated using pymatgen
data_Y2Pa2V3ReB16
_symmetry_space_group_name_H-M   'P 1'
_cell_length_a   3.57995000
_cell_length_b   5.96853810
_cell_length_c   11.54922002
_cell_angle_alpha   89.79834400
_cell_angle_beta   90.00000000
_cell_angle_gamma   90.00000000
_symmetry_Int_Tables_number   1
_chemical_formula_structural   Y2Pa2V3ReB16
_chemical_formula_sum   'Y2 Pa2 V3 Re1 B16'
_cell_volume   246.77144082
_cell_formula_units_Z   1
loop_
 _symmetry_equiv_pos_site_id
 _symmetry_equiv_pos_as_xyz
  1  'x, y, z'
loop_
 _atom_site_type_symbol
 _atom_site_label
 _atom_site_symmetry_multiplicity
 _atom_site_fract_x
 _atom_site_fract_y
 _atom_site_fract_z
 _atom_site_occupancy
  Y  Y0  1  0.000000  0.125494  0.151301  1
  Y  Y1  1  0.000000  0.875667  0.848402  1
  Pa  Pa2  1  0.000000  0.625155  0.350895  1
  Pa  Pa3  1  0.000000  0.374969  0.650310  1
  V  V4  1  0.000000  0.372257  0.916343  1
  V  V5  1  0.000000  0.126257  0.416792  1
  V  V6  1  0.000000  0.873747  0.582179  1
  Re  Re7  1  0.000000  0.626626  0.084291  1
  B  B8  1  0.500000  0.783909  0.185529  1
  B  B9  1  0.500000  0.216549  0.814556  1
  B  B10  1  0.500000  0.284364  0.315141  1
  B  B11  1  0.500000  0.715886  0.684667  1
  B  B12  1  0.500000  0.864626  0.032223  1
  B  B13  1  0.500000  0.135263  0.967631  1
  B  B14  1  0.500000  0.363754  0.467127  1
  B  B15  1  0.500000  0.636351  0.532949  1
  B  B16  1  0.500000  0.887272  0.453376  1
  B  B17  1  0.500000  0.112767  0.546378  1
  B  B18  1  0.500000  0.385113  0.046549  1
  B  B19  1  0.500000  0.614728  0.953288  1
  B  B20  1  0.500000  0.973411  0.308468  1
  B  B21  1  0.500000  0.026463  0.691264  1
  B  B22  1  0.500000  0.475675  0.192185  1
  B  B23  1  0.500000  0.523699  0.808156  1
