# generated using pymatgen
data_LiNd16Zn3Co4
_symmetry_space_group_name_H-M   'P 1'
_cell_length_a   9.69019603
_cell_length_b   9.69019624
_cell_length_c   9.73415307
_cell_angle_alpha   60.14926884
_cell_angle_beta   60.14927211
_cell_angle_gamma   60.00000496
_symmetry_Int_Tables_number   1
_chemical_formula_structural   LiNd16Zn3Co4
_chemical_formula_sum   'Li1 Nd16 Zn3 Co4'
_cell_volume   647.77549332
_cell_formula_units_Z   1
loop_
 _symmetry_equiv_pos_site_id
 _symmetry_equiv_pos_as_xyz
  1  'x, y, z'
loop_
 _atom_site_type_symbol
 _atom_site_label
 _atom_site_symmetry_multiplicity
 _atom_site_fract_x
 _atom_site_fract_y
 _atom_site_fract_z
 _atom_site_occupancy
  Li  Li0  1  0.565311  0.565311  0.304067  1
  Nd  Nd1  1  0.938499  0.938499  0.560768  1
  Nd  Nd2  1  0.812434  0.188226  0.186905  1
  Nd  Nd3  1  0.938499  0.562235  0.560768  1
  Nd  Nd4  1  0.942186  0.562782  0.932249  1
  Nd  Nd5  1  0.812434  0.812434  0.186905  1
  Nd  Nd6  1  0.347823  0.347823  0.346379  1
  Nd  Nd7  1  0.562782  0.942186  0.932249  1
  Nd  Nd8  1  0.562235  0.938499  0.560768  1
  Nd  Nd9  1  0.192129  0.809556  0.806186  1
  Nd  Nd10  1  0.192129  0.192129  0.806186  1
  Nd  Nd11  1  0.348019  0.348019  0.955945  1
  Nd  Nd12  1  0.347823  0.957975  0.346379  1
  Nd  Nd13  1  0.809556  0.192129  0.806186  1
  Nd  Nd14  1  0.562782  0.562782  0.932249  1
  Nd  Nd15  1  0.188226  0.812434  0.186905  1
  Nd  Nd16  1  0.957975  0.347823  0.346379  1
  Zn  Zn17  1  0.260369  0.577265  0.585103  1
  Zn  Zn18  1  0.577265  0.577265  0.585103  1
  Zn  Zn19  1  0.577265  0.260369  0.585103  1
  Co  Co20  1  0.578111  0.141864  0.138162  1
  Co  Co21  1  0.141864  0.141864  0.138162  1
  Co  Co22  1  0.141864  0.578111  0.138162  1
  Co  Co23  1  0.142420  0.142420  0.572740  1
