# generated using pymatgen
data_Th6Ir17Ru
_symmetry_space_group_name_H-M   'P 1'
_cell_length_a   5.37802800
_cell_length_b   5.37796630
_cell_length_c   17.79224900
_cell_angle_alpha   90.00000000
_cell_angle_beta   90.00000000
_cell_angle_gamma   119.99960448
_symmetry_Int_Tables_number   1
_chemical_formula_structural   Th6Ir17Ru
_chemical_formula_sum   'Th6 Ir17 Ru1'
_cell_volume   445.66070810
_cell_formula_units_Z   1
loop_
 _symmetry_equiv_pos_site_id
 _symmetry_equiv_pos_as_xyz
  1  'x, y, z'
loop_
 _atom_site_type_symbol
 _atom_site_label
 _atom_site_symmetry_multiplicity
 _atom_site_fract_x
 _atom_site_fract_y
 _atom_site_fract_z
 _atom_site_occupancy
  Th  Th0  1  0.333394  0.666672  0.957457  1
  Th  Th1  1  0.666705  0.333355  0.042452  1
  Th  Th2  1  0.666705  0.333355  0.457548  1
  Th  Th3  1  0.333394  0.666672  0.542543  1
  Th  Th4  1  0.333158  0.666657  0.750000  1
  Th  Th5  1  0.666516  0.333260  0.250000  1
  Ir  Ir6  1  0.167170  0.832879  0.372618  1
  Ir  Ir7  1  0.167163  0.334319  0.372622  1
  Ir  Ir8  1  0.665716  0.832882  0.372600  1
  Ir  Ir9  1  0.832818  0.167198  0.627119  1
  Ir  Ir10  1  0.832825  0.665596  0.627141  1
  Ir  Ir11  1  0.334411  0.167185  0.627130  1
  Ir  Ir12  1  0.832818  0.167198  0.872881  1
  Ir  Ir13  1  0.832825  0.665596  0.872859  1
  Ir  Ir14  1  0.334411  0.167185  0.872870  1
  Ir  Ir15  1  0.167170  0.832879  0.127382  1
  Ir  Ir16  1  0.167163  0.334319  0.127378  1
  Ir  Ir17  1  0.665716  0.832882  0.127400  1
  Ir  Ir18  1  0.666654  0.333269  0.750000  1
  Ir  Ir19  1  0.000084  0.000035  0.250000  1
  Ir  Ir20  1  0.999974  0.000058  0.750000  1
  Ir  Ir21  1  0.000005  0.999982  0.500371  1
  Ir  Ir22  1  0.000005  0.999982  0.999629  1
  Ru  Ru23  1  0.333198  0.666587  0.250000  1
