# generated using pymatgen
data_Pr3Pa(Al8Pt3)3
_symmetry_space_group_name_H-M   'P 1'
_cell_length_a   7.59473332
_cell_length_b   7.59299983
_cell_length_c   13.26332927
_cell_angle_alpha   84.53233540
_cell_angle_beta   101.02152058
_cell_angle_gamma   119.86525389
_symmetry_Int_Tables_number   1
_chemical_formula_structural   Pr3Pa(Al8Pt3)3
_chemical_formula_sum   'Pr3 Pa1 Al24 Pt9'
_cell_volume   651.04651417
_cell_formula_units_Z   1
loop_
 _symmetry_equiv_pos_site_id
 _symmetry_equiv_pos_as_xyz
  1  'x, y, z'
loop_
 _atom_site_type_symbol
 _atom_site_label
 _atom_site_symmetry_multiplicity
 _atom_site_fract_x
 _atom_site_fract_y
 _atom_site_fract_z
 _atom_site_occupancy
  Pr  Pr0  1  0.561980  0.168003  0.190967  1
  Pr  Pr1  1  0.768357  0.501713  0.808646  1
  Pr  Pr2  1  0.231479  0.498338  0.191074  1
  Pa  Pa3  1  0.434903  0.831672  0.802843  1
  Al  Al4  1  0.480638  0.165020  0.944040  1
  Al  Al5  1  0.519458  0.833549  0.051483  1
  Al  Al6  1  0.020646  0.166892  0.560857  1
  Al  Al7  1  0.978882  0.832879  0.439430  1
  Al  Al8  1  0.352550  0.833300  0.558277  1
  Al  Al9  1  0.648158  0.167572  0.441859  1
  Al  Al10  1  0.619576  0.834551  0.335467  1
  Al  Al11  1  0.380977  0.167701  0.667262  1
  Al  Al12  1  0.052644  0.489933  0.667321  1
  Al  Al13  1  0.945881  0.507248  0.334756  1
  Al  Al14  1  0.732312  0.841333  0.665845  1
  Al  Al15  1  0.271255  0.159367  0.336003  1
  Al  Al16  1  0.149250  0.500141  0.944123  1
  Al  Al17  1  0.851592  0.502281  0.054021  1
  Al  Al18  1  0.817119  0.833771  0.953979  1
  Al  Al19  1  0.179650  0.165052  0.043475  1
  Al  Al20  1  0.314069  0.499590  0.441924  1
  Al  Al21  1  0.686059  0.499686  0.558604  1
  Al  Al22  1  0.099856  0.836215  0.184279  1
  Al  Al23  1  0.897158  0.158375  0.816696  1
  Al  Al24  1  0.302878  0.369665  0.815238  1
  Al  Al25  1  0.694816  0.633516  0.185588  1
  Al  Al26  1  0.107727  0.963635  0.816211  1
  Al  Al27  1  0.897113  0.038595  0.184565  1
  Pt  Pt28  1  0.386505  0.508941  0.639209  1
  Pt  Pt29  1  0.615644  0.494372  0.364168  1
  Pt  Pt30  1  0.170688  0.828735  0.998155  1
  Pt  Pt31  1  0.828572  0.171149  0.998537  1
  Pt  Pt32  1  0.294592  0.833244  0.364302  1
  Pt  Pt33  1  0.703805  0.164606  0.639015  1
  Pt  Pt34  1  0.048486  0.826317  0.638564  1
  Pt  Pt35  1  0.954851  0.172892  0.364980  1
  Pt  Pt36  1  0.499875  0.500152  0.998241  1
