# generated using pymatgen
data_Y9LuIr4
_symmetry_space_group_name_H-M   'P 1'
_cell_length_a   8.53754520
_cell_length_b   8.53754461
_cell_length_c   7.23227900
_cell_angle_alpha   83.56133643
_cell_angle_beta   83.56133869
_cell_angle_gamma   44.98048996
_symmetry_Int_Tables_number   1
_chemical_formula_structural   Y9LuIr4
_chemical_formula_sum   'Y9 Lu1 Ir4'
_cell_volume   369.87561754
_cell_formula_units_Z   1
loop_
 _symmetry_equiv_pos_site_id
 _symmetry_equiv_pos_as_xyz
  1  'x, y, z'
loop_
 _atom_site_type_symbol
 _atom_site_label
 _atom_site_symmetry_multiplicity
 _atom_site_fract_x
 _atom_site_fract_y
 _atom_site_fract_z
 _atom_site_occupancy
  Y  Y0  1  0.428068  0.571932  0.750000  1
  Y  Y1  1  0.347278  0.212536  0.317492  1
  Y  Y2  1  0.210733  0.970474  0.082414  1
  Y  Y3  1  0.788297  0.030191  0.919079  1
  Y  Y4  1  0.969809  0.211703  0.580921  1
  Y  Y5  1  0.654122  0.787737  0.681605  1
  Y  Y6  1  0.212263  0.345878  0.818395  1
  Y  Y7  1  0.787464  0.652722  0.182508  1
  Y  Y8  1  0.029526  0.789267  0.417586  1
  Lu  Lu9  1  0.569612  0.430388  0.250000  1
  Ir  Ir10  1  0.394089  0.822737  0.425496  1
  Ir  Ir11  1  0.177263  0.605911  0.074504  1
  Ir  Ir12  1  0.824112  0.392637  0.929051  1
  Ir  Ir13  1  0.607363  0.175888  0.570949  1
