# generated using pymatgen
data_Li3Pr3HgGeAs
_symmetry_space_group_name_H-M   'P 1'
_cell_length_a   7.47707200
_cell_length_b   7.47707088
_cell_length_c   4.38730100
_cell_angle_alpha   90.00000000
_cell_angle_beta   90.00000000
_cell_angle_gamma   120.00000497
_symmetry_Int_Tables_number   1
_chemical_formula_structural   Li3Pr3HgGeAs
_chemical_formula_sum   'Li3 Pr3 Hg1 Ge1 As1'
_cell_volume   212.41789516
_cell_formula_units_Z   1
loop_
 _symmetry_equiv_pos_site_id
 _symmetry_equiv_pos_as_xyz
  1  'x, y, z'
loop_
 _atom_site_type_symbol
 _atom_site_label
 _atom_site_symmetry_multiplicity
 _atom_site_fract_x
 _atom_site_fract_y
 _atom_site_fract_z
 _atom_site_occupancy
  Li  Li0  1  0.751631  0.752089  0.500000  1
  Li  Li1  1  0.247911  0.999542  0.500000  1
  Li  Li2  1  0.000458  0.248369  0.500000  1
  Pr  Pr3  1  0.996442  0.574021  0.000000  1
  Pr  Pr4  1  0.425979  0.422420  0.000000  1
  Pr  Pr5  1  0.577580  0.003558  0.000000  1
  Hg  Hg6  1  0.000000  0.000000  0.000000  1
  Ge  Ge7  1  0.666667  0.333333  0.500000  1
  As  As8  1  0.333333  0.666667  0.500000  1
