# generated using pymatgen
data_K2PdS16
_symmetry_space_group_name_H-M   'P 1'
_cell_length_a   11.89907600
_cell_length_b   11.89907600
_cell_length_c   7.11231700
_cell_angle_alpha   90.00000000
_cell_angle_beta   90.00000000
_cell_angle_gamma   90.00000000
_symmetry_Int_Tables_number   1
_chemical_formula_structural   K2PdS16
_chemical_formula_sum   'K4 Pd2 S32'
_cell_volume   1007.01880806
_cell_formula_units_Z   2
loop_
 _symmetry_equiv_pos_site_id
 _symmetry_equiv_pos_as_xyz
  1  'x, y, z'
loop_
 _atom_site_type_symbol
 _atom_site_label
 _atom_site_symmetry_multiplicity
 _atom_site_fract_x
 _atom_site_fract_y
 _atom_site_fract_z
 _atom_site_occupancy
  K  K0  1  0.500000  0.000000  0.000000  1
  K  K1  1  0.000000  0.500000  0.000000  1
  K  K2  1  0.500000  0.500000  0.500000  1
  K  K3  1  0.000000  0.000000  0.500000  1
  Pd  Pd4  1  0.000000  0.000000  0.000000  1
  Pd  Pd5  1  0.500000  0.500000  0.000000  1
  S  S6  1  0.182187  0.423972  0.577042  1
  S  S7  1  0.817813  0.576028  0.577042  1
  S  S8  1  0.576028  0.182187  0.422958  1
  S  S9  1  0.423972  0.817813  0.422958  1
  S  S10  1  0.317813  0.923972  0.577042  1
  S  S11  1  0.076028  0.317813  0.422958  1
  S  S12  1  0.810071  0.953534  0.947217  1
  S  S13  1  0.046466  0.810071  0.052783  1
  S  S14  1  0.953534  0.189929  0.052783  1
  S  S15  1  0.189929  0.046466  0.947217  1
  S  S16  1  0.546466  0.689929  0.052783  1
  S  S17  1  0.453534  0.310071  0.052783  1
  S  S18  1  0.689929  0.453534  0.947217  1
  S  S19  1  0.310071  0.546466  0.947217  1
  S  S20  1  0.785749  0.206227  0.113151  1
  S  S21  1  0.793773  0.785749  0.886849  1
  S  S22  1  0.206227  0.214251  0.886849  1
  S  S23  1  0.214251  0.793773  0.113151  1
  S  S24  1  0.293773  0.714251  0.886849  1
  S  S25  1  0.706227  0.285749  0.886849  1
  S  S26  1  0.714251  0.706227  0.113151  1
  S  S27  1  0.285749  0.293773  0.113151  1
  S  S28  1  0.924492  0.315170  0.567497  1
  S  S29  1  0.684830  0.924492  0.432503  1
  S  S30  1  0.315170  0.075508  0.432503  1
  S  S31  1  0.075508  0.684830  0.567497  1
  S  S32  1  0.184830  0.575508  0.432503  1
  S  S33  1  0.815170  0.424492  0.432503  1
  S  S34  1  0.575508  0.815170  0.567497  1
  S  S35  1  0.424492  0.184830  0.567497  1
  S  S36  1  0.682187  0.076028  0.577042  1
  S  S37  1  0.923972  0.682187  0.422958  1
