# generated using pymatgen
data_Tm4Sc6Sn5Bi3
_symmetry_space_group_name_H-M   'P 1'
_cell_length_a   7.86233140
_cell_length_b   7.86106696
_cell_length_c   14.88499924
_cell_angle_alpha   90.13475254
_cell_angle_beta   89.61168193
_cell_angle_gamma   90.08786485
_symmetry_Int_Tables_number   1
_chemical_formula_structural   Tm4Sc6Sn5Bi3
_chemical_formula_sum   'Tm8 Sc12 Sn10 Bi6'
_cell_volume   919.96219819
_cell_formula_units_Z   2
loop_
 _symmetry_equiv_pos_site_id
 _symmetry_equiv_pos_as_xyz
  1  'x, y, z'
loop_
 _atom_site_type_symbol
 _atom_site_label
 _atom_site_symmetry_multiplicity
 _atom_site_fract_x
 _atom_site_fract_y
 _atom_site_fract_z
 _atom_site_occupancy
  Tm  Tm0  1  0.974930  0.169047  0.095416  1
  Tm  Tm1  1  0.025070  0.830953  0.904584  1
  Tm  Tm2  1  0.527555  0.686420  0.901410  1
  Tm  Tm3  1  0.031351  0.821040  0.602582  1
  Tm  Tm4  1  0.472445  0.313580  0.098590  1
  Tm  Tm5  1  0.968649  0.178960  0.397418  1
  Tm  Tm6  1  0.467692  0.321443  0.395830  1
  Tm  Tm7  1  0.532308  0.678557  0.604170  1
  Sc  Sc8  1  0.190045  0.495572  0.751525  1
  Sc  Sc9  1  0.809955  0.504428  0.248475  1
  Sc  Sc10  1  0.309899  0.994817  0.245697  1
  Sc  Sc11  1  0.690101  0.005183  0.754303  1
  Sc  Sc12  1  0.363144  0.154322  0.629658  1
  Sc  Sc13  1  0.636856  0.845678  0.370342  1
  Sc  Sc14  1  0.136205  0.653219  0.369693  1
  Sc  Sc15  1  0.637053  0.846379  0.127487  1
  Sc  Sc16  1  0.863795  0.346781  0.630307  1
  Sc  Sc17  1  0.362947  0.153621  0.872513  1
  Sc  Sc18  1  0.857801  0.339489  0.872565  1
  Sc  Sc19  1  0.142199  0.660511  0.127435  1
  Sn  Sn20  1  0.054802  0.126095  0.750032  1
  Sn  Sn21  1  0.945198  0.873905  0.249968  1
  Sn  Sn22  1  0.445616  0.624402  0.249614  1
  Sn  Sn23  1  0.554384  0.375598  0.750386  1
  Sn  Sn24  1  0.330386  0.847851  0.751257  1
  Sn  Sn25  1  0.669614  0.152149  0.248743  1
  Sn  Sn26  1  0.164993  0.346925  0.246817  1
  Sn  Sn27  1  0.835007  0.653075  0.753183  1
  Sn  Sn28  1  0.699788  0.043215  0.958306  1
  Sn  Sn29  1  0.300212  0.956785  0.041694  1
  Bi  Bi30  1  0.211063  0.458523  0.542409  1
  Bi  Bi31  1  0.788937  0.541477  0.457591  1
  Bi  Bi32  1  0.289231  0.958725  0.456454  1
  Bi  Bi33  1  0.791537  0.540967  0.042834  1
  Bi  Bi34  1  0.710769  0.041275  0.543546  1
  Bi  Bi35  1  0.208463  0.459033  0.957166  1
