# generated using pymatgen
data_YbHf2Co9
_symmetry_space_group_name_H-M   'P 1'
_cell_length_a   8.37522515
_cell_length_b   8.37522498
_cell_length_c   8.37522440
_cell_angle_alpha   33.76534702
_cell_angle_beta   33.76534821
_cell_angle_gamma   33.76534239
_symmetry_Int_Tables_number   1
_chemical_formula_structural   YbHf2Co9
_chemical_formula_sum   'Yb1 Hf2 Co9'
_cell_volume   161.69900980
_cell_formula_units_Z   1
loop_
 _symmetry_equiv_pos_site_id
 _symmetry_equiv_pos_as_xyz
  1  'x, y, z'
loop_
 _atom_site_type_symbol
 _atom_site_label
 _atom_site_symmetry_multiplicity
 _atom_site_fract_x
 _atom_site_fract_y
 _atom_site_fract_z
 _atom_site_occupancy
  Yb  Yb0  1  0.000000  0.000000  0.000000  1
  Hf  Hf1  1  0.860591  0.860591  0.860591  1
  Hf  Hf2  1  0.139409  0.139409  0.139409  1
  Co  Co3  1  0.411740  0.922261  0.411740  1
  Co  Co4  1  0.411740  0.411740  0.922261  1
  Co  Co5  1  0.922261  0.411740  0.411740  1
  Co  Co6  1  0.588260  0.077739  0.588260  1
  Co  Co7  1  0.588260  0.588260  0.077739  1
  Co  Co8  1  0.077739  0.588260  0.588260  1
  Co  Co9  1  0.664367  0.664367  0.664367  1
  Co  Co10  1  0.335633  0.335633  0.335633  1
  Co  Co11  1  0.500000  0.500000  0.500000  1
