# generated using pymatgen
data_NbP3OsO12
_symmetry_space_group_name_H-M   'P 1'
_cell_length_a   8.69127698
_cell_length_b   8.69265012
_cell_length_c   9.02003352
_cell_angle_alpha   90.14133860
_cell_angle_beta   118.65821552
_cell_angle_gamma   119.96561472
_symmetry_Int_Tables_number   1
_chemical_formula_structural   NbP3OsO12
_chemical_formula_sum   'Nb2 P6 Os2 O24'
_cell_volume   491.09569029
_cell_formula_units_Z   2
loop_
 _symmetry_equiv_pos_site_id
 _symmetry_equiv_pos_as_xyz
  1  'x, y, z'
loop_
 _atom_site_type_symbol
 _atom_site_label
 _atom_site_symmetry_multiplicity
 _atom_site_fract_x
 _atom_site_fract_y
 _atom_site_fract_z
 _atom_site_occupancy
  Nb  Nb0  1  0.211668  0.356979  0.567946  1
  Nb  Nb1  1  0.786306  0.141853  0.928644  1
  P  P2  1  0.997075  0.958165  0.247791  1
  P  P3  1  0.289423  0.539674  0.250788  1
  P  P4  1  0.278029  0.751624  0.747742  1
  P  P5  1  0.709758  0.249163  0.252041  1
  P  P6  1  0.723583  0.472530  0.749007  1
  P  P7  1  0.001395  0.028574  0.751554  1
  Os  Os8  1  0.212658  0.858386  0.070212  1
  Os  Os9  1  0.789213  0.642671  0.433227  1
  O  O10  1  0.298624  0.717264  0.227819  1
  O  O11  1  0.862894  0.989831  0.076710  1
  O  O12  1  0.844296  0.850423  0.590967  1
  O  O13  1  0.838271  0.793072  0.272908  1
  O  O14  1  0.151345  0.929393  0.235912  1
  O  O15  1  0.481394  0.548408  0.276973  1
  O  O16  1  0.097431  0.741380  0.578989  1
  O  O17  1  0.907158  0.642301  0.917149  1
  O  O18  1  0.279758  0.776152  0.916313  1
  O  O19  1  0.488109  0.918173  0.776282  1
  O  O20  1  0.737100  0.483524  0.585475  1
  O  O21  1  0.719805  0.430108  0.267590  1
  O  O22  1  0.273853  0.573108  0.719197  1
  O  O23  1  0.271576  0.508843  0.413202  1
  O  O24  1  0.513217  0.080584  0.235276  1
  O  O25  1  0.716443  0.212409  0.087168  1
  O  O26  1  0.087548  0.365714  0.085594  1
  O  O27  1  0.907122  0.272607  0.418468  1
  O  O28  1  0.515306  0.444220  0.709935  1
  O  O29  1  0.862658  0.074346  0.776718  1
  O  O30  1  0.146373  0.197657  0.715011  1
  O  O31  1  0.138043  0.139949  0.406663  1
  O  O32  1  0.151313  0.017196  0.926067  1
  O  O33  1  0.711255  0.293718  0.784662  1
