# generated using pymatgen
data_MgPaF7
_symmetry_space_group_name_H-M   'P 1'
_cell_length_a   5.70851100
_cell_length_b   9.07425200
_cell_length_c   11.80106478
_cell_angle_alpha   60.85433605
_cell_angle_beta   90.00000000
_cell_angle_gamma   90.00000000
_symmetry_Int_Tables_number   1
_chemical_formula_structural   MgPaF7
_chemical_formula_sum   'Mg4 Pa4 F28'
_cell_volume   533.90043480
_cell_formula_units_Z   4
loop_
 _symmetry_equiv_pos_site_id
 _symmetry_equiv_pos_as_xyz
  1  'x, y, z'
loop_
 _atom_site_type_symbol
 _atom_site_label
 _atom_site_symmetry_multiplicity
 _atom_site_fract_x
 _atom_site_fract_y
 _atom_site_fract_z
 _atom_site_occupancy
  Mg  Mg0  1  0.753472  0.730029  0.037862  1
  Mg  Mg1  1  0.246528  0.269971  0.962138  1
  Mg  Mg2  1  0.253472  0.269971  0.462138  1
  Mg  Mg3  1  0.746528  0.730029  0.537862  1
  Pa  Pa4  1  0.251358  0.797502  0.265282  1
  Pa  Pa5  1  0.748642  0.202498  0.734718  1
  Pa  Pa6  1  0.751358  0.202498  0.234718  1
  Pa  Pa7  1  0.248642  0.797502  0.765282  1
  F  F8  1  0.965874  0.711888  0.411434  1
  F  F9  1  0.034126  0.288112  0.588566  1
  F  F10  1  0.465874  0.288112  0.088566  1
  F  F11  1  0.534126  0.711888  0.911434  1
  F  F12  1  0.505318  0.737490  0.156042  1
  F  F13  1  0.494682  0.262510  0.843958  1
  F  F14  1  0.005318  0.262510  0.343958  1
  F  F15  1  0.994682  0.737490  0.656042  1
  F  F16  1  0.978639  0.742360  0.166134  1
  F  F17  1  0.021361  0.257640  0.833866  1
  F  F18  1  0.478639  0.257640  0.333866  1
  F  F19  1  0.521361  0.742360  0.666134  1
  F  F20  1  0.769216  0.478549  0.140116  1
  F  F21  1  0.230784  0.521451  0.859884  1
  F  F22  1  0.269216  0.521451  0.359884  1
  F  F23  1  0.730784  0.478549  0.640116  1
  F  F24  1  0.955456  0.269990  0.061006  1
  F  F25  1  0.044544  0.730010  0.938994  1
  F  F26  1  0.455456  0.730010  0.438994  1
  F  F27  1  0.544544  0.269990  0.561006  1
  F  F28  1  0.742583  0.982383  0.432579  1
  F  F29  1  0.257417  0.017617  0.567421  1
  F  F30  1  0.242583  0.017617  0.067421  1
  F  F31  1  0.757417  0.982383  0.932579  1
  F  F32  1  0.600371  0.982566  0.224828  1
  F  F33  1  0.399629  0.017434  0.775172  1
  F  F34  1  0.100371  0.017434  0.275172  1
  F  F35  1  0.899629  0.982566  0.724828  1
