# generated using pymatgen
data_Np8GeS17
_symmetry_space_group_name_H-M   'P 1'
_cell_length_a   7.79639422
_cell_length_b   7.79639313
_cell_length_c   10.35992800
_cell_angle_alpha   80.87515894
_cell_angle_beta   80.87516023
_cell_angle_gamma   65.53552300
_symmetry_Int_Tables_number   1
_chemical_formula_structural   Np8GeS17
_chemical_formula_sum   'Np8 Ge1 S17'
_cell_volume   562.89236699
_cell_formula_units_Z   1
loop_
 _symmetry_equiv_pos_site_id
 _symmetry_equiv_pos_as_xyz
  1  'x, y, z'
loop_
 _atom_site_type_symbol
 _atom_site_label
 _atom_site_symmetry_multiplicity
 _atom_site_fract_x
 _atom_site_fract_y
 _atom_site_fract_z
 _atom_site_occupancy
  Np  Np0  1  0.817248  0.306308  0.302122  1
  Np  Np1  1  0.306308  0.817248  0.302122  1
  Np  Np2  1  0.182752  0.693692  0.697878  1
  Np  Np3  1  0.693692  0.182752  0.697878  1
  Np  Np4  1  0.207085  0.207085  0.543878  1
  Np  Np5  1  0.792915  0.792915  0.456122  1
  Np  Np6  1  0.676367  0.676367  0.978365  1
  Np  Np7  1  0.323633  0.323633  0.021635  1
  Ge  Ge8  1  0.000000  0.000000  0.000000  1
  S  S9  1  0.824117  0.431052  0.536328  1
  S  S10  1  0.431052  0.824117  0.536328  1
  S  S11  1  0.175883  0.568948  0.463672  1
  S  S12  1  0.568948  0.175883  0.463672  1
  S  S13  1  0.946970  0.325460  0.032443  1
  S  S14  1  0.325460  0.946970  0.032443  1
  S  S15  1  0.053030  0.674540  0.967557  1
  S  S16  1  0.674540  0.053030  0.967557  1
  S  S17  1  0.210982  0.210982  0.282367  1
  S  S18  1  0.789018  0.789018  0.717633  1
  S  S19  1  0.053268  0.053268  0.768019  1
  S  S20  1  0.946732  0.946732  0.231981  1
  S  S21  1  0.300817  0.300817  0.756034  1
  S  S22  1  0.699183  0.699183  0.243966  1
  S  S23  1  0.521022  0.521022  0.827605  1
  S  S24  1  0.478978  0.478978  0.172395  1
  S  S25  1  0.000000  0.000000  0.500000  1
