# generated using pymatgen
data_Tb9Ho(InSb)4
_symmetry_space_group_name_H-M   'P 1'
_cell_length_a   8.85372529
_cell_length_b   8.85372609
_cell_length_c   8.14511183
_cell_angle_alpha   89.97622615
_cell_angle_beta   89.97622172
_cell_angle_gamma   125.12626876
_symmetry_Int_Tables_number   1
_chemical_formula_structural   Tb9Ho(InSb)4
_chemical_formula_sum   'Tb9 Ho1 In4 Sb4'
_cell_volume   522.20590288
_cell_formula_units_Z   1
loop_
 _symmetry_equiv_pos_site_id
 _symmetry_equiv_pos_as_xyz
  1  'x, y, z'
loop_
 _atom_site_type_symbol
 _atom_site_label
 _atom_site_symmetry_multiplicity
 _atom_site_fract_x
 _atom_site_fract_y
 _atom_site_fract_z
 _atom_site_occupancy
  Tb  Tb0  1  0.032074  0.307901  0.334080  1
  Tb  Tb1  1  0.967926  0.692099  0.665920  1
  Tb  Tb2  1  0.468159  0.192529  0.833829  1
  Tb  Tb3  1  0.807471  0.531841  0.166171  1
  Tb  Tb4  1  0.531841  0.807471  0.166171  1
  Tb  Tb5  1  0.192529  0.468159  0.833829  1
  Tb  Tb6  1  0.692099  0.967926  0.665920  1
  Tb  Tb7  1  0.307901  0.032074  0.334080  1
  Tb  Tb8  1  0.000000  0.000000  0.000000  1
  Ho  Ho9  1  0.500000  0.500000  0.500000  1
  In  In10  1  0.371323  0.371323  0.128438  1
  In  In11  1  0.628677  0.628677  0.871562  1
  In  In12  1  0.129560  0.129560  0.627502  1
  In  In13  1  0.870440  0.870440  0.372498  1
  Sb  Sb14  1  0.797173  0.202827  0.000000  1
  Sb  Sb15  1  0.202827  0.797173  0.000000  1
  Sb  Sb16  1  0.702412  0.297588  0.500000  1
  Sb  Sb17  1  0.297588  0.702412  0.500000  1
