# generated using pymatgen
data_Y3Ho(CuPt)2
_symmetry_space_group_name_H-M   'P 1'
_cell_length_a   4.44770300
_cell_length_b   5.53707167
_cell_length_c   7.16435734
_cell_angle_alpha   89.85230186
_cell_angle_beta   90.00000000
_cell_angle_gamma   90.00000000
_symmetry_Int_Tables_number   1
_chemical_formula_structural   Y3Ho(CuPt)2
_chemical_formula_sum   'Y3 Ho1 Cu2 Pt2'
_cell_volume   176.43783513
_cell_formula_units_Z   1
loop_
 _symmetry_equiv_pos_site_id
 _symmetry_equiv_pos_as_xyz
  1  'x, y, z'
loop_
 _atom_site_type_symbol
 _atom_site_label
 _atom_site_symmetry_multiplicity
 _atom_site_fract_x
 _atom_site_fract_y
 _atom_site_fract_z
 _atom_site_occupancy
  Y  Y0  1  0.000000  0.115915  0.683988  1
  Y  Y1  1  0.000000  0.883963  0.183610  1
  Y  Y2  1  0.500000  0.393738  0.316281  1
  Ho  Ho3  1  0.500000  0.605810  0.816140  1
  Cu  Cu4  1  0.500000  0.890888  0.464576  1
  Cu  Cu5  1  0.500000  0.108595  0.963398  1
  Pt  Pt6  1  0.000000  0.616312  0.537302  1
  Pt  Pt7  1  0.000000  0.384778  0.034705  1
