# generated using pymatgen
data_Th4Mg2Pd3Au
_symmetry_space_group_name_H-M   'P 1'
_cell_length_a   3.89092800
_cell_length_b   7.95365458
_cell_length_c   7.95365458
_cell_angle_alpha   89.51044914
_cell_angle_beta   90.00000000
_cell_angle_gamma   90.00000000
_symmetry_Int_Tables_number   1
_chemical_formula_structural   Th4Mg2Pd3Au
_chemical_formula_sum   'Th4 Mg2 Pd3 Au1'
_cell_volume   246.13353762
_cell_formula_units_Z   1
loop_
 _symmetry_equiv_pos_site_id
 _symmetry_equiv_pos_as_xyz
  1  'x, y, z'
loop_
 _atom_site_type_symbol
 _atom_site_label
 _atom_site_symmetry_multiplicity
 _atom_site_fract_x
 _atom_site_fract_y
 _atom_site_fract_z
 _atom_site_occupancy
  Th  Th0  1  0.500000  0.173956  0.673956  1
  Th  Th1  1  0.500000  0.834244  0.334244  1
  Th  Th2  1  0.500000  0.320224  0.171382  1
  Th  Th3  1  0.500000  0.671382  0.820224  1
  Mg  Mg4  1  0.000000  0.000313  0.999308  1
  Mg  Mg5  1  0.000000  0.499308  0.500313  1
  Pd  Pd6  1  0.000000  0.368707  0.868707  1
  Pd  Pd7  1  0.000000  0.869868  0.631657  1
  Pd  Pd8  1  0.000000  0.131657  0.369868  1
  Au  Au9  1  0.000000  0.630341  0.130341  1
