# generated using pymatgen
data_HfSc2NiRu2
_symmetry_space_group_name_H-M   'P 1'
_cell_length_a   3.23997900
_cell_length_b   3.23997900
_cell_length_c   9.48536100
_cell_angle_alpha   90.00000000
_cell_angle_beta   90.00000000
_cell_angle_gamma   90.00000000
_symmetry_Int_Tables_number   1
_chemical_formula_structural   HfSc2NiRu2
_chemical_formula_sum   'Hf1 Sc2 Ni1 Ru2'
_cell_volume   99.57223487
_cell_formula_units_Z   1
loop_
 _symmetry_equiv_pos_site_id
 _symmetry_equiv_pos_as_xyz
  1  'x, y, z'
loop_
 _atom_site_type_symbol
 _atom_site_label
 _atom_site_symmetry_multiplicity
 _atom_site_fract_x
 _atom_site_fract_y
 _atom_site_fract_z
 _atom_site_occupancy
  Hf  Hf0  1  0.499999  0.499999  0.000000  1
  Sc  Sc1  1  0.499999  0.499999  0.336189  1
  Sc  Sc2  1  0.499999  0.499999  0.663811  1
  Ni  Ni3  1  0.000000  0.000000  0.500000  1
  Ru  Ru4  1  0.000000  0.000000  0.168804  1
  Ru  Ru5  1  0.000000  0.000000  0.831197  1
