# generated using pymatgen
data_Er11Hg9Rh4
_symmetry_space_group_name_H-M   'P 1'
_cell_length_a   12.93097200
_cell_length_b   12.93097222
_cell_length_c   3.69357400
_cell_angle_alpha   90.00000000
_cell_angle_beta   90.00000000
_cell_angle_gamma   113.47421065
_symmetry_Int_Tables_number   1
_chemical_formula_structural   Er11Hg9Rh4
_chemical_formula_sum   'Er11 Hg9 Rh4'
_cell_volume   566.48952709
_cell_formula_units_Z   1
loop_
 _symmetry_equiv_pos_site_id
 _symmetry_equiv_pos_as_xyz
  1  'x, y, z'
loop_
 _atom_site_type_symbol
 _atom_site_label
 _atom_site_symmetry_multiplicity
 _atom_site_fract_x
 _atom_site_fract_y
 _atom_site_fract_z
 _atom_site_occupancy
  Er  Er0  1  0.295895  0.295895  0.000000  1
  Er  Er1  1  0.704105  0.704105  0.000000  1
  Er  Er2  1  0.000000  0.000000  0.000000  1
  Er  Er3  1  0.084115  0.416387  0.000000  1
  Er  Er4  1  0.915885  0.583613  0.000000  1
  Er  Er5  1  0.416387  0.084115  0.000000  1
  Er  Er6  1  0.583613  0.915885  0.000000  1
  Er  Er7  1  0.832154  0.167846  0.000000  1
  Er  Er8  1  0.167846  0.832154  0.000000  1
  Er  Er9  1  0.632303  0.367697  0.000000  1
  Er  Er10  1  0.367697  0.632303  0.000000  1
  Hg  Hg11  1  0.852301  0.370816  0.500000  1
  Hg  Hg12  1  0.147699  0.629184  0.500000  1
  Hg  Hg13  1  0.370816  0.852301  0.500000  1
  Hg  Hg14  1  0.629184  0.147699  0.500000  1
  Hg  Hg15  1  0.059837  0.211966  0.500000  1
  Hg  Hg16  1  0.940163  0.788034  0.500000  1
  Hg  Hg17  1  0.211966  0.059837  0.500000  1
  Hg  Hg18  1  0.788034  0.940163  0.500000  1
  Hg  Hg19  1  0.500000  0.500000  0.500000  1
  Rh  Rh20  1  0.257230  0.450773  0.500000  1
  Rh  Rh21  1  0.742770  0.549227  0.500000  1
  Rh  Rh22  1  0.450773  0.257230  0.500000  1
  Rh  Rh23  1  0.549227  0.742770  0.500000  1
