# generated using pymatgen
data_Tb2Fe7Ni(MoP3)2
_symmetry_space_group_name_H-M   'P 1'
_cell_length_a   3.71401300
_cell_length_b   10.46506500
_cell_length_c   12.01099800
_cell_angle_alpha   90.00000000
_cell_angle_beta   90.00000000
_cell_angle_gamma   90.00000000
_symmetry_Int_Tables_number   1
_chemical_formula_structural   Tb2Fe7Ni(MoP3)2
_chemical_formula_sum   'Tb4 Fe14 Ni2 Mo4 P12'
_cell_volume   466.83611300
_cell_formula_units_Z   2
loop_
 _symmetry_equiv_pos_site_id
 _symmetry_equiv_pos_as_xyz
  1  'x, y, z'
loop_
 _atom_site_type_symbol
 _atom_site_label
 _atom_site_symmetry_multiplicity
 _atom_site_fract_x
 _atom_site_fract_y
 _atom_site_fract_z
 _atom_site_occupancy
  Tb  Tb0  1  0.250000  0.580716  0.706730  1
  Tb  Tb1  1  0.250000  0.919284  0.206730  1
  Tb  Tb2  1  0.750000  0.416587  0.293275  1
  Tb  Tb3  1  0.750000  0.083413  0.793275  1
  Fe  Fe4  1  0.750000  0.590378  0.510197  1
  Fe  Fe5  1  0.750000  0.909622  0.010197  1
  Fe  Fe6  1  0.250000  0.218232  0.175535  1
  Fe  Fe7  1  0.250000  0.281768  0.675535  1
  Fe  Fe8  1  0.750000  0.783672  0.821274  1
  Fe  Fe9  1  0.750000  0.716328  0.321274  1
  Fe  Fe10  1  0.250000  0.876484  0.702644  1
  Fe  Fe11  1  0.250000  0.623516  0.202644  1
  Fe  Fe12  1  0.750000  0.121199  0.300144  1
  Fe  Fe13  1  0.750000  0.378801  0.800144  1
  Fe  Fe14  1  0.250000  0.464105  0.935001  1
  Fe  Fe15  1  0.250000  0.035895  0.435001  1
  Fe  Fe16  1  0.750000  0.537490  0.068315  1
  Fe  Fe17  1  0.750000  0.962510  0.568315  1
  Ni  Ni18  1  0.250000  0.403619  0.486412  1
  Ni  Ni19  1  0.250000  0.096381  0.986412  1
  Mo  Mo20  1  0.250000  0.705183  0.988052  1
  Mo  Mo21  1  0.250000  0.794817  0.488052  1
  Mo  Mo22  1  0.750000  0.295659  0.013193  1
  Mo  Mo23  1  0.750000  0.204341  0.513193  1
  P  P24  1  0.250000  0.424853  0.113812  1
  P  P25  1  0.250000  0.075147  0.613812  1
  P  P26  1  0.750000  0.574042  0.887146  1
  P  P27  1  0.750000  0.925958  0.387146  1
  P  P28  1  0.250000  0.273225  0.861776  1
  P  P29  1  0.250000  0.226775  0.361776  1
  P  P30  1  0.750000  0.736816  0.130167  1
  P  P31  1  0.750000  0.763184  0.630167  1
  P  P32  1  0.250000  0.594441  0.394104  1
  P  P33  1  0.250000  0.905559  0.894104  1
  P  P34  1  0.750000  0.404012  0.612222  1
  P  P35  1  0.750000  0.095988  0.112222  1
