# generated using pymatgen
data_Ta2Te8IrRh
_symmetry_space_group_name_H-M   'P 1'
_cell_length_a   3.79176400
_cell_length_b   12.68502100
_cell_length_c   14.08427500
_cell_angle_alpha   90.00000000
_cell_angle_beta   90.00000000
_cell_angle_gamma   90.00000000
_symmetry_Int_Tables_number   1
_chemical_formula_structural   Ta2Te8IrRh
_chemical_formula_sum   'Ta4 Te16 Ir2 Rh2'
_cell_volume   677.43399356
_cell_formula_units_Z   2
loop_
 _symmetry_equiv_pos_site_id
 _symmetry_equiv_pos_as_xyz
  1  'x, y, z'
loop_
 _atom_site_type_symbol
 _atom_site_label
 _atom_site_symmetry_multiplicity
 _atom_site_fract_x
 _atom_site_fract_y
 _atom_site_fract_z
 _atom_site_occupancy
  Ta  Ta0  1  0.000000  0.054468  0.005328  1
  Ta  Ta1  1  0.500000  0.945532  0.505328  1
  Ta  Ta2  1  0.000000  0.267313  0.491391  1
  Ta  Ta3  1  0.500000  0.732687  0.991391  1
  Te  Te4  1  0.500000  0.108535  0.141758  1
  Te  Te5  1  0.000000  0.891465  0.641758  1
  Te  Te6  1  0.500000  0.149724  0.602628  1
  Te  Te7  1  0.000000  0.850276  0.102628  1
  Te  Te8  1  0.500000  0.324773  0.355748  1
  Te  Te9  1  0.000000  0.675227  0.855748  1
  Te  Te10  1  0.500000  0.433806  0.902543  1
  Te  Te11  1  0.000000  0.566194  0.402543  1
  Te  Te12  1  0.000000  0.064338  0.394141  1
  Te  Te13  1  0.500000  0.935662  0.894141  1
  Te  Te14  1  0.000000  0.189787  0.860113  1
  Te  Te15  1  0.500000  0.810213  0.360113  1
  Te  Te16  1  0.000000  0.344630  0.088458  1
  Te  Te17  1  0.500000  0.655370  0.588458  1
  Te  Te18  1  0.000000  0.410070  0.630361  1
  Te  Te19  1  0.500000  0.589930  0.130361  1
  Ir  Ir20  1  0.000000  0.758014  0.491010  1
  Ir  Ir21  1  0.500000  0.241986  0.991010  1
  Rh  Rh22  1  0.000000  0.533543  0.999580  1
  Rh  Rh23  1  0.500000  0.466457  0.499580  1
