# generated using pymatgen
data_Zr2Sc3Sb3Au
_symmetry_space_group_name_H-M   'P 1'
_cell_length_a   8.71970000
_cell_length_b   8.71977576
_cell_length_c   5.96578300
_cell_angle_alpha   90.00326695
_cell_angle_beta   89.99836887
_cell_angle_gamma   120.00028018
_symmetry_Int_Tables_number   1
_chemical_formula_structural   Zr2Sc3Sb3Au
_chemical_formula_sum   'Zr4 Sc6 Sb6 Au2'
_cell_volume   392.82915905
_cell_formula_units_Z   2
loop_
 _symmetry_equiv_pos_site_id
 _symmetry_equiv_pos_as_xyz
  1  'x, y, z'
loop_
 _atom_site_type_symbol
 _atom_site_label
 _atom_site_symmetry_multiplicity
 _atom_site_fract_x
 _atom_site_fract_y
 _atom_site_fract_z
 _atom_site_occupancy
  Zr  Zr0  1  0.666679  0.333338  0.000043  1
  Zr  Zr1  1  0.333321  0.666661  0.000043  1
  Zr  Zr2  1  0.333320  0.666660  0.499961  1
  Zr  Zr3  1  0.666680  0.333338  0.499961  1
  Sc  Sc4  1  0.720166  0.720186  0.749974  1
  Sc  Sc5  1  0.279834  0.000021  0.749974  1
  Sc  Sc6  1  0.000000  0.279846  0.750018  1
  Sc  Sc7  1  0.279830  0.279836  0.250009  1
  Sc  Sc8  1  0.720170  0.000008  0.250009  1
  Sc  Sc9  1  0.000000  0.720180  0.249992  1
  Sb  Sb10  1  0.380195  0.380198  0.750005  1
  Sb  Sb11  1  0.619805  0.000003  0.750005  1
  Sb  Sb12  1  0.000000  0.619785  0.749992  1
  Sb  Sb13  1  0.619788  0.619791  0.250004  1
  Sb  Sb14  1  0.380212  0.000003  0.250004  1
  Sb  Sb15  1  0.000000  0.380209  0.250003  1
  Au  Au16  1  0.000000  0.999974  0.000000  1
  Au  Au17  1  0.000000  0.999967  0.500003  1
