# generated using pymatgen
data_Gd4YW2C7
_symmetry_space_group_name_H-M   'P 1'
_cell_length_a   8.50831395
_cell_length_b   8.50831345
_cell_length_c   3.45685800
_cell_angle_alpha   90.00000000
_cell_angle_beta   90.00000000
_cell_angle_gamma   123.56456338
_symmetry_Int_Tables_number   1
_chemical_formula_structural   Gd4YW2C7
_chemical_formula_sum   'Gd4 Y1 W2 C7'
_cell_volume   208.52148350
_cell_formula_units_Z   1
loop_
 _symmetry_equiv_pos_site_id
 _symmetry_equiv_pos_as_xyz
  1  'x, y, z'
loop_
 _atom_site_type_symbol
 _atom_site_label
 _atom_site_symmetry_multiplicity
 _atom_site_fract_x
 _atom_site_fract_y
 _atom_site_fract_z
 _atom_site_occupancy
  Gd  Gd0  1  0.070625  0.328131  0.500000  1
  Gd  Gd1  1  0.929375  0.671869  0.500000  1
  Gd  Gd2  1  0.671869  0.929375  0.500000  1
  Gd  Gd3  1  0.328131  0.070625  0.500000  1
  Y  Y4  1  0.500000  0.500000  0.000000  1
  W  W5  1  0.711432  0.288568  0.000000  1
  W  W6  1  0.288568  0.711432  0.000000  1
  C  C7  1  0.625894  0.374106  0.500000  1
  C  C8  1  0.374106  0.625894  0.500000  1
  C  C9  1  0.000000  0.000000  0.000000  1
  C  C10  1  0.168344  0.168344  0.000000  1
  C  C11  1  0.831656  0.831656  0.000000  1
  C  C12  1  0.000000  0.500000  0.000000  1
  C  C13  1  0.500000  0.000000  0.000000  1
