# generated using pymatgen
data_Zr12Zn4PdPt7N4
_symmetry_space_group_name_H-M   'P 1'
_cell_length_a   8.63343969
_cell_length_b   8.63343996
_cell_length_c   8.64133280
_cell_angle_alpha   60.03021304
_cell_angle_beta   60.03020935
_cell_angle_gamma   59.99999582
_symmetry_Int_Tables_number   1
_chemical_formula_structural   Zr12Zn4PdPt7N4
_chemical_formula_sum   'Zr12 Zn4 Pd1 Pt7 N4'
_cell_volume   455.65025593
_cell_formula_units_Z   1
loop_
 _symmetry_equiv_pos_site_id
 _symmetry_equiv_pos_as_xyz
  1  'x, y, z'
loop_
 _atom_site_type_symbol
 _atom_site_label
 _atom_site_symmetry_multiplicity
 _atom_site_fract_x
 _atom_site_fract_y
 _atom_site_fract_z
 _atom_site_occupancy
  Zr  Zr0  1  0.809596  0.189717  0.191090  1
  Zr  Zr1  1  0.189717  0.809596  0.191090  1
  Zr  Zr2  1  0.809596  0.809596  0.191090  1
  Zr  Zr3  1  0.189332  0.810411  0.810926  1
  Zr  Zr4  1  0.810411  0.189332  0.810926  1
  Zr  Zr5  1  0.189332  0.189332  0.810926  1
  Zr  Zr6  1  0.440205  0.058680  0.060911  1
  Zr  Zr7  1  0.058680  0.440205  0.060911  1
  Zr  Zr8  1  0.440205  0.440205  0.060911  1
  Zr  Zr9  1  0.059831  0.440086  0.440252  1
  Zr  Zr10  1  0.440086  0.059831  0.440252  1
  Zr  Zr11  1  0.059831  0.059831  0.440252  1
  Zn  Zn12  1  0.624992  0.624992  0.125025  1
  Zn  Zn13  1  0.624992  0.624992  0.624927  1
  Zn  Zn14  1  0.125089  0.624992  0.624927  1
  Zn  Zn15  1  0.624992  0.125089  0.624927  1
  Pd  Pd16  1  0.413557  0.413557  0.759329  1
  Pt  Pt17  1  0.411892  0.411892  0.411473  1
  Pt  Pt18  1  0.764741  0.411892  0.411473  1
  Pt  Pt19  1  0.411892  0.764741  0.411473  1
  Pt  Pt20  1  0.838431  0.838431  0.484707  1
  Pt  Pt21  1  0.838578  0.838578  0.838072  1
  Pt  Pt22  1  0.484774  0.838578  0.838072  1
  Pt  Pt23  1  0.838578  0.484774  0.838072  1
  N  N24  1  0.125056  0.125056  0.624833  1
  N  N25  1  0.125408  0.125408  0.124384  1
  N  N26  1  0.624799  0.125408  0.124384  1
  N  N27  1  0.125408  0.624799  0.124384  1
