# generated using pymatgen
data_Y2Ho6Ti11Si16Ru
_symmetry_space_group_name_H-M   'P 1'
_cell_length_a   7.01819661
_cell_length_b   7.01787179
_cell_length_c   12.86642181
_cell_angle_alpha   90.01658149
_cell_angle_beta   89.96405744
_cell_angle_gamma   89.89998673
_symmetry_Int_Tables_number   1
_chemical_formula_structural   Y2Ho6Ti11Si16Ru
_chemical_formula_sum   'Y2 Ho6 Ti11 Si16 Ru1'
_cell_volume   633.70623423
_cell_formula_units_Z   1
loop_
 _symmetry_equiv_pos_site_id
 _symmetry_equiv_pos_as_xyz
  1  'x, y, z'
loop_
 _atom_site_type_symbol
 _atom_site_label
 _atom_site_symmetry_multiplicity
 _atom_site_fract_x
 _atom_site_fract_y
 _atom_site_fract_z
 _atom_site_occupancy
  Y  Y0  1  0.340581  0.004034  0.467251  1
  Y  Y1  1  0.496667  0.841135  0.718037  1
  Ho  Ho2  1  0.500356  0.159210  0.215110  1
  Ho  Ho3  1  0.841368  0.496860  0.282033  1
  Ho  Ho4  1  0.159044  0.500194  0.784877  1
  Ho  Ho5  1  0.658202  0.998706  0.968185  1
  Ho  Ho6  1  0.003509  0.340784  0.532740  1
  Ho  Ho7  1  0.998542  0.658053  0.031876  1
  Ti  Ti8  1  0.174719  0.827431  0.248641  1
  Ti  Ti9  1  0.827589  0.175038  0.751299  1
  Ti  Ti10  1  0.673985  0.673494  0.499889  1
  Ti  Ti11  1  0.150253  0.004265  0.875716  1
  Ti  Ti12  1  0.493085  0.654880  0.125276  1
  Ti  Ti13  1  0.506940  0.349068  0.627572  1
  Ti  Ti14  1  0.655034  0.492941  0.874820  1
  Ti  Ti15  1  0.349023  0.506841  0.372442  1
  Ti  Ti16  1  0.848658  0.993780  0.375268  1
  Ti  Ti17  1  0.004109  0.150391  0.124390  1
  Ti  Ti18  1  0.993651  0.848630  0.624739  1
  Si  Si19  1  0.202374  0.132388  0.684860  1
  Si  Si20  1  0.372041  0.700396  0.933921  1
  Si  Si21  1  0.631698  0.296353  0.434048  1
  Si  Si22  1  0.700585  0.372077  0.066194  1
  Si  Si23  1  0.295740  0.630616  0.565828  1
  Si  Si24  1  0.796661  0.868676  0.183888  1
  Si  Si25  1  0.131606  0.202971  0.315033  1
  Si  Si26  1  0.869011  0.796471  0.816255  1
  Si  Si27  1  0.287695  0.953382  0.064683  1
  Si  Si28  1  0.547281  0.791998  0.315428  1
  Si  Si29  1  0.449833  0.209786  0.817759  1
  Si  Si30  1  0.792496  0.546654  0.684392  1
  Si  Si31  1  0.209284  0.449869  0.182341  1
  Si  Si32  1  0.709018  0.048410  0.565395  1
  Si  Si33  1  0.953306  0.287751  0.935361  1
  Si  Si34  1  0.047695  0.708110  0.434431  1
  Ru  Ru35  1  0.328360  0.328358  0.000023  1
