# generated using pymatgen
data_TbNdZn3PRh4
_symmetry_space_group_name_H-M   'P 1'
_cell_length_a   4.09130000
_cell_length_b   4.09130000
_cell_length_c   10.58704500
_cell_angle_alpha   90.00000000
_cell_angle_beta   90.00000000
_cell_angle_gamma   90.00000000
_symmetry_Int_Tables_number   1
_chemical_formula_structural   TbNdZn3PRh4
_chemical_formula_sum   'Tb1 Nd1 Zn3 P1 Rh4'
_cell_volume   177.21374799
_cell_formula_units_Z   1
loop_
 _symmetry_equiv_pos_site_id
 _symmetry_equiv_pos_as_xyz
  1  'x, y, z'
loop_
 _atom_site_type_symbol
 _atom_site_label
 _atom_site_symmetry_multiplicity
 _atom_site_fract_x
 _atom_site_fract_y
 _atom_site_fract_z
 _atom_site_occupancy
  Tb  Tb0  1  0.000000  0.500000  0.241331  1
  Nd  Nd1  1  0.500000  0.000000  0.750009  1
  Zn  Zn2  1  0.000000  0.000000  0.491463  1
  Zn  Zn3  1  0.500000  0.500000  0.491463  1
  Zn  Zn4  1  0.000000  0.500000  0.876095  1
  P  P5  1  0.500000  0.000000  0.124672  1
  Rh  Rh6  1  0.000000  0.000000  0.022447  1
  Rh  Rh7  1  0.500000  0.500000  0.022447  1
  Rh  Rh8  1  0.000000  0.500000  0.638507  1
  Rh  Rh9  1  0.500000  0.000000  0.341567  1
