# generated using pymatgen
data_Sr4TeIr2RuO16
_symmetry_space_group_name_H-M   'P 1'
_cell_length_a   5.15374515
_cell_length_b   5.59408233
_cell_length_c   13.01819300
_cell_angle_alpha   90.00000000
_cell_angle_beta   90.00000000
_cell_angle_gamma   89.82759271
_symmetry_Int_Tables_number   1
_chemical_formula_structural   Sr4TeIr2RuO16
_chemical_formula_sum   'Sr4 Te1 Ir2 Ru1 O16'
_cell_volume   375.31898462
_cell_formula_units_Z   1
loop_
 _symmetry_equiv_pos_site_id
 _symmetry_equiv_pos_as_xyz
  1  'x, y, z'
loop_
 _atom_site_type_symbol
 _atom_site_label
 _atom_site_symmetry_multiplicity
 _atom_site_fract_x
 _atom_site_fract_y
 _atom_site_fract_z
 _atom_site_occupancy
  Sr  Sr0  1  0.750000  0.000000  0.663798  1
  Sr  Sr1  1  0.250000  0.500000  0.835255  1
  Sr  Sr2  1  0.250000  0.000000  0.337980  1
  Sr  Sr3  1  0.750000  0.500000  0.163264  1
  Te  Te4  1  0.750000  0.000000  0.931331  1
  Ir  Ir5  1  0.250000  0.000000  0.068866  1
  Ir  Ir6  1  0.250000  0.500000  0.567281  1
  Ru  Ru7  1  0.750000  0.500000  0.427920  1
  O  O8  1  0.129959  0.286233  0.667045  1
  O  O9  1  0.627033  0.214703  0.831239  1
  O  O10  1  0.872967  0.785297  0.831239  1
  O  O11  1  0.370041  0.713767  0.667045  1
  O  O12  1  0.865851  0.714473  0.330642  1
  O  O13  1  0.376898  0.791632  0.170611  1
  O  O14  1  0.123102  0.208368  0.170611  1
  O  O15  1  0.634149  0.285527  0.330642  1
  O  O16  1  0.563254  0.315587  0.542105  1
  O  O17  1  0.066053  0.191949  0.957997  1
  O  O18  1  0.433947  0.808051  0.957997  1
  O  O19  1  0.936746  0.684413  0.542105  1
  O  O20  1  0.438734  0.682247  0.455662  1
  O  O21  1  0.930407  0.810546  0.046853  1
  O  O22  1  0.569593  0.189454  0.046853  1
  O  O23  1  0.061266  0.317753  0.455662  1
