# generated using pymatgen
data_Tb7(ErPt6)3
_symmetry_space_group_name_H-M   'P 1'
_cell_length_a   9.78073884
_cell_length_b   9.79340583
_cell_length_c   5.78519600
_cell_angle_alpha   90.00000000
_cell_angle_beta   90.00000000
_cell_angle_gamma   90.04734904
_symmetry_Int_Tables_number   1
_chemical_formula_structural   Tb7(ErPt6)3
_chemical_formula_sum   'Tb7 Er3 Pt18'
_cell_volume   554.14490357
_cell_formula_units_Z   1
loop_
 _symmetry_equiv_pos_site_id
 _symmetry_equiv_pos_as_xyz
  1  'x, y, z'
loop_
 _atom_site_type_symbol
 _atom_site_label
 _atom_site_symmetry_multiplicity
 _atom_site_fract_x
 _atom_site_fract_y
 _atom_site_fract_z
 _atom_site_occupancy
  Tb  Tb0  1  0.452532  0.808778  0.000000  1
  Tb  Tb1  1  0.547438  0.191208  0.000000  1
  Tb  Tb2  1  0.191148  0.547285  0.000000  1
  Tb  Tb3  1  0.808937  0.452463  0.000000  1
  Tb  Tb4  1  0.308609  0.047626  0.500000  1
  Tb  Tb5  1  0.691263  0.952567  0.500000  1
  Tb  Tb6  1  0.952567  0.691060  0.500000  1
  Er  Er7  1  0.499994  0.500084  0.500000  1
  Er  Er8  1  0.047465  0.308807  0.500000  1
  Er  Er9  1  0.000011  0.000062  0.000000  1
  Pt  Pt10  1  0.191517  0.808437  0.250694  1
  Pt  Pt11  1  0.809074  0.191742  0.748866  1
  Pt  Pt12  1  0.809074  0.191742  0.251134  1
  Pt  Pt13  1  0.191517  0.808437  0.749306  1
  Pt  Pt14  1  0.440485  0.780912  0.500000  1
  Pt  Pt15  1  0.559516  0.219056  0.500000  1
  Pt  Pt16  1  0.218638  0.558949  0.500000  1
  Pt  Pt17  1  0.781615  0.440261  0.500000  1
  Pt  Pt18  1  0.307773  0.308489  0.249884  1
  Pt  Pt19  1  0.691528  0.691490  0.750674  1
  Pt  Pt20  1  0.691528  0.691490  0.249326  1
  Pt  Pt21  1  0.307773  0.308489  0.750116  1
  Pt  Pt22  1  0.280969  0.059528  0.000000  1
  Pt  Pt23  1  0.719060  0.940544  0.000000  1
  Pt  Pt24  1  0.940506  0.719054  0.000000  1
  Pt  Pt25  1  0.059440  0.281013  0.000000  1
  Pt  Pt26  1  0.000072  0.000471  0.500000  1
  Pt  Pt27  1  0.499951  0.499957  0.000000  1
