# generated using pymatgen
data_Yb10In2CuPt3
_symmetry_space_group_name_H-M   'P 1'
_cell_length_a   8.90375769
_cell_length_b   8.90375744
_cell_length_c   8.94647501
_cell_angle_alpha   127.93203990
_cell_angle_beta   127.93203919
_cell_angle_gamma   76.38766151
_symmetry_Int_Tables_number   1
_chemical_formula_structural   Yb10In2CuPt3
_chemical_formula_sum   'Yb10 In2 Cu1 Pt3'
_cell_volume   429.49445363
_cell_formula_units_Z   1
loop_
 _symmetry_equiv_pos_site_id
 _symmetry_equiv_pos_as_xyz
  1  'x, y, z'
loop_
 _atom_site_type_symbol
 _atom_site_label
 _atom_site_symmetry_multiplicity
 _atom_site_fract_x
 _atom_site_fract_y
 _atom_site_fract_z
 _atom_site_occupancy
  Yb  Yb0  1  0.501663  0.504470  0.006132  1
  Yb  Yb1  1  0.995530  0.998337  0.993868  1
  Yb  Yb2  1  0.535807  0.031224  0.836952  1
  Yb  Yb3  1  0.198856  0.694275  0.163048  1
  Yb  Yb4  1  0.029463  0.203903  0.500000  1
  Yb  Yb5  1  0.700377  0.534977  0.500000  1
  Yb  Yb6  1  0.468776  0.964193  0.163048  1
  Yb  Yb7  1  0.805725  0.301144  0.836952  1
  Yb  Yb8  1  0.965023  0.799623  0.500000  1
  Yb  Yb9  1  0.296097  0.470537  0.500000  1
  In  In10  1  0.251336  0.248664  0.000000  1
  In  In11  1  0.751336  0.748664  0.000000  1
  Cu  Cu12  1  0.378303  0.121697  0.500000  1
  Pt  Pt13  1  0.133074  0.632762  0.765838  1
  Pt  Pt14  1  0.867238  0.366926  0.234162  1
  Pt  Pt15  1  0.621395  0.878605  0.500000  1
