# generated using pymatgen
data_La6DyEr3(Sn3Cl)2
_symmetry_space_group_name_H-M   'P 1'
_cell_length_a   9.45819200
_cell_length_b   9.45819189
_cell_length_c   6.73373900
_cell_angle_alpha   90.00000000
_cell_angle_beta   90.00000000
_cell_angle_gamma   119.99999338
_symmetry_Int_Tables_number   1
_chemical_formula_structural   La6DyEr3(Sn3Cl)2
_chemical_formula_sum   'La6 Dy1 Er3 Sn6 Cl2'
_cell_volume   521.67879813
_cell_formula_units_Z   1
loop_
 _symmetry_equiv_pos_site_id
 _symmetry_equiv_pos_as_xyz
  1  'x, y, z'
loop_
 _atom_site_type_symbol
 _atom_site_label
 _atom_site_symmetry_multiplicity
 _atom_site_fract_x
 _atom_site_fract_y
 _atom_site_fract_z
 _atom_site_occupancy
  La  La0  1  0.737513  0.999918  0.749895  1
  La  La1  1  0.737513  0.737595  0.250105  1
  La  La2  1  0.000082  0.262487  0.250105  1
  La  La3  1  0.000082  0.737595  0.749895  1
  La  La4  1  0.262405  0.262487  0.749895  1
  La  La5  1  0.262405  0.999918  0.250105  1
  Dy  Dy6  1  0.666667  0.333333  0.000000  1
  Er  Er7  1  0.333333  0.666667  0.500000  1
  Er  Er8  1  0.666667  0.333333  0.500000  1
  Er  Er9  1  0.333333  0.666667  0.000000  1
  Sn  Sn10  1  0.606591  0.607105  0.749596  1
  Sn  Sn11  1  0.000514  0.607105  0.250404  1
  Sn  Sn12  1  0.606591  0.999486  0.250404  1
  Sn  Sn13  1  0.392895  0.999486  0.749596  1
  Sn  Sn14  1  0.000514  0.393409  0.749596  1
  Sn  Sn15  1  0.392895  0.393409  0.250404  1
  Cl  Cl16  1  0.000000  0.000000  0.500000  1
  Cl  Cl17  1  0.000000  0.000000  0.000000  1
