# generated using pymatgen
data_Nd17Dy3Sn7Sb9
_symmetry_space_group_name_H-M   'P 1'
_cell_length_a   8.34154300
_cell_length_b   8.40960990
_cell_length_c   15.88636700
_cell_angle_alpha   90.00000000
_cell_angle_beta   90.00000000
_cell_angle_gamma   90.12774632
_symmetry_Int_Tables_number   1
_chemical_formula_structural   Nd17Dy3Sn7Sb9
_chemical_formula_sum   'Nd17 Dy3 Sn7 Sb9'
_cell_volume   1114.41193666
_cell_formula_units_Z   1
loop_
 _symmetry_equiv_pos_site_id
 _symmetry_equiv_pos_as_xyz
  1  'x, y, z'
loop_
 _atom_site_type_symbol
 _atom_site_label
 _atom_site_symmetry_multiplicity
 _atom_site_fract_x
 _atom_site_fract_y
 _atom_site_fract_z
 _atom_site_occupancy
  Nd  Nd0  1  0.386775  0.839018  0.882164  1
  Nd  Nd1  1  0.888825  0.661618  0.619212  1
  Nd  Nd2  1  0.610981  0.163300  0.381826  1
  Nd  Nd3  1  0.110681  0.337493  0.119336  1
  Nd  Nd4  1  0.610981  0.163300  0.118174  1
  Nd  Nd5  1  0.110681  0.337493  0.380664  1
  Nd  Nd6  1  0.386775  0.839018  0.617836  1
  Nd  Nd7  1  0.888825  0.661618  0.880788  1
  Nd  Nd8  1  0.549343  0.325193  0.892826  1
  Nd  Nd9  1  0.047296  0.174127  0.604293  1
  Nd  Nd10  1  0.452852  0.675017  0.394271  1
  Nd  Nd11  1  0.952177  0.825535  0.105603  1
  Nd  Nd12  1  0.452852  0.675017  0.105729  1
  Nd  Nd13  1  0.952177  0.825535  0.394397  1
  Nd  Nd14  1  0.549343  0.325193  0.607174  1
  Nd  Nd15  1  0.047296  0.174127  0.895707  1
  Nd  Nd16  1  0.215939  0.496228  0.750000  1
  Dy  Dy17  1  0.716220  0.003966  0.750000  1
  Dy  Dy18  1  0.781551  0.504128  0.250000  1
  Dy  Dy19  1  0.281833  0.997177  0.250000  1
  Sn  Sn20  1  0.084747  0.879599  0.750000  1
  Sn  Sn21  1  0.415187  0.376120  0.250000  1
  Sn  Sn22  1  0.913763  0.123882  0.250000  1
  Sn  Sn23  1  0.352484  0.136793  0.750000  1
  Sn  Sn24  1  0.855953  0.351452  0.750000  1
  Sn  Sn25  1  0.647274  0.859498  0.250000  1
  Sn  Sn26  1  0.147463  0.642283  0.250000  1
  Sb  Sb27  1  0.269584  0.020518  0.049448  1
  Sb  Sb28  1  0.770427  0.479640  0.451677  1
  Sb  Sb29  1  0.728781  0.978563  0.549332  1
  Sb  Sb30  1  0.232182  0.520548  0.953304  1
  Sb  Sb31  1  0.728781  0.978563  0.950668  1
  Sb  Sb32  1  0.232182  0.520548  0.546696  1
  Sb  Sb33  1  0.269584  0.020518  0.450552  1
  Sb  Sb34  1  0.770427  0.479640  0.048323  1
  Sb  Sb35  1  0.587780  0.627738  0.750000  1
