# generated using pymatgen
data_Ca4SnBi3Pt4
_symmetry_space_group_name_H-M   'P 1'
_cell_length_a   4.72106900
_cell_length_b   7.45012973
_cell_length_c   8.26152063
_cell_angle_alpha   90.10301353
_cell_angle_beta   90.00000000
_cell_angle_gamma   90.00000000
_symmetry_Int_Tables_number   1
_chemical_formula_structural   Ca4SnBi3Pt4
_chemical_formula_sum   'Ca4 Sn1 Bi3 Pt4'
_cell_volume   290.57849665
_cell_formula_units_Z   1
loop_
 _symmetry_equiv_pos_site_id
 _symmetry_equiv_pos_as_xyz
  1  'x, y, z'
loop_
 _atom_site_type_symbol
 _atom_site_label
 _atom_site_symmetry_multiplicity
 _atom_site_fract_x
 _atom_site_fract_y
 _atom_site_fract_z
 _atom_site_occupancy
  Ca  Ca0  1  0.250000  0.993428  0.303348  1
  Ca  Ca1  1  0.250000  0.480683  0.196200  1
  Ca  Ca2  1  0.750000  0.012262  0.693459  1
  Ca  Ca3  1  0.750000  0.510758  0.808930  1
  Sn  Sn4  1  0.750000  0.179893  0.081054  1
  Bi  Bi5  1  0.250000  0.316564  0.588557  1
  Bi  Bi6  1  0.250000  0.819643  0.915289  1
  Bi  Bi7  1  0.750000  0.678896  0.412340  1
  Pt  Pt8  1  0.250000  0.211897  0.921338  1
  Pt  Pt9  1  0.250000  0.711827  0.590884  1
  Pt  Pt10  1  0.750000  0.800482  0.093748  1
  Pt  Pt11  1  0.750000  0.283667  0.394852  1
