# generated using pymatgen
data_Li3Nd4TmPt4
_symmetry_space_group_name_H-M   'P 1'
_cell_length_a   4.16459600
_cell_length_b   7.37628960
_cell_length_c   8.85773079
_cell_angle_alpha   91.01950330
_cell_angle_beta   90.00000000
_cell_angle_gamma   90.00000000
_symmetry_Int_Tables_number   1
_chemical_formula_structural   Li3Nd4TmPt4
_chemical_formula_sum   'Li3 Nd4 Tm1 Pt4'
_cell_volume   272.05991475
_cell_formula_units_Z   1
loop_
 _symmetry_equiv_pos_site_id
 _symmetry_equiv_pos_as_xyz
  1  'x, y, z'
loop_
 _atom_site_type_symbol
 _atom_site_label
 _atom_site_symmetry_multiplicity
 _atom_site_fract_x
 _atom_site_fract_y
 _atom_site_fract_z
 _atom_site_occupancy
  Li  Li0  1  0.250000  0.128280  0.053317  1
  Li  Li1  1  0.250000  0.646230  0.430283  1
  Li  Li2  1  0.750000  0.876693  0.949683  1
  Nd  Nd3  1  0.250000  0.018411  0.694600  1
  Nd  Nd4  1  0.250000  0.553428  0.835368  1
  Nd  Nd5  1  0.750000  0.950905  0.313144  1
  Nd  Nd6  1  0.750000  0.461018  0.174100  1
  Tm  Tm7  1  0.750000  0.370946  0.557687  1
  Pt  Pt8  1  0.250000  0.241310  0.380015  1
  Pt  Pt9  1  0.250000  0.755175  0.120847  1
  Pt  Pt10  1  0.750000  0.742420  0.620442  1
  Pt  Pt11  1  0.750000  0.255185  0.870514  1
