# generated using pymatgen
data_Nb4Fe13P12Ru7
_symmetry_space_group_name_H-M   'P 1'
_cell_length_a   3.68701300
_cell_length_b   10.16264656
_cell_length_c   11.79760785
_cell_angle_alpha   90.02611044
_cell_angle_beta   90.00000000
_cell_angle_gamma   90.00000000
_symmetry_Int_Tables_number   1
_chemical_formula_structural   Nb4Fe13P12Ru7
_chemical_formula_sum   'Nb4 Fe13 P12 Ru7'
_cell_volume   442.05407850
_cell_formula_units_Z   1
loop_
 _symmetry_equiv_pos_site_id
 _symmetry_equiv_pos_as_xyz
  1  'x, y, z'
loop_
 _atom_site_type_symbol
 _atom_site_label
 _atom_site_symmetry_multiplicity
 _atom_site_fract_x
 _atom_site_fract_y
 _atom_site_fract_z
 _atom_site_occupancy
  Nb  Nb0  1  0.250000  0.579463  0.712794  1
  Nb  Nb1  1  0.250000  0.920505  0.205162  1
  Nb  Nb2  1  0.750000  0.420547  0.286881  1
  Nb  Nb3  1  0.750000  0.078495  0.788379  1
  Fe  Fe4  1  0.750000  0.905590  0.020892  1
  Fe  Fe5  1  0.250000  0.230046  0.174672  1
  Fe  Fe6  1  0.250000  0.269238  0.675795  1
  Fe  Fe7  1  0.750000  0.772668  0.828365  1
  Fe  Fe8  1  0.750000  0.730118  0.322922  1
  Fe  Fe9  1  0.250000  0.881003  0.703480  1
  Fe  Fe10  1  0.250000  0.619037  0.202347  1
  Fe  Fe11  1  0.750000  0.116569  0.295581  1
  Fe  Fe12  1  0.750000  0.380771  0.798593  1
  Fe  Fe13  1  0.250000  0.465030  0.931196  1
  Fe  Fe14  1  0.250000  0.035680  0.430384  1
  Fe  Fe15  1  0.750000  0.539435  0.069185  1
  Fe  Fe16  1  0.750000  0.962159  0.569107  1
  P  P17  1  0.250000  0.428616  0.115615  1
  P  P18  1  0.250000  0.071489  0.615442  1
  P  P19  1  0.750000  0.573201  0.884579  1
  P  P20  1  0.750000  0.926665  0.383389  1
  P  P21  1  0.250000  0.267763  0.859236  1
  P  P22  1  0.250000  0.230652  0.356758  1
  P  P23  1  0.750000  0.737746  0.138820  1
  P  P24  1  0.750000  0.767995  0.644486  1
  P  P25  1  0.250000  0.602549  0.382836  1
  P  P26  1  0.250000  0.898171  0.885901  1
  P  P27  1  0.750000  0.396545  0.617154  1
  P  P28  1  0.750000  0.096894  0.113777  1
  Ru  Ru29  1  0.250000  0.712504  0.992311  1
  Ru  Ru30  1  0.250000  0.792978  0.488040  1
  Ru  Ru31  1  0.750000  0.293393  0.013169  1
  Ru  Ru32  1  0.750000  0.205573  0.511629  1
  Ru  Ru33  1  0.250000  0.404408  0.477492  1
  Ru  Ru34  1  0.250000  0.091713  0.980970  1
  Ru  Ru35  1  0.750000  0.594788  0.522662  1
