# generated using pymatgen
data_Dy2Lu2Ga20Ni11
_symmetry_space_group_name_H-M   'P 1'
_cell_length_a   4.05519336
_cell_length_b   10.51495148
_cell_length_c   12.92649518
_cell_angle_alpha   80.58393274
_cell_angle_beta   80.82333014
_cell_angle_gamma   78.68660850
_symmetry_Int_Tables_number   1
_chemical_formula_structural   Dy2Lu2Ga20Ni11
_chemical_formula_sum   'Dy2 Lu2 Ga20 Ni11'
_cell_volume   528.55226996
_cell_formula_units_Z   1
loop_
 _symmetry_equiv_pos_site_id
 _symmetry_equiv_pos_as_xyz
  1  'x, y, z'
loop_
 _atom_site_type_symbol
 _atom_site_label
 _atom_site_symmetry_multiplicity
 _atom_site_fract_x
 _atom_site_fract_y
 _atom_site_fract_z
 _atom_site_occupancy
  Dy  Dy0  1  0.773172  0.633980  0.821027  1
  Dy  Dy1  1  0.883116  0.903782  0.334435  1
  Lu  Lu2  1  0.121345  0.096505  0.665174  1
  Lu  Lu3  1  0.231431  0.366401  0.177869  1
  Ga  Ga4  1  0.068000  0.665910  0.202369  1
  Ga  Ga5  1  0.298650  0.902197  0.502925  1
  Ga  Ga6  1  0.608617  0.792853  0.002563  1
  Ga  Ga7  1  0.248409  0.797847  0.704678  1
  Ga  Ga8  1  0.890579  0.670556  0.548391  1
  Ga  Ga9  1  0.755801  0.203864  0.294207  1
  Ga  Ga10  1  0.633503  0.941765  0.800715  1
  Ga  Ga11  1  0.705532  0.098263  0.497601  1
  Ga  Ga12  1  0.397120  0.207692  0.997082  1
  Ga  Ga13  1  0.937815  0.333285  0.796580  1
  Ga  Ga14  1  0.462030  0.703738  0.377230  1
  Ga  Ga15  1  0.995452  0.921697  0.090261  1
  Ga  Ga16  1  0.802713  0.399619  0.004033  1
  Ga  Ga17  1  0.542928  0.294829  0.622122  1
  Ga  Ga18  1  0.011092  0.078517  0.908547  1
  Ga  Ga19  1  0.202152  0.600084  0.996237  1
  Ga  Ga20  1  0.114732  0.329331  0.450554  1
  Ga  Ga21  1  0.371578  0.059647  0.197672  1
  Ga  Ga22  1  0.615334  0.470131  0.306498  1
  Ga  Ga23  1  0.389671  0.529337  0.691568  1
  Ni  Ni24  1  0.139238  0.839383  0.895000  1
  Ni  Ni25  1  0.507004  0.182649  0.811059  1
  Ni  Ni26  1  0.865789  0.161719  0.104697  1
  Ni  Ni27  1  0.974914  0.436512  0.612896  1
  Ni  Ni28  1  0.502258  0.499694  0.499500  1
  Ni  Ni29  1  0.654198  0.578946  0.115046  1
  Ni  Ni30  1  0.029298  0.563296  0.386206  1
  Ni  Ni31  1  0.351210  0.420103  0.884246  1
  Ni  Ni32  1  0.251911  0.119398  0.386203  1
  Ni  Ni33  1  0.499709  0.816875  0.187444  1
  Ni  Ni34  1  0.752508  0.881521  0.613005  1
