# generated using pymatgen
data_Tb6NdSn23Os6
_symmetry_space_group_name_H-M   'P 1'
_cell_length_a   9.88404700
_cell_length_b   9.88404570
_cell_length_c   10.15398700
_cell_angle_alpha   90.00000000
_cell_angle_beta   90.00000000
_cell_angle_gamma   120.00000771
_symmetry_Int_Tables_number   1
_chemical_formula_structural   Tb6NdSn23Os6
_chemical_formula_sum   'Tb6 Nd1 Sn23 Os6'
_cell_volume   859.08620925
_cell_formula_units_Z   1
loop_
 _symmetry_equiv_pos_site_id
 _symmetry_equiv_pos_as_xyz
  1  'x, y, z'
loop_
 _atom_site_type_symbol
 _atom_site_label
 _atom_site_symmetry_multiplicity
 _atom_site_fract_x
 _atom_site_fract_y
 _atom_site_fract_z
 _atom_site_occupancy
  Tb  Tb0  1  0.484575  0.515425  0.301889  1
  Tb  Tb1  1  0.515425  0.484575  0.698111  1
  Tb  Tb2  1  0.484575  0.969148  0.301889  1
  Tb  Tb3  1  0.515425  0.030852  0.698111  1
  Tb  Tb4  1  0.030852  0.515425  0.301889  1
  Tb  Tb5  1  0.969148  0.484575  0.698111  1
  Nd  Nd6  1  0.000000  0.000000  0.000000  1
  Sn  Sn7  1  0.350023  0.000000  0.000000  1
  Sn  Sn8  1  0.649977  0.000000  0.000000  1
  Sn  Sn9  1  0.000000  0.350023  0.000000  1
  Sn  Sn10  1  0.000000  0.649977  0.000000  1
  Sn  Sn11  1  0.649977  0.649977  0.000000  1
  Sn  Sn12  1  0.350023  0.350023  0.000000  1
  Sn  Sn13  1  0.333333  0.666667  0.824257  1
  Sn  Sn14  1  0.666667  0.333333  0.175743  1
  Sn  Sn15  1  0.000000  0.000000  0.500000  1
  Sn  Sn16  1  0.780577  0.219423  0.462236  1
  Sn  Sn17  1  0.219423  0.780577  0.537764  1
  Sn  Sn18  1  0.780577  0.561155  0.462236  1
  Sn  Sn19  1  0.219423  0.438845  0.537764  1
  Sn  Sn20  1  0.438845  0.219423  0.462236  1
  Sn  Sn21  1  0.561155  0.780577  0.537764  1
  Sn  Sn22  1  0.333333  0.666667  0.127472  1
  Sn  Sn23  1  0.666667  0.333333  0.872528  1
  Sn  Sn24  1  0.117419  0.882581  0.275958  1
  Sn  Sn25  1  0.882581  0.117419  0.724042  1
  Sn  Sn26  1  0.117419  0.234840  0.275958  1
  Sn  Sn27  1  0.882581  0.765160  0.724042  1
  Sn  Sn28  1  0.765160  0.882581  0.275958  1
  Sn  Sn29  1  0.234840  0.117419  0.724042  1
  Os  Os30  1  0.829676  0.170324  0.202317  1
  Os  Os31  1  0.170324  0.829676  0.797683  1
  Os  Os32  1  0.829676  0.659352  0.202317  1
  Os  Os33  1  0.170324  0.340648  0.797683  1
  Os  Os34  1  0.340648  0.170324  0.202317  1
  Os  Os35  1  0.659352  0.829676  0.797683  1
