# generated using pymatgen
data_Ti6AlSi3(RhN)2
_symmetry_space_group_name_H-M   'P 1'
_cell_length_a   8.02987907
_cell_length_b   8.02779933
_cell_length_c   8.02779714
_cell_angle_alpha   60.00657604
_cell_angle_beta   59.99141752
_cell_angle_gamma   59.99142516
_symmetry_Int_Tables_number   1
_chemical_formula_structural   Ti6AlSi3(RhN)2
_chemical_formula_sum   'Ti12 Al2 Si6 Rh4 N4'
_cell_volume   365.89135835
_cell_formula_units_Z   2
loop_
 _symmetry_equiv_pos_site_id
 _symmetry_equiv_pos_as_xyz
  1  'x, y, z'
loop_
 _atom_site_type_symbol
 _atom_site_label
 _atom_site_symmetry_multiplicity
 _atom_site_fract_x
 _atom_site_fract_y
 _atom_site_fract_z
 _atom_site_occupancy
  Ti  Ti0  1  0.814725  0.814993  0.184535  1
  Ti  Ti1  1  0.064808  0.435109  0.435274  1
  Ti  Ti2  1  0.434798  0.062243  0.068161  1
  Ti  Ti3  1  0.064253  0.065465  0.435007  1
  Ti  Ti4  1  0.061909  0.434379  0.068882  1
  Ti  Ti5  1  0.435275  0.065465  0.435007  1
  Ti  Ti6  1  0.185747  0.814993  0.184535  1
  Ti  Ti7  1  0.185192  0.814726  0.814891  1
  Ti  Ti8  1  0.815202  0.181839  0.187757  1
  Ti  Ti9  1  0.815171  0.181118  0.815621  1
  Ti  Ti10  1  0.434829  0.434379  0.068882  1
  Ti  Ti11  1  0.188091  0.181118  0.815621  1
  Al  Al12  1  0.416235  0.416149  0.751379  1
  Al  Al13  1  0.833765  0.498621  0.833851  1
  Si  Si14  1  0.411771  0.760472  0.415983  1
  Si  Si15  1  0.838229  0.834017  0.489528  1
  Si  Si16  1  0.493252  0.832821  0.836986  1
  Si  Si17  1  0.836943  0.832821  0.836986  1
  Si  Si18  1  0.756748  0.413014  0.417179  1
  Si  Si19  1  0.413057  0.413014  0.417179  1
  Rh  Rh20  1  0.629108  0.119171  0.622613  1
  Rh  Rh21  1  0.620892  0.627387  0.130829  1
  Rh  Rh22  1  0.125000  0.632581  0.617419  1
  Rh  Rh23  1  0.625000  0.632581  0.617419  1
  N  N24  1  0.124859  0.625697  0.124586  1
  N  N25  1  0.125141  0.125414  0.624303  1
  N  N26  1  0.625000  0.125207  0.124793  1
  N  N27  1  0.125000  0.125207  0.124793  1
