# generated using pymatgen
data_NbPd7Pt
_symmetry_space_group_name_H-M   'P 1'
_cell_length_a   6.31108952
_cell_length_b   6.31108997
_cell_length_c   6.23934527
_cell_angle_alpha   95.75111604
_cell_angle_beta   95.75111669
_cell_angle_gamma   143.30838900
_symmetry_Int_Tables_number   1
_chemical_formula_structural   NbPd7Pt
_chemical_formula_sum   'Nb1 Pd7 Pt1'
_cell_volume   140.76161853
_cell_formula_units_Z   1
loop_
 _symmetry_equiv_pos_site_id
 _symmetry_equiv_pos_as_xyz
  1  'x, y, z'
loop_
 _atom_site_type_symbol
 _atom_site_label
 _atom_site_symmetry_multiplicity
 _atom_site_fract_x
 _atom_site_fract_y
 _atom_site_fract_z
 _atom_site_occupancy
  Nb  Nb0  1  0.001911  0.998089  0.000000  1
  Pd  Pd1  1  0.336257  0.663745  0.000000  1
  Pd  Pd2  1  0.663674  0.664813  0.328485  1
  Pd  Pd3  1  0.329845  0.999820  0.329664  1
  Pd  Pd4  1  0.999779  0.328920  0.328698  1
  Pd  Pd5  1  0.671080  0.000221  0.671302  1
  Pd  Pd6  1  0.000180  0.670155  0.670336  1
  Pd  Pd7  1  0.335187  0.336326  0.671514  1
  Pt  Pt8  1  0.662090  0.337912  0.000000  1
