# generated using pymatgen
data_SmY3C2Br3
_symmetry_space_group_name_H-M   'P 1'
_cell_length_a   3.72213200
_cell_length_b   10.80199400
_cell_length_c   20.75292800
_cell_angle_alpha   90.00000000
_cell_angle_beta   90.00000000
_cell_angle_gamma   90.00000000
_symmetry_Int_Tables_number   1
_chemical_formula_structural   SmY3C2Br3
_chemical_formula_sum   'Sm4 Y12 C8 Br12'
_cell_volume   834.40151075
_cell_formula_units_Z   4
loop_
 _symmetry_equiv_pos_site_id
 _symmetry_equiv_pos_as_xyz
  1  'x, y, z'
loop_
 _atom_site_type_symbol
 _atom_site_label
 _atom_site_symmetry_multiplicity
 _atom_site_fract_x
 _atom_site_fract_y
 _atom_site_fract_z
 _atom_site_occupancy
  Sm  Sm0  1  0.250000  0.864765  0.579312  1
  Sm  Sm1  1  0.750000  0.135235  0.420688  1
  Sm  Sm2  1  0.750000  0.635235  0.079312  1
  Sm  Sm3  1  0.250000  0.364765  0.920688  1
  Y  Y4  1  0.250000  0.864729  0.744198  1
  Y  Y5  1  0.750000  0.135271  0.255802  1
  Y  Y6  1  0.750000  0.635271  0.244198  1
  Y  Y7  1  0.250000  0.364729  0.755802  1
  Y  Y8  1  0.250000  0.869377  0.169910  1
  Y  Y9  1  0.750000  0.130623  0.830090  1
  Y  Y10  1  0.750000  0.630623  0.669910  1
  Y  Y11  1  0.250000  0.369377  0.330090  1
  Y  Y12  1  0.250000  0.901215  0.327584  1
  Y  Y13  1  0.750000  0.098785  0.672416  1
  Y  Y14  1  0.750000  0.598785  0.827584  1
  Y  Y15  1  0.250000  0.401215  0.172416  1
  C  C16  1  0.250000  0.613806  0.750411  1
  C  C17  1  0.750000  0.386194  0.249589  1
  C  C18  1  0.750000  0.886194  0.250411  1
  C  C19  1  0.250000  0.113806  0.749589  1
  C  C20  1  0.250000  0.634229  0.157591  1
  C  C21  1  0.750000  0.365771  0.842409  1
  C  C22  1  0.750000  0.865771  0.657591  1
  C  C23  1  0.250000  0.134229  0.342409  1
  Br  Br24  1  0.250000  0.605567  0.558099  1
  Br  Br25  1  0.750000  0.394433  0.441901  1
  Br  Br26  1  0.750000  0.894433  0.058099  1
  Br  Br27  1  0.250000  0.105567  0.941901  1
  Br  Br28  1  0.250000  0.631842  0.950128  1
  Br  Br29  1  0.750000  0.368158  0.049872  1
  Br  Br30  1  0.750000  0.868158  0.450128  1
  Br  Br31  1  0.250000  0.131842  0.549872  1
  Br  Br32  1  0.250000  0.637178  0.354928  1
  Br  Br33  1  0.750000  0.362822  0.645072  1
  Br  Br34  1  0.750000  0.862822  0.854928  1
  Br  Br35  1  0.250000  0.137178  0.145072  1
