# generated using pymatgen
data_Y12N11
_symmetry_space_group_name_H-M   'P 1'
_cell_length_a   9.21962430
_cell_length_b   9.21962473
_cell_length_c   6.03013213
_cell_angle_alpha   89.97499623
_cell_angle_beta   89.97499647
_cell_angle_gamma   44.42577649
_symmetry_Int_Tables_number   1
_chemical_formula_structural   Y12N11
_chemical_formula_sum   'Y12 N11'
_cell_volume   358.79121065
_cell_formula_units_Z   1
loop_
 _symmetry_equiv_pos_site_id
 _symmetry_equiv_pos_as_xyz
  1  'x, y, z'
loop_
 _atom_site_type_symbol
 _atom_site_label
 _atom_site_symmetry_multiplicity
 _atom_site_fract_x
 _atom_site_fract_y
 _atom_site_fract_z
 _atom_site_occupancy
  Y  Y0  1  0.500000  0.000000  0.500000  1
  Y  Y1  1  0.172466  0.655331  0.829032  1
  Y  Y2  1  0.827534  0.344669  0.170968  1
  Y  Y3  1  0.344669  0.827534  0.170968  1
  Y  Y4  1  0.000000  0.500000  0.500000  1
  Y  Y5  1  0.655331  0.172466  0.829032  1
  Y  Y6  1  0.914080  0.914080  0.346828  1
  Y  Y7  1  0.583164  0.583164  0.671073  1
  Y  Y8  1  0.248333  0.248333  0.000556  1
  Y  Y9  1  0.416836  0.416836  0.328927  1
  Y  Y10  1  0.085920  0.085920  0.653172  1
  Y  Y11  1  0.751667  0.751667  0.999444  1
  N  N12  1  0.752095  0.247905  0.500000  1
  N  N13  1  0.415619  0.916990  0.833763  1
  N  N14  1  0.083010  0.584381  0.166237  1
  N  N15  1  0.584381  0.083010  0.166237  1
  N  N16  1  0.247905  0.752095  0.500000  1
  N  N17  1  0.916990  0.415619  0.833763  1
  N  N18  1  0.834247  0.834247  0.664304  1
  N  N19  1  0.500000  0.500000  0.000000  1
  N  N20  1  0.165753  0.165753  0.335696  1
  N  N21  1  0.665483  0.665483  0.329887  1
  N  N22  1  0.334517  0.334517  0.670113  1
