# generated using pymatgen
data_La7NdSbPd24
_symmetry_space_group_name_H-M   'P 1'
_cell_length_a   8.59740390
_cell_length_b   8.59740390
_cell_length_c   8.59740390
_cell_angle_alpha   90.06655580
_cell_angle_beta   90.06655580
_cell_angle_gamma   89.93344420
_symmetry_Int_Tables_number   1
_chemical_formula_structural   La7NdSbPd24
_chemical_formula_sum   'La7 Nd1 Sb1 Pd24'
_cell_volume   635.47886564
_cell_formula_units_Z   1
loop_
 _symmetry_equiv_pos_site_id
 _symmetry_equiv_pos_as_xyz
  1  'x, y, z'
loop_
 _atom_site_type_symbol
 _atom_site_label
 _atom_site_symmetry_multiplicity
 _atom_site_fract_x
 _atom_site_fract_y
 _atom_site_fract_z
 _atom_site_occupancy
  La  La0  1  0.748143  0.251779  0.748221  1
  La  La1  1  0.251779  0.748143  0.748221  1
  La  La2  1  0.748156  0.748156  0.747979  1
  La  La3  1  0.748156  0.252021  0.251844  1
  La  La4  1  0.251858  0.251858  0.748142  1
  La  La5  1  0.252021  0.748156  0.251844  1
  La  La6  1  0.251779  0.251779  0.251857  1
  Nd  Nd7  1  0.748274  0.748274  0.251726  1
  Sb  Sb8  1  0.999931  0.999931  0.000069  1
  Pd  Pd9  1  0.999514  0.999514  0.314262  1
  Pd  Pd10  1  0.732485  0.999605  0.499714  1
  Pd  Pd11  1  0.732485  0.500286  0.000395  1
  Pd  Pd12  1  0.500030  0.000037  0.732528  1
  Pd  Pd13  1  0.999605  0.732485  0.499714  1
  Pd  Pd14  1  0.500286  0.999605  0.267515  1
  Pd  Pd15  1  0.000037  0.267472  0.499970  1
  Pd  Pd16  1  0.500286  0.732485  0.000395  1
  Pd  Pd17  1  0.255569  0.499994  0.500006  1
  Pd  Pd18  1  0.499994  0.499994  0.744431  1
  Pd  Pd19  1  0.500399  0.500399  0.255564  1
  Pd  Pd20  1  0.499994  0.255569  0.500006  1
  Pd  Pd21  1  0.500399  0.744436  0.499601  1
  Pd  Pd22  1  0.744436  0.500399  0.499601  1
  Pd  Pd23  1  0.314441  0.000036  0.999964  1
  Pd  Pd24  1  0.000036  0.000036  0.685559  1
  Pd  Pd25  1  0.999605  0.500286  0.267515  1
  Pd  Pd26  1  0.000036  0.314441  0.999964  1
  Pd  Pd27  1  0.999514  0.685738  0.000486  1
  Pd  Pd28  1  0.685738  0.999514  0.000486  1
  Pd  Pd29  1  0.267472  0.500030  0.999963  1
  Pd  Pd30  1  0.267472  0.000037  0.499970  1
  Pd  Pd31  1  0.000037  0.500030  0.732528  1
  Pd  Pd32  1  0.500030  0.267472  0.999963  1
