# generated using pymatgen
data_Tb3Tm5Cd2NiRu
_symmetry_space_group_name_H-M   'P 1'
_cell_length_a   9.50091517
_cell_length_b   9.50091350
_cell_length_c   9.56922300
_cell_angle_alpha   59.76186709
_cell_angle_beta   59.76187293
_cell_angle_gamma   59.61746435
_symmetry_Int_Tables_number   1
_chemical_formula_structural   Tb3Tm5Cd2NiRu
_chemical_formula_sum   'Tb6 Tm10 Cd4 Ni2 Ru2'
_cell_volume   606.81688240
_cell_formula_units_Z   2
loop_
 _symmetry_equiv_pos_site_id
 _symmetry_equiv_pos_as_xyz
  1  'x, y, z'
loop_
 _atom_site_type_symbol
 _atom_site_label
 _atom_site_symmetry_multiplicity
 _atom_site_fract_x
 _atom_site_fract_y
 _atom_site_fract_z
 _atom_site_occupancy
  Tb  Tb0  1  0.939726  0.557358  0.564344  1
  Tb  Tb1  1  0.557358  0.939726  0.938571  1
  Tb  Tb2  1  0.557358  0.939726  0.564344  1
  Tb  Tb3  1  0.939726  0.557358  0.938571  1
  Tb  Tb4  1  0.563594  0.563594  0.936406  1
  Tb  Tb5  1  0.941592  0.941592  0.558408  1
  Tm  Tm6  1  0.349000  0.349000  0.342490  1
  Tm  Tm7  1  0.349000  0.349000  0.959511  1
  Tm  Tm8  1  0.351238  0.957555  0.345604  1
  Tm  Tm9  1  0.957555  0.351238  0.345604  1
  Tm  Tm10  1  0.812813  0.184649  0.187987  1
  Tm  Tm11  1  0.184649  0.812813  0.814552  1
  Tm  Tm12  1  0.184649  0.812813  0.187987  1
  Tm  Tm13  1  0.812813  0.184649  0.814552  1
  Tm  Tm14  1  0.186355  0.186355  0.813645  1
  Tm  Tm15  1  0.812281  0.812281  0.187719  1
  Cd  Cd16  1  0.578923  0.578923  0.581875  1
  Cd  Cd17  1  0.578923  0.578923  0.260279  1
  Cd  Cd18  1  0.579454  0.257982  0.581281  1
  Cd  Cd19  1  0.257982  0.579454  0.581281  1
  Ni  Ni20  1  0.142029  0.576054  0.140959  1
  Ni  Ni21  1  0.576054  0.142029  0.140959  1
  Ru  Ru22  1  0.143464  0.143464  0.139677  1
  Ru  Ru23  1  0.143464  0.143464  0.573393  1
