# generated using pymatgen
data_Tm8V5Ge16Mo7
_symmetry_space_group_name_H-M   'P 1'
_cell_length_a   6.80483000
_cell_length_b   6.98323476
_cell_length_c   13.10513747
_cell_angle_alpha   89.99060829
_cell_angle_beta   90.01445927
_cell_angle_gamma   90.06003174
_symmetry_Int_Tables_number   1
_chemical_formula_structural   Tm8V5Ge16Mo7
_chemical_formula_sum   'Tm8 V5 Ge16 Mo7'
_cell_volume   622.75216401
_cell_formula_units_Z   1
loop_
 _symmetry_equiv_pos_site_id
 _symmetry_equiv_pos_as_xyz
  1  'x, y, z'
loop_
 _atom_site_type_symbol
 _atom_site_label
 _atom_site_symmetry_multiplicity
 _atom_site_fract_x
 _atom_site_fract_y
 _atom_site_fract_z
 _atom_site_occupancy
  Tm  Tm0  1  0.494216  0.326191  0.093863  1
  Tm  Tm1  1  0.994824  0.173098  0.407480  1
  Tm  Tm2  1  0.506907  0.673962  0.592622  1
  Tm  Tm3  1  0.005912  0.826354  0.906913  1
  Tm  Tm4  1  0.509415  0.669766  0.907218  1
  Tm  Tm5  1  0.009425  0.830557  0.592338  1
  Tm  Tm6  1  0.491944  0.327671  0.407697  1
  Tm  Tm7  1  0.992027  0.170559  0.093694  1
  V  V8  1  0.835853  0.338245  0.627298  1
  V  V9  1  0.334464  0.160696  0.872702  1
  V  V10  1  0.164082  0.663356  0.126417  1
  V  V11  1  0.667499  0.838280  0.372977  1
  V  V12  1  0.163353  0.661708  0.373966  1
  Ge  Ge13  1  0.675206  0.047702  0.543824  1
  Ge  Ge14  1  0.176684  0.452189  0.956003  1
  Ge  Ge15  1  0.323915  0.952567  0.042994  1
  Ge  Ge16  1  0.825809  0.548419  0.456217  1
  Ge  Ge17  1  0.329525  0.948993  0.453255  1
  Ge  Ge18  1  0.831455  0.545335  0.045665  1
  Ge  Ge19  1  0.667832  0.045451  0.954214  1
  Ge  Ge20  1  0.169530  0.457886  0.543612  1
  Ge  Ge21  1  0.531722  0.368669  0.749227  1
  Ge  Ge22  1  0.032318  0.130717  0.750469  1
  Ge  Ge23  1  0.464927  0.631010  0.251982  1
  Ge  Ge24  1  0.968946  0.868120  0.251948  1
  Ge  Ge25  1  0.807504  0.639443  0.747441  1
  Ge  Ge26  1  0.307867  0.860491  0.751770  1
  Ge  Ge27  1  0.192997  0.364040  0.249856  1
  Ge  Ge28  1  0.692763  0.138756  0.252396  1
  Mo  Mo29  1  0.665960  0.839040  0.125298  1
  Mo  Mo30  1  0.833494  0.340391  0.875561  1
  Mo  Mo31  1  0.331931  0.159972  0.623773  1
  Mo  Mo32  1  0.664186  0.007970  0.749746  1
  Mo  Mo33  1  0.163987  0.492210  0.749516  1
  Mo  Mo34  1  0.335374  0.990928  0.249415  1
  Mo  Mo35  1  0.836152  0.509255  0.250630  1
