# generated using pymatgen
data_Y6Ho7Th3Cd3HgIr4
_symmetry_space_group_name_H-M   'P 1'
_cell_length_a   9.72891886
_cell_length_b   9.71431883
_cell_length_c   9.71431900
_cell_angle_alpha   59.99999601
_cell_angle_beta   60.04962584
_cell_angle_gamma   60.04962873
_symmetry_Int_Tables_number   1
_chemical_formula_structural   Y6Ho7Th3Cd3HgIr4
_chemical_formula_sum   'Y6 Ho7 Th3 Cd3 Hg1 Ir4'
_cell_volume   649.68022630
_cell_formula_units_Z   1
loop_
 _symmetry_equiv_pos_site_id
 _symmetry_equiv_pos_as_xyz
  1  'x, y, z'
loop_
 _atom_site_type_symbol
 _atom_site_label
 _atom_site_symmetry_multiplicity
 _atom_site_fract_x
 _atom_site_fract_y
 _atom_site_fract_z
 _atom_site_occupancy
  Y  Y0  1  0.935787  0.562651  0.562651  1
  Y  Y1  1  0.564266  0.935502  0.935502  1
  Y  Y2  1  0.563996  0.934840  0.564153  1
  Y  Y3  1  0.936762  0.562959  0.936946  1
  Y  Y4  1  0.563996  0.564153  0.934840  1
  Y  Y5  1  0.936762  0.936946  0.562959  1
  Ho  Ho6  1  0.948100  0.350714  0.350714  1
  Ho  Ho7  1  0.811916  0.188982  0.188982  1
  Ho  Ho8  1  0.187259  0.812650  0.812650  1
  Ho  Ho9  1  0.187414  0.812829  0.186772  1
  Ho  Ho10  1  0.811500  0.189159  0.809658  1
  Ho  Ho11  1  0.187414  0.186772  0.812829  1
  Ho  Ho12  1  0.811500  0.809658  0.189159  1
  Th  Th13  1  0.347387  0.350072  0.350072  1
  Th  Th14  1  0.347953  0.350434  0.951422  1
  Th  Th15  1  0.347953  0.951422  0.350434  1
  Cd  Cd16  1  0.584992  0.580678  0.253027  1
  Cd  Cd17  1  0.584992  0.253027  0.580678  1
  Cd  Cd18  1  0.250350  0.582978  0.582978  1
  Hg  Hg19  1  0.589230  0.584047  0.584047  1
  Ir  Ir20  1  0.143056  0.141994  0.141994  1
  Ir  Ir21  1  0.143081  0.141883  0.572812  1
  Ir  Ir22  1  0.143081  0.572812  0.141883  1
  Ir  Ir23  1  0.571258  0.142837  0.142837  1
