# generated using pymatgen
data_Sm3AlSiRh2
_symmetry_space_group_name_H-M   'P 1'
_cell_length_a   5.68141000
_cell_length_b   8.08285900
_cell_length_c   13.31717600
_cell_angle_alpha   90.00000000
_cell_angle_beta   90.00000000
_cell_angle_gamma   90.00000000
_symmetry_Int_Tables_number   1
_chemical_formula_structural   Sm3AlSiRh2
_chemical_formula_sum   'Sm12 Al4 Si4 Rh8'
_cell_volume   611.55183504
_cell_formula_units_Z   4
loop_
 _symmetry_equiv_pos_site_id
 _symmetry_equiv_pos_as_xyz
  1  'x, y, z'
loop_
 _atom_site_type_symbol
 _atom_site_label
 _atom_site_symmetry_multiplicity
 _atom_site_fract_x
 _atom_site_fract_y
 _atom_site_fract_z
 _atom_site_occupancy
  Sm  Sm0  1  0.638510  0.251407  0.250000  1
  Sm  Sm1  1  0.361490  0.748593  0.750000  1
  Sm  Sm2  1  0.361490  0.751407  0.250000  1
  Sm  Sm3  1  0.638510  0.248593  0.750000  1
  Sm  Sm4  1  0.145161  0.396283  0.102428  1
  Sm  Sm5  1  0.854839  0.603717  0.897572  1
  Sm  Sm6  1  0.854839  0.603717  0.602428  1
  Sm  Sm7  1  0.854839  0.896283  0.397572  1
  Sm  Sm8  1  0.145161  0.396283  0.397572  1
  Sm  Sm9  1  0.145161  0.103717  0.602428  1
  Sm  Sm10  1  0.145161  0.103717  0.897572  1
  Sm  Sm11  1  0.854839  0.896283  0.102428  1
  Al  Al12  1  0.622163  0.250000  0.000000  1
  Al  Al13  1  0.377837  0.750000  0.000000  1
  Al  Al14  1  0.377837  0.750000  0.500000  1
  Al  Al15  1  0.622163  0.250000  0.500000  1
  Si  Si16  1  0.142754  0.107620  0.250000  1
  Si  Si17  1  0.857246  0.892380  0.750000  1
  Si  Si18  1  0.857246  0.607620  0.250000  1
  Si  Si19  1  0.142754  0.392380  0.750000  1
  Rh  Rh20  1  0.363317  0.028326  0.094361  1
  Rh  Rh21  1  0.636683  0.971674  0.905639  1
  Rh  Rh22  1  0.636683  0.971674  0.594361  1
  Rh  Rh23  1  0.636683  0.528326  0.405639  1
  Rh  Rh24  1  0.363317  0.028326  0.405639  1
  Rh  Rh25  1  0.363317  0.471674  0.594361  1
  Rh  Rh26  1  0.363317  0.471674  0.905639  1
  Rh  Rh27  1  0.636683  0.528326  0.094361  1
