# generated using pymatgen
data_SrNd(NiIr)5
_symmetry_space_group_name_H-M   'P 1'
_cell_length_a   4.03651400
_cell_length_b   5.29652600
_cell_length_c   9.00425700
_cell_angle_alpha   90.00000000
_cell_angle_beta   90.00000000
_cell_angle_gamma   90.00000000
_symmetry_Int_Tables_number   1
_chemical_formula_structural   SrNd(NiIr)5
_chemical_formula_sum   'Sr1 Nd1 Ni5 Ir5'
_cell_volume   192.50652469
_cell_formula_units_Z   1
loop_
 _symmetry_equiv_pos_site_id
 _symmetry_equiv_pos_as_xyz
  1  'x, y, z'
loop_
 _atom_site_type_symbol
 _atom_site_label
 _atom_site_symmetry_multiplicity
 _atom_site_fract_x
 _atom_site_fract_y
 _atom_site_fract_z
 _atom_site_occupancy
  Sr  Sr0  1  0.000000  0.500000  0.000000  1
  Nd  Nd1  1  0.000000  0.000000  0.500000  1
  Ni  Ni2  1  0.000000  0.500000  0.345235  1
  Ni  Ni3  1  0.000000  0.000000  0.829044  1
  Ni  Ni4  1  0.000000  0.000000  0.170956  1
  Ni  Ni5  1  0.000000  0.500000  0.654765  1
  Ni  Ni6  1  0.500000  0.500000  0.500000  1
  Ir  Ir7  1  0.500000  0.000000  0.000000  1
  Ir  Ir8  1  0.500000  0.746971  0.255807  1
  Ir  Ir9  1  0.500000  0.253029  0.744193  1
  Ir  Ir10  1  0.500000  0.253029  0.255807  1
  Ir  Ir11  1  0.500000  0.746971  0.744193  1
