# generated using pymatgen
data_AcEu(ZnGe)2
_symmetry_space_group_name_H-M   'P 1'
_cell_length_a   4.35116100
_cell_length_b   4.35116078
_cell_length_c   17.88111700
_cell_angle_alpha   90.00000000
_cell_angle_beta   90.00000000
_cell_angle_gamma   119.99999405
_symmetry_Int_Tables_number   1
_chemical_formula_structural   AcEu(ZnGe)2
_chemical_formula_sum   'Ac2 Eu2 Zn4 Ge4'
_cell_volume   293.18084170
_cell_formula_units_Z   2
loop_
 _symmetry_equiv_pos_site_id
 _symmetry_equiv_pos_as_xyz
  1  'x, y, z'
loop_
 _atom_site_type_symbol
 _atom_site_label
 _atom_site_symmetry_multiplicity
 _atom_site_fract_x
 _atom_site_fract_y
 _atom_site_fract_z
 _atom_site_occupancy
  Ac  Ac0  1  0.000000  0.000000  0.250000  1
  Ac  Ac1  1  0.000000  0.000000  0.750000  1
  Eu  Eu2  1  0.000000  0.000000  0.500000  1
  Eu  Eu3  1  0.000000  0.000000  0.000000  1
  Zn  Zn4  1  0.333333  0.666667  0.376176  1
  Zn  Zn5  1  0.666667  0.333333  0.623824  1
  Zn  Zn6  1  0.666667  0.333333  0.876176  1
  Zn  Zn7  1  0.333333  0.666667  0.123824  1
  Ge  Ge8  1  0.666667  0.333333  0.380323  1
  Ge  Ge9  1  0.333333  0.666667  0.619677  1
  Ge  Ge10  1  0.333333  0.666667  0.880323  1
  Ge  Ge11  1  0.666667  0.333333  0.119677  1
