# generated using pymatgen
data_Yb3Sm(Ir2O7)2
_symmetry_space_group_name_H-M   'P 1'
_cell_length_a   7.23382273
_cell_length_b   7.23382432
_cell_length_c   7.21479800
_cell_angle_alpha   59.91273911
_cell_angle_beta   59.91273178
_cell_angle_gamma   60.00000544
_symmetry_Int_Tables_number   1
_chemical_formula_structural   Yb3Sm(Ir2O7)2
_chemical_formula_sum   'Yb3 Sm1 Ir4 O14'
_cell_volume   266.60661344
_cell_formula_units_Z   1
loop_
 _symmetry_equiv_pos_site_id
 _symmetry_equiv_pos_as_xyz
  1  'x, y, z'
loop_
 _atom_site_type_symbol
 _atom_site_label
 _atom_site_symmetry_multiplicity
 _atom_site_fract_x
 _atom_site_fract_y
 _atom_site_fract_z
 _atom_site_occupancy
  Yb  Yb0  1  0.625000  0.125000  0.125000  1
  Yb  Yb1  1  0.125000  0.625000  0.125000  1
  Yb  Yb2  1  0.125000  0.125000  0.125000  1
  Sm  Sm3  1  0.125000  0.125000  0.625000  1
  Ir  Ir4  1  0.125000  0.625000  0.625000  1
  Ir  Ir5  1  0.625000  0.125000  0.625000  1
  Ir  Ir6  1  0.625000  0.625000  0.125000  1
  Ir  Ir7  1  0.625000  0.625000  0.625000  1
  O  O8  1  0.703042  0.703042  0.296854  1
  O  O9  1  0.296368  0.296368  0.701960  1
  O  O10  1  0.705302  0.296368  0.701960  1
  O  O11  1  0.297062  0.703042  0.296854  1
  O  O12  1  0.296368  0.705302  0.701960  1
  O  O13  1  0.703042  0.297062  0.296854  1
  O  O14  1  0.546958  0.546958  0.953146  1
  O  O15  1  0.953632  0.953632  0.548040  1
  O  O16  1  0.544698  0.953632  0.548040  1
  O  O17  1  0.952938  0.546958  0.953146  1
  O  O18  1  0.953632  0.544698  0.548040  1
  O  O19  1  0.546958  0.952938  0.953146  1
  O  O20  1  0.250546  0.250546  0.248360  1
  O  O21  1  0.999454  0.999454  0.001640  1
