# generated using pymatgen
data_Nd11Hf(GePd)12
_symmetry_space_group_name_H-M   'P 1'
_cell_length_a   4.49633700
_cell_length_b   7.66430117
_cell_length_c   21.74999867
_cell_angle_alpha   89.81525501
_cell_angle_beta   90.00000000
_cell_angle_gamma   90.00000000
_symmetry_Int_Tables_number   1
_chemical_formula_structural   Nd11Hf(GePd)12
_chemical_formula_sum   'Nd11 Hf1 Ge12 Pd12'
_cell_volume   749.52891830
_cell_formula_units_Z   1
loop_
 _symmetry_equiv_pos_site_id
 _symmetry_equiv_pos_as_xyz
  1  'x, y, z'
loop_
 _atom_site_type_symbol
 _atom_site_label
 _atom_site_symmetry_multiplicity
 _atom_site_fract_x
 _atom_site_fract_y
 _atom_site_fract_z
 _atom_site_occupancy
  Nd  Nd0  1  0.250000  0.713537  0.335449  1
  Nd  Nd1  1  0.750000  0.291147  0.665612  1
  Nd  Nd2  1  0.750000  0.207357  0.167732  1
  Nd  Nd3  1  0.250000  0.792169  0.832292  1
  Nd  Nd4  1  0.250000  0.790731  0.167513  1
  Nd  Nd5  1  0.750000  0.209692  0.832803  1
  Nd  Nd6  1  0.750000  0.291359  0.335945  1
  Nd  Nd7  1  0.250000  0.712046  0.663996  1
  Nd  Nd8  1  0.250000  0.713002  0.001934  1
  Nd  Nd9  1  0.750000  0.286691  0.998380  1
  Nd  Nd10  1  0.750000  0.211776  0.498908  1
  Hf  Hf11  1  0.250000  0.767601  0.502591  1
  Ge  Ge12  1  0.250000  0.088746  0.071670  1
  Ge  Ge13  1  0.750000  0.911139  0.927868  1
  Ge  Ge14  1  0.750000  0.596372  0.432480  1
  Ge  Ge15  1  0.250000  0.414836  0.572478  1
  Ge  Ge16  1  0.250000  0.085237  0.270439  1
  Ge  Ge17  1  0.750000  0.914817  0.729026  1
  Ge  Ge18  1  0.750000  0.584274  0.232345  1
  Ge  Ge19  1  0.250000  0.415859  0.767507  1
  Ge  Ge20  1  0.250000  0.083915  0.402404  1
  Ge  Ge21  1  0.750000  0.910856  0.597617  1
  Ge  Ge22  1  0.750000  0.585711  0.103977  1
  Ge  Ge23  1  0.250000  0.413731  0.896186  1
  Pd  Pd24  1  0.250000  0.418063  0.239199  1
  Pd  Pd25  1  0.750000  0.582237  0.761547  1
  Pd  Pd26  1  0.750000  0.917501  0.264812  1
  Pd  Pd27  1  0.250000  0.082247  0.735249  1
  Pd  Pd28  1  0.250000  0.425138  0.438996  1
  Pd  Pd29  1  0.750000  0.596557  0.555367  1
  Pd  Pd30  1  0.750000  0.916400  0.063974  1
  Pd  Pd31  1  0.250000  0.082415  0.936861  1
  Pd  Pd32  1  0.250000  0.420112  0.095133  1
  Pd  Pd33  1  0.750000  0.579837  0.905237  1
  Pd  Pd34  1  0.750000  0.920612  0.411583  1
  Pd  Pd35  1  0.250000  0.066281  0.584893  1
