# generated using pymatgen
data_Hf4Si5GeIr7
_symmetry_space_group_name_H-M   'P 1'
_cell_length_a   7.01426110
_cell_length_b   7.01426084
_cell_length_c   7.01426213
_cell_angle_alpha   109.79811563
_cell_angle_beta   109.79810974
_cell_angle_gamma   108.81938429
_symmetry_Int_Tables_number   1
_chemical_formula_structural   Hf4Si5GeIr7
_chemical_formula_sum   'Hf4 Si5 Ge1 Ir7'
_cell_volume   265.63292437
_cell_formula_units_Z   1
loop_
 _symmetry_equiv_pos_site_id
 _symmetry_equiv_pos_as_xyz
  1  'x, y, z'
loop_
 _atom_site_type_symbol
 _atom_site_label
 _atom_site_symmetry_multiplicity
 _atom_site_fract_x
 _atom_site_fract_y
 _atom_site_fract_z
 _atom_site_occupancy
  Hf  Hf0  1  0.482423  0.482423  0.481420  1
  Hf  Hf1  1  0.001004  0.001004  0.518580  1
  Hf  Hf2  1  0.001004  0.482423  0.000000  1
  Hf  Hf3  1  0.482423  0.001004  0.000000  1
  Si  Si4  1  0.996021  0.314107  0.318086  1
  Si  Si5  1  0.314107  0.996021  0.318086  1
  Si  Si6  1  0.328949  0.328949  0.000000  1
  Si  Si7  1  0.996021  0.677935  0.681914  1
  Si  Si8  1  0.677935  0.996021  0.681914  1
  Ge  Ge9  1  0.697787  0.697787  0.000000  1
  Ir  Ir10  1  0.499324  0.751801  0.252477  1
  Ir  Ir11  1  0.246848  0.499324  0.747523  1
  Ir  Ir12  1  0.749874  0.249874  0.500000  1
  Ir  Ir13  1  0.751801  0.499324  0.252477  1
  Ir  Ir14  1  0.499324  0.246848  0.747523  1
  Ir  Ir15  1  0.249874  0.749874  0.500000  1
  Ir  Ir16  1  0.025276  0.025276  0.000000  1
