# generated using pymatgen
data_Yb2Pr8Si5Pb
_symmetry_space_group_name_H-M   'P 1'
_cell_length_a   7.84749172
_cell_length_b   7.84749135
_cell_length_c   9.16113191
_cell_angle_alpha   115.35995884
_cell_angle_beta   115.35996093
_cell_angle_gamma   89.99999959
_symmetry_Int_Tables_number   1
_chemical_formula_structural   Yb2Pr8Si5Pb
_chemical_formula_sum   'Yb2 Pr8 Si5 Pb1'
_cell_volume   448.90149565
_cell_formula_units_Z   1
loop_
 _symmetry_equiv_pos_site_id
 _symmetry_equiv_pos_as_xyz
  1  'x, y, z'
loop_
 _atom_site_type_symbol
 _atom_site_label
 _atom_site_symmetry_multiplicity
 _atom_site_fract_x
 _atom_site_fract_y
 _atom_site_fract_z
 _atom_site_occupancy
  Yb  Yb0  1  0.508770  0.508770  0.017540  1
  Yb  Yb1  1  0.991230  0.991230  0.982460  1
  Pr  Pr2  1  0.970242  0.827871  0.280957  1
  Pr  Pr3  1  0.310715  0.453085  0.280957  1
  Pr  Pr4  1  0.827871  0.310715  0.280957  1
  Pr  Pr5  1  0.453085  0.970242  0.280957  1
  Pr  Pr6  1  0.046915  0.189285  0.719043  1
  Pr  Pr7  1  0.672129  0.529758  0.719043  1
  Pr  Pr8  1  0.189285  0.672129  0.719043  1
  Pr  Pr9  1  0.529758  0.046915  0.719043  1
  Si  Si10  1  0.250000  0.250000  0.500000  1
  Si  Si11  1  0.613284  0.886716  0.000000  1
  Si  Si12  1  0.386716  0.113284  0.000000  1
  Si  Si13  1  0.886716  0.386716  0.000000  1
  Si  Si14  1  0.113284  0.613284  0.000000  1
  Pb  Pb15  1  0.750000  0.750000  0.500000  1
