# generated using pymatgen
data_Er2SiNi16H3
_symmetry_space_group_name_H-M   'P 1'
_cell_length_a   6.27848972
_cell_length_b   6.27849049
_cell_length_c   6.30900100
_cell_angle_alpha   84.08594444
_cell_angle_beta   84.08595288
_cell_angle_gamma   83.13129403
_symmetry_Int_Tables_number   1
_chemical_formula_structural   Er2SiNi16H3
_chemical_formula_sum   'Er2 Si1 Ni16 H3'
_cell_volume   244.55978199
_cell_formula_units_Z   1
loop_
 _symmetry_equiv_pos_site_id
 _symmetry_equiv_pos_as_xyz
  1  'x, y, z'
loop_
 _atom_site_type_symbol
 _atom_site_label
 _atom_site_symmetry_multiplicity
 _atom_site_fract_x
 _atom_site_fract_y
 _atom_site_fract_z
 _atom_site_occupancy
  Er  Er0  1  0.655292  0.655292  0.663331  1
  Er  Er1  1  0.344708  0.344708  0.336669  1
  Si  Si2  1  0.000000  0.000000  0.500000  1
  Ni  Ni3  1  0.500000  0.000000  0.000000  1
  Ni  Ni4  1  0.000000  0.500000  0.000000  1
  Ni  Ni5  1  0.710875  0.289125  0.000000  1
  Ni  Ni6  1  0.001453  0.711438  0.292473  1
  Ni  Ni7  1  0.288562  0.998547  0.707527  1
  Ni  Ni8  1  0.998547  0.288562  0.707527  1
  Ni  Ni9  1  0.711438  0.001453  0.292473  1
  Ni  Ni10  1  0.289125  0.710875  0.000000  1
  Ni  Ni11  1  0.346580  0.346580  0.849041  1
  Ni  Ni12  1  0.856500  0.345454  0.345701  1
  Ni  Ni13  1  0.345454  0.856500  0.345701  1
  Ni  Ni14  1  0.653420  0.653420  0.150959  1
  Ni  Ni15  1  0.143500  0.654546  0.654299  1
  Ni  Ni16  1  0.654546  0.143500  0.654299  1
  Ni  Ni17  1  0.899045  0.899045  0.900160  1
  Ni  Ni18  1  0.100955  0.100955  0.099840  1
  H  H19  1  0.500000  0.500000  0.000000  1
  H  H20  1  0.000000  0.500000  0.500000  1
  H  H21  1  0.500000  0.000000  0.500000  1
