# generated using pymatgen
data_Sc2Co(SiPt)2
_symmetry_space_group_name_H-M   'P 1'
_cell_length_a   3.93522000
_cell_length_b   6.46238400
_cell_length_c   8.50431700
_cell_angle_alpha   90.00000000
_cell_angle_beta   90.00000000
_cell_angle_gamma   90.00000000
_symmetry_Int_Tables_number   1
_chemical_formula_structural   Sc2Co(SiPt)2
_chemical_formula_sum   'Sc4 Co2 Si4 Pt4'
_cell_volume   216.27245871
_cell_formula_units_Z   2
loop_
 _symmetry_equiv_pos_site_id
 _symmetry_equiv_pos_as_xyz
  1  'x, y, z'
loop_
 _atom_site_type_symbol
 _atom_site_label
 _atom_site_symmetry_multiplicity
 _atom_site_fract_x
 _atom_site_fract_y
 _atom_site_fract_z
 _atom_site_occupancy
  Sc  Sc0  1  0.000000  0.878244  0.330332  1
  Sc  Sc1  1  0.000000  0.121756  0.669668  1
  Sc  Sc2  1  0.000000  0.378244  0.169668  1
  Sc  Sc3  1  0.000000  0.621756  0.830332  1
  Co  Co4  1  0.000000  0.500000  0.500000  1
  Co  Co5  1  0.000000  0.000000  0.000000  1
  Si  Si6  1  0.500000  0.565489  0.356485  1
  Si  Si7  1  0.500000  0.434511  0.643515  1
  Si  Si8  1  0.500000  0.065489  0.143515  1
  Si  Si9  1  0.500000  0.934511  0.856485  1
  Pt  Pt10  1  0.500000  0.690820  0.085143  1
  Pt  Pt11  1  0.500000  0.309180  0.914857  1
  Pt  Pt12  1  0.500000  0.190820  0.414857  1
  Pt  Pt13  1  0.500000  0.809180  0.585143  1
