# generated using pymatgen
data_Dy3ZnPd8
_symmetry_space_group_name_H-M   'P 1'
_cell_length_a   4.18931600
_cell_length_b   5.82260017
_cell_length_c   17.42112000
_cell_angle_alpha   89.99923246
_cell_angle_beta   89.99967176
_cell_angle_gamma   90.01388457
_symmetry_Int_Tables_number   1
_chemical_formula_structural   Dy3ZnPd8
_chemical_formula_sum   'Dy6 Zn2 Pd16'
_cell_volume   424.94835141
_cell_formula_units_Z   2
loop_
 _symmetry_equiv_pos_site_id
 _symmetry_equiv_pos_as_xyz
  1  'x, y, z'
loop_
 _atom_site_type_symbol
 _atom_site_label
 _atom_site_symmetry_multiplicity
 _atom_site_fract_x
 _atom_site_fract_y
 _atom_site_fract_z
 _atom_site_occupancy
  Dy  Dy0  1  0.524694  0.336508  0.045282  1
  Dy  Dy1  1  0.524544  0.839718  0.206139  1
  Dy  Dy2  1  0.525769  0.336598  0.367059  1
  Dy  Dy3  1  0.527335  0.743249  0.545237  1
  Dy  Dy4  1  0.527476  0.238802  0.706159  1
  Dy  Dy5  1  0.526222  0.741320  0.867032  1
  Zn  Zn6  1  0.026628  0.040000  0.456114  1
  Zn  Zn7  1  0.025311  0.039021  0.956107  1
  Pd  Pd8  1  0.524599  0.836770  0.032741  1
  Pd  Pd9  1  0.024401  0.087021  0.120483  1
  Pd  Pd10  1  0.024436  0.591489  0.122283  1
  Pd  Pd11  1  0.524522  0.339517  0.206154  1
  Pd  Pd12  1  0.025062  0.591224  0.290056  1
  Pd  Pd13  1  0.025071  0.086751  0.291833  1
  Pd  Pd14  1  0.525781  0.836676  0.379507  1
  Pd  Pd15  1  0.026651  0.540035  0.456170  1
  Pd  Pd16  1  0.527403  0.243282  0.532780  1
  Pd  Pd17  1  0.027678  0.992680  0.620403  1
  Pd  Pd18  1  0.027650  0.488168  0.622285  1
  Pd  Pd19  1  0.527569  0.738926  0.706145  1
  Pd  Pd20  1  0.026945  0.486361  0.790084  1
  Pd  Pd21  1  0.026973  0.990756  0.791740  1
  Pd  Pd22  1  0.526247  0.241044  0.879557  1
  Pd  Pd23  1  0.025367  0.539046  0.956191  1
