# generated using pymatgen
data_Ca(ZrSe2)4
_symmetry_space_group_name_H-M   'P 1'
_cell_length_a   8.32147979
_cell_length_b   8.32147989
_cell_length_c   8.32147932
_cell_angle_alpha   54.05797261
_cell_angle_beta   54.05797508
_cell_angle_gamma   54.05797042
_symmetry_Int_Tables_number   1
_chemical_formula_structural   Ca(ZrSe2)4
_chemical_formula_sum   'Ca1 Zr4 Se8'
_cell_volume   350.92162273
_cell_formula_units_Z   1
loop_
 _symmetry_equiv_pos_site_id
 _symmetry_equiv_pos_as_xyz
  1  'x, y, z'
loop_
 _atom_site_type_symbol
 _atom_site_label
 _atom_site_symmetry_multiplicity
 _atom_site_fract_x
 _atom_site_fract_y
 _atom_site_fract_z
 _atom_site_occupancy
  Ca  Ca0  1  0.500000  0.500000  0.500000  1
  Zr  Zr1  1  0.000000  0.500000  0.500000  1
  Zr  Zr2  1  0.500000  0.000000  0.500000  1
  Zr  Zr3  1  0.500000  0.500000  0.000000  1
  Zr  Zr4  1  0.000000  0.000000  0.000000  1
  Se  Se5  1  0.250923  0.758241  0.758241  1
  Se  Se6  1  0.241759  0.241759  0.749077  1
  Se  Se7  1  0.749077  0.241759  0.241759  1
  Se  Se8  1  0.241759  0.749077  0.241759  1
  Se  Se9  1  0.257750  0.257750  0.257750  1
  Se  Se10  1  0.742250  0.742250  0.742250  1
  Se  Se11  1  0.758241  0.250923  0.758241  1
  Se  Se12  1  0.758241  0.758241  0.250923  1
