# generated using pymatgen
data_ErTm2Sc2(In2Ir)2
_symmetry_space_group_name_H-M   'P 1'
_cell_length_a   3.51361900
_cell_length_b   7.86883100
_cell_length_c   17.90860600
_cell_angle_alpha   90.00000000
_cell_angle_beta   90.00000000
_cell_angle_gamma   90.00000000
_symmetry_Int_Tables_number   1
_chemical_formula_structural   ErTm2Sc2(In2Ir)2
_chemical_formula_sum   'Er2 Tm4 Sc4 In8 Ir4'
_cell_volume   495.13846588
_cell_formula_units_Z   2
loop_
 _symmetry_equiv_pos_site_id
 _symmetry_equiv_pos_as_xyz
  1  'x, y, z'
loop_
 _atom_site_type_symbol
 _atom_site_label
 _atom_site_symmetry_multiplicity
 _atom_site_fract_x
 _atom_site_fract_y
 _atom_site_fract_z
 _atom_site_occupancy
  Er  Er0  1  0.000000  0.000000  0.000000  1
  Er  Er1  1  0.000000  0.500000  0.500000  1
  Tm  Tm2  1  0.000000  0.748374  0.781277  1
  Tm  Tm3  1  0.000000  0.251626  0.218723  1
  Tm  Tm4  1  0.000000  0.248374  0.718723  1
  Tm  Tm5  1  0.000000  0.751626  0.281277  1
  Sc  Sc6  1  0.000000  0.877899  0.588369  1
  Sc  Sc7  1  0.000000  0.122101  0.411631  1
  Sc  Sc8  1  0.000000  0.377899  0.911631  1
  Sc  Sc9  1  0.000000  0.622101  0.088369  1
  In  In10  1  0.500000  0.807869  0.438013  1
  In  In11  1  0.500000  0.192131  0.561987  1
  In  In12  1  0.500000  0.307869  0.061987  1
  In  In13  1  0.500000  0.692131  0.938013  1
  In  In14  1  0.500000  0.926243  0.149171  1
  In  In15  1  0.500000  0.073757  0.850829  1
  In  In16  1  0.500000  0.426243  0.350829  1
  In  In17  1  0.500000  0.573757  0.649171  1
  Ir  Ir18  1  0.500000  0.964089  0.693291  1
  Ir  Ir19  1  0.500000  0.035911  0.306709  1
  Ir  Ir20  1  0.500000  0.464089  0.806709  1
  Ir  Ir21  1  0.500000  0.535911  0.193291  1
