# generated using pymatgen
data_Cd3SeO6
_symmetry_space_group_name_H-M   'P 1'
_cell_length_a   7.28226000
_cell_length_b   7.28226073
_cell_length_c   9.83095300
_cell_angle_alpha   90.00000000
_cell_angle_beta   90.00000000
_cell_angle_gamma   119.99999668
_symmetry_Int_Tables_number   1
_chemical_formula_structural   Cd3SeO6
_chemical_formula_sum   'Cd9 Se3 O18'
_cell_volume   451.50095237
_cell_formula_units_Z   3
loop_
 _symmetry_equiv_pos_site_id
 _symmetry_equiv_pos_as_xyz
  1  'x, y, z'
loop_
 _atom_site_type_symbol
 _atom_site_label
 _atom_site_symmetry_multiplicity
 _atom_site_fract_x
 _atom_site_fract_y
 _atom_site_fract_z
 _atom_site_occupancy
  Cd  Cd0  1  0.994820  0.695651  0.665525  1
  Cd  Cd1  1  0.318273  0.807120  0.947628  1
  Cd  Cd2  1  0.192880  0.511153  0.280961  1
  Cd  Cd3  1  0.304349  0.299170  0.998858  1
  Cd  Cd4  1  0.488847  0.681727  0.614295  1
  Cd  Cd5  1  0.506708  0.187021  0.702939  1
  Cd  Cd6  1  0.680314  0.493292  0.369605  1
  Cd  Cd7  1  0.812979  0.319686  0.036272  1
  Cd  Cd8  1  0.700830  0.005180  0.332192  1
  Se  Se9  1  0.236385  0.010521  0.327194  1
  Se  Se10  1  0.774136  0.763615  0.993860  1
  Se  Se11  1  0.989479  0.225864  0.660527  1
  O  O12  1  0.001039  0.862690  0.403246  1
  O  O13  1  0.285321  0.866985  0.214206  1
  O  O14  1  0.322989  0.833288  0.712130  1
  O  O15  1  0.166712  0.489702  0.045463  1
  O  O16  1  0.133015  0.418336  0.547540  1
  O  O17  1  0.137310  0.138349  0.736580  1
  O  O18  1  0.251035  0.218947  0.244113  1
  O  O19  1  0.510298  0.677011  0.378796  1
  O  O20  1  0.581664  0.714679  0.880873  1
  O  O21  1  0.432079  0.107841  0.443475  1
  O  O22  1  0.861651  0.998961  0.069913  1
  O  O23  1  0.491996  0.162062  0.940159  1
  O  O24  1  0.670066  0.508004  0.606825  1
  O  O25  1  0.675762  0.567921  0.110142  1
  O  O26  1  0.967912  0.748965  0.910780  1
  O  O27  1  0.837938  0.329934  0.273492  1
  O  O28  1  0.892159  0.324238  0.776808  1
  O  O29  1  0.781053  0.032088  0.577447  1
