# generated using pymatgen
data_Ba2LiTcN4
_symmetry_space_group_name_H-M   'P 1'
_cell_length_a   6.02217500
_cell_length_b   6.56032990
_cell_length_c   7.56879547
_cell_angle_alpha   70.17595760
_cell_angle_beta   90.00000000
_cell_angle_gamma   90.00000000
_symmetry_Int_Tables_number   1
_chemical_formula_structural   Ba2LiTcN4
_chemical_formula_sum   'Ba4 Li2 Tc2 N8'
_cell_volume   281.30325611
_cell_formula_units_Z   2
loop_
 _symmetry_equiv_pos_site_id
 _symmetry_equiv_pos_as_xyz
  1  'x, y, z'
loop_
 _atom_site_type_symbol
 _atom_site_label
 _atom_site_symmetry_multiplicity
 _atom_site_fract_x
 _atom_site_fract_y
 _atom_site_fract_z
 _atom_site_occupancy
  Ba  Ba0  1  0.250000  0.265306  0.052720  1
  Ba  Ba1  1  0.750000  0.734694  0.947280  1
  Ba  Ba2  1  0.750000  0.808714  0.420973  1
  Ba  Ba3  1  0.250000  0.191286  0.579027  1
  Li  Li4  1  0.750000  0.350787  0.370031  1
  Li  Li5  1  0.250000  0.649213  0.629969  1
  Tc  Tc6  1  0.250000  0.707697  0.214557  1
  Tc  Tc7  1  0.750000  0.292303  0.785443  1
  N  N8  1  0.506831  0.468680  0.733705  1
  N  N9  1  0.006831  0.531320  0.266295  1
  N  N10  1  0.493169  0.531320  0.266295  1
  N  N11  1  0.993169  0.468680  0.733705  1
  N  N12  1  0.750000  0.117801  0.635190  1
  N  N13  1  0.250000  0.882199  0.364810  1
  N  N14  1  0.750000  0.127265  0.031815  1
  N  N15  1  0.250000  0.872735  0.968185  1
