# generated using pymatgen
data_Sm7Te8
_symmetry_space_group_name_H-M   'P 1'
_cell_length_a   8.80477200
_cell_length_b   8.80477030
_cell_length_c   8.80477200
_cell_angle_alpha   119.99999887
_cell_angle_beta   90.00000000
_cell_angle_gamma   119.99999887
_symmetry_Int_Tables_number   1
_chemical_formula_structural   Sm7Te8
_chemical_formula_sum   'Sm7 Te8'
_cell_volume   482.65774150
_cell_formula_units_Z   1
loop_
 _symmetry_equiv_pos_site_id
 _symmetry_equiv_pos_as_xyz
  1  'x, y, z'
loop_
 _atom_site_type_symbol
 _atom_site_label
 _atom_site_symmetry_multiplicity
 _atom_site_fract_x
 _atom_site_fract_y
 _atom_site_fract_z
 _atom_site_occupancy
  Sm  Sm0  1  0.250032  0.000000  0.250032  1
  Sm  Sm1  1  0.250032  0.500062  0.250032  1
  Sm  Sm2  1  0.749968  0.000000  0.250033  1
  Sm  Sm3  1  0.250001  0.500001  0.750002  1
  Sm  Sm4  1  0.250033  0.000000  0.749968  1
  Sm  Sm5  1  0.749968  0.000000  0.749968  1
  Sm  Sm6  1  0.749968  0.499937  0.749968  1
  Te  Te7  1  0.000000  0.000000  0.000000  1
  Te  Te8  1  0.500000  0.000000  0.500000  1
  Te  Te9  1  0.993884  0.987770  0.493886  1
  Te  Te10  1  0.993884  0.500001  0.493886  1
  Te  Te11  1  0.506117  0.500001  0.493886  1
  Te  Te12  1  0.993886  0.500001  0.006116  1
  Te  Te13  1  0.506115  0.500001  0.006116  1
  Te  Te14  1  0.506115  0.012229  0.006116  1
