# generated using pymatgen
data_Nb12CrGa8Co2RhC4
_symmetry_space_group_name_H-M   'P 1'
_cell_length_a   8.25574998
_cell_length_b   8.25575085
_cell_length_c   8.25574900
_cell_angle_alpha   59.90675975
_cell_angle_beta   59.90675624
_cell_angle_gamma   59.90676195
_symmetry_Int_Tables_number   1
_chemical_formula_structural   Nb12CrGa8Co2RhC4
_chemical_formula_sum   'Nb12 Cr1 Ga8 Co2 Rh1 C4'
_cell_volume   397.04066071
_cell_formula_units_Z   1
loop_
 _symmetry_equiv_pos_site_id
 _symmetry_equiv_pos_as_xyz
  1  'x, y, z'
loop_
 _atom_site_type_symbol
 _atom_site_label
 _atom_site_symmetry_multiplicity
 _atom_site_fract_x
 _atom_site_fract_y
 _atom_site_fract_z
 _atom_site_occupancy
  Nb  Nb0  1  0.691099  0.309093  0.689029  1
  Nb  Nb1  1  0.942205  0.558631  0.558631  1
  Nb  Nb2  1  0.546205  0.945672  0.945672  1
  Nb  Nb3  1  0.946774  0.546391  0.946670  1
  Nb  Nb4  1  0.558901  0.560971  0.940907  1
  Nb  Nb5  1  0.946774  0.946670  0.546391  1
  Nb  Nb6  1  0.691099  0.689029  0.309093  1
  Nb  Nb7  1  0.307795  0.691369  0.691369  1
  Nb  Nb8  1  0.703795  0.304328  0.304328  1
  Nb  Nb9  1  0.303226  0.303330  0.703609  1
  Nb  Nb10  1  0.558901  0.940907  0.560971  1
  Nb  Nb11  1  0.303226  0.703609  0.303330  1
  Cr  Cr12  1  0.125000  0.125000  0.125000  1
  Ga  Ga13  1  0.330619  0.339182  0.339182  1
  Ga  Ga14  1  0.248617  0.913876  0.913876  1
  Ga  Ga15  1  0.919205  0.251886  0.909396  1
  Ga  Ga16  1  0.919205  0.909396  0.251886  1
  Ga  Ga17  1  0.330795  0.998114  0.340604  1
  Ga  Ga18  1  0.330795  0.340604  0.998114  1
  Ga  Ga19  1  0.001383  0.336124  0.336124  1
  Ga  Ga20  1  0.919381  0.910818  0.910818  1
  Co  Co21  1  0.125000  0.625000  0.125000  1
  Co  Co22  1  0.125000  0.125000  0.625000  1
  Rh  Rh23  1  0.625000  0.125000  0.125000  1
  C  C24  1  0.625000  0.625000  0.625000  1
  C  C25  1  0.125000  0.625000  0.625000  1
  C  C26  1  0.625000  0.125000  0.625000  1
  C  C27  1  0.625000  0.625000  0.125000  1
