# generated using pymatgen
data_Rb3Na2ZrSb3
_symmetry_space_group_name_H-M   'P 1'
_cell_length_a   11.67762243
_cell_length_b   11.67762278
_cell_length_c   16.93325500
_cell_angle_alpha   90.00000000
_cell_angle_beta   90.00000000
_cell_angle_gamma   143.02587707
_symmetry_Int_Tables_number   1
_chemical_formula_structural   Rb3Na2ZrSb3
_chemical_formula_sum   'Rb12 Na8 Zr4 Sb12'
_cell_volume   1388.83908348
_cell_formula_units_Z   4
loop_
 _symmetry_equiv_pos_site_id
 _symmetry_equiv_pos_as_xyz
  1  'x, y, z'
loop_
 _atom_site_type_symbol
 _atom_site_label
 _atom_site_symmetry_multiplicity
 _atom_site_fract_x
 _atom_site_fract_y
 _atom_site_fract_z
 _atom_site_occupancy
  Rb  Rb0  1  0.945083  0.605402  0.825837  1
  Rb  Rb1  1  0.554917  0.894598  0.325837  1
  Rb  Rb2  1  0.394598  0.054917  0.174163  1
  Rb  Rb3  1  0.054917  0.394598  0.174163  1
  Rb  Rb4  1  0.894598  0.554917  0.325837  1
  Rb  Rb5  1  0.445083  0.105402  0.674163  1
  Rb  Rb6  1  0.605402  0.945083  0.825837  1
  Rb  Rb7  1  0.277209  0.277209  0.319383  1
  Rb  Rb8  1  0.777209  0.777209  0.180617  1
  Rb  Rb9  1  0.222791  0.222791  0.819383  1
  Rb  Rb10  1  0.722791  0.722791  0.680617  1
  Rb  Rb11  1  0.105402  0.445083  0.674163  1
  Na  Na12  1  0.918733  0.081267  0.000000  1
  Na  Na13  1  0.581267  0.418733  0.500000  1
  Na  Na14  1  0.081267  0.918733  0.000000  1
  Na  Na15  1  0.418733  0.581267  0.500000  1
  Na  Na16  1  0.753707  0.246293  0.000000  1
  Na  Na17  1  0.746293  0.253707  0.500000  1
  Na  Na18  1  0.246293  0.753707  0.000000  1
  Na  Na19  1  0.253707  0.746293  0.500000  1
  Zr  Zr20  1  0.586080  0.413920  0.000000  1
  Zr  Zr21  1  0.913920  0.086080  0.500000  1
  Zr  Zr22  1  0.413920  0.586080  0.000000  1
  Zr  Zr23  1  0.086080  0.913920  0.500000  1
  Sb  Sb24  1  0.877124  0.561330  0.100371  1
  Sb  Sb25  1  0.438670  0.122876  0.899629  1
  Sb  Sb26  1  0.622876  0.938670  0.600371  1
  Sb  Sb27  1  0.938670  0.622876  0.600371  1
  Sb  Sb28  1  0.122876  0.438670  0.899629  1
  Sb  Sb29  1  0.561330  0.877124  0.100371  1
  Sb  Sb30  1  0.377124  0.061330  0.399629  1
  Sb  Sb31  1  0.205347  0.205347  0.592814  1
  Sb  Sb32  1  0.705347  0.705347  0.907186  1
  Sb  Sb33  1  0.294653  0.294653  0.092814  1
  Sb  Sb34  1  0.061330  0.377124  0.399629  1
  Sb  Sb35  1  0.794653  0.794653  0.407186  1
