# generated using pymatgen
data_Ho8GePBr12
_symmetry_space_group_name_H-M   'P 1'
_cell_length_a   4.02598600
_cell_length_b   13.12404916
_cell_length_c   13.89315119
_cell_angle_alpha   89.98157084
_cell_angle_beta   90.00000000
_cell_angle_gamma   90.00000000
_symmetry_Int_Tables_number   1
_chemical_formula_structural   Ho8GePBr12
_chemical_formula_sum   'Ho8 Ge1 P1 Br12'
_cell_volume   734.07570056
_cell_formula_units_Z   1
loop_
 _symmetry_equiv_pos_site_id
 _symmetry_equiv_pos_as_xyz
  1  'x, y, z'
loop_
 _atom_site_type_symbol
 _atom_site_label
 _atom_site_symmetry_multiplicity
 _atom_site_fract_x
 _atom_site_fract_y
 _atom_site_fract_z
 _atom_site_occupancy
  Ho  Ho0  1  0.500000  0.115478  0.344922  1
  Ho  Ho1  1  0.500000  0.884522  0.655078  1
  Ho  Ho2  1  0.500000  0.620030  0.161247  1
  Ho  Ho3  1  0.500000  0.379970  0.838753  1
  Ho  Ho4  1  0.000000  0.112628  0.574654  1
  Ho  Ho5  1  0.000000  0.887372  0.425346  1
  Ho  Ho6  1  0.000000  0.619804  0.920373  1
  Ho  Ho7  1  0.000000  0.380196  0.079627  1
  Ge  Ge8  1  0.500000  0.500000  0.000000  1
  P  P9  1  0.500000  0.000000  0.500000  1
  Br  Br10  1  0.500000  0.243283  0.163526  1
  Br  Br11  1  0.500000  0.756717  0.836474  1
  Br  Br12  1  0.500000  0.745345  0.337884  1
  Br  Br13  1  0.500000  0.254655  0.662116  1
  Br  Br14  1  0.000000  0.254732  0.412048  1
  Br  Br15  1  0.000000  0.745268  0.587952  1
  Br  Br16  1  0.000000  0.756777  0.088527  1
  Br  Br17  1  0.000000  0.243223  0.911473  1
  Br  Br18  1  0.000000  0.001547  0.243940  1
  Br  Br19  1  0.000000  0.998453  0.756060  1
  Br  Br20  1  0.000000  0.501454  0.258211  1
  Br  Br21  1  0.000000  0.498546  0.741789  1
