# generated using pymatgen
data_Er2Si(TcGe)3
_symmetry_space_group_name_H-M   'P 1'
_cell_length_a   6.85594700
_cell_length_b   6.88068119
_cell_length_c   6.88615271
_cell_angle_alpha   69.51324821
_cell_angle_beta   90.00000000
_cell_angle_gamma   90.00000000
_symmetry_Int_Tables_number   1
_chemical_formula_structural   Er2Si(TcGe)3
_chemical_formula_sum   'Er4 Si2 Tc6 Ge6'
_cell_volume   304.29911871
_cell_formula_units_Z   2
loop_
 _symmetry_equiv_pos_site_id
 _symmetry_equiv_pos_as_xyz
  1  'x, y, z'
loop_
 _atom_site_type_symbol
 _atom_site_label
 _atom_site_symmetry_multiplicity
 _atom_site_fract_x
 _atom_site_fract_y
 _atom_site_fract_z
 _atom_site_occupancy
  Er  Er0  1  0.669935  0.448606  0.193806  1
  Er  Er1  1  0.169935  0.051394  0.806194  1
  Er  Er2  1  0.330306  0.556535  0.804835  1
  Er  Er3  1  0.830306  0.943465  0.195165  1
  Si  Si4  1  0.143128  0.864648  0.486756  1
  Si  Si5  1  0.643128  0.635352  0.513244  1
  Tc  Tc6  1  0.497216  0.991674  0.502860  1
  Tc  Tc7  1  0.997216  0.508326  0.497140  1
  Tc  Tc8  1  0.146811  0.233446  0.243941  1
  Tc  Tc9  1  0.646811  0.266554  0.756059  1
  Tc  Tc10  1  0.854164  0.753258  0.755265  1
  Tc  Tc11  1  0.354164  0.746742  0.244735  1
  Ge  Ge12  1  0.450038  0.134527  0.100668  1
  Ge  Ge13  1  0.950038  0.365473  0.899332  1
  Ge  Ge14  1  0.553900  0.870868  0.897233  1
  Ge  Ge15  1  0.053900  0.629132  0.102767  1
  Ge  Ge16  1  0.854503  0.133487  0.513242  1
  Ge  Ge17  1  0.354503  0.366513  0.486758  1
