# generated using pymatgen
data_YBi3O7
_symmetry_space_group_name_H-M   'P 1'
_cell_length_a   6.66073179
_cell_length_b   6.86148192
_cell_length_c   7.86733652
_cell_angle_alpha   106.57689410
_cell_angle_beta   89.36868167
_cell_angle_gamma   99.26560395
_symmetry_Int_Tables_number   1
_chemical_formula_structural   YBi3O7
_chemical_formula_sum   'Y2 Bi6 O14'
_cell_volume   339.88473598
_cell_formula_units_Z   2
loop_
 _symmetry_equiv_pos_site_id
 _symmetry_equiv_pos_as_xyz
  1  'x, y, z'
loop_
 _atom_site_type_symbol
 _atom_site_label
 _atom_site_symmetry_multiplicity
 _atom_site_fract_x
 _atom_site_fract_y
 _atom_site_fract_z
 _atom_site_occupancy
  Y  Y0  1  0.460321  0.002578  0.248708  1
  Y  Y1  1  0.539679  0.997422  0.751292  1
  Bi  Bi2  1  0.000000  0.000000  0.500000  1
  Bi  Bi3  1  0.000000  0.000000  0.000000  1
  Bi  Bi4  1  0.260750  0.515540  0.878159  1
  Bi  Bi5  1  0.739250  0.484460  0.121841  1
  Bi  Bi6  1  0.722500  0.464243  0.608302  1
  Bi  Bi7  1  0.277500  0.535757  0.391698  1
  O  O8  1  0.464310  0.657493  0.183776  1
  O  O9  1  0.535690  0.342507  0.816224  1
  O  O10  1  0.303437  0.942541  0.953446  1
  O  O11  1  0.696563  0.057459  0.046554  1
  O  O12  1  0.296724  0.917971  0.511202  1
  O  O13  1  0.703276  0.082029  0.488798  1
  O  O14  1  0.530461  0.350141  0.352436  1
  O  O15  1  0.469539  0.649859  0.647564  1
  O  O16  1  0.915133  0.675966  0.962645  1
  O  O17  1  0.084867  0.324034  0.037355  1
  O  O18  1  0.098630  0.324850  0.622565  1
  O  O19  1  0.901370  0.675150  0.377435  1
  O  O20  1  0.878943  0.931732  0.732734  1
  O  O21  1  0.121057  0.068268  0.267266  1
