# generated using pymatgen
data_Tm8Sc12Sn15Ir
_symmetry_space_group_name_H-M   'P 1'
_cell_length_a   7.60076400
_cell_length_b   7.92169048
_cell_length_c   14.69394700
_cell_angle_alpha   90.00000000
_cell_angle_beta   90.00000000
_cell_angle_gamma   89.58332358
_symmetry_Int_Tables_number   1
_chemical_formula_structural   Tm8Sc12Sn15Ir
_chemical_formula_sum   'Tm8 Sc12 Sn15 Ir1'
_cell_volume   884.71237495
_cell_formula_units_Z   1
loop_
 _symmetry_equiv_pos_site_id
 _symmetry_equiv_pos_as_xyz
  1  'x, y, z'
loop_
 _atom_site_type_symbol
 _atom_site_label
 _atom_site_symmetry_multiplicity
 _atom_site_fract_x
 _atom_site_fract_y
 _atom_site_fract_z
 _atom_site_occupancy
  Tm  Tm0  1  0.990905  0.181404  0.092926  1
  Tm  Tm1  1  0.006191  0.835091  0.901919  1
  Tm  Tm2  1  0.509222  0.682498  0.906425  1
  Tm  Tm3  1  0.006191  0.835091  0.598081  1
  Tm  Tm4  1  0.492901  0.324027  0.093299  1
  Tm  Tm5  1  0.990905  0.181404  0.407074  1
  Tm  Tm6  1  0.492901  0.324027  0.406701  1
  Tm  Tm7  1  0.509222  0.682498  0.593575  1
  Sc  Sc8  1  0.174666  0.494406  0.750000  1
  Sc  Sc9  1  0.831328  0.503614  0.250000  1
  Sc  Sc10  1  0.331748  0.999344  0.250000  1
  Sc  Sc11  1  0.688025  0.004587  0.750000  1
  Sc  Sc12  1  0.304651  0.158769  0.634156  1
  Sc  Sc13  1  0.662874  0.839323  0.373557  1
  Sc  Sc14  1  0.160687  0.663793  0.373285  1
  Sc  Sc15  1  0.662874  0.839323  0.126443  1
  Sc  Sc16  1  0.867247  0.316007  0.636675  1
  Sc  Sc17  1  0.304651  0.158769  0.865844  1
  Sc  Sc18  1  0.867247  0.316007  0.863325  1
  Sc  Sc19  1  0.160687  0.663793  0.126715  1
  Sn  Sn20  1  0.968523  0.878846  0.250000  1
  Sn  Sn21  1  0.469776  0.622759  0.250000  1
  Sn  Sn22  1  0.534165  0.374849  0.750000  1
  Sn  Sn23  1  0.308080  0.850715  0.750000  1
  Sn  Sn24  1  0.688478  0.154595  0.250000  1
  Sn  Sn25  1  0.187894  0.348878  0.250000  1
  Sn  Sn26  1  0.806385  0.642546  0.750000  1
  Sn  Sn27  1  0.185498  0.465581  0.541972  1
  Sn  Sn28  1  0.818091  0.540572  0.463054  1
  Sn  Sn29  1  0.319062  0.961488  0.458857  1
  Sn  Sn30  1  0.818091  0.540572  0.036946  1
  Sn  Sn31  1  0.674990  0.045557  0.542701  1
  Sn  Sn32  1  0.185498  0.465581  0.958028  1
  Sn  Sn33  1  0.674990  0.045557  0.957299  1
  Sn  Sn34  1  0.319062  0.961488  0.041143  1
  Ir  Ir35  1  0.026295  0.096642  0.750000  1
