# generated using pymatgen
data_Ta2Co6H
_symmetry_space_group_name_H-M   'P 1'
_cell_length_a   5.17385760
_cell_length_b   5.17385737
_cell_length_c   5.17385800
_cell_angle_alpha   59.99999595
_cell_angle_beta   59.99999743
_cell_angle_gamma   60.00000788
_symmetry_Int_Tables_number   1
_chemical_formula_structural   Ta2Co6H
_chemical_formula_sum   'Ta2 Co6 H1'
_cell_volume   97.93285931
_cell_formula_units_Z   1
loop_
 _symmetry_equiv_pos_site_id
 _symmetry_equiv_pos_as_xyz
  1  'x, y, z'
loop_
 _atom_site_type_symbol
 _atom_site_label
 _atom_site_symmetry_multiplicity
 _atom_site_fract_x
 _atom_site_fract_y
 _atom_site_fract_z
 _atom_site_occupancy
  Ta  Ta0  1  0.249999  0.249999  0.249999  1
  Ta  Ta1  1  0.750000  0.750000  0.750000  1
  Co  Co2  1  0.747845  0.252155  0.252155  1
  Co  Co3  1  0.747845  0.747845  0.252155  1
  Co  Co4  1  0.252155  0.747845  0.252155  1
  Co  Co5  1  0.252155  0.747845  0.747845  1
  Co  Co6  1  0.252155  0.252155  0.747845  1
  Co  Co7  1  0.747845  0.252155  0.747845  1
  H  H8  1  0.000000  0.000000  0.000000  1
