# generated using pymatgen
data_Sc3Co(BIr2)2
_symmetry_space_group_name_H-M   'P 1'
_cell_length_a   3.07486700
_cell_length_b   9.43998500
_cell_length_c   9.43998500
_cell_angle_alpha   90.00000000
_cell_angle_beta   90.00000000
_cell_angle_gamma   90.00000000
_symmetry_Int_Tables_number   1
_chemical_formula_structural   Sc3Co(BIr2)2
_chemical_formula_sum   'Sc6 Co2 B4 Ir8'
_cell_volume   274.01159709
_cell_formula_units_Z   2
loop_
 _symmetry_equiv_pos_site_id
 _symmetry_equiv_pos_as_xyz
  1  'x, y, z'
loop_
 _atom_site_type_symbol
 _atom_site_label
 _atom_site_symmetry_multiplicity
 _atom_site_fract_x
 _atom_site_fract_y
 _atom_site_fract_z
 _atom_site_occupancy
  Sc  Sc0  1  0.000000  0.175258  0.675258  1
  Sc  Sc1  1  0.000000  0.824742  0.324742  1
  Sc  Sc2  1  0.000000  0.324742  0.175258  1
  Sc  Sc3  1  0.000000  0.675258  0.824742  1
  Sc  Sc4  1  0.000000  0.000000  0.000000  1
  Sc  Sc5  1  0.000000  0.500000  0.500000  1
  Co  Co6  1  0.500000  0.000000  0.500000  1
  Co  Co7  1  0.500000  0.500000  0.000000  1
  B  B8  1  0.000000  0.610547  0.110547  1
  B  B9  1  0.000000  0.389453  0.889453  1
  B  B10  1  0.000000  0.889453  0.610547  1
  B  B11  1  0.000000  0.110547  0.389453  1
  Ir  Ir12  1  0.500000  0.064365  0.228466  1
  Ir  Ir13  1  0.500000  0.935635  0.771534  1
  Ir  Ir14  1  0.500000  0.771534  0.064365  1
  Ir  Ir15  1  0.500000  0.435635  0.728466  1
  Ir  Ir16  1  0.500000  0.228466  0.935635  1
  Ir  Ir17  1  0.500000  0.564365  0.271534  1
  Ir  Ir18  1  0.500000  0.728466  0.564365  1
  Ir  Ir19  1  0.500000  0.271534  0.435635  1
