# generated using pymatgen
data_Eu2MnTe2F2
_symmetry_space_group_name_H-M   'P 1'
_cell_length_a   4.24019700
_cell_length_b   4.24009400
_cell_length_c   9.80088100
_cell_angle_alpha   90.00000000
_cell_angle_beta   90.00000000
_cell_angle_gamma   90.00000000
_symmetry_Int_Tables_number   1
_chemical_formula_structural   Eu2MnTe2F2
_chemical_formula_sum   'Eu2 Mn1 Te2 F2'
_cell_volume   176.20841117
_cell_formula_units_Z   1
loop_
 _symmetry_equiv_pos_site_id
 _symmetry_equiv_pos_as_xyz
  1  'x, y, z'
loop_
 _atom_site_type_symbol
 _atom_site_label
 _atom_site_symmetry_multiplicity
 _atom_site_fract_x
 _atom_site_fract_y
 _atom_site_fract_z
 _atom_site_occupancy
  Eu  Eu0  1  0.499999  0.000000  0.142339  1
  Eu  Eu1  1  0.000000  0.499999  0.857682  1
  Mn  Mn2  1  0.499999  0.499999  0.499987  1
  Te  Te3  1  0.000000  0.499999  0.313686  1
  Te  Te4  1  0.499999  0.000000  0.686307  1
  F  F5  1  0.000000  0.000000  0.999997  1
  F  F6  1  0.499999  0.499999  0.000004  1
