# generated using pymatgen
data_Ti6Nb2CrSiBi4
_symmetry_space_group_name_H-M   'P 1'
_cell_length_a   7.88491808
_cell_length_b   7.88474086
_cell_length_c   7.93610400
_cell_angle_alpha   95.49396556
_cell_angle_beta   95.92383438
_cell_angle_gamma   143.10625764
_symmetry_Int_Tables_number   1
_chemical_formula_structural   Ti6Nb2CrSiBi4
_chemical_formula_sum   'Ti6 Nb2 Cr1 Si1 Bi4'
_cell_volume   281.18007912
_cell_formula_units_Z   1
loop_
 _symmetry_equiv_pos_site_id
 _symmetry_equiv_pos_as_xyz
  1  'x, y, z'
loop_
 _atom_site_type_symbol
 _atom_site_label
 _atom_site_symmetry_multiplicity
 _atom_site_fract_x
 _atom_site_fract_y
 _atom_site_fract_z
 _atom_site_occupancy
  Ti  Ti0  1  0.803028  0.080605  0.887414  1
  Ti  Ti1  1  0.419299  0.697268  0.115920  1
  Ti  Ti2  1  0.193037  0.915489  0.112561  1
  Ti  Ti3  1  0.581278  0.303383  0.884094  1
  Ti  Ti4  1  0.697958  0.584905  0.280969  1
  Ti  Ti5  1  0.304032  0.417106  0.719007  1
  Nb  Nb6  1  0.077531  0.191263  0.277327  1
  Nb  Nb7  1  0.913976  0.800243  0.722684  1
  Cr  Cr8  1  0.752695  0.752589  0.000042  1
  Si  Si9  1  0.258871  0.258878  0.999988  1
  Bi  Bi10  1  0.141010  0.637264  0.781926  1
  Bi  Bi11  1  0.855318  0.359067  0.218054  1
  Bi  Bi12  1  0.363015  0.138993  0.500082  1
  Bi  Bi13  1  0.638952  0.862947  0.499933  1
