# generated using pymatgen
data_Tm8Zr5Si16W7
_symmetry_space_group_name_H-M   'P 1'
_cell_length_a   6.80335023
_cell_length_b   7.03294725
_cell_length_c   13.39296987
_cell_angle_alpha   90.10004384
_cell_angle_beta   89.61507699
_cell_angle_gamma   89.85595298
_symmetry_Int_Tables_number   1
_chemical_formula_structural   Tm8Zr5Si16W7
_chemical_formula_sum   'Tm8 Zr5 Si16 W7'
_cell_volume   640.80402651
_cell_formula_units_Z   1
loop_
 _symmetry_equiv_pos_site_id
 _symmetry_equiv_pos_as_xyz
  1  'x, y, z'
loop_
 _atom_site_type_symbol
 _atom_site_label
 _atom_site_symmetry_multiplicity
 _atom_site_fract_x
 _atom_site_fract_y
 _atom_site_fract_z
 _atom_site_occupancy
  Tm  Tm0  1  0.006857  0.173167  0.100789  1
  Tm  Tm1  1  0.993578  0.826916  0.901870  1
  Tm  Tm2  1  0.490421  0.674654  0.900309  1
  Tm  Tm3  1  0.999062  0.825631  0.591228  1
  Tm  Tm4  1  0.507332  0.326834  0.099842  1
  Tm  Tm5  1  0.001255  0.174170  0.406267  1
  Tm  Tm6  1  0.503034  0.327073  0.409056  1
  Tm  Tm7  1  0.496768  0.676493  0.592112  1
  Zr  Zr8  1  0.672810  0.828381  0.129867  1
  Zr  Zr9  1  0.832953  0.330346  0.619993  1
  Zr  Zr10  1  0.327282  0.171665  0.871564  1
  Zr  Zr11  1  0.827213  0.327044  0.870971  1
  Zr  Zr12  1  0.173552  0.672156  0.130603  1
  Si  Si13  1  0.034028  0.113782  0.743964  1
  Si  Si14  1  0.969744  0.878870  0.260193  1
  Si  Si15  1  0.470621  0.619236  0.259288  1
  Si  Si16  1  0.523803  0.380771  0.742223  1
  Si  Si17  1  0.293898  0.864297  0.746230  1
  Si  Si18  1  0.705321  0.136813  0.253975  1
  Si  Si19  1  0.207217  0.365037  0.254745  1
  Si  Si20  1  0.791465  0.640423  0.746534  1
  Si  Si21  1  0.174557  0.458776  0.540994  1
  Si  Si22  1  0.838719  0.547285  0.451703  1
  Si  Si23  1  0.333856  0.958119  0.457109  1
  Si  Si24  1  0.839648  0.530519  0.044023  1
  Si  Si25  1  0.658082  0.033797  0.540018  1
  Si  Si26  1  0.161170  0.468558  0.957343  1
  Si  Si27  1  0.660984  0.031338  0.957463  1
  Si  Si28  1  0.338004  0.968157  0.043379  1
  W  W29  1  0.157775  0.495019  0.744506  1
  W  W30  1  0.843162  0.510372  0.256436  1
  W  W31  1  0.342418  0.992575  0.257547  1
  W  W32  1  0.656881  0.004578  0.743480  1
  W  W33  1  0.328802  0.164367  0.620539  1
  W  W34  1  0.664011  0.838006  0.375286  1
  W  W35  1  0.173717  0.664778  0.378553  1
