# generated using pymatgen
data_La2MgAs4Pd
_symmetry_space_group_name_H-M   'P 1'
_cell_length_a   4.07428200
_cell_length_b   4.07428200
_cell_length_c   10.80076800
_cell_angle_alpha   90.00000000
_cell_angle_beta   90.00000000
_cell_angle_gamma   90.00000000
_symmetry_Int_Tables_number   1
_chemical_formula_structural   La2MgAs4Pd
_chemical_formula_sum   'La2 Mg1 As4 Pd1'
_cell_volume   179.29030583
_cell_formula_units_Z   1
loop_
 _symmetry_equiv_pos_site_id
 _symmetry_equiv_pos_as_xyz
  1  'x, y, z'
loop_
 _atom_site_type_symbol
 _atom_site_label
 _atom_site_symmetry_multiplicity
 _atom_site_fract_x
 _atom_site_fract_y
 _atom_site_fract_z
 _atom_site_occupancy
  La  La0  1  0.000000  0.500000  0.772394  1
  La  La1  1  0.500000  0.000000  0.227606  1
  Mg  Mg2  1  0.500000  0.500000  0.500000  1
  As  As3  1  0.500000  0.500000  0.000000  1
  As  As4  1  0.000000  0.000000  0.000000  1
  As  As5  1  0.000000  0.500000  0.336515  1
  As  As6  1  0.500000  0.000000  0.663485  1
  Pd  Pd7  1  0.000000  0.000000  0.500000  1
