# generated using pymatgen
data_LiLu3(Ni4P3)2
_symmetry_space_group_name_H-M   'P 1'
_cell_length_a   3.74246300
_cell_length_b   10.52421400
_cell_length_c   12.21693000
_cell_angle_alpha   90.00000000
_cell_angle_beta   90.00000000
_cell_angle_gamma   90.00000000
_symmetry_Int_Tables_number   1
_chemical_formula_structural   LiLu3(Ni4P3)2
_chemical_formula_sum   'Li2 Lu6 Ni16 P12'
_cell_volume   481.18188742
_cell_formula_units_Z   2
loop_
 _symmetry_equiv_pos_site_id
 _symmetry_equiv_pos_as_xyz
  1  'x, y, z'
loop_
 _atom_site_type_symbol
 _atom_site_label
 _atom_site_symmetry_multiplicity
 _atom_site_fract_x
 _atom_site_fract_y
 _atom_site_fract_z
 _atom_site_occupancy
  Li  Li0  1  0.500000  0.500000  0.154314  1
  Li  Li1  1  0.000000  0.000000  0.845686  1
  Lu  Lu2  1  0.000000  0.500000  0.525116  1
  Lu  Lu3  1  0.500000  0.000000  0.474884  1
  Lu  Lu4  1  0.500000  0.819873  0.204845  1
  Lu  Lu5  1  0.500000  0.180127  0.204845  1
  Lu  Lu6  1  0.000000  0.680127  0.795155  1
  Lu  Lu7  1  0.000000  0.319873  0.795155  1
  Ni  Ni8  1  0.500000  0.500000  0.701834  1
  Ni  Ni9  1  0.000000  0.000000  0.298166  1
  Ni  Ni10  1  0.000000  0.500000  0.987808  1
  Ni  Ni11  1  0.500000  0.000000  0.012192  1
  Ni  Ni12  1  0.500000  0.332637  0.997532  1
  Ni  Ni13  1  0.500000  0.667363  0.997532  1
  Ni  Ni14  1  0.000000  0.167363  0.002468  1
  Ni  Ni15  1  0.000000  0.832637  0.002468  1
  Ni  Ni16  1  0.500000  0.299611  0.430989  1
  Ni  Ni17  1  0.500000  0.700389  0.430989  1
  Ni  Ni18  1  0.000000  0.200389  0.569011  1
  Ni  Ni19  1  0.000000  0.799611  0.569011  1
  Ni  Ni20  1  0.500000  0.878646  0.707841  1
  Ni  Ni21  1  0.500000  0.121354  0.707841  1
  Ni  Ni22  1  0.000000  0.621354  0.292159  1
  Ni  Ni23  1  0.000000  0.378646  0.292159  1
  P  P24  1  0.500000  0.500000  0.879848  1
  P  P25  1  0.000000  0.000000  0.120152  1
  P  P26  1  0.500000  0.500000  0.352723  1
  P  P27  1  0.000000  0.000000  0.647277  1
  P  P28  1  0.500000  0.315088  0.616254  1
  P  P29  1  0.500000  0.684912  0.616254  1
  P  P30  1  0.000000  0.184912  0.383746  1
  P  P31  1  0.000000  0.815088  0.383746  1
  P  P32  1  0.500000  0.841083  0.891068  1
  P  P33  1  0.500000  0.158917  0.891068  1
  P  P34  1  0.000000  0.658917  0.108932  1
  P  P35  1  0.000000  0.341083  0.108932  1
