# generated using pymatgen
data_TbEr9(RuPb3)2
_symmetry_space_group_name_H-M   'P 1'
_cell_length_a   9.25946500
_cell_length_b   9.25946482
_cell_length_c   6.53431000
_cell_angle_alpha   90.00000000
_cell_angle_beta   90.00000000
_cell_angle_gamma   119.99999706
_symmetry_Int_Tables_number   1
_chemical_formula_structural   TbEr9(RuPb3)2
_chemical_formula_sum   'Tb1 Er9 Ru2 Pb6'
_cell_volume   485.17918375
_cell_formula_units_Z   1
loop_
 _symmetry_equiv_pos_site_id
 _symmetry_equiv_pos_as_xyz
  1  'x, y, z'
loop_
 _atom_site_type_symbol
 _atom_site_label
 _atom_site_symmetry_multiplicity
 _atom_site_fract_x
 _atom_site_fract_y
 _atom_site_fract_z
 _atom_site_occupancy
  Tb  Tb0  1  0.666667  0.333333  0.000000  1
  Er  Er1  1  0.236305  0.236383  0.750032  1
  Er  Er2  1  0.000078  0.763695  0.750032  1
  Er  Er3  1  0.236305  0.999922  0.249968  1
  Er  Er4  1  0.763617  0.999922  0.750032  1
  Er  Er5  1  0.333333  0.666667  0.500000  1
  Er  Er6  1  0.666667  0.333333  0.500000  1
  Er  Er7  1  0.763617  0.763695  0.249968  1
  Er  Er8  1  0.000078  0.236383  0.249968  1
  Er  Er9  1  0.333333  0.666667  0.000000  1
  Ru  Ru10  1  0.000000  0.000000  0.000000  1
  Ru  Ru11  1  0.000000  0.000000  0.500000  1
  Pb  Pb12  1  0.597552  0.999039  0.250651  1
  Pb  Pb13  1  0.000961  0.598513  0.250651  1
  Pb  Pb14  1  0.597552  0.598513  0.749349  1
  Pb  Pb15  1  0.401487  0.402448  0.250651  1
  Pb  Pb16  1  0.000961  0.402448  0.749349  1
  Pb  Pb17  1  0.401487  0.999039  0.749349  1
