# generated using pymatgen
data_Nd3Sb4Pd2Au
_symmetry_space_group_name_H-M   'P 1'
_cell_length_a   8.68040239
_cell_length_b   8.68040257
_cell_length_c   8.68040247
_cell_angle_alpha   109.24714375
_cell_angle_beta   109.92030265
_cell_angle_gamma   109.24715134
_symmetry_Int_Tables_number   1
_chemical_formula_structural   Nd3Sb4Pd2Au
_chemical_formula_sum   'Nd6 Sb8 Pd4 Au2'
_cell_volume   503.47471552
_cell_formula_units_Z   2
loop_
 _symmetry_equiv_pos_site_id
 _symmetry_equiv_pos_as_xyz
  1  'x, y, z'
loop_
 _atom_site_type_symbol
 _atom_site_label
 _atom_site_symmetry_multiplicity
 _atom_site_fract_x
 _atom_site_fract_y
 _atom_site_fract_z
 _atom_site_occupancy
  Nd  Nd0  1  0.875000  0.250000  0.125000  1
  Nd  Nd1  1  0.625000  0.750000  0.375000  1
  Nd  Nd2  1  0.250000  0.123292  0.873292  1
  Nd  Nd3  1  0.750000  0.376708  0.626708  1
  Nd  Nd4  1  0.126708  0.876708  0.250000  1
  Nd  Nd5  1  0.373292  0.623292  0.750000  1
  Sb  Sb6  1  0.668923  0.506048  0.010008  1
  Sb  Sb7  1  0.503960  0.993952  0.662876  1
  Sb  Sb8  1  0.996040  0.658916  0.489992  1
  Sb  Sb9  1  0.831077  0.841084  0.837124  1
  Sb  Sb10  1  0.510008  0.006048  0.168923  1
  Sb  Sb11  1  0.162876  0.493952  0.003960  1
  Sb  Sb12  1  0.989992  0.158916  0.496040  1
  Sb  Sb13  1  0.337124  0.341084  0.331077  1
  Pd  Pd14  1  0.250000  0.627208  0.377208  1
  Pd  Pd15  1  0.750000  0.872792  0.122792  1
  Pd  Pd16  1  0.622792  0.372792  0.250000  1
  Pd  Pd17  1  0.877208  0.127208  0.750000  1
  Au  Au18  1  0.375000  0.250000  0.625000  1
  Au  Au19  1  0.125000  0.750000  0.875000  1
