# generated using pymatgen
data_HfPa3(SiNi)4
_symmetry_space_group_name_H-M   'P 1'
_cell_length_a   4.09581700
_cell_length_b   6.89514508
_cell_length_c   7.08011988
_cell_angle_alpha   90.38327103
_cell_angle_beta   90.00000000
_cell_angle_gamma   90.00000000
_symmetry_Int_Tables_number   1
_chemical_formula_structural   HfPa3(SiNi)4
_chemical_formula_sum   'Hf1 Pa3 Si4 Ni4'
_cell_volume   199.94697908
_cell_formula_units_Z   1
loop_
 _symmetry_equiv_pos_site_id
 _symmetry_equiv_pos_as_xyz
  1  'x, y, z'
loop_
 _atom_site_type_symbol
 _atom_site_label
 _atom_site_symmetry_multiplicity
 _atom_site_fract_x
 _atom_site_fract_y
 _atom_site_fract_z
 _atom_site_occupancy
  Hf  Hf0  1  0.750000  0.504068  0.793080  1
  Pa  Pa1  1  0.250000  0.989790  0.290302  1
  Pa  Pa2  1  0.250000  0.494444  0.205266  1
  Pa  Pa3  1  0.750000  0.007883  0.709441  1
  Si  Si4  1  0.250000  0.302717  0.595330  1
  Si  Si5  1  0.250000  0.778867  0.901822  1
  Si  Si6  1  0.750000  0.703045  0.420566  1
  Si  Si7  1  0.750000  0.212109  0.084530  1
  Ni  Ni8  1  0.250000  0.213493  0.918656  1
  Ni  Ni9  1  0.250000  0.678576  0.581899  1
  Ni  Ni10  1  0.750000  0.802438  0.081348  1
  Ni  Ni11  1  0.750000  0.312569  0.417760  1
