# generated using pymatgen
data_LuMg(Si7Ir3)2
_symmetry_space_group_name_H-M   'P 1'
_cell_length_a   7.99297934
_cell_length_b   7.99297890
_cell_length_c   7.99297911
_cell_angle_alpha   56.66496944
_cell_angle_beta   56.66497250
_cell_angle_gamma   56.66497000
_symmetry_Int_Tables_number   1
_chemical_formula_structural   LuMg(Si7Ir3)2
_chemical_formula_sum   'Lu1 Mg1 Si14 Ir6'
_cell_volume   333.27407069
_cell_formula_units_Z   1
loop_
 _symmetry_equiv_pos_site_id
 _symmetry_equiv_pos_as_xyz
  1  'x, y, z'
loop_
 _atom_site_type_symbol
 _atom_site_label
 _atom_site_symmetry_multiplicity
 _atom_site_fract_x
 _atom_site_fract_y
 _atom_site_fract_z
 _atom_site_occupancy
  Lu  Lu0  1  0.000000  0.000000  0.000000  1
  Mg  Mg1  1  0.500000  0.500000  0.500000  1
  Si  Si2  1  0.849228  0.065676  0.671870  1
  Si  Si3  1  0.671870  0.849228  0.065676  1
  Si  Si4  1  0.065676  0.671870  0.849228  1
  Si  Si5  1  0.648578  0.825861  0.436095  1
  Si  Si6  1  0.249842  0.249842  0.249842  1
  Si  Si7  1  0.750158  0.750158  0.750158  1
  Si  Si8  1  0.174139  0.563905  0.351422  1
  Si  Si9  1  0.563905  0.351422  0.174139  1
  Si  Si10  1  0.351422  0.174139  0.563905  1
  Si  Si11  1  0.934324  0.328130  0.150772  1
  Si  Si12  1  0.328130  0.150772  0.934324  1
  Si  Si13  1  0.150772  0.934324  0.328130  1
  Si  Si14  1  0.825861  0.436095  0.648578  1
  Si  Si15  1  0.436095  0.648578  0.825861  1
  Ir  Ir16  1  0.750591  0.072540  0.426158  1
  Ir  Ir17  1  0.426158  0.750591  0.072540  1
  Ir  Ir18  1  0.072540  0.426158  0.750591  1
  Ir  Ir19  1  0.249409  0.927460  0.573842  1
  Ir  Ir20  1  0.573842  0.249409  0.927460  1
  Ir  Ir21  1  0.927460  0.573842  0.249409  1
