# generated using pymatgen
data_Cs2KScSe3
_symmetry_space_group_name_H-M   'P 1'
_cell_length_a   15.11387900
_cell_length_b   8.42576958
_cell_length_c   11.22877188
_cell_angle_alpha   53.09737485
_cell_angle_beta   90.00000000
_cell_angle_gamma   90.00000000
_symmetry_Int_Tables_number   1
_chemical_formula_structural   Cs2KScSe3
_chemical_formula_sum   'Cs8 K4 Sc4 Se12'
_cell_volume   1143.46164587
_cell_formula_units_Z   4
loop_
 _symmetry_equiv_pos_site_id
 _symmetry_equiv_pos_as_xyz
  1  'x, y, z'
loop_
 _atom_site_type_symbol
 _atom_site_label
 _atom_site_symmetry_multiplicity
 _atom_site_fract_x
 _atom_site_fract_y
 _atom_site_fract_z
 _atom_site_occupancy
  Cs  Cs0  1  0.189789  0.111432  0.577588  1
  Cs  Cs1  1  0.689789  0.888568  0.922412  1
  Cs  Cs2  1  0.810211  0.888568  0.422412  1
  Cs  Cs3  1  0.310211  0.111432  0.077588  1
  Cs  Cs4  1  0.640378  0.405399  0.474086  1
  Cs  Cs5  1  0.140378  0.594601  0.025914  1
  Cs  Cs6  1  0.359622  0.594601  0.525914  1
  Cs  Cs7  1  0.859622  0.405399  0.974086  1
  K  K8  1  0.951302  0.364011  0.401798  1
  K  K9  1  0.451302  0.635989  0.098202  1
  K  K10  1  0.048698  0.635989  0.598202  1
  K  K11  1  0.548698  0.364011  0.901798  1
  Sc  Sc12  1  0.949186  0.060107  0.836628  1
  Sc  Sc13  1  0.449186  0.939893  0.663372  1
  Sc  Sc14  1  0.050814  0.939893  0.163372  1
  Sc  Sc15  1  0.550814  0.060107  0.336628  1
  Se  Se16  1  0.397834  0.162132  0.383026  1
  Se  Se17  1  0.897834  0.837868  0.116974  1
  Se  Se18  1  0.602166  0.837868  0.616974  1
  Se  Se19  1  0.102166  0.162132  0.883026  1
  Se  Se20  1  0.651075  0.359150  0.170347  1
  Se  Se21  1  0.151075  0.640850  0.329653  1
  Se  Se22  1  0.348925  0.640850  0.829653  1
  Se  Se23  1  0.848925  0.359150  0.670347  1
  Se  Se24  1  0.531090  0.876092  0.225405  1
  Se  Se25  1  0.031090  0.123908  0.274595  1
  Se  Se26  1  0.468910  0.123908  0.774595  1
  Se  Se27  1  0.968910  0.876092  0.725405  1
