# generated using pymatgen
data_SrTb6PdI12
_symmetry_space_group_name_H-M   'P 1'
_cell_length_a   9.83362437
_cell_length_b   9.83362407
_cell_length_c   9.83362300
_cell_angle_alpha   106.29432163
_cell_angle_beta   106.29432170
_cell_angle_gamma   106.29432140
_symmetry_Int_Tables_number   1
_chemical_formula_structural   SrTb6PdI12
_chemical_formula_sum   'Sr1 Tb6 Pd1 I12'
_cell_volume   806.68886670
_cell_formula_units_Z   1
loop_
 _symmetry_equiv_pos_site_id
 _symmetry_equiv_pos_as_xyz
  1  'x, y, z'
loop_
 _atom_site_type_symbol
 _atom_site_label
 _atom_site_symmetry_multiplicity
 _atom_site_fract_x
 _atom_site_fract_y
 _atom_site_fract_z
 _atom_site_occupancy
  Sr  Sr0  1  0.500000  0.500000  0.500000  1
  Tb  Tb1  1  0.904530  0.700243  0.978964  1
  Tb  Tb2  1  0.978964  0.904530  0.700243  1
  Tb  Tb3  1  0.700243  0.978964  0.904530  1
  Tb  Tb4  1  0.095470  0.299757  0.021036  1
  Tb  Tb5  1  0.021036  0.095470  0.299757  1
  Tb  Tb6  1  0.299757  0.021036  0.095470  1
  Pd  Pd7  1  0.000000  0.000000  0.000000  1
  I  I8  1  0.630560  0.862567  0.550015  1
  I  I9  1  0.550015  0.630560  0.862567  1
  I  I10  1  0.862567  0.550015  0.630560  1
  I  I11  1  0.369440  0.137433  0.449985  1
  I  I12  1  0.449985  0.369440  0.137433  1
  I  I13  1  0.137433  0.449985  0.369440  1
  I  I14  1  0.674225  0.073591  0.222689  1
  I  I15  1  0.222689  0.674225  0.073591  1
  I  I16  1  0.073591  0.222689  0.674225  1
  I  I17  1  0.325775  0.926409  0.777311  1
  I  I18  1  0.777311  0.325775  0.926409  1
  I  I19  1  0.926409  0.777311  0.325775  1
