# generated using pymatgen
data_Sm6Fe13Te
_symmetry_space_group_name_H-M   'P 1'
_cell_length_a   8.03875205
_cell_length_b   8.03875158
_cell_length_c   12.86527193
_cell_angle_alpha   108.20517331
_cell_angle_beta   108.20517256
_cell_angle_gamma   89.99999425
_symmetry_Int_Tables_number   1
_chemical_formula_structural   Sm6Fe13Te
_chemical_formula_sum   'Sm12 Fe26 Te2'
_cell_volume   745.82441009
_cell_formula_units_Z   2
loop_
 _symmetry_equiv_pos_site_id
 _symmetry_equiv_pos_as_xyz
  1  'x, y, z'
loop_
 _atom_site_type_symbol
 _atom_site_label
 _atom_site_symmetry_multiplicity
 _atom_site_fract_x
 _atom_site_fract_y
 _atom_site_fract_z
 _atom_site_occupancy
  Sm  Sm0  1  0.602918  0.602918  0.205836  1
  Sm  Sm1  1  0.102918  0.102918  0.205836  1
  Sm  Sm2  1  0.397082  0.397082  0.794164  1
  Sm  Sm3  1  0.897082  0.897082  0.794164  1
  Sm  Sm4  1  0.975848  0.475848  0.630323  1
  Sm  Sm5  1  0.654475  0.154475  0.630323  1
  Sm  Sm6  1  0.154475  0.975848  0.630323  1
  Sm  Sm7  1  0.475848  0.654475  0.630323  1
  Sm  Sm8  1  0.024152  0.524152  0.369677  1
  Sm  Sm9  1  0.345525  0.845525  0.369677  1
  Sm  Sm10  1  0.845525  0.024152  0.369677  1
  Sm  Sm11  1  0.524152  0.345525  0.369677  1
  Fe  Fe12  1  0.000000  0.500000  0.000000  1
  Fe  Fe13  1  0.500000  0.000000  0.000000  1
  Fe  Fe14  1  0.710374  0.566720  0.000000  1
  Fe  Fe15  1  0.289626  0.433280  0.000000  1
  Fe  Fe16  1  0.789626  0.066720  0.000000  1
  Fe  Fe17  1  0.210374  0.933280  0.000000  1
  Fe  Fe18  1  0.566720  0.289626  0.000000  1
  Fe  Fe19  1  0.433280  0.710374  0.000000  1
  Fe  Fe20  1  0.066720  0.210374  0.000000  1
  Fe  Fe21  1  0.933280  0.789626  0.000000  1
  Fe  Fe22  1  0.118919  0.618919  0.880159  1
  Fe  Fe23  1  0.761240  0.261240  0.880159  1
  Fe  Fe24  1  0.261240  0.118919  0.880159  1
  Fe  Fe25  1  0.618919  0.761240  0.880159  1
  Fe  Fe26  1  0.881081  0.381081  0.119841  1
  Fe  Fe27  1  0.238760  0.738760  0.119841  1
  Fe  Fe28  1  0.738760  0.881081  0.119841  1
  Fe  Fe29  1  0.381081  0.238760  0.119841  1
  Fe  Fe30  1  0.290338  0.790338  0.808592  1
  Fe  Fe31  1  0.518254  0.018254  0.808592  1
  Fe  Fe32  1  0.018254  0.290338  0.808592  1
  Fe  Fe33  1  0.790338  0.518254  0.808592  1
  Fe  Fe34  1  0.709662  0.209662  0.191408  1
  Fe  Fe35  1  0.481746  0.981746  0.191408  1
  Fe  Fe36  1  0.981746  0.709662  0.191408  1
  Fe  Fe37  1  0.209662  0.481746  0.191408  1
  Te  Te38  1  0.250000  0.250000  0.500000  1
  Te  Te39  1  0.750000  0.750000  0.500000  1
