# generated using pymatgen
data_Tb8Re11Si16Tc
_symmetry_space_group_name_H-M   'P 1'
_cell_length_a   6.74807819
_cell_length_b   6.74807780
_cell_length_c   12.68298100
_cell_angle_alpha   89.98632151
_cell_angle_beta   90.01367849
_cell_angle_gamma   90.02440548
_symmetry_Int_Tables_number   1
_chemical_formula_structural   Tb8Re11Si16Tc
_chemical_formula_sum   'Tb8 Re11 Si16 Tc1'
_cell_volume   577.53919777
_cell_formula_units_Z   1
loop_
 _symmetry_equiv_pos_site_id
 _symmetry_equiv_pos_as_xyz
  1  'x, y, z'
loop_
 _atom_site_type_symbol
 _atom_site_label
 _atom_site_symmetry_multiplicity
 _atom_site_fract_x
 _atom_site_fract_y
 _atom_site_fract_z
 _atom_site_occupancy
  Tb  Tb0  1  0.006542  0.663802  0.031121  1
  Tb  Tb1  1  0.993377  0.336113  0.531268  1
  Tb  Tb2  1  0.336113  0.993377  0.468732  1
  Tb  Tb3  1  0.163653  0.493358  0.781005  1
  Tb  Tb4  1  0.836319  0.506328  0.281093  1
  Tb  Tb5  1  0.493358  0.163653  0.218995  1
  Tb  Tb6  1  0.506328  0.836319  0.718907  1
  Tb  Tb7  1  0.663802  0.006542  0.968879  1
  Re  Re8  1  0.164986  0.835534  0.249658  1
  Re  Re9  1  0.335298  0.335298  0.000000  1
  Re  Re10  1  0.017654  0.814450  0.630687  1
  Re  Re11  1  0.982181  0.186180  0.131000  1
  Re  Re12  1  0.814450  0.017654  0.369313  1
  Re  Re13  1  0.314368  0.482517  0.380973  1
  Re  Re14  1  0.685746  0.517358  0.880851  1
  Re  Re15  1  0.482517  0.314368  0.619027  1
  Re  Re16  1  0.517358  0.685746  0.119149  1
  Re  Re17  1  0.186180  0.982181  0.869000  1
  Re  Re18  1  0.835534  0.164986  0.750342  1
  Si  Si19  1  0.019044  0.726121  0.438338  1
  Si  Si20  1  0.614304  0.304101  0.435062  1
  Si  Si21  1  0.385741  0.696232  0.934684  1
  Si  Si22  1  0.196289  0.114483  0.684532  1
  Si  Si23  1  0.304101  0.614304  0.564938  1
  Si  Si24  1  0.696232  0.385741  0.065316  1
  Si  Si25  1  0.803725  0.885735  0.184776  1
  Si  Si26  1  0.114483  0.196289  0.315468  1
  Si  Si27  1  0.980602  0.273301  0.938146  1
  Si  Si28  1  0.726121  0.019044  0.561662  1
  Si  Si29  1  0.226261  0.480295  0.188229  1
  Si  Si30  1  0.773363  0.519583  0.688170  1
  Si  Si31  1  0.480295  0.226261  0.811771  1
  Si  Si32  1  0.519583  0.773363  0.311830  1
  Si  Si33  1  0.273301  0.980602  0.061854  1
  Si  Si34  1  0.885735  0.803725  0.815224  1
  Tc  Tc35  1  0.665054  0.665054  0.500000  1
