# generated using pymatgen
data_NdDySn5PtRh2
_symmetry_space_group_name_H-M   'P 1'
_cell_length_a   13.56008011
_cell_length_b   13.56007964
_cell_length_c   7.37414700
_cell_angle_alpha   90.00000000
_cell_angle_beta   90.00000000
_cell_angle_gamma   161.05782560
_symmetry_Int_Tables_number   1
_chemical_formula_structural   NdDySn5PtRh2
_chemical_formula_sum   'Nd2 Dy2 Sn10 Pt2 Rh4'
_cell_volume   440.15249398
_cell_formula_units_Z   2
loop_
 _symmetry_equiv_pos_site_id
 _symmetry_equiv_pos_as_xyz
  1  'x, y, z'
loop_
 _atom_site_type_symbol
 _atom_site_label
 _atom_site_symmetry_multiplicity
 _atom_site_fract_x
 _atom_site_fract_y
 _atom_site_fract_z
 _atom_site_occupancy
  Nd  Nd0  1  0.173987  0.826013  0.751199  1
  Nd  Nd1  1  0.826013  0.173987  0.251199  1
  Dy  Dy2  1  0.476138  0.523862  0.738165  1
  Dy  Dy3  1  0.523862  0.476138  0.238165  1
  Sn  Sn4  1  0.879933  0.120067  0.728014  1
  Sn  Sn5  1  0.120067  0.879933  0.228014  1
  Sn  Sn6  1  0.703991  0.296009  0.049370  1
  Sn  Sn7  1  0.296009  0.703991  0.549370  1
  Sn  Sn8  1  0.597017  0.402983  0.617875  1
  Sn  Sn9  1  0.402983  0.597017  0.117875  1
  Sn  Sn10  1  0.951838  0.048162  0.400337  1
  Sn  Sn11  1  0.048162  0.951838  0.900337  1
  Sn  Sn12  1  0.289525  0.710475  0.973828  1
  Sn  Sn13  1  0.710475  0.289525  0.473828  1
  Pt  Pt14  1  0.049115  0.950885  0.516134  1
  Pt  Pt15  1  0.950885  0.049115  0.016134  1
  Rh  Rh16  1  0.777886  0.222114  0.766063  1
  Rh  Rh17  1  0.222114  0.777886  0.266063  1
  Rh  Rh18  1  0.396147  0.603853  0.487016  1
  Rh  Rh19  1  0.603853  0.396147  0.987016  1
