# generated using pymatgen
data_TbSm3Se3N2
_symmetry_space_group_name_H-M   'P 1'
_cell_length_a   7.10248351
_cell_length_b   7.10248318
_cell_length_c   10.48431262
_cell_angle_alpha   52.18712448
_cell_angle_beta   52.18712452
_cell_angle_gamma   32.81431087
_symmetry_Int_Tables_number   1
_chemical_formula_structural   TbSm3Se3N2
_chemical_formula_sum   'Tb1 Sm3 Se3 N2'
_cell_volume   220.43755282
_cell_formula_units_Z   1
loop_
 _symmetry_equiv_pos_site_id
 _symmetry_equiv_pos_as_xyz
  1  'x, y, z'
loop_
 _atom_site_type_symbol
 _atom_site_label
 _atom_site_symmetry_multiplicity
 _atom_site_fract_x
 _atom_site_fract_y
 _atom_site_fract_z
 _atom_site_occupancy
  Tb  Tb0  1  0.242684  0.242684  0.640549  1
  Sm  Sm1  1  0.441820  0.441820  0.847944  1
  Sm  Sm2  1  0.557943  0.557943  0.151617  1
  Sm  Sm3  1  0.755514  0.755514  0.360255  1
  Se  Se4  1  0.834305  0.834305  0.768951  1
  Se  Se5  1  0.001200  0.001200  0.998537  1
  Se  Se6  1  0.165898  0.165898  0.227856  1
  N  N7  1  0.350482  0.350482  0.365050  1
  N  N8  1  0.650154  0.650154  0.639242  1
