# generated using pymatgen
data_CrGa12Ir2Os
_symmetry_space_group_name_H-M   'P 1'
_cell_length_a   6.51985989
_cell_length_b   6.50798086
_cell_length_c   6.82428900
_cell_angle_alpha   90.00000000
_cell_angle_beta   90.00000000
_cell_angle_gamma   90.23853593
_symmetry_Int_Tables_number   1
_chemical_formula_structural   CrGa12Ir2Os
_chemical_formula_sum   'Cr1 Ga12 Ir2 Os1'
_cell_volume   289.55973896
_cell_formula_units_Z   1
loop_
 _symmetry_equiv_pos_site_id
 _symmetry_equiv_pos_as_xyz
  1  'x, y, z'
loop_
 _atom_site_type_symbol
 _atom_site_label
 _atom_site_symmetry_multiplicity
 _atom_site_fract_x
 _atom_site_fract_y
 _atom_site_fract_z
 _atom_site_occupancy
  Cr  Cr0  1  0.155141  0.846135  0.500000  1
  Ga  Ga1  1  0.008554  0.507637  0.500000  1
  Ga  Ga2  1  0.499313  0.001999  0.000000  1
  Ga  Ga3  1  0.494232  0.987353  0.500000  1
  Ga  Ga4  1  0.998969  0.495480  0.000000  1
  Ga  Ga5  1  0.335570  0.657812  0.243062  1
  Ga  Ga6  1  0.648064  0.347520  0.236638  1
  Ga  Ga7  1  0.164550  0.146788  0.731006  1
  Ga  Ga8  1  0.855478  0.838831  0.729165  1
  Ga  Ga9  1  0.648064  0.347520  0.763362  1
  Ga  Ga10  1  0.335570  0.657812  0.756938  1
  Ga  Ga11  1  0.855478  0.838831  0.270835  1
  Ga  Ga12  1  0.164550  0.146788  0.268994  1
  Ir  Ir13  1  0.833736  0.168138  0.500000  1
  Ir  Ir14  1  0.661771  0.665832  0.000000  1
  Os  Os15  1  0.340957  0.345525  0.000000  1
