# generated using pymatgen
data_Y9Lu4Th3(ZnCo)4
_symmetry_space_group_name_H-M   'P 1'
_cell_length_a   9.37368151
_cell_length_b   9.36763644
_cell_length_c   9.36865672
_cell_angle_alpha   60.11535280
_cell_angle_beta   60.05494083
_cell_angle_gamma   60.06333675
_symmetry_Int_Tables_number   1
_chemical_formula_structural   Y9Lu4Th3(ZnCo)4
_chemical_formula_sum   'Y9 Lu4 Th3 Zn4 Co4'
_cell_volume   582.73087664
_cell_formula_units_Z   1
loop_
 _symmetry_equiv_pos_site_id
 _symmetry_equiv_pos_as_xyz
  1  'x, y, z'
loop_
 _atom_site_type_symbol
 _atom_site_label
 _atom_site_symmetry_multiplicity
 _atom_site_fract_x
 _atom_site_fract_y
 _atom_site_fract_z
 _atom_site_occupancy
  Y  Y0  1  0.060584  0.440476  0.058627  1
  Y  Y1  1  0.437830  0.435666  0.063563  1
  Y  Y2  1  0.062174  0.060125  0.439695  1
  Y  Y3  1  0.188305  0.813326  0.811081  1
  Y  Y4  1  0.811972  0.186243  0.187439  1
  Y  Y5  1  0.813035  0.186760  0.813517  1
  Y  Y6  1  0.187253  0.813429  0.187421  1
  Y  Y7  1  0.812746  0.815250  0.186816  1
  Y  Y8  1  0.187497  0.187660  0.811825  1
  Lu  Lu9  1  0.197141  0.600248  0.599971  1
  Lu  Lu10  1  0.060312  0.440661  0.441995  1
  Lu  Lu11  1  0.440986  0.060511  0.061025  1
  Lu  Lu12  1  0.438167  0.062148  0.437377  1
  Th  Th13  1  0.596549  0.599421  0.597950  1
  Th  Th14  1  0.594626  0.600405  0.206742  1
  Th  Th15  1  0.594214  0.205565  0.600577  1
  Zn  Zn16  1  0.831356  0.827016  0.827007  1
  Zn  Zn17  1  0.831863  0.826396  0.514401  1
  Zn  Zn18  1  0.831846  0.514178  0.826504  1
  Zn  Zn19  1  0.513154  0.828917  0.828791  1
  Co  Co20  1  0.395214  0.389950  0.395287  1
  Co  Co21  1  0.397986  0.388967  0.817243  1
  Co  Co22  1  0.399389  0.819831  0.389331  1
  Co  Co23  1  0.815799  0.396850  0.395814  1
