# generated using pymatgen
data_Hf6Ga6Ir5Au
_symmetry_space_group_name_H-M   'P 1'
_cell_length_a   7.23958600
_cell_length_b   7.23958566
_cell_length_c   6.91419200
_cell_angle_alpha   90.00000000
_cell_angle_beta   90.00000000
_cell_angle_gamma   120.00000154
_symmetry_Int_Tables_number   1
_chemical_formula_structural   Hf6Ga6Ir5Au
_chemical_formula_sum   'Hf6 Ga6 Ir5 Au1'
_cell_volume   313.83364656
_cell_formula_units_Z   1
loop_
 _symmetry_equiv_pos_site_id
 _symmetry_equiv_pos_as_xyz
  1  'x, y, z'
loop_
 _atom_site_type_symbol
 _atom_site_label
 _atom_site_symmetry_multiplicity
 _atom_site_fract_x
 _atom_site_fract_y
 _atom_site_fract_z
 _atom_site_occupancy
  Hf  Hf0  1  0.594300  0.585896  0.250000  1
  Hf  Hf1  1  0.007496  0.395391  0.750000  1
  Hf  Hf2  1  0.414104  0.008404  0.250000  1
  Hf  Hf3  1  0.991596  0.405700  0.250000  1
  Hf  Hf4  1  0.387895  0.992504  0.750000  1
  Hf  Hf5  1  0.604609  0.612105  0.750000  1
  Ga  Ga6  1  0.272127  0.272136  0.506797  1
  Ga  Ga7  1  0.727864  0.999991  0.506797  1
  Ga  Ga8  1  0.000009  0.727873  0.506797  1
  Ga  Ga9  1  0.727864  0.999991  0.993203  1
  Ga  Ga10  1  0.272127  0.272136  0.993203  1
  Ga  Ga11  1  0.000009  0.727873  0.993203  1
  Ir  Ir12  1  0.333333  0.666667  0.488690  1
  Ir  Ir13  1  0.000000  0.000000  0.750000  1
  Ir  Ir14  1  0.333333  0.666667  0.011310  1
  Ir  Ir15  1  0.666667  0.333333  0.511412  1
  Ir  Ir16  1  0.666667  0.333333  0.988588  1
  Au  Au17  1  0.000000  0.000000  0.250000  1
