# generated using pymatgen
data_Tb3Tl2Ag3Ir
_symmetry_space_group_name_H-M   'P 1'
_cell_length_a   8.06889097
_cell_length_b   8.03416684
_cell_length_c   3.75217500
_cell_angle_alpha   90.00000000
_cell_angle_beta   90.00000000
_cell_angle_gamma   119.94022762
_symmetry_Int_Tables_number   1
_chemical_formula_structural   Tb3Tl2Ag3Ir
_chemical_formula_sum   'Tb3 Tl2 Ag3 Ir1'
_cell_volume   210.78013266
_cell_formula_units_Z   1
loop_
 _symmetry_equiv_pos_site_id
 _symmetry_equiv_pos_as_xyz
  1  'x, y, z'
loop_
 _atom_site_type_symbol
 _atom_site_label
 _atom_site_symmetry_multiplicity
 _atom_site_fract_x
 _atom_site_fract_y
 _atom_site_fract_z
 _atom_site_occupancy
  Tb  Tb0  1  0.417051  0.373719  0.000000  1
  Tb  Tb1  1  0.606934  0.036459  0.000000  1
  Tb  Tb2  1  0.964999  0.582651  0.000000  1
  Tl  Tl3  1  0.011040  0.274843  0.500000  1
  Tl  Tl4  1  0.718122  0.735661  0.500000  1
  Ag  Ag5  1  0.274198  0.992366  0.500000  1
  Ag  Ag6  1  0.008148  0.995940  0.000000  1
  Ag  Ag7  1  0.330861  0.671848  0.500000  1
  Ir  Ir8  1  0.668648  0.336515  0.500000  1
