# generated using pymatgen
data_La6In8GeBr
_symmetry_space_group_name_H-M   'P 1'
_cell_length_a   8.65654259
_cell_length_b   8.65654132
_cell_length_c   8.65654200
_cell_angle_alpha   119.09993608
_cell_angle_beta   119.09993720
_cell_angle_gamma   91.56615706
_symmetry_Int_Tables_number   1
_chemical_formula_structural   La6In8GeBr
_chemical_formula_sum   'La6 In8 Ge1 Br1'
_cell_volume   464.74131095
_cell_formula_units_Z   1
loop_
 _symmetry_equiv_pos_site_id
 _symmetry_equiv_pos_as_xyz
  1  'x, y, z'
loop_
 _atom_site_type_symbol
 _atom_site_label
 _atom_site_symmetry_multiplicity
 _atom_site_fract_x
 _atom_site_fract_y
 _atom_site_fract_z
 _atom_site_occupancy
  La  La0  1  0.748666  0.748666  0.000000  1
  La  La1  1  0.251334  0.251334  0.000000  1
  La  La2  1  0.347380  0.828368  0.175746  1
  La  La3  1  0.652620  0.171632  0.824254  1
  La  La4  1  0.828368  0.652620  0.480988  1
  La  La5  1  0.171632  0.347380  0.519012  1
  In  In6  1  0.959048  0.456336  0.788901  1
  In  In7  1  0.667435  0.170147  0.211099  1
  In  In8  1  0.456336  0.667435  0.497288  1
  In  In9  1  0.170147  0.959048  0.502712  1
  In  In10  1  0.040952  0.543664  0.211099  1
  In  In11  1  0.332565  0.829853  0.788901  1
  In  In12  1  0.543664  0.332565  0.502712  1
  In  In13  1  0.829853  0.040952  0.497288  1
  Ge  Ge14  1  0.500000  0.500000  0.000000  1
  Br  Br15  1  0.000000  0.000000  0.000000  1
