# generated using pymatgen
data_Tm3Zr(Si3Ni5)4
_symmetry_space_group_name_H-M   'P 1'
_cell_length_a   3.76558500
_cell_length_b   18.60935511
_cell_length_c   6.60916602
_cell_angle_alpha   89.98948225
_cell_angle_beta   90.00000000
_cell_angle_gamma   90.00000000
_symmetry_Int_Tables_number   1
_chemical_formula_structural   Tm3Zr(Si3Ni5)4
_chemical_formula_sum   'Tm3 Zr1 Si12 Ni20'
_cell_volume   463.13801777
_cell_formula_units_Z   1
loop_
 _symmetry_equiv_pos_site_id
 _symmetry_equiv_pos_as_xyz
  1  'x, y, z'
loop_
 _atom_site_type_symbol
 _atom_site_label
 _atom_site_symmetry_multiplicity
 _atom_site_fract_x
 _atom_site_fract_y
 _atom_site_fract_z
 _atom_site_occupancy
  Tm  Tm0  1  0.250000  0.357627  0.877384  1
  Tm  Tm1  1  0.250000  0.855831  0.622947  1
  Tm  Tm2  1  0.750000  0.143585  0.376760  1
  Zr  Zr3  1  0.750000  0.643147  0.122051  1
  Si  Si4  1  0.750000  0.736949  0.621425  1
  Si  Si5  1  0.250000  0.262143  0.377725  1
  Si  Si6  1  0.250000  0.759289  0.120407  1
  Si  Si7  1  0.750000  0.239060  0.876935  1
  Si  Si8  1  0.750000  0.924139  0.344310  1
  Si  Si9  1  0.250000  0.074290  0.654799  1
  Si  Si10  1  0.250000  0.576357  0.853903  1
  Si  Si11  1  0.750000  0.425490  0.155647  1
  Si  Si12  1  0.750000  0.912600  0.917730  1
  Si  Si13  1  0.250000  0.085898  0.082177  1
  Si  Si14  1  0.250000  0.587483  0.407488  1
  Si  Si15  1  0.750000  0.416424  0.585543  1
  Ni  Ni16  1  0.750000  0.798766  0.315546  1
  Ni  Ni17  1  0.250000  0.199765  0.683643  1
  Ni  Ni18  1  0.250000  0.698752  0.817411  1
  Ni  Ni19  1  0.750000  0.300898  0.183842  1
  Ni  Ni20  1  0.750000  0.993308  0.633181  1
  Ni  Ni21  1  0.250000  0.005061  0.366349  1
  Ni  Ni22  1  0.250000  0.505775  0.133649  1
  Ni  Ni23  1  0.750000  0.495366  0.870071  1
  Ni  Ni24  1  0.750000  0.516537  0.380918  1
  Ni  Ni25  1  0.250000  0.488363  0.617525  1
  Ni  Ni26  1  0.250000  0.983926  0.884220  1
  Ni  Ni27  1  0.750000  0.014837  0.115794  1
  Ni  Ni28  1  0.750000  0.791650  0.930021  1
  Ni  Ni29  1  0.250000  0.206634  0.068736  1
  Ni  Ni30  1  0.250000  0.706755  0.428468  1
  Ni  Ni31  1  0.750000  0.295161  0.568873  1
  Ni  Ni32  1  0.750000  0.614248  0.646153  1
  Ni  Ni33  1  0.250000  0.385509  0.358684  1
  Ni  Ni34  1  0.250000  0.882766  0.144692  1
  Ni  Ni35  1  0.750000  0.115611  0.854993  1
