# generated using pymatgen
data_Lu4MgTlAu4
_symmetry_space_group_name_H-M   'P 1'
_cell_length_a   7.99147900
_cell_length_b   7.99147900
_cell_length_c   3.61043900
_cell_angle_alpha   90.00000000
_cell_angle_beta   90.00000000
_cell_angle_gamma   90.00000000
_symmetry_Int_Tables_number   1
_chemical_formula_structural   Lu4MgTlAu4
_chemical_formula_sum   'Lu4 Mg1 Tl1 Au4'
_cell_volume   230.57612533
_cell_formula_units_Z   1
loop_
 _symmetry_equiv_pos_site_id
 _symmetry_equiv_pos_as_xyz
  1  'x, y, z'
loop_
 _atom_site_type_symbol
 _atom_site_label
 _atom_site_symmetry_multiplicity
 _atom_site_fract_x
 _atom_site_fract_y
 _atom_site_fract_z
 _atom_site_occupancy
  Lu  Lu0  1  0.153580  0.324378  0.000000  1
  Lu  Lu1  1  0.846420  0.675622  0.000000  1
  Lu  Lu2  1  0.675622  0.153580  0.000000  1
  Lu  Lu3  1  0.324378  0.846420  0.000000  1
  Mg  Mg4  1  0.500000  0.500000  0.500000  1
  Tl  Tl5  1  0.000000  0.000000  0.500000  1
  Au  Au6  1  0.379775  0.144198  0.500000  1
  Au  Au7  1  0.620225  0.855802  0.500000  1
  Au  Au8  1  0.855802  0.379775  0.500000  1
  Au  Au9  1  0.144198  0.620225  0.500000  1
