# generated using pymatgen
data_Pr2Zn3Ag4
_symmetry_space_group_name_H-M   'P 1'
_cell_length_a   5.46290871
_cell_length_b   5.46290936
_cell_length_c   14.18305700
_cell_angle_alpha   90.00000000
_cell_angle_beta   90.00000000
_cell_angle_gamma   120.01324514
_symmetry_Int_Tables_number   1
_chemical_formula_structural   Pr2Zn3Ag4
_chemical_formula_sum   'Pr4 Zn6 Ag8'
_cell_volume   366.51389036
_cell_formula_units_Z   2
loop_
 _symmetry_equiv_pos_site_id
 _symmetry_equiv_pos_as_xyz
  1  'x, y, z'
loop_
 _atom_site_type_symbol
 _atom_site_label
 _atom_site_symmetry_multiplicity
 _atom_site_fract_x
 _atom_site_fract_y
 _atom_site_fract_z
 _atom_site_occupancy
  Pr  Pr0  1  0.823119  0.823119  0.118868  1
  Pr  Pr1  1  0.176881  0.176881  0.881132  1
  Pr  Pr2  1  0.823119  0.823119  0.381132  1
  Pr  Pr3  1  0.176881  0.176881  0.618868  1
  Zn  Zn4  1  0.169114  0.673584  0.750000  1
  Zn  Zn5  1  0.673584  0.169114  0.750000  1
  Zn  Zn6  1  0.673752  0.673752  0.750000  1
  Zn  Zn7  1  0.326416  0.830886  0.250000  1
  Zn  Zn8  1  0.830886  0.326416  0.250000  1
  Zn  Zn9  1  0.326248  0.326248  0.250000  1
  Ag  Ag10  1  0.162273  0.493901  0.079383  1
  Ag  Ag11  1  0.506099  0.837727  0.920617  1
  Ag  Ag12  1  0.493901  0.162273  0.079383  1
  Ag  Ag13  1  0.837727  0.506099  0.579383  1
  Ag  Ag14  1  0.493901  0.162273  0.420617  1
  Ag  Ag15  1  0.837727  0.506099  0.920617  1
  Ag  Ag16  1  0.506099  0.837727  0.579383  1
  Ag  Ag17  1  0.162273  0.493901  0.420617  1
