# generated using pymatgen
data_Nd3InPd2PtAu2
_symmetry_space_group_name_H-M   'P 1'
_cell_length_a   7.62787134
_cell_length_b   7.77535419
_cell_length_c   3.94602300
_cell_angle_alpha   90.00000000
_cell_angle_beta   90.00000000
_cell_angle_gamma   119.51001000
_symmetry_Int_Tables_number   1
_chemical_formula_structural   Nd3InPd2PtAu2
_chemical_formula_sum   'Nd3 In1 Pd2 Pt1 Au2'
_cell_volume   203.67465635
_cell_formula_units_Z   1
loop_
 _symmetry_equiv_pos_site_id
 _symmetry_equiv_pos_as_xyz
  1  'x, y, z'
loop_
 _atom_site_type_symbol
 _atom_site_label
 _atom_site_symmetry_multiplicity
 _atom_site_fract_x
 _atom_site_fract_y
 _atom_site_fract_z
 _atom_site_occupancy
  Nd  Nd0  1  0.991219  0.590449  0.000000  1
  Nd  Nd1  1  0.396282  0.413968  0.000000  1
  Nd  Nd2  1  0.617572  0.995114  0.000000  1
  In  In3  1  0.258224  0.001878  0.500000  1
  Pd  Pd4  1  0.014098  0.999738  0.000000  1
  Pd  Pd5  1  0.652842  0.323209  0.500000  1
  Pt  Pt6  1  0.329329  0.677666  0.500000  1
  Au  Au7  1  0.739010  0.733073  0.500000  1
  Au  Au8  1  0.001422  0.264906  0.500000  1
