# generated using pymatgen
data_Ho2ThPaPt4
_symmetry_space_group_name_H-M   'P 1'
_cell_length_a   4.49833800
_cell_length_b   5.68554587
_cell_length_c   7.11947826
_cell_angle_alpha   90.36742290
_cell_angle_beta   90.00000000
_cell_angle_gamma   90.00000000
_symmetry_Int_Tables_number   1
_chemical_formula_structural   Ho2ThPaPt4
_chemical_formula_sum   'Ho2 Th1 Pa1 Pt4'
_cell_volume   182.08052238
_cell_formula_units_Z   1
loop_
 _symmetry_equiv_pos_site_id
 _symmetry_equiv_pos_as_xyz
  1  'x, y, z'
loop_
 _atom_site_type_symbol
 _atom_site_label
 _atom_site_symmetry_multiplicity
 _atom_site_fract_x
 _atom_site_fract_y
 _atom_site_fract_z
 _atom_site_occupancy
  Ho  Ho0  1  0.250000  0.142145  0.180106  1
  Ho  Ho1  1  0.750000  0.856472  0.820184  1
  Th  Th2  1  0.750000  0.647936  0.314528  1
  Pa  Pa3  1  0.250000  0.352634  0.686985  1
  Pt  Pt4  1  0.250000  0.837111  0.555011  1
  Pt  Pt5  1  0.250000  0.653442  0.035453  1
  Pt  Pt6  1  0.750000  0.170863  0.463170  1
  Pt  Pt7  1  0.750000  0.339396  0.944564  1
