# generated using pymatgen
data_Dy2Cd2P6N13
_symmetry_space_group_name_H-M   'P 1'
_cell_length_a   7.34268110
_cell_length_b   7.41264030
_cell_length_c   7.34268179
_cell_angle_alpha   109.41844890
_cell_angle_beta   109.19202290
_cell_angle_gamma   109.41845668
_symmetry_Int_Tables_number   1
_chemical_formula_structural   Dy2Cd2P6N13
_chemical_formula_sum   'Dy2 Cd2 P6 N13'
_cell_volume   309.10340768
_cell_formula_units_Z   1
loop_
 _symmetry_equiv_pos_site_id
 _symmetry_equiv_pos_as_xyz
  1  'x, y, z'
loop_
 _atom_site_type_symbol
 _atom_site_label
 _atom_site_symmetry_multiplicity
 _atom_site_fract_x
 _atom_site_fract_y
 _atom_site_fract_z
 _atom_site_occupancy
  Dy  Dy0  1  0.683007  0.000000  0.004226  1
  Dy  Dy1  1  0.004226  0.000000  0.683007  1
  Cd  Cd2  1  0.001751  0.716399  0.001751  1
  Cd  Cd3  1  0.285352  0.283601  0.285352  1
  P  P4  1  0.252456  0.749322  0.501466  1
  P  P5  1  0.752144  0.250678  0.503135  1
  P  P6  1  0.751314  0.500000  0.251314  1
  P  P7  1  0.251314  0.500000  0.751314  1
  P  P8  1  0.501466  0.749322  0.252456  1
  P  P9  1  0.503135  0.250678  0.752144  1
  N  N10  1  0.968663  0.000000  0.968663  1
  N  N11  1  0.718848  0.289084  0.290048  1
  N  N12  1  0.291653  0.723375  0.291653  1
  N  N13  1  0.304301  0.583571  0.584658  1
  N  N14  1  0.584658  0.583571  0.304301  1
  N  N15  1  0.429764  0.710916  0.000964  1
  N  N16  1  0.000964  0.710916  0.429764  1
  N  N17  1  0.568278  0.276625  0.568278  1
  N  N18  1  0.723133  0.000000  0.411710  1
  N  N19  1  0.411710  0.000000  0.723133  1
  N  N20  1  0.720730  0.416429  0.001087  1
  N  N21  1  0.290048  0.289084  0.718848  1
  N  N22  1  0.001087  0.416429  0.720730  1
