# generated using pymatgen
data_BaPr2Ge2O7F2
_symmetry_space_group_name_H-M   'P 1'
_cell_length_a   5.49758531
_cell_length_b   7.20616596
_cell_length_c   12.37338934
_cell_angle_alpha   94.12444890
_cell_angle_beta   101.47934016
_cell_angle_gamma   111.06787135
_symmetry_Int_Tables_number   1
_chemical_formula_structural   BaPr2Ge2O7F2
_chemical_formula_sum   'Ba2 Pr4 Ge4 O14 F4'
_cell_volume   442.72324563
_cell_formula_units_Z   2
loop_
 _symmetry_equiv_pos_site_id
 _symmetry_equiv_pos_as_xyz
  1  'x, y, z'
loop_
 _atom_site_type_symbol
 _atom_site_label
 _atom_site_symmetry_multiplicity
 _atom_site_fract_x
 _atom_site_fract_y
 _atom_site_fract_z
 _atom_site_occupancy
  Ba  Ba0  1  0.585119  0.377450  0.746529  1
  Ba  Ba1  1  0.414881  0.622550  0.253471  1
  Pr  Pr2  1  0.326532  0.793863  0.874928  1
  Pr  Pr3  1  0.673468  0.206137  0.125072  1
  Pr  Pr4  1  0.184002  0.804303  0.542893  1
  Pr  Pr5  1  0.815998  0.195697  0.457107  1
  Ge  Ge6  1  0.775225  0.932998  0.718481  1
  Ge  Ge7  1  0.224775  0.067002  0.281519  1
  Ge  Ge8  1  0.129494  0.252691  0.936677  1
  Ge  Ge9  1  0.870506  0.747309  0.063323  1
  O  O10  1  0.800088  0.070220  0.852964  1
  O  O11  1  0.199912  0.929780  0.147036  1
  O  O12  1  0.374470  0.142647  0.945285  1
  O  O13  1  0.625530  0.857353  0.054715  1
  O  O14  1  0.090529  0.316776  0.069736  1
  O  O15  1  0.909471  0.683224  0.930264  1
  O  O16  1  0.207343  0.439681  0.850732  1
  O  O17  1  0.792657  0.560319  0.149268  1
  O  O18  1  0.476241  0.717209  0.706474  1
  O  O19  1  0.523759  0.282791  0.293526  1
  O  O20  1  0.659326  0.061648  0.617005  1
  O  O21  1  0.340674  0.938352  0.382995  1
  O  O22  1  0.065817  0.887292  0.716150  1
  O  O23  1  0.934183  0.112708  0.283850  1
  F  F24  1  0.789977  0.828267  0.441302  1
  F  F25  1  0.210023  0.171733  0.558698  1
  F  F26  1  0.152040  0.514393  0.425397  1
  F  F27  1  0.847960  0.485607  0.574603  1
