# generated using pymatgen
data_SrPr3Ir8
_symmetry_space_group_name_H-M   'P 1'
_cell_length_a   9.44184296
_cell_length_b   9.44184267
_cell_length_c   9.44184275
_cell_angle_alpha   33.72693948
_cell_angle_beta   33.72694312
_cell_angle_gamma   33.72693717
_symmetry_Int_Tables_number   1
_chemical_formula_structural   SrPr3Ir8
_chemical_formula_sum   'Sr1 Pr3 Ir8'
_cell_volume   231.20071524
_cell_formula_units_Z   1
loop_
 _symmetry_equiv_pos_site_id
 _symmetry_equiv_pos_as_xyz
  1  'x, y, z'
loop_
 _atom_site_type_symbol
 _atom_site_label
 _atom_site_symmetry_multiplicity
 _atom_site_fract_x
 _atom_site_fract_y
 _atom_site_fract_z
 _atom_site_occupancy
  Sr  Sr0  1  0.125612  0.125612  0.125612  1
  Pr  Pr1  1  0.624307  0.624307  0.624307  1
  Pr  Pr2  1  0.001575  0.001575  0.001575  1
  Pr  Pr3  1  0.498456  0.498456  0.498456  1
  Ir  Ir4  1  0.562428  0.562428  0.060319  1
  Ir  Ir5  1  0.062523  0.062523  0.564742  1
  Ir  Ir6  1  0.562428  0.060319  0.562428  1
  Ir  Ir7  1  0.062523  0.564742  0.062523  1
  Ir  Ir8  1  0.812524  0.812524  0.812524  1
  Ir  Ir9  1  0.312566  0.312566  0.312566  1
  Ir  Ir10  1  0.060319  0.562428  0.562428  1
  Ir  Ir11  1  0.564742  0.062523  0.062523  1
