# generated using pymatgen
data_Ca4GaSnPt4
_symmetry_space_group_name_H-M   'P 1'
_cell_length_a   5.72866030
_cell_length_b   5.72866087
_cell_length_c   8.09422174
_cell_angle_alpha   78.66518940
_cell_angle_beta   78.66518852
_cell_angle_gamma   59.99062738
_symmetry_Int_Tables_number   1
_chemical_formula_structural   Ca4GaSnPt4
_chemical_formula_sum   'Ca4 Ga1 Sn1 Pt4'
_cell_volume   224.02141408
_cell_formula_units_Z   1
loop_
 _symmetry_equiv_pos_site_id
 _symmetry_equiv_pos_as_xyz
  1  'x, y, z'
loop_
 _atom_site_type_symbol
 _atom_site_label
 _atom_site_symmetry_multiplicity
 _atom_site_fract_x
 _atom_site_fract_y
 _atom_site_fract_z
 _atom_site_occupancy
  Ca  Ca0  1  0.788101  0.510895  0.350165  1
  Ca  Ca1  1  0.489105  0.211899  0.149835  1
  Ca  Ca2  1  0.208754  0.490348  0.650508  1
  Ca  Ca3  1  0.509652  0.791246  0.849492  1
  Ga  Ga4  1  0.871962  0.128038  0.750000  1
  Sn  Sn5  1  0.148793  0.851207  0.250000  1
  Pt  Pt6  1  0.995385  0.732977  0.990998  1
  Pt  Pt7  1  0.267023  0.004615  0.509002  1
  Pt  Pt8  1  0.989515  0.268290  0.989717  1
  Pt  Pt9  1  0.731710  0.010485  0.510283  1
