# generated using pymatgen
data_YbY7(ReC2)4
_symmetry_space_group_name_H-M   'P 1'
_cell_length_a   5.13076300
_cell_length_b   6.57892700
_cell_length_c   9.94898886
_cell_angle_alpha   89.38236405
_cell_angle_beta   90.00000000
_cell_angle_gamma   90.00000000
_symmetry_Int_Tables_number   1
_chemical_formula_structural   YbY7(ReC2)4
_chemical_formula_sum   'Yb1 Y7 Re4 C8'
_cell_volume   335.80776334
_cell_formula_units_Z   1
loop_
 _symmetry_equiv_pos_site_id
 _symmetry_equiv_pos_as_xyz
  1  'x, y, z'
loop_
 _atom_site_type_symbol
 _atom_site_label
 _atom_site_symmetry_multiplicity
 _atom_site_fract_x
 _atom_site_fract_y
 _atom_site_fract_z
 _atom_site_occupancy
  Yb  Yb0  1  0.250000  0.032815  0.280376  1
  Y  Y1  1  0.250000  0.685164  0.554102  1
  Y  Y2  1  0.750000  0.314793  0.444164  1
  Y  Y3  1  0.750000  0.817091  0.055978  1
  Y  Y4  1  0.250000  0.180746  0.945891  1
  Y  Y5  1  0.250000  0.531226  0.220314  1
  Y  Y6  1  0.750000  0.467615  0.781330  1
  Y  Y7  1  0.750000  0.967171  0.718605  1
  Re  Re8  1  0.250000  0.721862  0.862617  1
  Re  Re9  1  0.750000  0.277811  0.135708  1
  Re  Re10  1  0.750000  0.776605  0.363993  1
  Re  Re11  1  0.250000  0.225850  0.636347  1
  C  C12  1  0.250000  0.456061  0.760021  1
  C  C13  1  0.750000  0.544372  0.240719  1
  C  C14  1  0.750000  0.043673  0.259255  1
  C  C15  1  0.250000  0.957327  0.739365  1
  C  C16  1  0.250000  0.812702  0.044331  1
  C  C17  1  0.750000  0.178522  0.953636  1
  C  C18  1  0.750000  0.683665  0.548406  1
  C  C19  1  0.250000  0.324928  0.454844  1
