# generated using pymatgen
data_Th8Ni8SnHg3
_symmetry_space_group_name_H-M   'P 1'
_cell_length_a   7.64788300
_cell_length_b   7.64788300
_cell_length_c   7.35782800
_cell_angle_alpha   90.00000000
_cell_angle_beta   90.00000000
_cell_angle_gamma   90.00000000
_symmetry_Int_Tables_number   1
_chemical_formula_structural   Th8Ni8SnHg3
_chemical_formula_sum   'Th8 Ni8 Sn1 Hg3'
_cell_volume   430.36020132
_cell_formula_units_Z   1
loop_
 _symmetry_equiv_pos_site_id
 _symmetry_equiv_pos_as_xyz
  1  'x, y, z'
loop_
 _atom_site_type_symbol
 _atom_site_label
 _atom_site_symmetry_multiplicity
 _atom_site_fract_x
 _atom_site_fract_y
 _atom_site_fract_z
 _atom_site_occupancy
  Th  Th0  1  0.174925  0.174868  0.000398  1
  Th  Th1  1  0.674868  0.325075  0.499602  1
  Th  Th2  1  0.325132  0.674925  0.499602  1
  Th  Th3  1  0.825075  0.825132  0.000398  1
  Th  Th4  1  0.671858  0.328293  0.999779  1
  Th  Th5  1  0.828293  0.828142  0.500221  1
  Th  Th6  1  0.171707  0.171858  0.500221  1
  Th  Th7  1  0.328142  0.671707  0.999779  1
  Ni  Ni8  1  0.378146  0.377167  0.254824  1
  Ni  Ni9  1  0.880999  0.127668  0.755194  1
  Ni  Ni10  1  0.119001  0.872332  0.755194  1
  Ni  Ni11  1  0.621854  0.622833  0.254824  1
  Ni  Ni12  1  0.122833  0.878146  0.245176  1
  Ni  Ni13  1  0.877167  0.121854  0.245176  1
  Ni  Ni14  1  0.372332  0.380999  0.744806  1
  Ni  Ni15  1  0.627668  0.619001  0.744806  1
  Sn  Sn16  1  0.000000  0.500000  0.750000  1
  Hg  Hg17  1  0.500000  0.000000  0.250000  1
  Hg  Hg18  1  0.500000  0.000000  0.750000  1
  Hg  Hg19  1  0.000000  0.500000  0.250000  1
