# generated using pymatgen
data_Hf2CoN2
_symmetry_space_group_name_H-M   'P 1'
_cell_length_a   3.15095700
_cell_length_b   3.15091300
_cell_length_c   11.80224200
_cell_angle_alpha   90.00000000
_cell_angle_beta   90.00000000
_cell_angle_gamma   90.00000000
_symmetry_Int_Tables_number   1
_chemical_formula_structural   Hf2CoN2
_chemical_formula_sum   'Hf4 Co2 N4'
_cell_volume   117.17727766
_cell_formula_units_Z   2
loop_
 _symmetry_equiv_pos_site_id
 _symmetry_equiv_pos_as_xyz
  1  'x, y, z'
loop_
 _atom_site_type_symbol
 _atom_site_label
 _atom_site_symmetry_multiplicity
 _atom_site_fract_x
 _atom_site_fract_y
 _atom_site_fract_z
 _atom_site_occupancy
  Hf  Hf0  1  0.248999  0.250000  0.895537  1
  Hf  Hf1  1  0.248999  0.250000  0.604463  1
  Hf  Hf2  1  0.751001  0.750000  0.104463  1
  Hf  Hf3  1  0.751001  0.750000  0.395537  1
  Co  Co4  1  0.252054  0.250000  0.250000  1
  Co  Co5  1  0.747946  0.750000  0.750000  1
  N  N6  1  0.251029  0.250000  0.415901  1
  N  N7  1  0.251029  0.250000  0.084099  1
  N  N8  1  0.748971  0.750000  0.584099  1
  N  N9  1  0.748971  0.750000  0.915901  1
