# generated using pymatgen
data_La4TmSnPb2
_symmetry_space_group_name_H-M   'P 1'
_cell_length_a   9.46615839
_cell_length_b   9.46670267
_cell_length_c   9.46615800
_cell_angle_alpha   96.30250205
_cell_angle_beta   97.07106408
_cell_angle_gamma   140.09162815
_symmetry_Int_Tables_number   1
_chemical_formula_structural   La4TmSnPb2
_chemical_formula_sum   'La8 Tm2 Sn2 Pb4'
_cell_volume   511.56029706
_cell_formula_units_Z   2
loop_
 _symmetry_equiv_pos_site_id
 _symmetry_equiv_pos_as_xyz
  1  'x, y, z'
loop_
 _atom_site_type_symbol
 _atom_site_label
 _atom_site_symmetry_multiplicity
 _atom_site_fract_x
 _atom_site_fract_y
 _atom_site_fract_z
 _atom_site_occupancy
  La  La0  1  0.911108  0.225119  0.136164  1
  La  La1  1  0.224387  0.089714  0.314115  1
  La  La2  1  0.775177  0.909320  0.684445  1
  La  La3  1  0.091342  0.777051  0.868393  1
  La  La4  1  0.724875  0.409320  0.134142  1
  La  La5  1  0.275599  0.589714  0.865328  1
  La  La6  1  0.588953  0.725119  0.314010  1
  La  La7  1  0.408660  0.277051  0.685709  1
  Tm  Tm8  1  0.749981  0.248687  0.498689  1
  Tm  Tm9  1  0.249997  0.748687  0.498706  1
  Sn  Sn10  1  0.347463  0.846962  0.194493  1
  Sn  Sn11  1  0.152469  0.346962  0.499499  1
  Pb  Pb12  1  0.750010  0.750248  0.000242  1
  Pb  Pb13  1  0.250007  0.250248  0.000238  1
  Pb  Pb14  1  0.846582  0.652900  0.499510  1
  Pb  Pb15  1  0.653390  0.152900  0.806319  1
