# generated using pymatgen
data_La4Lu(MoO4)3
_symmetry_space_group_name_H-M   'P 1'
_cell_length_a   5.75714811
_cell_length_b   5.96919446
_cell_length_c   8.24227496
_cell_angle_alpha   89.68423063
_cell_angle_beta   89.88203819
_cell_angle_gamma   89.98661891
_symmetry_Int_Tables_number   1
_chemical_formula_structural   La4Lu(MoO4)3
_chemical_formula_sum   'La4 Lu1 Mo3 O12'
_cell_volume   283.24529297
_cell_formula_units_Z   1
loop_
 _symmetry_equiv_pos_site_id
 _symmetry_equiv_pos_as_xyz
  1  'x, y, z'
loop_
 _atom_site_type_symbol
 _atom_site_label
 _atom_site_symmetry_multiplicity
 _atom_site_fract_x
 _atom_site_fract_y
 _atom_site_fract_z
 _atom_site_occupancy
  La  La0  1  0.015790  0.948468  0.752032  1
  La  La1  1  0.513678  0.553742  0.247811  1
  La  La2  1  0.984210  0.051532  0.247968  1
  La  La3  1  0.486322  0.446258  0.752189  1
  Lu  Lu4  1  0.000000  0.500000  0.500000  1
  Mo  Mo5  1  0.500000  0.000000  0.500000  1
  Mo  Mo6  1  0.000000  0.500000  0.000000  1
  Mo  Mo7  1  0.500000  0.000000  0.000000  1
  O  O8  1  0.694921  0.300874  0.059878  1
  O  O9  1  0.804646  0.801536  0.060164  1
  O  O10  1  0.305079  0.699126  0.940122  1
  O  O11  1  0.693358  0.301039  0.440756  1
  O  O12  1  0.196942  0.196553  0.560357  1
  O  O13  1  0.803058  0.803447  0.439643  1
  O  O14  1  0.114073  0.451938  0.247588  1
  O  O15  1  0.195354  0.198464  0.939836  1
  O  O16  1  0.306642  0.698961  0.559244  1
  O  O17  1  0.615375  0.049540  0.750429  1
  O  O18  1  0.384625  0.950460  0.249571  1
  O  O19  1  0.885927  0.548062  0.752412  1
