# generated using pymatgen
data_DyTm9(Bi3C)2
_symmetry_space_group_name_H-M   'P 1'
_cell_length_a   9.05508000
_cell_length_b   9.05507836
_cell_length_c   6.41843700
_cell_angle_alpha   90.00000000
_cell_angle_beta   90.00000000
_cell_angle_gamma   119.99999868
_symmetry_Int_Tables_number   1
_chemical_formula_structural   DyTm9(Bi3C)2
_chemical_formula_sum   'Dy1 Tm9 Bi6 C2'
_cell_volume   455.76862472
_cell_formula_units_Z   1
loop_
 _symmetry_equiv_pos_site_id
 _symmetry_equiv_pos_as_xyz
  1  'x, y, z'
loop_
 _atom_site_type_symbol
 _atom_site_label
 _atom_site_symmetry_multiplicity
 _atom_site_fract_x
 _atom_site_fract_y
 _atom_site_fract_z
 _atom_site_occupancy
  Dy  Dy0  1  0.666667  0.333333  0.000000  1
  Tm  Tm1  1  0.333333  0.666667  0.000000  1
  Tm  Tm2  1  0.333333  0.666667  0.500000  1
  Tm  Tm3  1  0.666667  0.333333  0.500000  1
  Tm  Tm4  1  0.794290  0.794244  0.749915  1
  Tm  Tm5  1  0.205756  0.000047  0.749915  1
  Tm  Tm6  1  0.999953  0.205710  0.749915  1
  Tm  Tm7  1  0.205756  0.205710  0.250085  1
  Tm  Tm8  1  0.794290  0.000047  0.250085  1
  Tm  Tm9  1  0.999953  0.794244  0.250085  1
  Bi  Bi10  1  0.401197  0.401782  0.749421  1
  Bi  Bi11  1  0.598218  0.999415  0.749421  1
  Bi  Bi12  1  0.000585  0.598803  0.749421  1
  Bi  Bi13  1  0.598218  0.598803  0.250579  1
  Bi  Bi14  1  0.401197  0.999415  0.250579  1
  Bi  Bi15  1  0.000585  0.401782  0.250579  1
  C  C16  1  0.000000  0.000000  0.000000  1
  C  C17  1  0.000000  0.000000  0.500000  1
