# generated using pymatgen
data_CeHf2(Co3P2)3
_symmetry_space_group_name_H-M   'P 1'
_cell_length_a   3.66516600
_cell_length_b   10.38593100
_cell_length_c   12.03182500
_cell_angle_alpha   90.00000000
_cell_angle_beta   90.00000000
_cell_angle_gamma   90.00000000
_symmetry_Int_Tables_number   1
_chemical_formula_structural   CeHf2(Co3P2)3
_chemical_formula_sum   'Ce2 Hf4 Co18 P12'
_cell_volume   458.00538973
_cell_formula_units_Z   2
loop_
 _symmetry_equiv_pos_site_id
 _symmetry_equiv_pos_as_xyz
  1  'x, y, z'
loop_
 _atom_site_type_symbol
 _atom_site_label
 _atom_site_symmetry_multiplicity
 _atom_site_fract_x
 _atom_site_fract_y
 _atom_site_fract_z
 _atom_site_occupancy
  Ce  Ce0  1  0.000000  0.500000  0.529046  1
  Ce  Ce1  1  0.500000  0.000000  0.470954  1
  Hf  Hf2  1  0.500000  0.818648  0.205365  1
  Hf  Hf3  1  0.500000  0.181352  0.205365  1
  Hf  Hf4  1  0.000000  0.681352  0.794635  1
  Hf  Hf5  1  0.000000  0.318648  0.794635  1
  Co  Co6  1  0.500000  0.500000  0.159897  1
  Co  Co7  1  0.000000  0.000000  0.840103  1
  Co  Co8  1  0.500000  0.500000  0.705947  1
  Co  Co9  1  0.000000  0.000000  0.294053  1
  Co  Co10  1  0.000000  0.500000  0.985701  1
  Co  Co11  1  0.500000  0.000000  0.014299  1
  Co  Co12  1  0.500000  0.332889  0.993602  1
  Co  Co13  1  0.500000  0.667111  0.993602  1
  Co  Co14  1  0.000000  0.167111  0.006398  1
  Co  Co15  1  0.000000  0.832889  0.006398  1
  Co  Co16  1  0.500000  0.299015  0.429007  1
  Co  Co17  1  0.500000  0.700985  0.429007  1
  Co  Co18  1  0.000000  0.200985  0.570993  1
  Co  Co19  1  0.000000  0.799015  0.570993  1
  Co  Co20  1  0.500000  0.876445  0.713203  1
  Co  Co21  1  0.500000  0.123555  0.713203  1
  Co  Co22  1  0.000000  0.623555  0.286797  1
  Co  Co23  1  0.000000  0.376445  0.286797  1
  P  P24  1  0.500000  0.500000  0.880356  1
  P  P25  1  0.000000  0.000000  0.119644  1
  P  P26  1  0.500000  0.500000  0.344201  1
  P  P27  1  0.000000  0.000000  0.655799  1
  P  P28  1  0.500000  0.310820  0.620913  1
  P  P29  1  0.500000  0.689180  0.620913  1
  P  P30  1  0.000000  0.189180  0.379087  1
  P  P31  1  0.000000  0.810820  0.379087  1
  P  P32  1  0.500000  0.844193  0.891934  1
  P  P33  1  0.500000  0.155807  0.891934  1
  P  P34  1  0.000000  0.655807  0.108066  1
  P  P35  1  0.000000  0.344193  0.108066  1
