# generated using pymatgen
data_CeY2Er5(ReB6)4
_symmetry_space_group_name_H-M   'P 1'
_cell_length_a   3.68106100
_cell_length_b   9.15944817
_cell_length_c   11.54339800
_cell_angle_alpha   90.04609362
_cell_angle_beta   90.00000000
_cell_angle_gamma   90.00000000
_symmetry_Int_Tables_number   1
_chemical_formula_structural   CeY2Er5(ReB6)4
_chemical_formula_sum   'Ce1 Y2 Er5 Re4 B24'
_cell_volume   389.20270776
_cell_formula_units_Z   1
loop_
 _symmetry_equiv_pos_site_id
 _symmetry_equiv_pos_as_xyz
  1  'x, y, z'
loop_
 _atom_site_type_symbol
 _atom_site_label
 _atom_site_symmetry_multiplicity
 _atom_site_fract_x
 _atom_site_fract_y
 _atom_site_fract_z
 _atom_site_occupancy
  Ce  Ce0  1  0.000000  0.322979  0.413985  1
  Y  Y1  1  0.000000  0.677588  0.586799  1
  Y  Y2  1  0.000000  0.823088  0.085526  1
  Er  Er3  1  0.000000  0.176139  0.913896  1
  Er  Er4  1  0.000000  0.942853  0.369956  1
  Er  Er5  1  0.000000  0.056343  0.630535  1
  Er  Er6  1  0.000000  0.443322  0.128867  1
  Er  Er7  1  0.000000  0.556795  0.870468  1
  Re  Re8  1  0.000000  0.638434  0.320689  1
  Re  Re9  1  0.000000  0.361060  0.679305  1
  Re  Re10  1  0.000000  0.139448  0.179377  1
  Re  Re11  1  0.000000  0.861585  0.820816  1
  B  B12  1  0.500000  0.554065  0.432253  1
  B  B13  1  0.500000  0.446042  0.567982  1
  B  B14  1  0.500000  0.053669  0.066629  1
  B  B15  1  0.500000  0.947024  0.932838  1
  B  B16  1  0.500000  0.750190  0.418366  1
  B  B17  1  0.500000  0.250480  0.582694  1
  B  B18  1  0.500000  0.249277  0.080452  1
  B  B19  1  0.500000  0.750341  0.918365  1
  B  B20  1  0.500000  0.792421  0.265572  1
  B  B21  1  0.500000  0.207641  0.735400  1
  B  B22  1  0.500000  0.291641  0.233628  1
  B  B23  1  0.500000  0.707635  0.765677  1
  B  B24  1  0.500000  0.631235  0.184949  1
  B  B25  1  0.500000  0.369343  0.815004  1
  B  B26  1  0.500000  0.130544  0.313804  1
  B  B27  1  0.500000  0.869242  0.685847  1
  B  B28  1  0.500000  0.982405  0.211775  1
  B  B29  1  0.500000  0.017726  0.788235  1
  B  B30  1  0.500000  0.483709  0.287205  1
  B  B31  1  0.500000  0.517742  0.713083  1
  B  B32  1  0.500000  0.600375  0.027665  1
  B  B33  1  0.500000  0.399470  0.971584  1
  B  B34  1  0.500000  0.099019  0.472439  1
  B  B35  1  0.500000  0.899130  0.528332  1
