# generated using pymatgen
data_Dy2Mn5Fe9(SiC)3
_symmetry_space_group_name_H-M   'P 1'
_cell_length_a   6.43816130
_cell_length_b   6.44851031
_cell_length_c   6.43882481
_cell_angle_alpha   83.40145470
_cell_angle_beta   83.44777852
_cell_angle_gamma   83.51774213
_symmetry_Int_Tables_number   1
_chemical_formula_structural   Dy2Mn5Fe9(SiC)3
_chemical_formula_sum   'Dy2 Mn5 Fe9 Si3 C3'
_cell_volume   262.46056554
_cell_formula_units_Z   1
loop_
 _symmetry_equiv_pos_site_id
 _symmetry_equiv_pos_as_xyz
  1  'x, y, z'
loop_
 _atom_site_type_symbol
 _atom_site_label
 _atom_site_symmetry_multiplicity
 _atom_site_fract_x
 _atom_site_fract_y
 _atom_site_fract_z
 _atom_site_occupancy
  Dy  Dy0  1  0.654249  0.654487  0.652957  1
  Dy  Dy1  1  0.346257  0.345969  0.345854  1
  Mn  Mn2  1  0.719725  0.283130  0.999967  1
  Mn  Mn3  1  0.999405  0.718775  0.282268  1
  Mn  Mn4  1  0.281609  0.999099  0.716602  1
  Mn  Mn5  1  0.999136  0.282319  0.718155  1
  Mn  Mn6  1  0.342085  0.338135  0.859874  1
  Fe  Fe7  1  0.716125  0.999528  0.283668  1
  Fe  Fe8  1  0.283911  0.715547  0.999747  1
  Fe  Fe9  1  0.861683  0.342026  0.338167  1
  Fe  Fe10  1  0.339334  0.861392  0.342027  1
  Fe  Fe11  1  0.661888  0.658294  0.137905  1
  Fe  Fe12  1  0.136239  0.663482  0.657813  1
  Fe  Fe13  1  0.657907  0.137066  0.662875  1
  Fe  Fe14  1  0.902259  0.903724  0.903958  1
  Fe  Fe15  1  0.097334  0.095168  0.097748  1
  Si  Si16  1  0.996595  0.002451  0.499356  1
  Si  Si17  1  0.500108  0.997700  0.002427  1
  Si  Si18  1  0.002388  0.501516  0.998439  1
  C  C19  1  0.501307  0.500355  0.999576  1
  C  C20  1  0.000022  0.499449  0.500785  1
  C  C21  1  0.500434  0.000387  0.499832  1
