# generated using pymatgen
data_Yb11Pr9Sn7Pb9
_symmetry_space_group_name_H-M   'P 1'
_cell_length_a   8.08796224
_cell_length_b   8.65290130
_cell_length_c   16.29934100
_cell_angle_alpha   89.95345699
_cell_angle_beta   89.98612229
_cell_angle_gamma   90.18568432
_symmetry_Int_Tables_number   1
_chemical_formula_structural   Yb11Pr9Sn7Pb9
_chemical_formula_sum   'Yb11 Pr9 Sn7 Pb9'
_cell_volume   1140.69220455
_cell_formula_units_Z   1
loop_
 _symmetry_equiv_pos_site_id
 _symmetry_equiv_pos_as_xyz
  1  'x, y, z'
loop_
 _atom_site_type_symbol
 _atom_site_label
 _atom_site_symmetry_multiplicity
 _atom_site_fract_x
 _atom_site_fract_y
 _atom_site_fract_z
 _atom_site_occupancy
  Yb  Yb0  1  0.330358  0.831864  0.877464  1
  Yb  Yb1  1  0.833689  0.669447  0.623194  1
  Yb  Yb2  1  0.667978  0.169806  0.375379  1
  Yb  Yb3  1  0.169242  0.330581  0.125168  1
  Yb  Yb4  1  0.666997  0.169900  0.125404  1
  Yb  Yb5  1  0.167433  0.330189  0.375473  1
  Yb  Yb6  1  0.329683  0.831798  0.622819  1
  Yb  Yb7  1  0.159402  0.498655  0.748584  1
  Yb  Yb8  1  0.660348  0.000309  0.748178  1
  Yb  Yb9  1  0.839480  0.497292  0.250203  1
  Yb  Yb10  1  0.338994  0.003821  0.250561  1
  Pr  Pr11  1  0.835821  0.673073  0.875110  1
  Pr  Pr12  1  0.493458  0.309619  0.903607  1
  Pr  Pr13  1  0.994206  0.186001  0.597988  1
  Pr  Pr14  1  0.505982  0.686930  0.401162  1
  Pr  Pr15  1  0.008296  0.813386  0.100700  1
  Pr  Pr16  1  0.505863  0.686131  0.100055  1
  Pr  Pr17  1  0.005767  0.812728  0.400691  1
  Pr  Pr18  1  0.492998  0.311458  0.595606  1
  Pr  Pr19  1  0.994172  0.184177  0.901242  1
  Sn  Sn20  1  0.032529  0.898336  0.749488  1
  Sn  Sn21  1  0.468177  0.398375  0.250388  1
  Sn  Sn22  1  0.968959  0.102760  0.249944  1
  Sn  Sn23  1  0.288271  0.141445  0.749791  1
  Sn  Sn24  1  0.786766  0.357124  0.750347  1
  Sn  Sn25  1  0.713021  0.859179  0.249540  1
  Sn  Sn26  1  0.214541  0.641795  0.250007  1
  Pb  Pb27  1  0.322552  0.037989  0.040929  1
  Pb  Pb28  1  0.823782  0.462985  0.459607  1
  Pb  Pb29  1  0.676434  0.962393  0.539515  1
  Pb  Pb30  1  0.177734  0.534509  0.959849  1
  Pb  Pb31  1  0.676102  0.964121  0.961405  1
  Pb  Pb32  1  0.175941  0.536122  0.539631  1
  Pb  Pb33  1  0.323448  0.037758  0.459870  1
  Pb  Pb34  1  0.823816  0.462047  0.040958  1
  Pb  Pb35  1  0.527759  0.605898  0.750142  1
