# generated using pymatgen
data_DyCr2AgO8
_symmetry_space_group_name_H-M   'P 1'
_cell_length_a   5.36057172
_cell_length_b   5.36057164
_cell_length_c   7.28135415
_cell_angle_alpha   87.63665883
_cell_angle_beta   92.36334434
_cell_angle_gamma   113.29987273
_symmetry_Int_Tables_number   1
_chemical_formula_structural   DyCr2AgO8
_chemical_formula_sum   'Dy1 Cr2 Ag1 O8'
_cell_volume   191.93702883
_cell_formula_units_Z   1
loop_
 _symmetry_equiv_pos_site_id
 _symmetry_equiv_pos_as_xyz
  1  'x, y, z'
loop_
 _atom_site_type_symbol
 _atom_site_label
 _atom_site_symmetry_multiplicity
 _atom_site_fract_x
 _atom_site_fract_y
 _atom_site_fract_z
 _atom_site_occupancy
  Dy  Dy0  1  0.000000  0.000000  0.000000  1
  Cr  Cr1  1  0.644498  0.355502  0.241563  1
  Cr  Cr2  1  0.355502  0.644498  0.758437  1
  Ag  Ag3  1  0.000000  0.000000  0.500000  1
  O  O4  1  0.299856  0.224638  0.228195  1
  O  O5  1  0.224638  0.299856  0.771805  1
  O  O6  1  0.254433  0.745567  0.566431  1
  O  O7  1  0.756151  0.243849  0.064941  1
  O  O8  1  0.243849  0.756151  0.935059  1
  O  O9  1  0.745567  0.254433  0.433569  1
  O  O10  1  0.700144  0.775362  0.771805  1
  O  O11  1  0.775362  0.700144  0.228195  1
