# generated using pymatgen
data_Dy10GaSi3Sb4
_symmetry_space_group_name_H-M   'P 1'
_cell_length_a   8.54863025
_cell_length_b   8.54863059
_cell_length_c   7.88992540
_cell_angle_alpha   89.85589629
_cell_angle_beta   89.85590132
_cell_angle_gamma   125.13299297
_symmetry_Int_Tables_number   1
_chemical_formula_structural   Dy10GaSi3Sb4
_chemical_formula_sum   'Dy10 Ga1 Si3 Sb4'
_cell_volume   471.53770537
_cell_formula_units_Z   1
loop_
 _symmetry_equiv_pos_site_id
 _symmetry_equiv_pos_as_xyz
  1  'x, y, z'
loop_
 _atom_site_type_symbol
 _atom_site_label
 _atom_site_symmetry_multiplicity
 _atom_site_fract_x
 _atom_site_fract_y
 _atom_site_fract_z
 _atom_site_occupancy
  Dy  Dy0  1  0.038659  0.292649  0.334729  1
  Dy  Dy1  1  0.958749  0.707157  0.666446  1
  Dy  Dy2  1  0.459452  0.205252  0.831917  1
  Dy  Dy3  1  0.795583  0.541978  0.166466  1
  Dy  Dy4  1  0.541978  0.795583  0.166466  1
  Dy  Dy5  1  0.205252  0.459452  0.831917  1
  Dy  Dy6  1  0.707157  0.958749  0.666446  1
  Dy  Dy7  1  0.292649  0.038659  0.334729  1
  Dy  Dy8  1  0.998493  0.998493  0.998317  1
  Dy  Dy9  1  0.501382  0.501382  0.501750  1
  Ga  Ga10  1  0.370714  0.370714  0.129447  1
  Si  Si11  1  0.628280  0.628280  0.871978  1
  Si  Si12  1  0.131331  0.131331  0.629810  1
  Si  Si13  1  0.869966  0.869966  0.368997  1
  Sb  Sb14  1  0.793451  0.205564  0.999792  1
  Sb  Sb15  1  0.205564  0.793451  0.999792  1
  Sb  Sb16  1  0.706432  0.294909  0.500499  1
  Sb  Sb17  1  0.294909  0.706432  0.500499  1
