# generated using pymatgen
data_Hf6Sc2Co12Si15Ge
_symmetry_space_group_name_H-M   'P 1'
_cell_length_a   5.20227457
_cell_length_b   6.76790226
_cell_length_c   13.66703826
_cell_angle_alpha   90.14557795
_cell_angle_beta   89.96024785
_cell_angle_gamma   90.00102777
_symmetry_Int_Tables_number   1
_chemical_formula_structural   Hf6Sc2Co12Si15Ge
_chemical_formula_sum   'Hf6 Sc2 Co12 Si15 Ge1'
_cell_volume   481.19405375
_cell_formula_units_Z   1
loop_
 _symmetry_equiv_pos_site_id
 _symmetry_equiv_pos_as_xyz
  1  'x, y, z'
loop_
 _atom_site_type_symbol
 _atom_site_label
 _atom_site_symmetry_multiplicity
 _atom_site_fract_x
 _atom_site_fract_y
 _atom_site_fract_z
 _atom_site_occupancy
  Hf  Hf0  1  0.268745  0.098920  0.646146  1
  Hf  Hf1  1  0.768703  0.399797  0.646240  1
  Hf  Hf2  1  0.231051  0.598402  0.355361  1
  Hf  Hf3  1  0.730725  0.900742  0.355489  1
  Hf  Hf4  1  0.268007  0.900127  0.853172  1
  Hf  Hf5  1  0.768395  0.599522  0.853797  1
  Sc  Sc6  1  0.230176  0.403513  0.142547  1
  Sc  Sc7  1  0.729933  0.100403  0.143678  1
  Co  Co8  1  0.993417  0.281225  0.979045  1
  Co  Co9  1  0.506386  0.224802  0.482396  1
  Co  Co10  1  0.774907  0.999870  0.749290  1
  Co  Co11  1  0.500691  0.233633  0.979132  1
  Co  Co12  1  0.725316  0.500858  0.253034  1
  Co  Co13  1  0.495012  0.773906  0.518473  1
  Co  Co14  1  0.006080  0.274582  0.482212  1
  Co  Co15  1  0.004236  0.721850  0.017800  1
  Co  Co16  1  0.225347  0.992457  0.256042  1
  Co  Co17  1  0.275397  0.499708  0.749062  1
  Co  Co18  1  0.507930  0.770207  0.017956  1
  Co  Co19  1  0.994893  0.725297  0.518419  1
  Si  Si20  1  0.717718  0.518600  0.432715  1
  Si  Si21  1  0.782416  0.019612  0.568676  1
  Si  Si22  1  0.482364  0.750984  0.187605  1
  Si  Si23  1  0.020025  0.253513  0.811084  1
  Si  Si24  1  0.519748  0.246317  0.811137  1
  Si  Si25  1  0.217667  0.980071  0.433443  1
  Si  Si26  1  0.282747  0.521456  0.930446  1
  Si  Si27  1  0.977092  0.745593  0.187735  1
  Si  Si28  1  0.716999  0.482283  0.068595  1
  Si  Si29  1  0.282367  0.479978  0.568748  1
  Si  Si30  1  0.478295  0.246441  0.313255  1
  Si  Si31  1  0.019795  0.746126  0.687701  1
  Si  Si32  1  0.779587  0.980817  0.931182  1
  Si  Si33  1  0.520349  0.753033  0.687643  1
  Si  Si34  1  0.980185  0.252290  0.313087  1
  Ge  Ge35  1  0.217300  0.023064  0.067658  1
