# generated using pymatgen
data_Sr4AcU5O18
_symmetry_space_group_name_H-M   'P 1'
_cell_length_a   6.98974529
_cell_length_b   7.78050644
_cell_length_c   8.76742100
_cell_angle_alpha   100.71143432
_cell_angle_beta   98.27356637
_cell_angle_gamma   107.16516679
_symmetry_Int_Tables_number   1
_chemical_formula_structural   Sr4AcU5O18
_chemical_formula_sum   'Sr4 Ac1 U5 O18'
_cell_volume   437.48313424
_cell_formula_units_Z   1
loop_
 _symmetry_equiv_pos_site_id
 _symmetry_equiv_pos_as_xyz
  1  'x, y, z'
loop_
 _atom_site_type_symbol
 _atom_site_label
 _atom_site_symmetry_multiplicity
 _atom_site_fract_x
 _atom_site_fract_y
 _atom_site_fract_z
 _atom_site_occupancy
  Sr  Sr0  1  0.800752  0.102646  0.583330  1
  Sr  Sr1  1  0.599181  0.698175  0.196281  1
  Sr  Sr2  1  0.400819  0.301825  0.803719  1
  Sr  Sr3  1  0.199248  0.897354  0.416670  1
  Ac  Ac4  1  0.000000  0.500000  0.000000  1
  U  U5  1  0.000000  0.000000  0.000000  1
  U  U6  1  0.792974  0.580845  0.587551  1
  U  U7  1  0.618307  0.197215  0.197762  1
  U  U8  1  0.381693  0.802785  0.802238  1
  U  U9  1  0.207026  0.419155  0.412449  1
  O  O10  1  0.827198  0.784858  0.470478  1
  O  O11  1  0.007735  0.238111  0.175984  1
  O  O12  1  0.663887  0.399433  0.070901  1
  O  O13  1  0.455839  0.000505  0.681934  1
  O  O14  1  0.858007  0.349467  0.416404  1
  O  O15  1  0.492513  0.387615  0.348113  1
  O  O16  1  0.244010  0.607228  0.276724  1
  O  O17  1  0.975372  0.816926  0.146237  1
  O  O18  1  0.665011  0.942157  0.990806  1
  O  O19  1  0.334989  0.057843  0.009194  1
  O  O20  1  0.024628  0.183074  0.853763  1
  O  O21  1  0.755990  0.392772  0.723276  1
  O  O22  1  0.507487  0.612385  0.651887  1
  O  O23  1  0.141993  0.650533  0.583596  1
  O  O24  1  0.544161  0.999495  0.318066  1
  O  O25  1  0.336113  0.600567  0.929099  1
  O  O26  1  0.992265  0.761889  0.824016  1
  O  O27  1  0.172802  0.215142  0.529522  1
