# generated using pymatgen
data_Li2Tb4Co15(P4Ru)3
_symmetry_space_group_name_H-M   'P 1'
_cell_length_a   3.69273100
_cell_length_b   10.36960383
_cell_length_c   11.91124164
_cell_angle_alpha   90.14275446
_cell_angle_beta   90.00000000
_cell_angle_gamma   90.00000000
_symmetry_Int_Tables_number   1
_chemical_formula_structural   Li2Tb4Co15(P4Ru)3
_chemical_formula_sum   'Li2 Tb4 Co15 P12 Ru3'
_cell_volume   456.10572573
_cell_formula_units_Z   1
loop_
 _symmetry_equiv_pos_site_id
 _symmetry_equiv_pos_as_xyz
  1  'x, y, z'
loop_
 _atom_site_type_symbol
 _atom_site_label
 _atom_site_symmetry_multiplicity
 _atom_site_fract_x
 _atom_site_fract_y
 _atom_site_fract_z
 _atom_site_occupancy
  Li  Li0  1  0.750000  0.295867  0.009563  1
  Li  Li1  1  0.750000  0.202913  0.509751  1
  Tb  Tb2  1  0.250000  0.584070  0.705748  1
  Tb  Tb3  1  0.250000  0.918520  0.201898  1
  Tb  Tb4  1  0.750000  0.416502  0.291324  1
  Tb  Tb5  1  0.750000  0.083157  0.796729  1
  Co  Co6  1  0.250000  0.090312  0.986499  1
  Co  Co7  1  0.750000  0.598307  0.513722  1
  Co  Co8  1  0.750000  0.905101  0.010176  1
  Co  Co9  1  0.250000  0.217726  0.173686  1
  Co  Co10  1  0.250000  0.277961  0.679826  1
  Co  Co11  1  0.750000  0.777702  0.823748  1
  Co  Co12  1  0.750000  0.722621  0.323579  1
  Co  Co13  1  0.250000  0.883908  0.701940  1
  Co  Co14  1  0.250000  0.618391  0.199107  1
  Co  Co15  1  0.750000  0.114502  0.299416  1
  Co  Co16  1  0.750000  0.383306  0.803945  1
  Co  Co17  1  0.250000  0.464479  0.934391  1
  Co  Co18  1  0.250000  0.034660  0.433732  1
  Co  Co19  1  0.750000  0.535778  0.068135  1
  Co  Co20  1  0.750000  0.965643  0.569334  1
  P  P21  1  0.250000  0.419660  0.113268  1
  P  P22  1  0.250000  0.079662  0.615145  1
  P  P23  1  0.750000  0.577161  0.888486  1
  P  P24  1  0.750000  0.923080  0.388079  1
  P  P25  1  0.250000  0.270726  0.865013  1
  P  P26  1  0.250000  0.224976  0.359776  1
  P  P27  1  0.750000  0.730344  0.133177  1
  P  P28  1  0.750000  0.771272  0.633876  1
  P  P29  1  0.250000  0.602515  0.386844  1
  P  P30  1  0.250000  0.902459  0.891148  1
  P  P31  1  0.750000  0.396828  0.614652  1
  P  P32  1  0.750000  0.100864  0.106369  1
  Ru  Ru33  1  0.250000  0.710779  0.989365  1
  Ru  Ru34  1  0.250000  0.789663  0.491097  1
  Ru  Ru35  1  0.250000  0.408585  0.487451  1
