# generated using pymatgen
data_K2EuNb3O9
_symmetry_space_group_name_H-M   'P 1'
_cell_length_a   4.06200000
_cell_length_b   8.12247052
_cell_length_c   12.85339409
_cell_angle_alpha   71.55241238
_cell_angle_beta   90.00000000
_cell_angle_gamma   90.00000000
_symmetry_Int_Tables_number   1
_chemical_formula_structural   K2EuNb3O9
_chemical_formula_sum   'K4 Eu2 Nb6 O18'
_cell_volume   402.28625637
_cell_formula_units_Z   2
loop_
 _symmetry_equiv_pos_site_id
 _symmetry_equiv_pos_as_xyz
  1  'x, y, z'
loop_
 _atom_site_type_symbol
 _atom_site_label
 _atom_site_symmetry_multiplicity
 _atom_site_fract_x
 _atom_site_fract_y
 _atom_site_fract_z
 _atom_site_occupancy
  K  K0  1  0.000000  0.493263  0.501308  1
  K  K1  1  0.000000  0.659819  0.168553  1
  K  K2  1  0.000000  0.993289  0.501246  1
  K  K3  1  0.000000  0.326442  0.834667  1
  Eu  Eu4  1  0.000000  0.830042  0.826124  1
  Eu  Eu5  1  0.000000  0.156040  0.176134  1
  Nb  Nb6  1  0.500000  0.658933  0.666819  1
  Nb  Nb7  1  0.500000  0.993092  0.001460  1
  Nb  Nb8  1  0.500000  0.327350  0.335970  1
  Nb  Nb9  1  0.500000  0.161987  0.666978  1
  Nb  Nb10  1  0.500000  0.493107  0.001528  1
  Nb  Nb11  1  0.500000  0.824475  0.335849  1
  O  O12  1  0.500000  0.242418  0.501444  1
  O  O13  1  0.500000  0.588875  0.835777  1
  O  O14  1  0.500000  0.922932  0.167222  1
  O  O15  1  0.500000  0.906498  0.675037  1
  O  O16  1  0.500000  0.242136  0.003572  1
  O  O17  1  0.500000  0.577108  0.333402  1
  O  O18  1  0.000000  0.148586  0.673571  1
  O  O19  1  0.000000  0.493018  0.001597  1
  O  O20  1  0.000000  0.837784  0.329250  1
  O  O21  1  0.500000  0.063358  0.835750  1
  O  O22  1  0.500000  0.397463  0.167187  1
  O  O23  1  0.500000  0.743932  0.501469  1
  O  O24  1  0.500000  0.409251  0.669451  1
  O  O25  1  0.500000  0.744106  0.999545  1
  O  O26  1  0.500000  0.079752  0.327978  1
  O  O27  1  0.000000  0.993250  0.001679  1
  O  O28  1  0.000000  0.320380  0.329126  1
  O  O29  1  0.000000  0.666013  0.673709  1
