# generated using pymatgen
data_Nd2Al3Tc14C3
_symmetry_space_group_name_H-M   'P 1'
_cell_length_a   6.97512861
_cell_length_b   6.97512929
_cell_length_c   6.97512900
_cell_angle_alpha   82.44998220
_cell_angle_beta   82.44998692
_cell_angle_gamma   82.44997823
_symmetry_Int_Tables_number   1
_chemical_formula_structural   Nd2Al3Tc14C3
_chemical_formula_sum   'Nd2 Al3 Tc14 C3'
_cell_volume   331.24180441
_cell_formula_units_Z   1
loop_
 _symmetry_equiv_pos_site_id
 _symmetry_equiv_pos_as_xyz
  1  'x, y, z'
loop_
 _atom_site_type_symbol
 _atom_site_label
 _atom_site_symmetry_multiplicity
 _atom_site_fract_x
 _atom_site_fract_y
 _atom_site_fract_z
 _atom_site_occupancy
  Nd  Nd0  1  0.657188  0.657188  0.657188  1
  Nd  Nd1  1  0.342812  0.342812  0.342812  1
  Al  Al2  1  0.000000  0.000000  0.500000  1
  Al  Al3  1  0.500000  0.000000  0.000000  1
  Al  Al4  1  0.000000  0.500000  0.000000  1
  Tc  Tc5  1  0.723551  0.276449  0.000000  1
  Tc  Tc6  1  0.000000  0.723551  0.276449  1
  Tc  Tc7  1  0.276449  0.000000  0.723551  1
  Tc  Tc8  1  0.000000  0.276449  0.723551  1
  Tc  Tc9  1  0.723551  0.000000  0.276449  1
  Tc  Tc10  1  0.276449  0.723551  0.000000  1
  Tc  Tc11  1  0.350522  0.350522  0.851305  1
  Tc  Tc12  1  0.851305  0.350522  0.350522  1
  Tc  Tc13  1  0.350522  0.851305  0.350522  1
  Tc  Tc14  1  0.649478  0.649478  0.148695  1
  Tc  Tc15  1  0.148695  0.649478  0.649478  1
  Tc  Tc16  1  0.649478  0.148695  0.649478  1
  Tc  Tc17  1  0.904781  0.904781  0.904781  1
  Tc  Tc18  1  0.095219  0.095219  0.095219  1
  C  C19  1  0.500000  0.500000  0.000000  1
  C  C20  1  0.000000  0.500000  0.500000  1
  C  C21  1  0.500000  0.000000  0.500000  1
