# generated using pymatgen
data_Er3PaSnPd4Pb
_symmetry_space_group_name_H-M   'P 1'
_cell_length_a   7.86958109
_cell_length_b   7.85926098
_cell_length_c   3.58951300
_cell_angle_alpha   90.00000000
_cell_angle_beta   90.00000000
_cell_angle_gamma   91.17450319
_symmetry_Int_Tables_number   1
_chemical_formula_structural   Er3PaSnPd4Pb
_chemical_formula_sum   'Er3 Pa1 Sn1 Pd4 Pb1'
_cell_volume   221.96147525
_cell_formula_units_Z   1
loop_
 _symmetry_equiv_pos_site_id
 _symmetry_equiv_pos_as_xyz
  1  'x, y, z'
loop_
 _atom_site_type_symbol
 _atom_site_label
 _atom_site_symmetry_multiplicity
 _atom_site_fract_x
 _atom_site_fract_y
 _atom_site_fract_z
 _atom_site_occupancy
  Er  Er0  1  0.165024  0.324088  0.500000  1
  Er  Er1  1  0.836667  0.675368  0.500000  1
  Er  Er2  1  0.320951  0.833112  0.500000  1
  Pa  Pa3  1  0.674379  0.165006  0.500000  1
  Sn  Sn4  1  0.005919  0.995831  0.000000  1
  Pd  Pd5  1  0.378626  0.128621  0.000000  1
  Pd  Pd6  1  0.121365  0.625796  0.000000  1
  Pd  Pd7  1  0.632596  0.881737  0.000000  1
  Pd  Pd8  1  0.868917  0.364474  0.000000  1
  Pb  Pb9  1  0.495554  0.505967  0.000000  1
