# generated using pymatgen
data_Ti4Be4Si3Ge
_symmetry_space_group_name_H-M   'P 1'
_cell_length_a   3.65827600
_cell_length_b   5.98212022
_cell_length_c   6.89495614
_cell_angle_alpha   90.02511127
_cell_angle_beta   90.00000000
_cell_angle_gamma   90.00000000
_symmetry_Int_Tables_number   1
_chemical_formula_structural   Ti4Be4Si3Ge
_chemical_formula_sum   'Ti4 Be4 Si3 Ge1'
_cell_volume   150.89090760
_cell_formula_units_Z   1
loop_
 _symmetry_equiv_pos_site_id
 _symmetry_equiv_pos_as_xyz
  1  'x, y, z'
loop_
 _atom_site_type_symbol
 _atom_site_label
 _atom_site_symmetry_multiplicity
 _atom_site_fract_x
 _atom_site_fract_y
 _atom_site_fract_z
 _atom_site_occupancy
  Ti  Ti0  1  0.000000  0.504921  0.689618  1
  Ti  Ti1  1  0.000000  0.997164  0.816590  1
  Ti  Ti2  1  0.500000  0.503346  0.309214  1
  Ti  Ti3  1  0.500000  0.999559  0.185685  1
  Be  Be4  1  0.000000  0.699837  0.090682  1
  Be  Be5  1  0.000000  0.201351  0.403387  1
  Be  Be6  1  0.500000  0.302198  0.913357  1
  Be  Be7  1  0.500000  0.794163  0.591443  1
  Si  Si8  1  0.000000  0.296571  0.087863  1
  Si  Si9  1  0.000000  0.795110  0.410144  1
  Si  Si10  1  0.500000  0.703042  0.912782  1
  Ge  Ge11  1  0.500000  0.202736  0.589235  1
