# generated using pymatgen
data_V8Mo7Rh
_symmetry_space_group_name_H-M   'P 1'
_cell_length_a   6.13484900
_cell_length_b   6.13484900
_cell_length_c   6.13484900
_cell_angle_alpha   90.00000000
_cell_angle_beta   90.00000000
_cell_angle_gamma   90.00000000
_symmetry_Int_Tables_number   1
_chemical_formula_structural   V8Mo7Rh
_chemical_formula_sum   'V8 Mo7 Rh1'
_cell_volume   230.89346068
_cell_formula_units_Z   1
loop_
 _symmetry_equiv_pos_site_id
 _symmetry_equiv_pos_as_xyz
  1  'x, y, z'
loop_
 _atom_site_type_symbol
 _atom_site_label
 _atom_site_symmetry_multiplicity
 _atom_site_fract_x
 _atom_site_fract_y
 _atom_site_fract_z
 _atom_site_occupancy
  V  V0  1  0.248681  0.248681  0.248681  1
  V  V1  1  0.751319  0.248681  0.248681  1
  V  V2  1  0.248681  0.751319  0.248681  1
  V  V3  1  0.751319  0.751319  0.248681  1
  V  V4  1  0.248681  0.248681  0.751319  1
  V  V5  1  0.751319  0.248681  0.751319  1
  V  V6  1  0.248681  0.751319  0.751319  1
  V  V7  1  0.751319  0.751319  0.751319  1
  Mo  Mo8  1  0.000000  0.000000  0.000000  1
  Mo  Mo9  1  0.500000  0.000000  0.000000  1
  Mo  Mo10  1  0.000000  0.500000  0.000000  1
  Mo  Mo11  1  0.500000  0.500000  0.000000  1
  Mo  Mo12  1  0.000000  0.000000  0.500000  1
  Mo  Mo13  1  0.500000  0.000000  0.500000  1
  Mo  Mo14  1  0.000000  0.500000  0.500000  1
  Rh  Rh15  1  0.500000  0.500000  0.500000  1
