# generated using pymatgen
data_Ho13LuRh6
_symmetry_space_group_name_H-M   'P 1'
_cell_length_a   9.74677500
_cell_length_b   9.74677496
_cell_length_c   6.16571600
_cell_angle_alpha   90.00000000
_cell_angle_beta   90.00000000
_cell_angle_gamma   119.99999673
_symmetry_Int_Tables_number   1
_chemical_formula_structural   Ho13LuRh6
_chemical_formula_sum   'Ho13 Lu1 Rh6'
_cell_volume   507.26633655
_cell_formula_units_Z   1
loop_
 _symmetry_equiv_pos_site_id
 _symmetry_equiv_pos_as_xyz
  1  'x, y, z'
loop_
 _atom_site_type_symbol
 _atom_site_label
 _atom_site_symmetry_multiplicity
 _atom_site_fract_x
 _atom_site_fract_y
 _atom_site_fract_z
 _atom_site_occupancy
  Ho  Ho0  1  0.666667  0.333333  0.955699  1
  Ho  Ho1  1  0.124007  0.875993  0.255930  1
  Ho  Ho2  1  0.751985  0.875993  0.255930  1
  Ho  Ho3  1  0.124007  0.248015  0.255930  1
  Ho  Ho4  1  0.876548  0.123452  0.755411  1
  Ho  Ho5  1  0.246905  0.123452  0.755411  1
  Ho  Ho6  1  0.876548  0.753095  0.755411  1
  Ho  Ho7  1  0.540513  0.459487  0.446096  1
  Ho  Ho8  1  0.918975  0.459487  0.446096  1
  Ho  Ho9  1  0.540513  0.081025  0.446096  1
  Ho  Ho10  1  0.458519  0.541481  0.946531  1
  Ho  Ho11  1  0.082960  0.541481  0.946531  1
  Ho  Ho12  1  0.458519  0.917040  0.946531  1
  Lu  Lu13  1  0.333333  0.666667  0.458115  1
  Rh  Rh14  1  0.810337  0.189663  0.179955  1
  Rh  Rh15  1  0.379325  0.189663  0.179955  1
  Rh  Rh16  1  0.810337  0.620675  0.179955  1
  Rh  Rh17  1  0.190889  0.809111  0.679319  1
  Rh  Rh18  1  0.618222  0.809111  0.679319  1
  Rh  Rh19  1  0.190889  0.381778  0.679319  1
