# generated using pymatgen
data_DyEr(Tm9Sn8)2
_symmetry_space_group_name_H-M   'P 1'
_cell_length_a   7.97019584
_cell_length_b   8.08704405
_cell_length_c   15.29579100
_cell_angle_alpha   89.99436043
_cell_angle_beta   89.61509682
_cell_angle_gamma   90.14804721
_symmetry_Int_Tables_number   1
_chemical_formula_structural   DyEr(Tm9Sn8)2
_chemical_formula_sum   'Dy1 Er1 Tm18 Sn16'
_cell_volume   985.86963427
_cell_formula_units_Z   1
loop_
 _symmetry_equiv_pos_site_id
 _symmetry_equiv_pos_as_xyz
  1  'x, y, z'
loop_
 _atom_site_type_symbol
 _atom_site_label
 _atom_site_symmetry_multiplicity
 _atom_site_fract_x
 _atom_site_fract_y
 _atom_site_fract_z
 _atom_site_occupancy
  Dy  Dy0  1  0.518046  0.320674  0.404491  1
  Er  Er1  1  0.021574  0.178306  0.403591  1
  Tm  Tm2  1  0.369086  0.837754  0.121729  1
  Tm  Tm3  1  0.133647  0.337610  0.623890  1
  Tm  Tm4  1  0.476631  0.678390  0.902733  1
  Tm  Tm5  1  0.870431  0.661810  0.122367  1
  Tm  Tm6  1  0.130561  0.338279  0.877012  1
  Tm  Tm7  1  0.199156  0.504380  0.249295  1
  Tm  Tm8  1  0.698869  0.996052  0.249231  1
  Tm  Tm9  1  0.479121  0.680035  0.596789  1
  Tm  Tm10  1  0.301101  0.004023  0.750377  1
  Tm  Tm11  1  0.633437  0.161828  0.623464  1
  Tm  Tm12  1  0.801460  0.496052  0.750711  1
  Tm  Tm13  1  0.866359  0.662145  0.376545  1
  Tm  Tm14  1  0.022840  0.178563  0.096098  1
  Tm  Tm15  1  0.976700  0.821426  0.902592  1
  Tm  Tm16  1  0.630705  0.161624  0.877434  1
  Tm  Tm17  1  0.524531  0.320910  0.097368  1
  Tm  Tm18  1  0.367992  0.838277  0.376876  1
  Tm  Tm19  1  0.978254  0.821045  0.597003  1
  Sn  Sn20  1  0.795258  0.463531  0.542527  1
  Sn  Sn21  1  0.707123  0.960902  0.459053  1
  Sn  Sn22  1  0.666940  0.849555  0.749929  1
  Sn  Sn23  1  0.202962  0.541460  0.459710  1
  Sn  Sn24  1  0.290821  0.037211  0.958195  1
  Sn  Sn25  1  0.833807  0.349924  0.249714  1
  Sn  Sn26  1  0.790971  0.463011  0.958614  1
  Sn  Sn27  1  0.564921  0.619569  0.249330  1
  Sn  Sn28  1  0.210093  0.535239  0.041230  1
  Sn  Sn29  1  0.435889  0.381371  0.750380  1
  Sn  Sn30  1  0.167173  0.650392  0.749780  1
  Sn  Sn31  1  0.935077  0.118312  0.750441  1
  Sn  Sn32  1  0.293358  0.037831  0.541680  1
  Sn  Sn33  1  0.709175  0.962328  0.041127  1
  Sn  Sn34  1  0.330882  0.149278  0.248930  1
  Sn  Sn35  1  0.065048  0.880901  0.249767  1
