# generated using pymatgen
data_Zr(NbRe6)4
_symmetry_space_group_name_H-M   'P 1'
_cell_length_a   8.43406242
_cell_length_b   8.43406171
_cell_length_c   8.43406200
_cell_angle_alpha   109.47122853
_cell_angle_beta   109.47122684
_cell_angle_gamma   109.47121612
_symmetry_Int_Tables_number   1
_chemical_formula_structural   Zr(NbRe6)4
_chemical_formula_sum   'Zr1 Nb4 Re24'
_cell_volume   461.83669041
_cell_formula_units_Z   1
loop_
 _symmetry_equiv_pos_site_id
 _symmetry_equiv_pos_as_xyz
  1  'x, y, z'
loop_
 _atom_site_type_symbol
 _atom_site_label
 _atom_site_symmetry_multiplicity
 _atom_site_fract_x
 _atom_site_fract_y
 _atom_site_fract_z
 _atom_site_occupancy
  Zr  Zr0  1  0.000000  0.000000  0.000000  1
  Nb  Nb1  1  0.368744  0.368744  0.368744  1
  Nb  Nb2  1  0.000000  0.631256  0.000000  1
  Nb  Nb3  1  0.631256  0.000000  0.000000  1
  Nb  Nb4  1  0.000000  0.000000  0.631256  1
  Re  Re5  1  0.000000  0.399725  0.682477  1
  Re  Re6  1  0.282753  0.600275  0.600275  1
  Re  Re7  1  0.717247  0.317523  0.317523  1
  Re  Re8  1  0.317523  0.717247  0.317523  1
  Re  Re9  1  0.682477  0.000000  0.399725  1
  Re  Re10  1  0.000000  0.682477  0.399725  1
  Re  Re11  1  0.600275  0.600275  0.282753  1
  Re  Re12  1  0.805120  0.805120  0.182762  1
  Re  Re13  1  0.377642  0.194880  0.000000  1
  Re  Re14  1  0.194880  0.377642  0.000000  1
  Re  Re15  1  0.622358  0.817238  0.622358  1
  Re  Re16  1  0.377642  0.000000  0.194880  1
  Re  Re17  1  0.000000  0.377642  0.194880  1
  Re  Re18  1  0.817238  0.622358  0.622358  1
  Re  Re19  1  0.182762  0.805120  0.805120  1
  Re  Re20  1  0.805120  0.182762  0.805120  1
  Re  Re21  1  0.194880  0.000000  0.377642  1
  Re  Re22  1  0.000000  0.194880  0.377642  1
  Re  Re23  1  0.622358  0.622358  0.817238  1
  Re  Re24  1  0.399725  0.000000  0.682477  1
  Re  Re25  1  0.600275  0.282753  0.600275  1
  Re  Re26  1  0.682477  0.399725  0.000000  1
  Re  Re27  1  0.399725  0.682477  0.000000  1
  Re  Re28  1  0.317523  0.317523  0.717247  1
