# generated using pymatgen
data_TbPr(TcB2)3
_symmetry_space_group_name_H-M   'P 1'
_cell_length_a   6.26930264
_cell_length_b   6.26930314
_cell_length_c   7.59288183
_cell_angle_alpha   89.36623676
_cell_angle_beta   89.36623795
_cell_angle_gamma   114.36407268
_symmetry_Int_Tables_number   1
_chemical_formula_structural   TbPr(TcB2)3
_chemical_formula_sum   'Tb2 Pr2 Tc6 B12'
_cell_volume   271.79762328
_cell_formula_units_Z   2
loop_
 _symmetry_equiv_pos_site_id
 _symmetry_equiv_pos_as_xyz
  1  'x, y, z'
loop_
 _atom_site_type_symbol
 _atom_site_label
 _atom_site_symmetry_multiplicity
 _atom_site_fract_x
 _atom_site_fract_y
 _atom_site_fract_z
 _atom_site_occupancy
  Tb  Tb0  1  0.900768  0.559516  0.322163  1
  Tb  Tb1  1  0.440484  0.099232  0.177837  1
  Pr  Pr2  1  0.091822  0.438998  0.672882  1
  Pr  Pr3  1  0.561002  0.908178  0.827118  1
  Tc  Tc4  1  0.413432  0.586568  0.250000  1
  Tc  Tc5  1  0.584001  0.415999  0.750000  1
  Tc  Tc6  1  0.011101  0.195847  0.090627  1
  Tc  Tc7  1  0.804153  0.988899  0.409373  1
  Tc  Tc8  1  0.989763  0.803170  0.913580  1
  Tc  Tc9  1  0.196830  0.010237  0.586420  1
  B  B10  1  0.759204  0.846006  0.133218  1
  B  B11  1  0.153994  0.240796  0.366782  1
  B  B12  1  0.243280  0.150937  0.872247  1
  B  B13  1  0.849063  0.756720  0.627753  1
  B  B14  1  0.416945  0.843715  0.476708  1
  B  B15  1  0.156285  0.583055  0.023292  1
  B  B16  1  0.584342  0.159645  0.512798  1
  B  B17  1  0.840355  0.415658  0.987202  1
  B  B18  1  0.560092  0.650393  0.530782  1
  B  B19  1  0.349607  0.439908  0.969218  1
  B  B20  1  0.443657  0.350179  0.464490  1
  B  B21  1  0.649821  0.556343  0.035510  1
