# generated using pymatgen
data_Y4Al18CuIr4Ru
_symmetry_space_group_name_H-M   'P 1'
_cell_length_a   7.56995151
_cell_length_b   7.56995207
_cell_length_c   9.48380682
_cell_angle_alpha   90.11865909
_cell_angle_beta   90.11865603
_cell_angle_gamma   119.62536352
_symmetry_Int_Tables_number   1
_chemical_formula_structural   Y4Al18CuIr4Ru
_chemical_formula_sum   'Y4 Al18 Cu1 Ir4 Ru1'
_cell_volume   472.41428972
_cell_formula_units_Z   1
loop_
 _symmetry_equiv_pos_site_id
 _symmetry_equiv_pos_as_xyz
  1  'x, y, z'
loop_
 _atom_site_type_symbol
 _atom_site_label
 _atom_site_symmetry_multiplicity
 _atom_site_fract_x
 _atom_site_fract_y
 _atom_site_fract_z
 _atom_site_occupancy
  Y  Y0  1  0.995638  0.670705  0.250102  1
  Y  Y1  1  0.004404  0.329356  0.749651  1
  Y  Y2  1  0.670644  0.995596  0.250349  1
  Y  Y3  1  0.329295  0.004362  0.749898  1
  Al  Al4  1  0.128513  0.128844  0.250905  1
  Al  Al5  1  0.871156  0.871487  0.749095  1
  Al  Al6  1  0.999516  0.338260  0.075834  1
  Al  Al7  1  0.996725  0.659630  0.924353  1
  Al  Al8  1  0.999500  0.665948  0.573776  1
  Al  Al9  1  0.334052  0.000500  0.426224  1
  Al  Al10  1  0.000225  0.334576  0.426259  1
  Al  Al11  1  0.665424  0.999775  0.573741  1
  Al  Al12  1  0.661740  0.000484  0.924166  1
  Al  Al13  1  0.340370  0.003275  0.075647  1
  Al  Al14  1  0.333755  0.333892  0.550943  1
  Al  Al15  1  0.666108  0.666245  0.449057  1
  Al  Al16  1  0.663939  0.661476  0.052320  1
  Al  Al17  1  0.338524  0.336061  0.947680  1
  Al  Al18  1  0.337860  0.547503  0.250076  1
  Al  Al19  1  0.661687  0.450834  0.751377  1
  Al  Al20  1  0.549166  0.338313  0.248623  1
  Al  Al21  1  0.452497  0.662140  0.749924  1
  Cu  Cu22  1  0.999860  0.000140  0.000000  1
  Ir  Ir23  1  0.328274  0.671726  0.000000  1
  Ir  Ir24  1  0.327902  0.672098  0.500000  1
  Ir  Ir25  1  0.671606  0.328394  0.500000  1
  Ir  Ir26  1  0.999662  0.000338  0.500000  1
  Ru  Ru27  1  0.671961  0.328039  0.000000  1
