# generated using pymatgen
data_BaTm(AgSn)2
_symmetry_space_group_name_H-M   'P 1'
_cell_length_a   4.87124700
_cell_length_b   4.87124805
_cell_length_c   8.15226100
_cell_angle_alpha   90.00000000
_cell_angle_beta   90.00000000
_cell_angle_gamma   120.00001322
_symmetry_Int_Tables_number   1
_chemical_formula_structural   BaTm(AgSn)2
_chemical_formula_sum   'Ba1 Tm1 Ag2 Sn2'
_cell_volume   167.52863342
_cell_formula_units_Z   1
loop_
 _symmetry_equiv_pos_site_id
 _symmetry_equiv_pos_as_xyz
  1  'x, y, z'
loop_
 _atom_site_type_symbol
 _atom_site_label
 _atom_site_symmetry_multiplicity
 _atom_site_fract_x
 _atom_site_fract_y
 _atom_site_fract_z
 _atom_site_occupancy
  Ba  Ba0  1  0.000000  0.000000  0.504524  1
  Tm  Tm1  1  0.000000  0.000000  0.004143  1
  Ag  Ag2  1  0.333333  0.666667  0.834134  1
  Ag  Ag3  1  0.666667  0.333333  0.182946  1
  Sn  Sn4  1  0.666667  0.333333  0.797294  1
  Sn  Sn5  1  0.333333  0.666667  0.210039  1
