# generated using pymatgen
data_Tb4Y2OsPt
_symmetry_space_group_name_H-M   'P 1'
_cell_length_a   6.47341700
_cell_length_b   7.31752626
_cell_length_c   9.28886600
_cell_angle_alpha   90.01524489
_cell_angle_beta   90.00000000
_cell_angle_gamma   90.00000000
_symmetry_Int_Tables_number   1
_chemical_formula_structural   Tb4Y2OsPt
_chemical_formula_sum   'Tb8 Y4 Os2 Pt2'
_cell_volume   440.00798315
_cell_formula_units_Z   2
loop_
 _symmetry_equiv_pos_site_id
 _symmetry_equiv_pos_as_xyz
  1  'x, y, z'
loop_
 _atom_site_type_symbol
 _atom_site_label
 _atom_site_symmetry_multiplicity
 _atom_site_fract_x
 _atom_site_fract_y
 _atom_site_fract_z
 _atom_site_occupancy
  Tb  Tb0  1  0.123605  0.041916  0.249966  1
  Tb  Tb1  1  0.623605  0.458084  0.750034  1
  Tb  Tb2  1  0.674239  0.182358  0.059595  1
  Tb  Tb3  1  0.174239  0.317642  0.940405  1
  Tb  Tb4  1  0.827727  0.674342  0.436171  1
  Tb  Tb5  1  0.327727  0.825658  0.563829  1
  Tb  Tb6  1  0.328341  0.824938  0.936305  1
  Tb  Tb7  1  0.828341  0.675062  0.063695  1
  Y  Y8  1  0.370544  0.531887  0.249872  1
  Y  Y9  1  0.870544  0.968113  0.750128  1
  Y  Y10  1  0.173781  0.318105  0.558402  1
  Y  Y11  1  0.673781  0.181895  0.441598  1
  Os  Os12  1  0.958098  0.386973  0.249924  1
  Os  Os13  1  0.458098  0.113027  0.750076  1
  Pt  Pt14  1  0.543665  0.888695  0.249866  1
  Pt  Pt15  1  0.043665  0.611305  0.750134  1
