# generated using pymatgen
data_Sm2Ho3Er3(WO6)4
_symmetry_space_group_name_H-M   'P 1'
_cell_length_a   5.41143127
_cell_length_b   7.72350071
_cell_length_c   11.47909856
_cell_angle_alpha   75.44875883
_cell_angle_beta   90.00967501
_cell_angle_gamma   90.03626162
_symmetry_Int_Tables_number   1
_chemical_formula_structural   Sm2Ho3Er3(WO6)4
_chemical_formula_sum   'Sm2 Ho3 Er3 W4 O24'
_cell_volume   464.38158990
_cell_formula_units_Z   1
loop_
 _symmetry_equiv_pos_site_id
 _symmetry_equiv_pos_as_xyz
  1  'x, y, z'
loop_
 _atom_site_type_symbol
 _atom_site_label
 _atom_site_symmetry_multiplicity
 _atom_site_fract_x
 _atom_site_fract_y
 _atom_site_fract_z
 _atom_site_occupancy
  Sm  Sm0  1  0.684457  0.499862  0.750287  1
  Sm  Sm1  1  0.315772  0.499861  0.249900  1
  Ho  Ho2  1  0.741489  0.000203  0.750450  1
  Ho  Ho3  1  0.258489  0.000062  0.249650  1
  Ho  Ho4  1  0.184832  0.796178  0.577333  1
  Er  Er5  1  0.815840  0.795543  0.077552  1
  Er  Er6  1  0.184443  0.204369  0.922377  1
  Er  Er7  1  0.815117  0.204273  0.422380  1
  W  W8  1  0.254853  0.726333  0.884956  1
  W  W9  1  0.745560  0.726515  0.384340  1
  W  W10  1  0.254480  0.273439  0.615278  1
  W  W11  1  0.745438  0.273504  0.115301  1
  O  O12  1  0.044163  0.941304  0.896282  1
  O  O13  1  0.536256  0.845596  0.931197  1
  O  O14  1  0.955993  0.941769  0.395659  1
  O  O15  1  0.456583  0.793993  0.726972  1
  O  O16  1  0.464435  0.846003  0.430017  1
  O  O17  1  0.983048  0.716684  0.770600  1
  O  O18  1  0.544404  0.793996  0.226063  1
  O  O19  1  0.851583  0.638726  0.547047  1
  O  O20  1  0.351964  0.491051  0.886722  1
  O  O21  1  0.017310  0.716903  0.269934  1
  O  O22  1  0.352805  0.508420  0.613385  1
  O  O23  1  0.852660  0.361078  0.952761  1
  O  O24  1  0.147488  0.638585  0.047455  1
  O  O25  1  0.648230  0.491116  0.386267  1
  O  O26  1  0.983286  0.283383  0.730228  1
  O  O27  1  0.648269  0.508781  0.113339  1
  O  O28  1  0.147283  0.361147  0.452771  1
  O  O29  1  0.455808  0.205703  0.773730  1
  O  O30  1  0.016711  0.283057  0.229995  1
  O  O31  1  0.535282  0.153967  0.569196  1
  O  O32  1  0.544075  0.205873  0.273629  1
  O  O33  1  0.042249  0.059336  0.603931  1
  O  O34  1  0.463427  0.154741  0.069184  1
  O  O35  1  0.955919  0.058645  0.103831  1
