# generated using pymatgen
data_Y12ZnCo4Bi
_symmetry_space_group_name_H-M   'P 1'
_cell_length_a   8.37533475
_cell_length_b   8.37533446
_cell_length_c   8.37533363
_cell_angle_alpha   109.99122711
_cell_angle_beta   111.20498727
_cell_angle_gamma   107.24258620
_symmetry_Int_Tables_number   1
_chemical_formula_structural   Y12ZnCo4Bi
_chemical_formula_sum   'Y12 Zn1 Co4 Bi1'
_cell_volume   451.69269055
_cell_formula_units_Z   1
loop_
 _symmetry_equiv_pos_site_id
 _symmetry_equiv_pos_as_xyz
  1  'x, y, z'
loop_
 _atom_site_type_symbol
 _atom_site_label
 _atom_site_symmetry_multiplicity
 _atom_site_fract_x
 _atom_site_fract_y
 _atom_site_fract_z
 _atom_site_occupancy
  Y  Y0  1  0.286531  0.183623  0.470154  1
  Y  Y1  1  0.713469  0.816377  0.529846  1
  Y  Y2  1  0.286531  0.816377  0.102910  1
  Y  Y3  1  0.713469  0.183623  0.897090  1
  Y  Y4  1  0.618872  0.312342  0.306530  1
  Y  Y5  1  0.381128  0.687658  0.693470  1
  Y  Y6  1  0.005812  0.312342  0.693470  1
  Y  Y7  1  0.994188  0.687658  0.306530  1
  Y  Y8  1  0.217761  0.423589  0.205828  1
  Y  Y9  1  0.782239  0.576411  0.794172  1
  Y  Y10  1  0.217761  0.011933  0.794172  1
  Y  Y11  1  0.782239  0.988067  0.205828  1
  Zn  Zn12  1  0.000000  0.000000  0.000000  1
  Co  Co13  1  0.000000  0.378915  0.378915  1
  Co  Co14  1  0.000000  0.621085  0.621085  1
  Co  Co15  1  0.389084  0.889084  0.500000  1
  Co  Co16  1  0.610916  0.110916  0.500000  1
  Bi  Bi17  1  0.500000  0.500000  0.000000  1
