# generated using pymatgen
data_Cs5Tc3Se7
_symmetry_space_group_name_H-M   'P 1'
_cell_length_a   11.53072948
_cell_length_b   11.52720699
_cell_length_c   11.72162534
_cell_angle_alpha   59.60741715
_cell_angle_beta   59.57850127
_cell_angle_gamma   60.14535654
_symmetry_Int_Tables_number   1
_chemical_formula_structural   Cs5Tc3Se7
_chemical_formula_sum   'Cs10 Tc6 Se14'
_cell_volume   1096.03127503
_cell_formula_units_Z   2
loop_
 _symmetry_equiv_pos_site_id
 _symmetry_equiv_pos_as_xyz
  1  'x, y, z'
loop_
 _atom_site_type_symbol
 _atom_site_label
 _atom_site_symmetry_multiplicity
 _atom_site_fract_x
 _atom_site_fract_y
 _atom_site_fract_z
 _atom_site_occupancy
  Cs  Cs0  1  0.010231  0.010238  0.988628  1
  Cs  Cs1  1  0.423748  0.985957  0.003234  1
  Cs  Cs2  1  0.413644  0.996120  0.584032  1
  Cs  Cs3  1  0.851418  0.851351  0.856529  1
  Cs  Cs4  1  0.836935  0.836994  0.434599  1
  Cs  Cs5  1  0.996165  0.413556  0.584156  1
  Cs  Cs6  1  0.032261  0.032310  0.440507  1
  Cs  Cs7  1  0.985921  0.423842  0.003302  1
  Cs  Cs8  1  0.187092  0.574458  0.118307  1
  Cs  Cs9  1  0.574464  0.187101  0.118387  1
  Tc  Tc10  1  0.383133  0.615534  0.613848  1
  Tc  Tc11  1  0.382340  0.382337  0.617693  1
  Tc  Tc12  1  0.381579  0.614735  0.387836  1
  Tc  Tc13  1  0.615452  0.383207  0.613751  1
  Tc  Tc14  1  0.615675  0.615679  0.382348  1
  Tc  Tc15  1  0.614813  0.381502  0.387744  1
  Se  Se16  1  0.219960  0.219926  0.782896  1
  Se  Se17  1  0.209691  0.779130  0.770441  1
  Se  Se18  1  0.389585  0.389706  0.827460  1
  Se  Se19  1  0.167843  0.608145  0.612066  1
  Se  Se20  1  0.610054  0.610178  0.606321  1
  Se  Se21  1  0.203135  0.780534  0.244726  1
  Se  Se22  1  0.388234  0.388105  0.393729  1
  Se  Se23  1  0.395315  0.830019  0.386980  1
  Se  Se24  1  0.608121  0.167848  0.611901  1
  Se  Se25  1  0.778852  0.209913  0.770099  1
  Se  Se26  1  0.830019  0.395331  0.386816  1
  Se  Se27  1  0.607388  0.607249  0.173605  1
  Se  Se28  1  0.780903  0.780904  0.208459  1
  Se  Se29  1  0.780830  0.202895  0.244405  1
