# generated using pymatgen
data_Ba3LuInWO9
_symmetry_space_group_name_H-M   'P 1'
_cell_length_a   10.41024092
_cell_length_b   10.41024177
_cell_length_c   10.41024139
_cell_angle_alpha   146.38949545
_cell_angle_beta   132.27003319
_cell_angle_gamma   59.63907493
_symmetry_Int_Tables_number   1
_chemical_formula_structural   Ba3LuInWO9
_chemical_formula_sum   'Ba6 Lu2 In2 W2 O18'
_cell_volume   457.97812451
_cell_formula_units_Z   2
loop_
 _symmetry_equiv_pos_site_id
 _symmetry_equiv_pos_as_xyz
  1  'x, y, z'
loop_
 _atom_site_type_symbol
 _atom_site_label
 _atom_site_symmetry_multiplicity
 _atom_site_fract_x
 _atom_site_fract_y
 _atom_site_fract_z
 _atom_site_occupancy
  Ba  Ba0  1  0.582168  0.839790  0.742378  1
  Ba  Ba1  1  0.264391  0.500000  0.764391  1
  Ba  Ba2  1  0.902588  0.160210  0.742378  1
  Ba  Ba3  1  0.097412  0.839790  0.257622  1
  Ba  Ba4  1  0.735609  0.500000  0.235609  1
  Ba  Ba5  1  0.417832  0.160210  0.257622  1
  Lu  Lu6  1  0.331246  0.331246  0.000000  1
  Lu  Lu7  1  0.668754  0.668754  0.000000  1
  In  In8  1  0.000000  0.000000  0.000000  1
  In  In9  1  0.500000  0.000000  0.500000  1
  W  W10  1  0.167279  0.667279  0.500000  1
  W  W11  1  0.832721  0.332721  0.500000  1
  O  O12  1  0.595631  0.329578  0.266052  1
  O  O13  1  0.241147  0.000000  0.241147  1
  O  O14  1  0.936474  0.670422  0.266052  1
  O  O15  1  0.909232  0.639119  0.729888  1
  O  O16  1  0.586621  0.337513  0.750892  1
  O  O17  1  0.243554  0.976274  0.732720  1
  O  O18  1  0.756446  0.489168  0.732720  1
  O  O19  1  0.413379  0.164271  0.750892  1
  O  O20  1  0.090768  0.820656  0.729888  1
  O  O21  1  0.063526  0.329578  0.733948  1
  O  O22  1  0.758853  0.000000  0.758853  1
  O  O23  1  0.404369  0.670422  0.733948  1
  O  O24  1  0.756446  0.023726  0.267280  1
  O  O25  1  0.413379  0.662487  0.249108  1
  O  O26  1  0.090768  0.360881  0.270112  1
  O  O27  1  0.909232  0.179344  0.270112  1
  O  O28  1  0.586621  0.835729  0.249108  1
  O  O29  1  0.243554  0.510832  0.267280  1
