# generated using pymatgen
data_Er20Cd6FePd
_symmetry_space_group_name_H-M   'P 1'
_cell_length_a   9.52780100
_cell_length_b   9.52779271
_cell_length_c   9.70299200
_cell_angle_alpha   90.00000000
_cell_angle_beta   90.00000000
_cell_angle_gamma   120.00001837
_symmetry_Int_Tables_number   1
_chemical_formula_structural   Er20Cd6FePd
_chemical_formula_sum   'Er20 Cd6 Fe1 Pd1'
_cell_volume   762.81847393
_cell_formula_units_Z   1
loop_
 _symmetry_equiv_pos_site_id
 _symmetry_equiv_pos_as_xyz
  1  'x, y, z'
loop_
 _atom_site_type_symbol
 _atom_site_label
 _atom_site_symmetry_multiplicity
 _atom_site_fract_x
 _atom_site_fract_y
 _atom_site_fract_z
 _atom_site_occupancy
  Er  Er0  1  0.211873  0.788127  0.935993  1
  Er  Er1  1  0.211872  0.423744  0.935992  1
  Er  Er2  1  0.576256  0.788128  0.935992  1
  Er  Er3  1  0.792554  0.207445  0.057319  1
  Er  Er4  1  0.792554  0.585108  0.057319  1
  Er  Er5  1  0.414892  0.207446  0.057320  1
  Er  Er6  1  0.792554  0.207445  0.442681  1
  Er  Er7  1  0.792554  0.585108  0.442681  1
  Er  Er8  1  0.414892  0.207446  0.442680  1
  Er  Er9  1  0.211873  0.788127  0.564007  1
  Er  Er10  1  0.211872  0.423744  0.564008  1
  Er  Er11  1  0.576256  0.788128  0.564008  1
  Er  Er12  1  0.541339  0.458660  0.750000  1
  Er  Er13  1  0.541340  0.082679  0.750000  1
  Er  Er14  1  0.917322  0.458661  0.750000  1
  Er  Er15  1  0.456507  0.543492  0.250000  1
  Er  Er16  1  0.456508  0.913016  0.250000  1
  Er  Er17  1  0.086983  0.543492  0.250000  1
  Er  Er18  1  0.000000  0.999999  0.000513  1
  Er  Er19  1  0.000000  0.999999  0.499487  1
  Cd  Cd20  1  0.884767  0.115232  0.750000  1
  Cd  Cd21  1  0.884767  0.769536  0.750000  1
  Cd  Cd22  1  0.230464  0.115233  0.750000  1
  Cd  Cd23  1  0.115282  0.884719  0.250000  1
  Cd  Cd24  1  0.115282  0.230562  0.250000  1
  Cd  Cd25  1  0.769438  0.884718  0.250000  1
  Fe  Fe26  1  0.333334  0.666667  0.750000  1
  Pd  Pd27  1  0.666667  0.333334  0.250000  1
