# generated using pymatgen
data_Nd2CdHgRh
_symmetry_space_group_name_H-M   'P 1'
_cell_length_a   8.14078664
_cell_length_b   8.14078664
_cell_length_c   3.87800100
_cell_angle_alpha   90.00000000
_cell_angle_beta   90.00000000
_cell_angle_gamma   88.24231710
_symmetry_Int_Tables_number   1
_chemical_formula_structural   Nd2CdHgRh
_chemical_formula_sum   'Nd4 Cd2 Hg2 Rh2'
_cell_volume   256.88353730
_cell_formula_units_Z   2
loop_
 _symmetry_equiv_pos_site_id
 _symmetry_equiv_pos_as_xyz
  1  'x, y, z'
loop_
 _atom_site_type_symbol
 _atom_site_label
 _atom_site_symmetry_multiplicity
 _atom_site_fract_x
 _atom_site_fract_y
 _atom_site_fract_z
 _atom_site_occupancy
  Nd  Nd0  1  0.651800  0.151800  0.500000  1
  Nd  Nd1  1  0.348200  0.848200  0.500000  1
  Nd  Nd2  1  0.192217  0.307783  0.500000  1
  Nd  Nd3  1  0.807783  0.692217  0.500000  1
  Cd  Cd4  1  0.000000  0.000000  0.000000  1
  Cd  Cd5  1  0.500000  0.500000  0.000000  1
  Hg  Hg6  1  0.131339  0.631339  0.000000  1
  Hg  Hg7  1  0.868661  0.368661  0.000000  1
  Rh  Rh8  1  0.629540  0.870460  0.000000  1
  Rh  Rh9  1  0.370460  0.129540  0.000000  1
