# generated using pymatgen
data_Dy5Ho(MoO6)2
_symmetry_space_group_name_H-M   'P 1'
_cell_length_a   6.64037327
_cell_length_b   6.63785356
_cell_length_c   6.63968038
_cell_angle_alpha   92.11116037
_cell_angle_beta   92.13587201
_cell_angle_gamma   92.13848161
_symmetry_Int_Tables_number   1
_chemical_formula_structural   Dy5Ho(MoO6)2
_chemical_formula_sum   'Dy5 Ho1 Mo2 O12'
_cell_volume   292.04143164
_cell_formula_units_Z   1
loop_
 _symmetry_equiv_pos_site_id
 _symmetry_equiv_pos_as_xyz
  1  'x, y, z'
loop_
 _atom_site_type_symbol
 _atom_site_label
 _atom_site_symmetry_multiplicity
 _atom_site_fract_x
 _atom_site_fract_y
 _atom_site_fract_z
 _atom_site_occupancy
  Dy  Dy0  1  0.746744  0.930991  0.439388  1
  Dy  Dy1  1  0.930769  0.439406  0.746832  1
  Dy  Dy2  1  0.439552  0.746767  0.930943  1
  Dy  Dy3  1  0.253302  0.069199  0.560534  1
  Dy  Dy4  1  0.069096  0.560416  0.253218  1
  Ho  Ho5  1  0.560501  0.253213  0.069205  1
  Mo  Mo6  1  0.500040  0.499843  0.499970  1
  Mo  Mo7  1  0.999963  0.000142  0.000047  1
  O  O8  1  0.596171  0.465247  0.811320  1
  O  O9  1  0.465935  0.810683  0.596326  1
  O  O10  1  0.810691  0.596319  0.465969  1
  O  O11  1  0.404121  0.533254  0.188993  1
  O  O12  1  0.534088  0.189476  0.402685  1
  O  O13  1  0.189316  0.403705  0.534048  1
  O  O14  1  0.069578  0.909832  0.310085  1
  O  O15  1  0.908996  0.309987  0.069683  1
  O  O16  1  0.689686  0.931183  0.090009  1
  O  O17  1  0.090178  0.689959  0.930423  1
  O  O18  1  0.930472  0.090109  0.689898  1
  O  O19  1  0.310802  0.070268  0.910426  1
