# generated using pymatgen
data_Ti4Nb3Co8Si14W
_symmetry_space_group_name_H-M   'P 1'
_cell_length_a   9.16413330
_cell_length_b   9.16416121
_cell_length_c   9.16943821
_cell_angle_alpha   94.19843265
_cell_angle_beta   94.19694162
_cell_angle_gamma   148.59706126
_symmetry_Int_Tables_number   1
_chemical_formula_structural   Ti4Nb3Co8Si14W
_chemical_formula_sum   'Ti4 Nb3 Co8 Si14 W1'
_cell_volume   386.28865818
_cell_formula_units_Z   1
loop_
 _symmetry_equiv_pos_site_id
 _symmetry_equiv_pos_as_xyz
  1  'x, y, z'
loop_
 _atom_site_type_symbol
 _atom_site_label
 _atom_site_symmetry_multiplicity
 _atom_site_fract_x
 _atom_site_fract_y
 _atom_site_fract_z
 _atom_site_occupancy
  Ti  Ti0  1  0.500994  0.691205  0.192217  1
  Ti  Ti1  1  0.500153  0.308819  0.808990  1
  Ti  Ti2  1  0.308822  0.500145  0.808968  1
  Ti  Ti3  1  0.691235  0.501007  0.192198  1
  Nb  Nb4  1  0.867274  0.867275  0.734534  1
  Nb  Nb5  1  0.866163  0.133139  0.999293  1
  Nb  Nb6  1  0.133147  0.866141  0.999293  1
  Co  Co7  1  0.399198  0.899215  0.798426  1
  Co  Co8  1  0.101186  0.601206  0.202383  1
  Co  Co9  1  0.100255  0.899443  0.498956  1
  Co  Co10  1  0.398692  0.599514  0.498960  1
  Co  Co11  1  0.599542  0.398720  0.498979  1
  Co  Co12  1  0.899454  0.100240  0.498973  1
  Co  Co13  1  0.899220  0.399229  0.798456  1
  Co  Co14  1  0.601196  0.101207  0.202383  1
  Si  Si15  1  0.293357  0.293394  0.586686  1
  Si  Si16  1  0.706035  0.706081  0.412206  1
  Si  Si17  1  0.706278  0.294120  0.000443  1
  Si  Si18  1  0.294154  0.706343  0.000454  1
  Si  Si19  1  0.001279  0.294739  0.295976  1
  Si  Si20  1  0.999675  0.703018  0.702656  1
  Si  Si21  1  0.702955  0.999603  0.702612  1
  Si  Si22  1  0.294696  0.001226  0.295939  1
  Si  Si23  1  0.500125  0.905628  0.405802  1
  Si  Si24  1  0.499952  0.094290  0.594279  1
  Si  Si25  1  0.094308  0.499957  0.594248  1
  Si  Si26  1  0.905688  0.500165  0.405774  1
  Si  Si27  1  0.749840  0.749826  0.002543  1
  Si  Si28  1  0.252720  0.252701  0.002547  1
  W  W29  1  0.132404  0.132405  0.264824  1
