# generated using pymatgen
data_Ta4Be3Al5
_symmetry_space_group_name_H-M   'P 1'
_cell_length_a   4.89473242
_cell_length_b   4.89473426
_cell_length_c   8.11300000
_cell_angle_alpha   90.00000000
_cell_angle_beta   90.00000000
_cell_angle_gamma   119.42156845
_symmetry_Int_Tables_number   1
_chemical_formula_structural   Ta4Be3Al5
_chemical_formula_sum   'Ta4 Be3 Al5'
_cell_volume   169.30591885
_cell_formula_units_Z   1
loop_
 _symmetry_equiv_pos_site_id
 _symmetry_equiv_pos_as_xyz
  1  'x, y, z'
loop_
 _atom_site_type_symbol
 _atom_site_label
 _atom_site_symmetry_multiplicity
 _atom_site_fract_x
 _atom_site_fract_y
 _atom_site_fract_z
 _atom_site_occupancy
  Ta  Ta0  1  0.665748  0.334252  0.308283  1
  Ta  Ta1  1  0.336492  0.663508  0.186275  1
  Ta  Ta2  1  0.336492  0.663508  0.813725  1
  Ta  Ta3  1  0.665748  0.334252  0.691717  1
  Be  Be4  1  0.166917  0.833083  0.500000  1
  Be  Be5  1  0.350771  0.190514  0.000000  1
  Be  Be6  1  0.809486  0.649229  0.000000  1
  Al  Al7  1  0.014532  0.985468  0.240179  1
  Al  Al8  1  0.014532  0.985468  0.759821  1
  Al  Al9  1  0.653869  0.835348  0.500000  1
  Al  Al10  1  0.164652  0.346131  0.500000  1
  Al  Al11  1  0.820806  0.179194  0.000000  1
