# generated using pymatgen
data_Yb2Er2CoOs7
_symmetry_space_group_name_H-M   'P 1'
_cell_length_a   5.28509784
_cell_length_b   5.28509909
_cell_length_c   8.77170075
_cell_angle_alpha   89.66030643
_cell_angle_beta   90.33969296
_cell_angle_gamma   120.93173394
_symmetry_Int_Tables_number   1
_chemical_formula_structural   Yb2Er2CoOs7
_chemical_formula_sum   'Yb2 Er2 Co1 Os7'
_cell_volume   210.16286465
_cell_formula_units_Z   1
loop_
 _symmetry_equiv_pos_site_id
 _symmetry_equiv_pos_as_xyz
  1  'x, y, z'
loop_
 _atom_site_type_symbol
 _atom_site_label
 _atom_site_symmetry_multiplicity
 _atom_site_fract_x
 _atom_site_fract_y
 _atom_site_fract_z
 _atom_site_occupancy
  Yb  Yb0  1  0.672734  0.327266  0.942592  1
  Yb  Yb1  1  0.335929  0.664071  0.061090  1
  Er  Er2  1  0.332654  0.667346  0.427756  1
  Er  Er3  1  0.667389  0.332611  0.568525  1
  Co  Co4  1  0.821717  0.178283  0.255847  1
  Os  Os5  1  0.008114  0.991886  0.495046  1
  Os  Os6  1  0.012955  0.987045  0.004030  1
  Os  Os7  1  0.821212  0.660735  0.249738  1
  Os  Os8  1  0.339265  0.178788  0.249738  1
  Os  Os9  1  0.163754  0.836246  0.751209  1
  Os  Os10  1  0.172393  0.348114  0.747214  1
  Os  Os11  1  0.651886  0.827607  0.747214  1
