# generated using pymatgen
data_Li4Dy(HoSi2)3
_symmetry_space_group_name_H-M   'P 1'
_cell_length_a   9.24162703
_cell_length_b   9.24162725
_cell_length_c   6.66634600
_cell_angle_alpha   90.00000000
_cell_angle_beta   90.00000000
_cell_angle_gamma   153.48952388
_symmetry_Int_Tables_number   1
_chemical_formula_structural   Li4Dy(HoSi2)3
_chemical_formula_sum   'Li4 Dy1 Ho3 Si6'
_cell_volume   254.13905125
_cell_formula_units_Z   1
loop_
 _symmetry_equiv_pos_site_id
 _symmetry_equiv_pos_as_xyz
  1  'x, y, z'
loop_
 _atom_site_type_symbol
 _atom_site_label
 _atom_site_symmetry_multiplicity
 _atom_site_fract_x
 _atom_site_fract_y
 _atom_site_fract_z
 _atom_site_occupancy
  Li  Li0  1  0.809807  0.190193  0.558957  1
  Li  Li1  1  0.190228  0.809772  0.441104  1
  Li  Li2  1  0.190228  0.809772  0.058896  1
  Li  Li3  1  0.809807  0.190193  0.941043  1
  Dy  Dy4  1  0.552129  0.447871  0.250000  1
  Ho  Ho5  1  0.447815  0.552185  0.750000  1
  Ho  Ho6  1  0.344578  0.655422  0.250000  1
  Ho  Ho7  1  0.655426  0.344574  0.750000  1
  Si  Si8  1  0.940377  0.059623  0.072069  1
  Si  Si9  1  0.059519  0.940481  0.927454  1
  Si  Si10  1  0.059519  0.940481  0.572546  1
  Si  Si11  1  0.940377  0.059623  0.427931  1
  Si  Si12  1  0.719956  0.280044  0.250000  1
  Si  Si13  1  0.280233  0.719767  0.750000  1
