# generated using pymatgen
data_Dy3Y5Ta11Si16Ag
_symmetry_space_group_name_H-M   'P 1'
_cell_length_a   7.06303041
_cell_length_b   7.06382940
_cell_length_c   13.01756624
_cell_angle_alpha   89.77599665
_cell_angle_beta   90.22066539
_cell_angle_gamma   89.70977960
_symmetry_Int_Tables_number   1
_chemical_formula_structural   Dy3Y5Ta11Si16Ag
_chemical_formula_sum   'Dy3 Y5 Ta11 Si16 Ag1'
_cell_volume   649.45479813
_cell_formula_units_Z   1
loop_
 _symmetry_equiv_pos_site_id
 _symmetry_equiv_pos_as_xyz
  1  'x, y, z'
loop_
 _atom_site_type_symbol
 _atom_site_label
 _atom_site_symmetry_multiplicity
 _atom_site_fract_x
 _atom_site_fract_y
 _atom_site_fract_z
 _atom_site_occupancy
  Dy  Dy0  1  0.503324  0.158982  0.217284  1
  Dy  Dy1  1  0.496928  0.841718  0.716308  1
  Dy  Dy2  1  0.344189  0.998914  0.467900  1
  Y  Y3  1  0.997851  0.658471  0.032725  1
  Y  Y4  1  0.999092  0.344206  0.532188  1
  Y  Y5  1  0.658418  0.997862  0.967372  1
  Y  Y6  1  0.158999  0.503440  0.782695  1
  Y  Y7  1  0.841618  0.496697  0.283605  1
  Ta  Ta8  1  0.347144  0.502390  0.376927  1
  Ta  Ta9  1  0.849734  0.991839  0.375945  1
  Ta  Ta10  1  0.008398  0.152507  0.126793  1
  Ta  Ta11  1  0.991794  0.850003  0.623980  1
  Ta  Ta12  1  0.502456  0.346979  0.622977  1
  Ta  Ta13  1  0.152660  0.008426  0.873299  1
  Ta  Ta14  1  0.828946  0.172963  0.749986  1
  Ta  Ta15  1  0.173214  0.829119  0.249948  1
  Ta  Ta16  1  0.328639  0.328508  0.000019  1
  Ta  Ta17  1  0.494506  0.651197  0.123637  1
  Ta  Ta18  1  0.651155  0.494588  0.876427  1
  Si  Si19  1  0.059079  0.710896  0.434983  1
  Si  Si20  1  0.954573  0.294462  0.936618  1
  Si  Si21  1  0.710422  0.058704  0.565030  1
  Si  Si22  1  0.206730  0.455335  0.187397  1
  Si  Si23  1  0.793629  0.544348  0.689789  1
  Si  Si24  1  0.455613  0.206388  0.812588  1
  Si  Si25  1  0.543970  0.794212  0.310289  1
  Si  Si26  1  0.294709  0.954767  0.063466  1
  Si  Si27  1  0.798274  0.864209  0.183317  1
  Si  Si28  1  0.282395  0.629673  0.571136  1
  Si  Si29  1  0.704776  0.364878  0.068274  1
  Si  Si30  1  0.629035  0.281693  0.428759  1
  Si  Si31  1  0.365187  0.705110  0.931685  1
  Si  Si32  1  0.134983  0.202580  0.318794  1
  Si  Si33  1  0.203180  0.134251  0.681208  1
  Si  Si34  1  0.863886  0.798626  0.816633  1
  Ag  Ag35  1  0.670492  0.671058  0.500016  1
