# generated using pymatgen
data_CaAcGaIr2
_symmetry_space_group_name_H-M   'P 1'
_cell_length_a   5.85054637
_cell_length_b   5.85054699
_cell_length_c   5.85054620
_cell_angle_alpha   138.43726369
_cell_angle_beta   119.18573176
_cell_angle_gamma   76.35696701
_symmetry_Int_Tables_number   1
_chemical_formula_structural   CaAcGaIr2
_chemical_formula_sum   'Ca1 Ac1 Ga1 Ir2'
_cell_volume   113.07847299
_cell_formula_units_Z   1
loop_
 _symmetry_equiv_pos_site_id
 _symmetry_equiv_pos_as_xyz
  1  'x, y, z'
loop_
 _atom_site_type_symbol
 _atom_site_label
 _atom_site_symmetry_multiplicity
 _atom_site_fract_x
 _atom_site_fract_y
 _atom_site_fract_z
 _atom_site_occupancy
  Ca  Ca0  1  0.297970  0.797970  0.500000  1
  Ac  Ac1  1  0.700645  0.200646  0.500000  1
  Ga  Ga2  1  0.002822  0.002822  0.000000  1
  Ir  Ir3  1  0.733884  0.499281  0.234604  1
  Ir  Ir4  1  0.264677  0.499281  0.765396  1
