# generated using pymatgen
data_DyErTm10Co5Sn
_symmetry_space_group_name_H-M   'P 1'
_cell_length_a   8.17059860
_cell_length_b   8.17059757
_cell_length_c   8.16293054
_cell_angle_alpha   106.76592787
_cell_angle_beta   110.78898417
_cell_angle_gamma   110.92919318
_symmetry_Int_Tables_number   1
_chemical_formula_structural   DyErTm10Co5Sn
_chemical_formula_sum   'Dy1 Er1 Tm10 Co5 Sn1'
_cell_volume   418.60571219
_cell_formula_units_Z   1
loop_
 _symmetry_equiv_pos_site_id
 _symmetry_equiv_pos_as_xyz
  1  'x, y, z'
loop_
 _atom_site_type_symbol
 _atom_site_label
 _atom_site_symmetry_multiplicity
 _atom_site_fract_x
 _atom_site_fract_y
 _atom_site_fract_z
 _atom_site_occupancy
  Dy  Dy0  1  0.806060  0.211600  0.017661  1
  Er  Er1  1  0.193852  0.788513  0.982364  1
  Tm  Tm2  1  0.473753  0.289228  0.185484  1
  Tm  Tm3  1  0.104170  0.288789  0.814452  1
  Tm  Tm4  1  0.896256  0.711731  0.185484  1
  Tm  Tm5  1  0.525664  0.710282  0.814452  1
  Tm  Tm6  1  0.306413  0.619456  0.314855  1
  Tm  Tm7  1  0.303959  0.991226  0.685072  1
  Tm  Tm8  1  0.693847  0.381113  0.685072  1
  Tm  Tm9  1  0.695399  0.008441  0.314855  1
  Tm  Tm10  1  0.194670  0.211718  0.406389  1
  Tm  Tm11  1  0.805844  0.788048  0.593891  1
  Co  Co12  1  0.501378  0.612884  0.114262  1
  Co  Co13  1  0.498383  0.387327  0.885710  1
  Co  Co14  1  0.375856  0.000581  0.376436  1
  Co  Co15  1  0.623890  0.999169  0.623060  1
  Co  Co16  1  0.000434  0.999598  0.000032  1
  Sn  Sn17  1  0.000173  0.500295  0.500468  1
