# generated using pymatgen
data_Tb6NdSm(Si3Pd)4
_symmetry_space_group_name_H-M   'P 1'
_cell_length_a   8.18061500
_cell_length_b   8.18061526
_cell_length_c   8.22879300
_cell_angle_alpha   90.00000000
_cell_angle_beta   90.00000000
_cell_angle_gamma   119.99999490
_symmetry_Int_Tables_number   1
_chemical_formula_structural   Tb6NdSm(Si3Pd)4
_chemical_formula_sum   'Tb6 Nd1 Sm1 Si12 Pd4'
_cell_volume   476.91250908
_cell_formula_units_Z   1
loop_
 _symmetry_equiv_pos_site_id
 _symmetry_equiv_pos_as_xyz
  1  'x, y, z'
loop_
 _atom_site_type_symbol
 _atom_site_label
 _atom_site_symmetry_multiplicity
 _atom_site_fract_x
 _atom_site_fract_y
 _atom_site_fract_z
 _atom_site_occupancy
  Tb  Tb0  1  0.499512  0.500488  0.750000  1
  Tb  Tb1  1  0.500482  0.499518  0.250000  1
  Tb  Tb2  1  0.000977  0.500488  0.750000  1
  Tb  Tb3  1  0.999037  0.499518  0.250000  1
  Tb  Tb4  1  0.499512  0.999023  0.750000  1
  Tb  Tb5  1  0.500482  0.000963  0.250000  1
  Nd  Nd6  1  0.000000  0.000000  0.250000  1
  Sm  Sm7  1  0.000000  0.000000  0.750000  1
  Si  Si8  1  0.833719  0.166281  0.997170  1
  Si  Si9  1  0.166284  0.833716  0.998407  1
  Si  Si10  1  0.332561  0.166281  0.997170  1
  Si  Si11  1  0.166284  0.833716  0.501593  1
  Si  Si12  1  0.667432  0.833716  0.998407  1
  Si  Si13  1  0.833719  0.166281  0.502830  1
  Si  Si14  1  0.833719  0.667439  0.997170  1
  Si  Si15  1  0.667432  0.833716  0.501593  1
  Si  Si16  1  0.166284  0.332568  0.998407  1
  Si  Si17  1  0.332561  0.166281  0.502830  1
  Si  Si18  1  0.166284  0.332568  0.501593  1
  Si  Si19  1  0.833719  0.667439  0.502830  1
  Pd  Pd20  1  0.666667  0.333333  0.999821  1
  Pd  Pd21  1  0.333333  0.666667  0.001409  1
  Pd  Pd22  1  0.333333  0.666667  0.498591  1
  Pd  Pd23  1  0.666667  0.333333  0.500179  1
