# generated using pymatgen
data_CdAg10(PbO4)3
_symmetry_space_group_name_H-M   'P 1'
_cell_length_a   8.83376293
_cell_length_b   8.83376284
_cell_length_c   6.01974339
_cell_angle_alpha   70.11478775
_cell_angle_beta   70.11478983
_cell_angle_gamma   72.43253546
_symmetry_Int_Tables_number   1
_chemical_formula_structural   CdAg10(PbO4)3
_chemical_formula_sum   'Cd1 Ag10 Pb3 O12'
_cell_volume   406.09921345
_cell_formula_units_Z   1
loop_
 _symmetry_equiv_pos_site_id
 _symmetry_equiv_pos_as_xyz
  1  'x, y, z'
loop_
 _atom_site_type_symbol
 _atom_site_label
 _atom_site_symmetry_multiplicity
 _atom_site_fract_x
 _atom_site_fract_y
 _atom_site_fract_z
 _atom_site_occupancy
  Cd  Cd0  1  0.417754  0.582246  0.000000  1
  Ag  Ag1  1  0.250205  0.249688  0.002529  1
  Ag  Ag2  1  0.750101  0.749818  0.496414  1
  Ag  Ag3  1  0.250182  0.249899  0.503586  1
  Ag  Ag4  1  0.750312  0.749795  0.997471  1
  Ag  Ag5  1  0.499916  0.001034  0.749667  1
  Ag  Ag6  1  0.998966  0.500084  0.250333  1
  Ag  Ag7  1  0.118069  0.612071  0.633542  1
  Ag  Ag8  1  0.612901  0.118657  0.135470  1
  Ag  Ag9  1  0.387929  0.881931  0.366458  1
  Ag  Ag10  1  0.881343  0.387099  0.864530  1
  Pb  Pb11  1  0.915644  0.084356  0.500000  1
  Pb  Pb12  1  0.577934  0.422066  0.500000  1
  Pb  Pb13  1  0.088070  0.911930  0.000000  1
  O  O14  1  0.665314  0.528676  0.705012  1
  O  O15  1  0.156854  0.033326  0.220740  1
  O  O16  1  0.536894  0.660989  0.221617  1
  O  O17  1  0.030843  0.156143  0.719569  1
  O  O18  1  0.341450  0.855131  0.774060  1
  O  O19  1  0.846447  0.342864  0.278168  1
  O  O20  1  0.339011  0.463106  0.778383  1
  O  O21  1  0.843857  0.969157  0.280431  1
  O  O22  1  0.471324  0.334686  0.294988  1
  O  O23  1  0.966674  0.843146  0.779260  1
  O  O24  1  0.657136  0.153553  0.721832  1
  O  O25  1  0.144869  0.658550  0.225940  1
