# generated using pymatgen
data_Tm3(ThSn2)2
_symmetry_space_group_name_H-M   'P 1'
_cell_length_a   8.10901000
_cell_length_b   8.17538300
_cell_length_c   15.44633900
_cell_angle_alpha   90.00000000
_cell_angle_beta   90.00000000
_cell_angle_gamma   90.00000000
_symmetry_Int_Tables_number   1
_chemical_formula_structural   Tm3(ThSn2)2
_chemical_formula_sum   'Tm12 Th8 Sn16'
_cell_volume   1024.00365234
_cell_formula_units_Z   4
loop_
 _symmetry_equiv_pos_site_id
 _symmetry_equiv_pos_as_xyz
  1  'x, y, z'
loop_
 _atom_site_type_symbol
 _atom_site_label
 _atom_site_symmetry_multiplicity
 _atom_site_fract_x
 _atom_site_fract_y
 _atom_site_fract_z
 _atom_site_occupancy
  Tm  Tm0  1  0.362578  0.837298  0.875815  1
  Tm  Tm1  1  0.862578  0.662702  0.624185  1
  Tm  Tm2  1  0.637422  0.162702  0.375815  1
  Tm  Tm3  1  0.137422  0.337298  0.124185  1
  Tm  Tm4  1  0.637422  0.162702  0.124185  1
  Tm  Tm5  1  0.137422  0.337298  0.375815  1
  Tm  Tm6  1  0.362578  0.837298  0.624185  1
  Tm  Tm7  1  0.862578  0.662702  0.875815  1
  Tm  Tm8  1  0.191977  0.498700  0.750000  1
  Tm  Tm9  1  0.691977  0.001300  0.750000  1
  Tm  Tm10  1  0.808023  0.501300  0.250000  1
  Tm  Tm11  1  0.308023  0.998700  0.250000  1
  Th  Th12  1  0.519915  0.320798  0.903896  1
  Th  Th13  1  0.019915  0.179202  0.596104  1
  Th  Th14  1  0.480085  0.679202  0.403896  1
  Th  Th15  1  0.980085  0.820798  0.096104  1
  Th  Th16  1  0.480085  0.679202  0.096104  1
  Th  Th17  1  0.980085  0.820798  0.403896  1
  Th  Th18  1  0.519915  0.320798  0.596104  1
  Th  Th19  1  0.019915  0.179202  0.903896  1
  Sn  Sn20  1  0.298623  0.040315  0.042503  1
  Sn  Sn21  1  0.798623  0.459685  0.457497  1
  Sn  Sn22  1  0.701377  0.959685  0.542503  1
  Sn  Sn23  1  0.201377  0.540315  0.957497  1
  Sn  Sn24  1  0.701377  0.959685  0.957497  1
  Sn  Sn25  1  0.201377  0.540315  0.542503  1
  Sn  Sn26  1  0.298623  0.040315  0.457497  1
  Sn  Sn27  1  0.798623  0.459685  0.042503  1
  Sn  Sn28  1  0.558056  0.624046  0.750000  1
  Sn  Sn29  1  0.058056  0.875954  0.750000  1
  Sn  Sn30  1  0.441944  0.375954  0.250000  1
  Sn  Sn31  1  0.941944  0.124046  0.250000  1
  Sn  Sn32  1  0.327024  0.142516  0.750000  1
  Sn  Sn33  1  0.827024  0.357484  0.750000  1
  Sn  Sn34  1  0.672976  0.857484  0.250000  1
  Sn  Sn35  1  0.172976  0.642516  0.250000  1
