# generated using pymatgen
data_Th2Be25Ni
_symmetry_space_group_name_H-M   'P 1'
_cell_length_a   7.32229581
_cell_length_b   7.32179006
_cell_length_c   7.33957448
_cell_angle_alpha   60.17985596
_cell_angle_beta   59.91734486
_cell_angle_gamma   60.15847261
_symmetry_Int_Tables_number   1
_chemical_formula_structural   Th2Be25Ni
_chemical_formula_sum   'Th2 Be25 Ni1'
_cell_volume   278.77429863
_cell_formula_units_Z   1
loop_
 _symmetry_equiv_pos_site_id
 _symmetry_equiv_pos_as_xyz
  1  'x, y, z'
loop_
 _atom_site_type_symbol
 _atom_site_label
 _atom_site_symmetry_multiplicity
 _atom_site_fract_x
 _atom_site_fract_y
 _atom_site_fract_z
 _atom_site_occupancy
  Th  Th0  1  0.250003  0.246793  0.249854  1
  Th  Th1  1  0.746650  0.750146  0.753207  1
  Be  Be2  1  0.937025  0.290656  0.709344  1
  Be  Be3  1  0.708000  0.060579  0.939421  1
  Be  Be4  1  0.064733  0.711801  0.288199  1
  Be  Be5  1  0.060681  0.290970  0.936805  1
  Be  Be6  1  0.935103  0.064252  0.289416  1
  Be  Be7  1  0.288456  0.063195  0.709030  1
  Be  Be8  1  0.288772  0.710583  0.935747  1
  Be  Be9  1  0.710493  0.937704  0.291028  1
  Be  Be10  1  0.060364  0.939101  0.710998  1
  Be  Be11  1  0.939225  0.708972  0.062296  1
  Be  Be12  1  0.710465  0.289001  0.060898  1
  Be  Be13  1  0.562871  0.214511  0.434994  1
  Be  Be14  1  0.212375  0.565007  0.785490  1
  Be  Be15  1  0.438328  0.786067  0.563417  1
  Be  Be16  1  0.787810  0.436584  0.213934  1
  Be  Be17  1  0.210934  0.436539  0.563461  1
  Be  Be18  1  0.436331  0.562584  0.213711  1
  Be  Be19  1  0.436246  0.213498  0.786502  1
  Be  Be20  1  0.786550  0.213422  0.562935  1
  Be  Be21  1  0.565980  0.783887  0.216113  1
  Be  Be22  1  0.562907  0.437065  0.786578  1
  Be  Be23  1  0.787973  0.563546  0.436454  1
  Be  Be24  1  0.212626  0.786289  0.437416  1
  Be  Be25  1  0.002295  0.999914  0.000086  1
  Be  Be26  1  0.500066  0.498152  0.501848  1
  Ni  Ni27  1  0.296738  0.939182  0.060818  1
