# generated using pymatgen
data_Sm3Ho3Al19Si5Os8
_symmetry_space_group_name_H-M   'P 1'
_cell_length_a   8.72108400
_cell_length_b   8.70630401
_cell_length_c   9.61619900
_cell_angle_alpha   90.00014459
_cell_angle_beta   90.00000000
_cell_angle_gamma   120.05617270
_symmetry_Int_Tables_number   1
_chemical_formula_structural   Sm3Ho3Al19Si5Os8
_chemical_formula_sum   'Sm3 Ho3 Al19 Si5 Os8'
_cell_volume   631.96389605
_cell_formula_units_Z   1
loop_
 _symmetry_equiv_pos_site_id
 _symmetry_equiv_pos_as_xyz
  1  'x, y, z'
loop_
 _atom_site_type_symbol
 _atom_site_label
 _atom_site_symmetry_multiplicity
 _atom_site_fract_x
 _atom_site_fract_y
 _atom_site_fract_z
 _atom_site_occupancy
  Sm  Sm0  1  0.807700  0.615401  0.750000  1
  Sm  Sm1  1  0.386023  0.193117  0.750001  1
  Sm  Sm2  1  0.807094  0.193117  0.750001  1
  Ho  Ho3  1  0.195173  0.390345  0.250006  1
  Ho  Ho4  1  0.607406  0.806017  0.249995  1
  Ho  Ho5  1  0.198611  0.806017  0.249995  1
  Al  Al6  1  0.165117  0.330235  0.576081  1
  Al  Al7  1  0.834869  0.669738  0.421407  1
  Al  Al8  1  0.669027  0.834895  0.574723  1
  Al  Al9  1  0.834870  0.669739  0.078595  1
  Al  Al10  1  0.328754  0.165347  0.421582  1
  Al  Al11  1  0.165117  0.330235  0.923919  1
  Al  Al12  1  0.165868  0.834895  0.574723  1
  Al  Al13  1  0.328755  0.165349  0.078418  1
  Al  Al14  1  0.836593  0.165347  0.421582  1
  Al  Al15  1  0.669029  0.834897  0.925276  1
  Al  Al16  1  0.836593  0.165349  0.078418  1
  Al  Al17  1  0.165868  0.834897  0.925276  1
  Al  Al18  1  0.436231  0.872462  0.749997  1
  Al  Al19  1  0.873013  0.433527  0.250003  1
  Al  Al20  1  0.129272  0.565254  0.750002  1
  Al  Al21  1  0.560513  0.433527  0.250003  1
  Al  Al22  1  0.435983  0.565254  0.750002  1
  Al  Al23  1  0.999855  0.999711  0.249999  1
  Al  Al24  1  0.000505  0.001010  0.749999  1
  Si  Si25  1  0.332581  0.665161  0.038873  1
  Si  Si26  1  0.667378  0.334755  0.964403  1
  Si  Si27  1  0.667375  0.334750  0.535599  1
  Si  Si28  1  0.332576  0.665152  0.461123  1
  Si  Si29  1  0.563640  0.127282  0.249995  1
  Os  Os30  1  0.500171  0.000340  0.008073  1
  Os  Os31  1  0.000238  0.499583  0.002208  1
  Os  Os32  1  0.500164  0.000327  0.491905  1
  Os  Os33  1  0.499345  0.499583  0.002208  1
  Os  Os34  1  0.000233  0.499576  0.497802  1
  Os  Os35  1  0.499343  0.499576  0.497802  1
  Os  Os36  1  0.999559  0.999117  0.000454  1
  Os  Os37  1  0.999558  0.999116  0.499551  1
