# generated using pymatgen
data_Tb3Zn(GaRh3)2
_symmetry_space_group_name_H-M   'P 1'
_cell_length_a   5.53207000
_cell_length_b   5.53206850
_cell_length_c   15.58981100
_cell_angle_alpha   90.00000000
_cell_angle_beta   90.00000000
_cell_angle_gamma   119.99999701
_symmetry_Int_Tables_number   1
_chemical_formula_structural   Tb3Zn(GaRh3)2
_chemical_formula_sum   'Tb6 Zn2 Ga4 Rh12'
_cell_volume   413.18705875
_cell_formula_units_Z   2
loop_
 _symmetry_equiv_pos_site_id
 _symmetry_equiv_pos_as_xyz
  1  'x, y, z'
loop_
 _atom_site_type_symbol
 _atom_site_label
 _atom_site_symmetry_multiplicity
 _atom_site_fract_x
 _atom_site_fract_y
 _atom_site_fract_z
 _atom_site_occupancy
  Tb  Tb0  1  0.333333  0.666667  0.539989  1
  Tb  Tb1  1  0.666667  0.333333  0.039989  1
  Tb  Tb2  1  0.666667  0.333333  0.460011  1
  Tb  Tb3  1  0.333333  0.666667  0.960011  1
  Tb  Tb4  1  0.333333  0.666667  0.750000  1
  Tb  Tb5  1  0.666667  0.333333  0.250000  1
  Zn  Zn6  1  0.000000  0.000000  0.250000  1
  Zn  Zn7  1  0.000000  0.000000  0.750000  1
  Ga  Ga8  1  0.333333  0.666667  0.250000  1
  Ga  Ga9  1  0.666667  0.333333  0.750000  1
  Ga  Ga10  1  0.000000  0.000000  0.000000  1
  Ga  Ga11  1  0.000000  0.000000  0.500000  1
  Rh  Rh12  1  0.168612  0.337224  0.124094  1
  Rh  Rh13  1  0.831388  0.662776  0.624094  1
  Rh  Rh14  1  0.662776  0.831388  0.124094  1
  Rh  Rh15  1  0.168612  0.831388  0.124094  1
  Rh  Rh16  1  0.831388  0.168612  0.624094  1
  Rh  Rh17  1  0.337224  0.168612  0.624094  1
  Rh  Rh18  1  0.831388  0.662776  0.875906  1
  Rh  Rh19  1  0.831388  0.168612  0.875906  1
  Rh  Rh20  1  0.337224  0.168612  0.875906  1
  Rh  Rh21  1  0.662776  0.831388  0.375906  1
  Rh  Rh22  1  0.168612  0.831388  0.375906  1
  Rh  Rh23  1  0.168612  0.337224  0.375906  1
