# generated using pymatgen
data_Y7HoSc12Si15Ag
_symmetry_space_group_name_H-M   'P 1'
_cell_length_a   7.13810111
_cell_length_b   7.38262849
_cell_length_c   14.08619007
_cell_angle_alpha   89.87171083
_cell_angle_beta   89.62120446
_cell_angle_gamma   90.18697412
_symmetry_Int_Tables_number   1
_chemical_formula_structural   Y7HoSc12Si15Ag
_chemical_formula_sum   'Y7 Ho1 Sc12 Si15 Ag1'
_cell_volume   742.29124868
_cell_formula_units_Z   1
loop_
 _symmetry_equiv_pos_site_id
 _symmetry_equiv_pos_as_xyz
  1  'x, y, z'
loop_
 _atom_site_type_symbol
 _atom_site_label
 _atom_site_symmetry_multiplicity
 _atom_site_fract_x
 _atom_site_fract_y
 _atom_site_fract_z
 _atom_site_occupancy
  Y  Y0  1  0.012252  0.175271  0.097722  1
  Y  Y1  1  0.987616  0.825713  0.903763  1
  Y  Y2  1  0.487337  0.676682  0.903568  1
  Y  Y3  1  0.988237  0.830749  0.597779  1
  Y  Y4  1  0.512129  0.323826  0.096767  1
  Y  Y5  1  0.009084  0.171748  0.398994  1
  Y  Y6  1  0.512267  0.323138  0.400140  1
  Ho  Ho7  1  0.493648  0.678226  0.599919  1
  Sc  Sc8  1  0.163114  0.501464  0.752970  1
  Sc  Sc9  1  0.837896  0.498792  0.250889  1
  Sc  Sc10  1  0.338020  0.000131  0.249003  1
  Sc  Sc11  1  0.664357  0.996257  0.751103  1
  Sc  Sc12  1  0.340866  0.173167  0.626861  1
  Sc  Sc13  1  0.665393  0.823145  0.373844  1
  Sc  Sc14  1  0.167536  0.675399  0.372024  1
  Sc  Sc15  1  0.669925  0.824224  0.124922  1
  Sc  Sc16  1  0.826001  0.325276  0.625423  1
  Sc  Sc17  1  0.328928  0.175312  0.875946  1
  Sc  Sc18  1  0.830312  0.322737  0.875782  1
  Sc  Sc19  1  0.169127  0.676502  0.125266  1
  Si  Si20  1  0.035826  0.120796  0.750080  1
  Si  Si21  1  0.965554  0.883263  0.248894  1
  Si  Si22  1  0.466686  0.615666  0.248308  1
  Si  Si23  1  0.534213  0.385800  0.751850  1
  Si  Si24  1  0.285134  0.873524  0.750635  1
  Si  Si25  1  0.713012  0.127322  0.248586  1
  Si  Si26  1  0.214599  0.371234  0.248661  1
  Si  Si27  1  0.787729  0.627446  0.752148  1
  Si  Si28  1  0.835052  0.537623  0.459351  1
  Si  Si29  1  0.338340  0.961974  0.460819  1
  Si  Si30  1  0.843560  0.535480  0.039055  1
  Si  Si31  1  0.658766  0.035838  0.538019  1
  Si  Si32  1  0.155526  0.464433  0.961727  1
  Si  Si33  1  0.657132  0.035080  0.960650  1
  Si  Si34  1  0.342716  0.964426  0.039762  1
  Ag  Ag35  1  0.162112  0.462339  0.538770  1
