# generated using pymatgen
data_Ho3In3Ni2Hg
_symmetry_space_group_name_H-M   'P 1'
_cell_length_a   7.78286400
_cell_length_b   7.78286369
_cell_length_c   3.66454200
_cell_angle_alpha   90.00000000
_cell_angle_beta   90.00000000
_cell_angle_gamma   120.00000247
_symmetry_Int_Tables_number   1
_chemical_formula_structural   Ho3In3Ni2Hg
_chemical_formula_sum   'Ho3 In3 Ni2 Hg1'
_cell_volume   192.23355174
_cell_formula_units_Z   1
loop_
 _symmetry_equiv_pos_site_id
 _symmetry_equiv_pos_as_xyz
  1  'x, y, z'
loop_
 _atom_site_type_symbol
 _atom_site_label
 _atom_site_symmetry_multiplicity
 _atom_site_fract_x
 _atom_site_fract_y
 _atom_site_fract_z
 _atom_site_occupancy
  Ho  Ho0  1  0.969384  0.579199  0.500000  1
  Ho  Ho1  1  0.420801  0.390185  0.500000  1
  Ho  Ho2  1  0.609815  0.030616  0.500000  1
  In  In3  1  0.250616  0.001227  0.000000  1
  In  In4  1  0.750610  0.749384  0.000000  1
  In  In5  1  0.998773  0.249390  0.000000  1
  Ni  Ni6  1  0.000000  0.000000  0.500000  1
  Ni  Ni7  1  0.666667  0.333333  0.000000  1
  Hg  Hg8  1  0.333333  0.666667  0.000000  1
