# generated using pymatgen
data_YHo2Ag(Pt2O7)2
_symmetry_space_group_name_H-M   'P 1'
_cell_length_a   7.19580836
_cell_length_b   7.32819861
_cell_length_c   7.32722808
_cell_angle_alpha   59.99560832
_cell_angle_beta   59.37782923
_cell_angle_gamma   59.38950045
_symmetry_Int_Tables_number   1
_chemical_formula_structural   YHo2Ag(Pt2O7)2
_chemical_formula_sum   'Y1 Ho2 Ag1 Pt4 O14'
_cell_volume   270.63133799
_cell_formula_units_Z   1
loop_
 _symmetry_equiv_pos_site_id
 _symmetry_equiv_pos_as_xyz
  1  'x, y, z'
loop_
 _atom_site_type_symbol
 _atom_site_label
 _atom_site_symmetry_multiplicity
 _atom_site_fract_x
 _atom_site_fract_y
 _atom_site_fract_z
 _atom_site_occupancy
  Y  Y0  1  0.125000  0.125000  0.625000  1
  Ho  Ho1  1  0.125000  0.625000  0.125000  1
  Ho  Ho2  1  0.125000  0.125000  0.125000  1
  Ag  Ag3  1  0.625000  0.125000  0.125000  1
  Pt  Pt4  1  0.625000  0.625000  0.625000  1
  Pt  Pt5  1  0.125000  0.625000  0.625000  1
  Pt  Pt6  1  0.625000  0.625000  0.125000  1
  Pt  Pt7  1  0.625000  0.125000  0.625000  1
  O  O8  1  0.279128  0.717384  0.718764  1
  O  O9  1  0.530379  0.957291  0.957304  1
  O  O10  1  0.719621  0.694973  0.292696  1
  O  O11  1  0.279128  0.284724  0.718764  1
  O  O12  1  0.986849  0.003627  0.005899  1
  O  O13  1  0.278876  0.718365  0.284395  1
  O  O14  1  0.718507  0.293128  0.695238  1
  O  O15  1  0.971124  0.531635  0.965605  1
  O  O16  1  0.530379  0.555027  0.957304  1
  O  O17  1  0.970872  0.965276  0.531236  1
  O  O18  1  0.263151  0.246373  0.244101  1
  O  O19  1  0.531493  0.956872  0.554762  1
  O  O20  1  0.719621  0.292709  0.292696  1
  O  O21  1  0.970872  0.532616  0.531236  1
