# generated using pymatgen
data_La8ErTm11Pb16
_symmetry_space_group_name_H-M   'P 1'
_cell_length_a   8.37324500
_cell_length_b   8.45180029
_cell_length_c   15.93210500
_cell_angle_alpha   90.00288791
_cell_angle_beta   89.99967155
_cell_angle_gamma   90.01461580
_symmetry_Int_Tables_number   1
_chemical_formula_structural   La8ErTm11Pb16
_chemical_formula_sum   'La8 Er1 Tm11 Pb16'
_cell_volume   1127.49901274
_cell_formula_units_Z   1
loop_
 _symmetry_equiv_pos_site_id
 _symmetry_equiv_pos_as_xyz
  1  'x, y, z'
loop_
 _atom_site_type_symbol
 _atom_site_label
 _atom_site_symmetry_multiplicity
 _atom_site_fract_x
 _atom_site_fract_y
 _atom_site_fract_z
 _atom_site_occupancy
  La  La0  1  0.524288  0.321739  0.903359  1
  La  La1  1  0.024304  0.178113  0.596559  1
  La  La2  1  0.475475  0.678069  0.403013  1
  La  La3  1  0.975611  0.822150  0.097174  1
  La  La4  1  0.475789  0.677987  0.096950  1
  La  La5  1  0.975552  0.822085  0.402991  1
  La  La6  1  0.524170  0.321775  0.596618  1
  La  La7  1  0.024324  0.178116  0.903310  1
  Er  Er8  1  0.863930  0.657315  0.876817  1
  Tm  Tm9  1  0.363986  0.842750  0.876527  1
  Tm  Tm10  1  0.863909  0.656902  0.623307  1
  Tm  Tm11  1  0.636074  0.157000  0.376544  1
  Tm  Tm12  1  0.136165  0.342985  0.123429  1
  Tm  Tm13  1  0.635907  0.157175  0.123650  1
  Tm  Tm14  1  0.136126  0.342911  0.376568  1
  Tm  Tm15  1  0.364078  0.842956  0.623281  1
  Tm  Tm16  1  0.198124  0.506589  0.749855  1
  Tm  Tm17  1  0.697819  0.993545  0.749899  1
  Tm  Tm18  1  0.802097  0.493224  0.250084  1
  Tm  Tm19  1  0.302032  0.006626  0.250008  1
  Pb  Pb20  1  0.297627  0.042298  0.044758  1
  Pb  Pb21  1  0.797632  0.457397  0.455244  1
  Pb  Pb22  1  0.702268  0.957392  0.544615  1
  Pb  Pb23  1  0.202902  0.542347  0.955584  1
  Pb  Pb24  1  0.702024  0.958138  0.955451  1
  Pb  Pb25  1  0.202223  0.542573  0.544501  1
  Pb  Pb26  1  0.297678  0.042724  0.455150  1
  Pb  Pb27  1  0.797612  0.457153  0.045030  1
  Pb  Pb28  1  0.558544  0.631597  0.749734  1
  Pb  Pb29  1  0.058680  0.868377  0.749670  1
  Pb  Pb30  1  0.441416  0.368710  0.250181  1
  Pb  Pb31  1  0.941546  0.131678  0.249982  1
  Pb  Pb32  1  0.335843  0.148994  0.750028  1
  Pb  Pb33  1  0.835943  0.350514  0.749954  1
  Pb  Pb34  1  0.664130  0.850930  0.250093  1
  Pb  Pb35  1  0.164170  0.649162  0.250082  1
