# generated using pymatgen
data_Sc2Mn4Cr(NiP)7
_symmetry_space_group_name_H-M   'P 1'
_cell_length_a   9.04201535
_cell_length_b   9.08693806
_cell_length_c   3.57736600
_cell_angle_alpha   90.00000000
_cell_angle_beta   90.00000000
_cell_angle_gamma   119.82057258
_symmetry_Int_Tables_number   1
_chemical_formula_structural   Sc2Mn4Cr(NiP)7
_chemical_formula_sum   'Sc2 Mn4 Cr1 Ni7 P7'
_cell_volume   255.01116544
_cell_formula_units_Z   1
loop_
 _symmetry_equiv_pos_site_id
 _symmetry_equiv_pos_as_xyz
  1  'x, y, z'
loop_
 _atom_site_type_symbol
 _atom_site_label
 _atom_site_symmetry_multiplicity
 _atom_site_fract_x
 _atom_site_fract_y
 _atom_site_fract_z
 _atom_site_occupancy
  Sc  Sc0  1  0.668240  0.331491  0.500000  1
  Sc  Sc1  1  0.333985  0.666908  0.000000  1
  Mn  Mn2  1  0.386309  0.432712  0.500000  1
  Mn  Mn3  1  0.049765  0.614535  0.500000  1
  Mn  Mn4  1  0.215647  0.091018  0.500000  1
  Mn  Mn5  1  0.874504  0.780984  0.500000  1
  Cr  Cr6  1  0.904680  0.128900  0.500000  1
  Ni  Ni7  1  0.716938  0.877374  0.000000  1
  Ni  Ni8  1  0.119574  0.842630  0.000000  1
  Ni  Ni9  1  0.158906  0.278599  0.000000  1
  Ni  Ni10  1  0.939080  0.371941  0.000000  1
  Ni  Ni11  1  0.633380  0.567618  0.000000  1
  Ni  Ni12  1  0.434903  0.065820  0.000000  1
  Ni  Ni13  1  0.560453  0.948575  0.500000  1
  P  P14  1  0.997287  0.000911  0.000000  1
  P  P15  1  0.417073  0.299159  0.000000  1
  P  P16  1  0.584221  0.705342  0.500000  1
  P  P17  1  0.287087  0.874609  0.500000  1
  P  P18  1  0.127463  0.417009  0.500000  1
  P  P19  1  0.706322  0.119378  0.000000  1
  P  P20  1  0.884187  0.584487  0.000000  1
