# generated using pymatgen
data_ZrPa3(SnRh2)2
_symmetry_space_group_name_H-M   'P 1'
_cell_length_a   7.62209495
_cell_length_b   7.62209495
_cell_length_c   3.59313200
_cell_angle_alpha   90.00000000
_cell_angle_beta   90.00000000
_cell_angle_gamma   91.42815896
_symmetry_Int_Tables_number   1
_chemical_formula_structural   ZrPa3(SnRh2)2
_chemical_formula_sum   'Zr1 Pa3 Sn2 Rh4'
_cell_volume   208.68294254
_cell_formula_units_Z   1
loop_
 _symmetry_equiv_pos_site_id
 _symmetry_equiv_pos_as_xyz
  1  'x, y, z'
loop_
 _atom_site_type_symbol
 _atom_site_label
 _atom_site_symmetry_multiplicity
 _atom_site_fract_x
 _atom_site_fract_y
 _atom_site_fract_z
 _atom_site_occupancy
  Zr  Zr0  1  0.322177  0.177823  0.500000  1
  Pa  Pa1  1  0.668082  0.831918  0.500000  1
  Pa  Pa2  1  0.174020  0.671610  0.500000  1
  Pa  Pa3  1  0.828390  0.325980  0.500000  1
  Sn  Sn4  1  0.011387  0.005157  0.000000  1
  Sn  Sn5  1  0.494843  0.488613  0.000000  1
  Rh  Rh6  1  0.640198  0.126851  0.000000  1
  Rh  Rh7  1  0.863052  0.636948  0.000000  1
  Rh  Rh8  1  0.373149  0.859802  0.000000  1
  Rh  Rh9  1  0.124703  0.375297  0.000000  1
