# generated using pymatgen
data_Cs6MoAs4
_symmetry_space_group_name_H-M   'P 1'
_cell_length_a   11.12605006
_cell_length_b   11.12605027
_cell_length_c   9.01215901
_cell_angle_alpha   89.76286862
_cell_angle_beta   89.76286615
_cell_angle_gamma   119.77179684
_symmetry_Int_Tables_number   1
_chemical_formula_structural   Cs6MoAs4
_chemical_formula_sum   'Cs12 Mo2 As8'
_cell_volume   968.32426387
_cell_formula_units_Z   2
loop_
 _symmetry_equiv_pos_site_id
 _symmetry_equiv_pos_as_xyz
  1  'x, y, z'
loop_
 _atom_site_type_symbol
 _atom_site_label
 _atom_site_symmetry_multiplicity
 _atom_site_fract_x
 _atom_site_fract_y
 _atom_site_fract_z
 _atom_site_occupancy
  Cs  Cs0  1  0.464778  0.534875  0.499164  1
  Cs  Cs1  1  0.067440  0.533876  0.501325  1
  Cs  Cs2  1  0.534875  0.464778  0.999164  1
  Cs  Cs3  1  0.533876  0.067440  0.001325  1
  Cs  Cs4  1  0.851416  0.143857  0.678903  1
  Cs  Cs5  1  0.302946  0.150730  0.690133  1
  Cs  Cs6  1  0.852071  0.707587  0.671393  1
  Cs  Cs7  1  0.143857  0.851416  0.178903  1
  Cs  Cs8  1  0.707587  0.852071  0.171393  1
  Cs  Cs9  1  0.150730  0.302946  0.190133  1
  Cs  Cs10  1  0.463072  0.927369  0.494798  1
  Cs  Cs11  1  0.927369  0.463072  0.994798  1
  Mo  Mo12  1  0.667017  0.332802  0.392944  1
  Mo  Mo13  1  0.332802  0.667017  0.892944  1
  As  As14  1  0.670426  0.334925  0.662171  1
  As  As15  1  0.334925  0.670426  0.162171  1
  As  As16  1  0.785946  0.211795  0.307118  1
  As  As17  1  0.426794  0.212963  0.312802  1
  As  As18  1  0.785649  0.571665  0.303535  1
  As  As19  1  0.211795  0.785946  0.807118  1
  As  As20  1  0.571665  0.785649  0.803535  1
  As  As21  1  0.212963  0.426794  0.812802  1
