# generated using pymatgen
data_YTh(Si7Ir3)2
_symmetry_space_group_name_H-M   'P 1'
_cell_length_a   8.07695190
_cell_length_b   8.07695262
_cell_length_c   8.07695052
_cell_angle_alpha   56.80513452
_cell_angle_beta   56.80513491
_cell_angle_gamma   56.80512736
_symmetry_Int_Tables_number   1
_chemical_formula_structural   YTh(Si7Ir3)2
_chemical_formula_sum   'Y1 Th1 Si14 Ir6'
_cell_volume   345.11344493
_cell_formula_units_Z   1
loop_
 _symmetry_equiv_pos_site_id
 _symmetry_equiv_pos_as_xyz
  1  'x, y, z'
loop_
 _atom_site_type_symbol
 _atom_site_label
 _atom_site_symmetry_multiplicity
 _atom_site_fract_x
 _atom_site_fract_y
 _atom_site_fract_z
 _atom_site_occupancy
  Y  Y0  1  0.000000  0.000000  0.000000  1
  Th  Th1  1  0.500000  0.500000  0.500000  1
  Si  Si2  1  0.064585  0.852770  0.672382  1
  Si  Si3  1  0.672382  0.064585  0.852770  1
  Si  Si4  1  0.852770  0.672382  0.064585  1
  Si  Si5  1  0.172172  0.350329  0.564995  1
  Si  Si6  1  0.564995  0.172172  0.350329  1
  Si  Si7  1  0.350329  0.564995  0.172172  1
  Si  Si8  1  0.935415  0.147230  0.327618  1
  Si  Si9  1  0.327618  0.935415  0.147230  1
  Si  Si10  1  0.147230  0.327618  0.935415  1
  Si  Si11  1  0.827828  0.649671  0.435005  1
  Si  Si12  1  0.435005  0.827828  0.649671  1
  Si  Si13  1  0.649671  0.435005  0.827828  1
  Si  Si14  1  0.750022  0.750022  0.750022  1
  Si  Si15  1  0.249978  0.249978  0.249978  1
  Ir  Ir16  1  0.068127  0.751138  0.430033  1
  Ir  Ir17  1  0.430033  0.068127  0.751138  1
  Ir  Ir18  1  0.751138  0.430033  0.068127  1
  Ir  Ir19  1  0.931873  0.248862  0.569967  1
  Ir  Ir20  1  0.569967  0.931873  0.248862  1
  Ir  Ir21  1  0.248862  0.569967  0.931873  1
