# generated using pymatgen
data_Ca8Zn3Si12Rh
_symmetry_space_group_name_H-M   'P 1'
_cell_length_a   8.18242700
_cell_length_b   8.18242792
_cell_length_c   8.74869800
_cell_angle_alpha   90.00000000
_cell_angle_beta   90.00000000
_cell_angle_gamma   119.99999223
_symmetry_Int_Tables_number   1
_chemical_formula_structural   Ca8Zn3Si12Rh
_chemical_formula_sum   'Ca8 Zn3 Si12 Rh1'
_cell_volume   507.26911207
_cell_formula_units_Z   1
loop_
 _symmetry_equiv_pos_site_id
 _symmetry_equiv_pos_as_xyz
  1  'x, y, z'
loop_
 _atom_site_type_symbol
 _atom_site_label
 _atom_site_symmetry_multiplicity
 _atom_site_fract_x
 _atom_site_fract_y
 _atom_site_fract_z
 _atom_site_occupancy
  Ca  Ca0  1  0.501780  0.498220  0.744541  1
  Ca  Ca1  1  0.502702  0.497298  0.255332  1
  Ca  Ca2  1  0.996440  0.498220  0.744541  1
  Ca  Ca3  1  0.994595  0.497298  0.255332  1
  Ca  Ca4  1  0.501780  0.003560  0.744541  1
  Ca  Ca5  1  0.502702  0.005405  0.255332  1
  Ca  Ca6  1  0.000000  0.000000  0.748587  1
  Ca  Ca7  1  0.000000  0.000000  0.251680  1
  Zn  Zn8  1  0.666667  0.333333  0.996807  1
  Zn  Zn9  1  0.333333  0.666667  0.002387  1
  Zn  Zn10  1  0.333333  0.666667  0.498346  1
  Si  Si11  1  0.834710  0.165290  0.001122  1
  Si  Si12  1  0.165524  0.834476  0.999225  1
  Si  Si13  1  0.330579  0.165290  0.001122  1
  Si  Si14  1  0.161813  0.838187  0.499923  1
  Si  Si15  1  0.668954  0.834476  0.999225  1
  Si  Si16  1  0.829328  0.170672  0.500214  1
  Si  Si17  1  0.834710  0.669421  0.001122  1
  Si  Si18  1  0.676373  0.838187  0.499923  1
  Si  Si19  1  0.165524  0.331046  0.999225  1
  Si  Si20  1  0.341345  0.170672  0.500214  1
  Si  Si21  1  0.161813  0.323627  0.499923  1
  Si  Si22  1  0.829328  0.658655  0.500214  1
  Rh  Rh23  1  0.666667  0.333333  0.501119  1
