# generated using pymatgen
data_La7Tm13Sb16
_symmetry_space_group_name_H-M   'P 1'
_cell_length_a   8.20096680
_cell_length_b   8.18312310
_cell_length_c   15.31048933
_cell_angle_alpha   90.03658371
_cell_angle_beta   89.72522174
_cell_angle_gamma   89.94318845
_symmetry_Int_Tables_number   1
_chemical_formula_structural   La7Tm13Sb16
_chemical_formula_sum   'La7 Tm13 Sb16'
_cell_volume   1027.46707044
_cell_formula_units_Z   1
loop_
 _symmetry_equiv_pos_site_id
 _symmetry_equiv_pos_as_xyz
  1  'x, y, z'
loop_
 _atom_site_type_symbol
 _atom_site_label
 _atom_site_symmetry_multiplicity
 _atom_site_fract_x
 _atom_site_fract_y
 _atom_site_fract_z
 _atom_site_occupancy
  La  La0  1  0.523258  0.321880  0.403211  1
  La  La1  1  0.472945  0.675872  0.904778  1
  La  La2  1  0.977713  0.822950  0.594559  1
  La  La3  1  0.977245  0.823548  0.905363  1
  La  La4  1  0.478613  0.676558  0.594688  1
  La  La5  1  0.521253  0.325184  0.094903  1
  La  La6  1  0.021033  0.177376  0.404500  1
  Tm  Tm7  1  0.848203  0.650259  0.123021  1
  Tm  Tm8  1  0.347677  0.852539  0.375375  1
  Tm  Tm9  1  0.647546  0.149333  0.876525  1
  Tm  Tm10  1  0.149242  0.351619  0.624098  1
  Tm  Tm11  1  0.145601  0.350120  0.877443  1
  Tm  Tm12  1  0.648900  0.148839  0.624539  1
  Tm  Tm13  1  0.353276  0.849298  0.124267  1
  Tm  Tm14  1  0.852061  0.646934  0.374108  1
  Tm  Tm15  1  0.032926  0.172880  0.099162  1
  Tm  Tm16  1  0.689328  0.999872  0.250053  1
  Tm  Tm17  1  0.189862  0.499876  0.249399  1
  Tm  Tm18  1  0.809949  0.499578  0.750113  1
  Tm  Tm19  1  0.309792  0.000469  0.751554  1
  Sb  Sb20  1  0.048372  0.863047  0.248088  1
  Sb  Sb21  1  0.548318  0.637776  0.250251  1
  Sb  Sb22  1  0.450636  0.361721  0.750919  1
  Sb  Sb23  1  0.951319  0.139151  0.750285  1
  Sb  Sb24  1  0.841333  0.344000  0.243549  1
  Sb  Sb25  1  0.332169  0.150610  0.249080  1
  Sb  Sb26  1  0.664774  0.849094  0.750572  1
  Sb  Sb27  1  0.164447  0.651130  0.749986  1
  Sb  Sb28  1  0.797678  0.456690  0.951968  1
  Sb  Sb29  1  0.299945  0.045032  0.548171  1
  Sb  Sb30  1  0.713044  0.967971  0.049564  1
  Sb  Sb31  1  0.200811  0.544534  0.451839  1
  Sb  Sb32  1  0.195241  0.540775  0.048831  1
  Sb  Sb33  1  0.699387  0.953393  0.451943  1
  Sb  Sb34  1  0.295554  0.046626  0.956348  1
  Sb  Sb35  1  0.800552  0.453464  0.546949  1
