# generated using pymatgen
data_Ho3Er2Fe3(P3Ru4)4
_symmetry_space_group_name_H-M   'P 1'
_cell_length_a   12.48043600
_cell_length_b   12.48108152
_cell_length_c   3.88895200
_cell_angle_alpha   90.00000000
_cell_angle_beta   90.00000000
_cell_angle_gamma   119.99828914
_symmetry_Int_Tables_number   1
_chemical_formula_structural   Ho3Er2Fe3(P3Ru4)4
_chemical_formula_sum   'Ho3 Er2 Fe3 P12 Ru16'
_cell_volume   524.62946531
_cell_formula_units_Z   1
loop_
 _symmetry_equiv_pos_site_id
 _symmetry_equiv_pos_as_xyz
  1  'x, y, z'
loop_
 _atom_site_type_symbol
 _atom_site_label
 _atom_site_symmetry_multiplicity
 _atom_site_fract_x
 _atom_site_fract_y
 _atom_site_fract_z
 _atom_site_occupancy
  Ho  Ho0  1  0.181671  0.000000  0.500000  1
  Ho  Ho1  1  0.666697  0.333358  0.000000  1
  Ho  Ho2  1  0.333337  0.666642  0.000000  1
  Er  Er3  1  0.999993  0.181679  0.500000  1
  Er  Er4  1  0.818314  0.818321  0.500000  1
  Fe  Fe5  1  0.999944  0.716652  0.500000  1
  Fe  Fe6  1  0.283292  0.283348  0.500000  1
  Fe  Fe7  1  0.716747  0.000000  0.500000  1
  P  P8  1  0.999914  0.813550  0.000000  1
  P  P9  1  0.186364  0.186450  0.000000  1
  P  P10  1  0.813611  0.000000  0.000000  1
  P  P11  1  0.689965  0.162950  0.500000  1
  P  P12  1  0.837032  0.526974  0.500000  1
  P  P13  1  0.473009  0.310052  0.500000  1
  P  P14  1  0.162957  0.689948  0.500000  1
  P  P15  1  0.527014  0.837050  0.500000  1
  P  P16  1  0.310057  0.473026  0.500000  1
  P  P17  1  0.999996  0.373140  0.000000  1
  P  P18  1  0.626856  0.626860  0.000000  1
  P  P19  1  0.373213  0.000000  0.000000  1
  Ru  Ru20  1  0.000000  0.558023  0.000000  1
  Ru  Ru21  1  0.441977  0.441977  0.000000  1
  Ru  Ru22  1  0.558023  0.000000  0.000000  1
  Ru  Ru23  1  0.807059  0.181674  0.000000  1
  Ru  Ru24  1  0.818325  0.625379  0.000000  1
  Ru  Ru25  1  0.374794  0.193147  0.000000  1
  Ru  Ru26  1  0.181648  0.806853  0.000000  1
  Ru  Ru27  1  0.625386  0.818326  0.000000  1
  Ru  Ru28  1  0.192947  0.374621  0.000000  1
  Ru  Ru29  1  0.873619  0.363321  0.500000  1
  Ru  Ru30  1  0.636678  0.510290  0.500000  1
  Ru  Ru31  1  0.489735  0.126385  0.500000  1
  Ru  Ru32  1  0.363351  0.873615  0.500000  1
  Ru  Ru33  1  0.510298  0.636679  0.500000  1
  Ru  Ru34  1  0.126388  0.489710  0.500000  1
  Ru  Ru35  1  0.999790  0.000000  0.000000  1
