# generated using pymatgen
data_Pr2Th2Re15Si8Os
_symmetry_space_group_name_H-M   'P 1'
_cell_length_a   4.18145600
_cell_length_b   7.30677038
_cell_length_c   15.69316200
_cell_angle_alpha   90.32199575
_cell_angle_beta   90.00000000
_cell_angle_gamma   90.00000000
_symmetry_Int_Tables_number   1
_chemical_formula_structural   Pr2Th2Re15Si8Os
_chemical_formula_sum   'Pr2 Th2 Re15 Si8 Os1'
_cell_volume   479.46464762
_cell_formula_units_Z   1
loop_
 _symmetry_equiv_pos_site_id
 _symmetry_equiv_pos_as_xyz
  1  'x, y, z'
loop_
 _atom_site_type_symbol
 _atom_site_label
 _atom_site_symmetry_multiplicity
 _atom_site_fract_x
 _atom_site_fract_y
 _atom_site_fract_z
 _atom_site_occupancy
  Pr  Pr0  1  0.000000  0.581291  0.117449  1
  Pr  Pr1  1  0.000000  0.416854  0.883353  1
  Th  Th2  1  0.500000  0.085063  0.380300  1
  Th  Th3  1  0.500000  0.914505  0.618379  1
  Re  Re4  1  0.000000  0.863335  0.948893  1
  Re  Re5  1  0.500000  0.640667  0.448550  1
  Re  Re6  1  0.500000  0.359627  0.551071  1
  Re  Re7  1  0.000000  0.738286  0.320230  1
  Re  Re8  1  0.000000  0.262064  0.679165  1
  Re  Re9  1  0.500000  0.234762  0.179084  1
  Re  Re10  1  0.500000  0.765685  0.820719  1
  Re  Re11  1  0.000000  0.430264  0.419455  1
  Re  Re12  1  0.000000  0.569681  0.580230  1
  Re  Re13  1  0.500000  0.933729  0.080859  1
  Re  Re14  1  0.500000  0.066638  0.921184  1
  Re  Re15  1  0.000000  0.996676  0.205732  1
  Re  Re16  1  0.000000  0.001699  0.793731  1
  Re  Re17  1  0.500000  0.497696  0.293589  1
  Re  Re18  1  0.500000  0.500434  0.706508  1
  Si  Si19  1  0.000000  0.827709  0.474284  1
  Si  Si20  1  0.000000  0.171800  0.525136  1
  Si  Si21  1  0.500000  0.326739  0.025905  1
  Si  Si22  1  0.500000  0.673835  0.975055  1
  Si  Si23  1  0.000000  0.303308  0.272401  1
  Si  Si24  1  0.000000  0.695706  0.727304  1
  Si  Si25  1  0.500000  0.796730  0.224341  1
  Si  Si26  1  0.500000  0.200089  0.775693  1
  Os  Os27  1  0.000000  0.145126  0.051402  1
