# generated using pymatgen
data_Eu(Ga3Ir)3
_symmetry_space_group_name_H-M   'P 1'
_cell_length_a   10.55070748
_cell_length_b   10.55070801
_cell_length_c   10.55070500
_cell_angle_alpha   41.35801958
_cell_angle_beta   41.35801625
_cell_angle_gamma   41.35802357
_symmetry_Int_Tables_number   1
_chemical_formula_structural   Eu(Ga3Ir)3
_chemical_formula_sum   'Eu2 Ga18 Ir6'
_cell_volume   463.25757231
_cell_formula_units_Z   2
loop_
 _symmetry_equiv_pos_site_id
 _symmetry_equiv_pos_as_xyz
  1  'x, y, z'
loop_
 _atom_site_type_symbol
 _atom_site_label
 _atom_site_symmetry_multiplicity
 _atom_site_fract_x
 _atom_site_fract_y
 _atom_site_fract_z
 _atom_site_occupancy
  Eu  Eu0  1  0.166780  0.166780  0.166780  1
  Eu  Eu1  1  0.833220  0.833220  0.833220  1
  Ga  Ga2  1  0.047917  0.047917  0.047917  1
  Ga  Ga3  1  0.704642  0.500000  0.295358  1
  Ga  Ga4  1  0.668148  0.331852  0.000000  1
  Ga  Ga5  1  0.114705  0.432953  0.755344  1
  Ga  Ga6  1  0.432953  0.755344  0.114705  1
  Ga  Ga7  1  0.382711  0.382711  0.382711  1
  Ga  Ga8  1  0.331852  0.000000  0.668148  1
  Ga  Ga9  1  0.617289  0.617289  0.617289  1
  Ga  Ga10  1  0.244656  0.567047  0.885295  1
  Ga  Ga11  1  0.567047  0.885295  0.244656  1
  Ga  Ga12  1  0.500000  0.295358  0.704642  1
  Ga  Ga13  1  0.755344  0.114705  0.432953  1
  Ga  Ga14  1  0.952083  0.952083  0.952083  1
  Ga  Ga15  1  0.295358  0.704642  0.500000  1
  Ga  Ga16  1  0.000000  0.668148  0.331852  1
  Ga  Ga17  1  0.713487  0.713487  0.713487  1
  Ga  Ga18  1  0.286513  0.286513  0.286513  1
  Ga  Ga19  1  0.885295  0.244656  0.567047  1
  Ir  Ir20  1  0.235315  0.930522  0.580345  1
  Ir  Ir21  1  0.930522  0.580345  0.235315  1
  Ir  Ir22  1  0.764685  0.419655  0.069478  1
  Ir  Ir23  1  0.069478  0.764685  0.419655  1
  Ir  Ir24  1  0.419655  0.069478  0.764685  1
  Ir  Ir25  1  0.580345  0.235315  0.930522  1
