# generated using pymatgen
data_TbTh2(SnRh)3
_symmetry_space_group_name_H-M   'P 1'
_cell_length_a   7.58237874
_cell_length_b   7.58237861
_cell_length_c   4.06399000
_cell_angle_alpha   90.00000000
_cell_angle_beta   90.00000000
_cell_angle_gamma   120.29857352
_symmetry_Int_Tables_number   1
_chemical_formula_structural   TbTh2(SnRh)3
_chemical_formula_sum   'Tb1 Th2 Sn3 Rh3'
_cell_volume   201.73427643
_cell_formula_units_Z   1
loop_
 _symmetry_equiv_pos_site_id
 _symmetry_equiv_pos_as_xyz
  1  'x, y, z'
loop_
 _atom_site_type_symbol
 _atom_site_label
 _atom_site_symmetry_multiplicity
 _atom_site_fract_x
 _atom_site_fract_y
 _atom_site_fract_z
 _atom_site_occupancy
  Tb  Tb0  1  0.408290  0.408290  0.500000  1
  Th  Th1  1  0.587165  0.999832  0.500000  1
  Th  Th2  1  0.999832  0.587165  0.500000  1
  Sn  Sn3  1  0.738346  0.738346  0.000000  1
  Sn  Sn4  1  0.253061  0.009910  0.000000  1
  Sn  Sn5  1  0.009910  0.253061  0.000000  1
  Rh  Rh6  1  0.678526  0.331869  0.000000  1
  Rh  Rh7  1  0.331869  0.678526  0.000000  1
  Rh  Rh8  1  0.993001  0.993001  0.500000  1
