# generated using pymatgen
data_Na2SrLi3(NiN)4
_symmetry_space_group_name_H-M   'P 1'
_cell_length_a   3.96299190
_cell_length_b   6.93560698
_cell_length_c   8.98296613
_cell_angle_alpha   112.70844980
_cell_angle_beta   102.74331244
_cell_angle_gamma   90.00000244
_symmetry_Int_Tables_number   1
_chemical_formula_structural   Na2SrLi3(NiN)4
_chemical_formula_sum   'Na2 Sr1 Li3 Ni4 N4'
_cell_volume   221.15650045
_cell_formula_units_Z   1
loop_
 _symmetry_equiv_pos_site_id
 _symmetry_equiv_pos_as_xyz
  1  'x, y, z'
loop_
 _atom_site_type_symbol
 _atom_site_label
 _atom_site_symmetry_multiplicity
 _atom_site_fract_x
 _atom_site_fract_y
 _atom_site_fract_z
 _atom_site_occupancy
  Na  Na0  1  0.219285  0.219285  0.438570  1
  Na  Na1  1  0.780716  0.780715  0.561430  1
  Sr  Sr2  1  0.000000  0.000000  0.000000  1
  Li  Li3  1  0.500001  0.500000  0.000000  1
  Li  Li4  1  0.128843  0.628842  0.257684  1
  Li  Li5  1  0.871159  0.371158  0.742316  1
  Ni  Ni6  1  0.620557  0.368743  0.241112  1
  Ni  Ni7  1  0.620557  0.872370  0.241112  1
  Ni  Ni8  1  0.379444  0.127630  0.758888  1
  Ni  Ni9  1  0.379444  0.631258  0.758888  1
  N  N10  1  0.619534  0.119533  0.239068  1
  N  N11  1  0.623964  0.623963  0.247927  1
  N  N12  1  0.376036  0.376036  0.752072  1
  N  N13  1  0.380467  0.880466  0.760932  1
