# generated using pymatgen
data_Y3Nb3(B2Ru5)2
_symmetry_space_group_name_H-M   'P 1'
_cell_length_a   9.62835000
_cell_length_b   9.62835000
_cell_length_c   3.12145700
_cell_angle_alpha   90.00000000
_cell_angle_beta   90.00000000
_cell_angle_gamma   90.43066776
_symmetry_Int_Tables_number   1
_chemical_formula_structural   Y3Nb3(B2Ru5)2
_chemical_formula_sum   'Y3 Nb3 B4 Ru10'
_cell_volume   289.36688267
_cell_formula_units_Z   1
loop_
 _symmetry_equiv_pos_site_id
 _symmetry_equiv_pos_as_xyz
  1  'x, y, z'
loop_
 _atom_site_type_symbol
 _atom_site_label
 _atom_site_symmetry_multiplicity
 _atom_site_fract_x
 _atom_site_fract_y
 _atom_site_fract_z
 _atom_site_occupancy
  Y  Y0  1  0.823800  0.675311  0.000000  1
  Y  Y1  1  0.175311  0.323800  0.000000  1
  Y  Y2  1  0.325626  0.825626  0.000000  1
  Nb  Nb3  1  0.676055  0.176055  0.000000  1
  Nb  Nb4  1  0.498348  0.502265  0.000000  1
  Nb  Nb5  1  0.002265  0.998348  0.000000  1
  B  B6  1  0.622611  0.880927  0.000000  1
  B  B7  1  0.380927  0.122611  0.000000  1
  B  B8  1  0.119373  0.619373  0.000000  1
  B  B9  1  0.876659  0.376659  0.000000  1
  Ru  Ru10  1  0.570752  0.722211  0.500000  1
  Ru  Ru11  1  0.441795  0.279609  0.500000  1
  Ru  Ru12  1  0.069146  0.780374  0.500000  1
  Ru  Ru13  1  0.915451  0.213762  0.500000  1
  Ru  Ru14  1  0.280374  0.569146  0.500000  1
  Ru  Ru15  1  0.713762  0.415451  0.500000  1
  Ru  Ru16  1  0.222211  0.070752  0.500000  1
  Ru  Ru17  1  0.779609  0.941795  0.500000  1
  Ru  Ru18  1  0.509680  0.009680  0.500000  1
  Ru  Ru19  1  0.996245  0.496245  0.500000  1
