# generated using pymatgen
data_Y2Ho2Al4Pd3Rh
_symmetry_space_group_name_H-M   'P 1'
_cell_length_a   4.42241000
_cell_length_b   6.83536401
_cell_length_c   7.83456972
_cell_angle_alpha   89.68396445
_cell_angle_beta   90.00000000
_cell_angle_gamma   90.00000000
_symmetry_Int_Tables_number   1
_chemical_formula_structural   Y2Ho2Al4Pd3Rh
_chemical_formula_sum   'Y2 Ho2 Al4 Pd3 Rh1'
_cell_volume   236.82589843
_cell_formula_units_Z   1
loop_
 _symmetry_equiv_pos_site_id
 _symmetry_equiv_pos_as_xyz
  1  'x, y, z'
loop_
 _atom_site_type_symbol
 _atom_site_label
 _atom_site_symmetry_multiplicity
 _atom_site_fract_x
 _atom_site_fract_y
 _atom_site_fract_z
 _atom_site_occupancy
  Y  Y0  1  0.250000  0.534152  0.180110  1
  Y  Y1  1  0.750000  0.463150  0.817620  1
  Ho  Ho2  1  0.750000  0.972506  0.678831  1
  Ho  Ho3  1  0.250000  0.037692  0.323602  1
  Al  Al4  1  0.250000  0.636300  0.561442  1
  Al  Al5  1  0.750000  0.357390  0.441304  1
  Al  Al6  1  0.750000  0.858339  0.059724  1
  Al  Al7  1  0.250000  0.143181  0.937555  1
  Pd  Pd8  1  0.250000  0.771710  0.878407  1
  Pd  Pd9  1  0.750000  0.229184  0.122811  1
  Pd  Pd10  1  0.750000  0.732650  0.380026  1
  Rh  Rh11  1  0.250000  0.263746  0.618568  1
