# generated using pymatgen
data_Gd6Er6GaCo4Hg
_symmetry_space_group_name_H-M   'P 1'
_cell_length_a   8.36019629
_cell_length_b   8.27828581
_cell_length_c   8.27828557
_cell_angle_alpha   111.47511243
_cell_angle_beta   110.04460260
_cell_angle_gamma   106.55530266
_symmetry_Int_Tables_number   1
_chemical_formula_structural   Gd6Er6GaCo4Hg
_chemical_formula_sum   'Gd6 Er6 Ga1 Co4 Hg1'
_cell_volume   442.22719065
_cell_formula_units_Z   1
loop_
 _symmetry_equiv_pos_site_id
 _symmetry_equiv_pos_as_xyz
  1  'x, y, z'
loop_
 _atom_site_type_symbol
 _atom_site_label
 _atom_site_symmetry_multiplicity
 _atom_site_fract_x
 _atom_site_fract_y
 _atom_site_fract_z
 _atom_site_occupancy
  Gd  Gd0  1  0.568487  0.264639  0.303848  1
  Gd  Gd1  1  0.431513  0.735361  0.696152  1
  Gd  Gd2  1  0.180523  0.779654  0.962109  1
  Gd  Gd3  1  0.819477  0.781587  0.599133  1
  Gd  Gd4  1  0.180523  0.218413  0.400867  1
  Gd  Gd5  1  0.819477  0.220346  0.037891  1
  Er  Er6  1  0.959834  0.261959  0.697875  1
  Er  Er7  1  0.040166  0.738041  0.302125  1
  Er  Er8  1  0.675946  0.856965  0.185518  1
  Er  Er9  1  0.324054  0.509572  0.181018  1
  Er  Er10  1  0.324054  0.143035  0.814482  1
  Er  Er11  1  0.675946  0.490428  0.818982  1
  Ga  Ga12  1  0.000000  0.500000  0.500000  1
  Co  Co13  1  0.108997  0.114807  0.994190  1
  Co  Co14  1  0.891003  0.885193  0.005810  1
  Co  Co15  1  0.662609  0.500544  0.162065  1
  Co  Co16  1  0.337391  0.499456  0.837935  1
  Hg  Hg17  1  0.500000  0.000000  0.500000  1
