# generated using pymatgen
data_Eu4Ga18(PtRh)3
_symmetry_space_group_name_H-M   'P 1'
_cell_length_a   7.67687525
_cell_length_b   7.67687465
_cell_length_c   9.71814331
_cell_angle_alpha   90.03234645
_cell_angle_beta   90.03235055
_cell_angle_gamma   119.70802394
_symmetry_Int_Tables_number   1
_chemical_formula_structural   Eu4Ga18(PtRh)3
_chemical_formula_sum   'Eu4 Ga18 Pt3 Rh3'
_cell_volume   497.45390266
_cell_formula_units_Z   1
loop_
 _symmetry_equiv_pos_site_id
 _symmetry_equiv_pos_as_xyz
  1  'x, y, z'
loop_
 _atom_site_type_symbol
 _atom_site_label
 _atom_site_symmetry_multiplicity
 _atom_site_fract_x
 _atom_site_fract_y
 _atom_site_fract_z
 _atom_site_occupancy
  Eu  Eu0  1  0.670427  0.997163  0.250141  1
  Eu  Eu1  1  0.002837  0.329573  0.749859  1
  Eu  Eu2  1  0.999133  0.672024  0.250442  1
  Eu  Eu3  1  0.327976  0.000867  0.749558  1
  Ga  Ga4  1  0.661361  0.999451  0.924121  1
  Ga  Ga5  1  0.132855  0.133955  0.249759  1
  Ga  Ga6  1  0.997703  0.334979  0.422119  1
  Ga  Ga7  1  0.338582  0.334944  0.562315  1
  Ga  Ga8  1  0.338216  0.544229  0.246826  1
  Ga  Ga9  1  0.455771  0.661784  0.753174  1
  Ga  Ga10  1  0.866045  0.867145  0.750241  1
  Ga  Ga11  1  0.662335  0.661969  0.059886  1
  Ga  Ga12  1  0.665056  0.661418  0.437685  1
  Ga  Ga13  1  0.993506  0.660962  0.578232  1
  Ga  Ga14  1  0.998835  0.661354  0.923605  1
  Ga  Ga15  1  0.339038  0.006494  0.421768  1
  Ga  Ga16  1  0.661425  0.452353  0.750346  1
  Ga  Ga17  1  0.547647  0.338575  0.249654  1
  Ga  Ga18  1  0.338031  0.337665  0.940114  1
  Ga  Ga19  1  0.338646  0.001165  0.076395  1
  Ga  Ga20  1  0.665021  0.002297  0.577881  1
  Ga  Ga21  1  0.000549  0.338639  0.075879  1
  Pt  Pt22  1  0.329611  0.670389  0.500000  1
  Pt  Pt23  1  0.000128  0.999872  0.000000  1
  Pt  Pt24  1  0.000034  0.999966  0.500000  1
  Rh  Rh25  1  0.330053  0.669947  0.000000  1
  Rh  Rh26  1  0.669556  0.330444  0.500000  1
  Rh  Rh27  1  0.669622  0.330378  0.000000  1
