# generated using pymatgen
data_Ba5Sc4TcO15
_symmetry_space_group_name_H-M   'P 1'
_cell_length_a   5.90596334
_cell_length_b   7.26091649
_cell_length_c   9.38650734
_cell_angle_alpha   105.12067724
_cell_angle_beta   71.66433430
_cell_angle_gamma   90.02461963
_symmetry_Int_Tables_number   1
_chemical_formula_structural   Ba5Sc4TcO15
_chemical_formula_sum   'Ba5 Sc4 Tc1 O15'
_cell_volume   367.38822697
_cell_formula_units_Z   1
loop_
 _symmetry_equiv_pos_site_id
 _symmetry_equiv_pos_as_xyz
  1  'x, y, z'
loop_
 _atom_site_type_symbol
 _atom_site_label
 _atom_site_symmetry_multiplicity
 _atom_site_fract_x
 _atom_site_fract_y
 _atom_site_fract_z
 _atom_site_occupancy
  Ba  Ba0  1  0.600002  0.600001  0.800005  1
  Ba  Ba1  1  0.204996  0.201875  0.590151  1
  Ba  Ba2  1  0.995021  0.998104  0.009849  1
  Ba  Ba3  1  0.397157  0.405091  0.205833  1
  Ba  Ba4  1  0.802849  0.794868  0.394150  1
  Sc  Sc5  1  0.998696  0.511720  0.002317  1
  Sc  Sc6  1  0.201295  0.688285  0.597686  1
  Sc  Sc7  1  0.395159  0.896994  0.209641  1
  Sc  Sc8  1  0.804877  0.302957  0.390350  1
  Tc  Tc9  1  0.599998  0.100014  0.799983  1
  O  O10  1  0.100014  0.600037  0.800011  1
  O  O11  1  0.100043  0.100030  0.300028  1
  O  O12  1  0.600024  0.099974  0.300002  1
  O  O13  1  0.693983  0.180446  0.612549  1
  O  O14  1  0.506077  0.019517  0.987440  1
  O  O15  1  0.904259  0.393511  0.191589  1
  O  O16  1  0.295853  0.806423  0.408375  1
  O  O17  1  0.499179  0.500024  0.504867  1
  O  O18  1  0.700819  0.699912  0.095113  1
  O  O19  1  0.995774  0.500336  0.505022  1
  O  O20  1  0.204156  0.699683  0.095030  1
  O  O21  1  0.873306  0.915194  0.714790  1
  O  O22  1  0.326607  0.284873  0.885204  1
  O  O23  1  0.412226  0.914902  0.714506  1
  O  O24  1  0.787627  0.285225  0.885513  1
