# generated using pymatgen
data_Er20Bi8OsRh3
_symmetry_space_group_name_H-M   'P 1'
_cell_length_a   7.94477052
_cell_length_b   8.94830400
_cell_length_c   12.38564000
_cell_angle_alpha   90.00000000
_cell_angle_beta   90.15882480
_cell_angle_gamma   90.00000000
_symmetry_Int_Tables_number   1
_chemical_formula_structural   Er20Bi8OsRh3
_chemical_formula_sum   'Er20 Bi8 Os1 Rh3'
_cell_volume   880.51928376
_cell_formula_units_Z   1
loop_
 _symmetry_equiv_pos_site_id
 _symmetry_equiv_pos_as_xyz
  1  'x, y, z'
loop_
 _atom_site_type_symbol
 _atom_site_label
 _atom_site_symmetry_multiplicity
 _atom_site_fract_x
 _atom_site_fract_y
 _atom_site_fract_z
 _atom_site_occupancy
  Er  Er0  1  0.659898  0.750000  0.706475  1
  Er  Er1  1  0.339157  0.250000  0.291821  1
  Er  Er2  1  0.161062  0.250000  0.793513  1
  Er  Er3  1  0.837385  0.750000  0.209215  1
  Er  Er4  1  0.122098  0.750000  0.809112  1
  Er  Er5  1  0.875494  0.250000  0.191012  1
  Er  Er6  1  0.622046  0.250000  0.692895  1
  Er  Er7  1  0.377388  0.750000  0.307117  1
  Er  Er8  1  0.552413  0.750000  0.998094  1
  Er  Er9  1  0.451668  0.250000  0.001313  1
  Er  Er10  1  0.055373  0.250000  0.502357  1
  Er  Er11  1  0.944973  0.750000  0.497747  1
  Er  Er12  1  0.824203  0.454872  0.933399  1
  Er  Er13  1  0.176242  0.543026  0.066091  1
  Er  Er14  1  0.324544  0.547651  0.565334  1
  Er  Er15  1  0.176242  0.956974  0.066091  1
  Er  Er16  1  0.674288  0.460292  0.435195  1
  Er  Er17  1  0.824203  0.045128  0.933399  1
  Er  Er18  1  0.674288  0.039708  0.435195  1
  Er  Er19  1  0.324544  0.952349  0.565334  1
  Bi  Bi20  1  0.932240  0.009646  0.672604  1
  Bi  Bi21  1  0.068026  0.991886  0.327138  1
  Bi  Bi22  1  0.431576  0.990634  0.827253  1
  Bi  Bi23  1  0.068026  0.508114  0.327138  1
  Bi  Bi24  1  0.568036  0.008905  0.172346  1
  Bi  Bi25  1  0.932240  0.490354  0.672604  1
  Bi  Bi26  1  0.568036  0.491095  0.172346  1
  Bi  Bi27  1  0.431576  0.509366  0.827253  1
  Os  Os28  1  0.575955  0.750000  0.489314  1
  Rh  Rh29  1  0.926742  0.750000  0.991453  1
  Rh  Rh30  1  0.074353  0.250000  0.010502  1
  Rh  Rh31  1  0.425684  0.250000  0.509340  1
