# generated using pymatgen
data_ZrNb5FeB4Ru9
_symmetry_space_group_name_H-M   'P 1'
_cell_length_a   9.41128411
_cell_length_b   9.41128433
_cell_length_c   3.04519400
_cell_angle_alpha   90.00000000
_cell_angle_beta   90.00000000
_cell_angle_gamma   89.87893422
_symmetry_Int_Tables_number   1
_chemical_formula_structural   ZrNb5FeB4Ru9
_chemical_formula_sum   'Zr1 Nb5 Fe1 B4 Ru9'
_cell_volume   269.71914487
_cell_formula_units_Z   1
loop_
 _symmetry_equiv_pos_site_id
 _symmetry_equiv_pos_as_xyz
  1  'x, y, z'
loop_
 _atom_site_type_symbol
 _atom_site_label
 _atom_site_symmetry_multiplicity
 _atom_site_fract_x
 _atom_site_fract_y
 _atom_site_fract_z
 _atom_site_occupancy
  Zr  Zr0  1  0.822277  0.677723  0.000000  1
  Nb  Nb1  1  0.178228  0.321772  0.000000  1
  Nb  Nb2  1  0.329270  0.829085  0.000000  1
  Nb  Nb3  1  0.670915  0.170730  0.000000  1
  Nb  Nb4  1  0.499913  0.500037  0.000000  1
  Nb  Nb5  1  0.999963  0.000087  0.000000  1
  Fe  Fe6  1  0.498716  0.001284  0.500000  1
  B  B7  1  0.611193  0.888807  0.000000  1
  B  B8  1  0.388069  0.111931  0.000000  1
  B  B9  1  0.122187  0.621809  0.000000  1
  B  B10  1  0.878191  0.377813  0.000000  1
  Ru  Ru11  1  0.563516  0.726073  0.500000  1
  Ru  Ru12  1  0.430909  0.276360  0.500000  1
  Ru  Ru13  1  0.075674  0.782811  0.500000  1
  Ru  Ru14  1  0.929631  0.217051  0.500000  1
  Ru  Ru15  1  0.282949  0.570369  0.500000  1
  Ru  Ru16  1  0.717189  0.424326  0.500000  1
  Ru  Ru17  1  0.223640  0.069091  0.500000  1
  Ru  Ru18  1  0.773927  0.936484  0.500000  1
  Ru  Ru19  1  0.003641  0.496359  0.500000  1
