# generated using pymatgen
data_Nb12AlGa7CuNi3C4
_symmetry_space_group_name_H-M   'P 1'
_cell_length_a   8.25444358
_cell_length_b   8.26301144
_cell_length_c   8.26340800
_cell_angle_alpha   59.99932519
_cell_angle_beta   59.98699710
_cell_angle_gamma   59.96106452
_symmetry_Int_Tables_number   1
_chemical_formula_structural   Nb12AlGa7CuNi3C4
_chemical_formula_sum   'Nb12 Al1 Ga7 Cu1 Ni3 C4'
_cell_volume   398.37998909
_cell_formula_units_Z   1
loop_
 _symmetry_equiv_pos_site_id
 _symmetry_equiv_pos_as_xyz
  1  'x, y, z'
loop_
 _atom_site_type_symbol
 _atom_site_label
 _atom_site_symmetry_multiplicity
 _atom_site_fract_x
 _atom_site_fract_y
 _atom_site_fract_z
 _atom_site_occupancy
  Nb  Nb0  1  0.812572  0.812958  0.187227  1
  Nb  Nb1  1  0.186589  0.185922  0.813743  1
  Nb  Nb2  1  0.812532  0.187288  0.812921  1
  Nb  Nb3  1  0.186624  0.813710  0.185943  1
  Nb  Nb4  1  0.186606  0.813714  0.813731  1
  Nb  Nb5  1  0.812562  0.187269  0.187226  1
  Nb  Nb6  1  0.437956  0.437399  0.062327  1
  Nb  Nb7  1  0.063145  0.064357  0.436238  1
  Nb  Nb8  1  0.438002  0.062275  0.437417  1
  Nb  Nb9  1  0.063095  0.436290  0.064329  1
  Nb  Nb10  1  0.063117  0.436285  0.436264  1
  Nb  Nb11  1  0.437963  0.062292  0.062329  1
  Al  Al12  1  0.745915  0.418061  0.418019  1
  Ga  Ga13  1  0.418853  0.752441  0.414340  1
  Ga  Ga14  1  0.418861  0.414394  0.752397  1
  Ga  Ga15  1  0.418837  0.414398  0.414325  1
  Ga  Ga16  1  0.499409  0.833489  0.833560  1
  Ga  Ga17  1  0.831485  0.497439  0.835538  1
  Ga  Ga18  1  0.831486  0.835495  0.497466  1
  Ga  Ga19  1  0.831499  0.835501  0.835556  1
  Cu  Cu20  1  0.124587  0.625142  0.625125  1
  Ni  Ni21  1  0.625885  0.125922  0.624123  1
  Ni  Ni22  1  0.625922  0.624075  0.125913  1
  Ni  Ni23  1  0.625857  0.624099  0.624156  1
  C  C24  1  0.624355  0.125215  0.125213  1
  C  C25  1  0.125426  0.624932  0.124824  1
  C  C26  1  0.125435  0.124818  0.624928  1
  C  C27  1  0.125425  0.124818  0.124822  1
