# generated using pymatgen
data_Sr3TbCrO6
_symmetry_space_group_name_H-M   'P 1'
_cell_length_a   6.86377861
_cell_length_b   6.86375529
_cell_length_c   6.86371233
_cell_angle_alpha   92.10754851
_cell_angle_beta   92.10705110
_cell_angle_gamma   92.10782620
_symmetry_Int_Tables_number   1
_chemical_formula_structural   Sr3TbCrO6
_chemical_formula_sum   'Sr6 Tb2 Cr2 O12'
_cell_volume   322.68567505
_cell_formula_units_Z   2
loop_
 _symmetry_equiv_pos_site_id
 _symmetry_equiv_pos_as_xyz
  1  'x, y, z'
loop_
 _atom_site_type_symbol
 _atom_site_label
 _atom_site_symmetry_multiplicity
 _atom_site_fract_x
 _atom_site_fract_y
 _atom_site_fract_z
 _atom_site_occupancy
  Sr  Sr0  1  0.615404  0.884593  0.249984  1
  Sr  Sr1  1  0.884579  0.250002  0.615383  1
  Sr  Sr2  1  0.249992  0.615418  0.884577  1
  Sr  Sr3  1  0.115405  0.750008  0.384554  1
  Sr  Sr4  1  0.749994  0.384589  0.115407  1
  Sr  Sr5  1  0.384576  0.115413  0.749982  1
  Tb  Tb6  1  0.249982  0.249991  0.249983  1
  Tb  Tb7  1  0.749987  0.749985  0.749989  1
  Cr  Cr8  1  0.499948  0.500101  0.499888  1
  Cr  Cr9  1  0.000192  0.999938  0.000363  1
  O  O10  1  0.544320  0.214724  0.411880  1
  O  O11  1  0.214726  0.411892  0.544323  1
  O  O12  1  0.411886  0.544336  0.214725  1
  O  O13  1  0.044325  0.911878  0.714711  1
  O  O14  1  0.911892  0.714732  0.044322  1
  O  O15  1  0.714720  0.044323  0.911886  1
  O  O16  1  0.455673  0.785267  0.588105  1
  O  O17  1  0.785271  0.588107  0.455662  1
  O  O18  1  0.588111  0.455660  0.785266  1
  O  O19  1  0.955664  0.088107  0.285254  1
  O  O20  1  0.088101  0.285269  0.955659  1
  O  O21  1  0.285251  0.955668  0.088096  1
