# generated using pymatgen
data_Li8Tb2Y6Sn3Bi5
_symmetry_space_group_name_H-M   'P 1'
_cell_length_a   9.59043341
_cell_length_b   9.58995396
_cell_length_c   7.19244160
_cell_angle_alpha   90.06789711
_cell_angle_beta   89.94087690
_cell_angle_gamma   119.98628913
_symmetry_Int_Tables_number   1
_chemical_formula_structural   Li8Tb2Y6Sn3Bi5
_chemical_formula_sum   'Li8 Tb2 Y6 Sn3 Bi5'
_cell_volume   572.95611253
_cell_formula_units_Z   1
loop_
 _symmetry_equiv_pos_site_id
 _symmetry_equiv_pos_as_xyz
  1  'x, y, z'
loop_
 _atom_site_type_symbol
 _atom_site_label
 _atom_site_symmetry_multiplicity
 _atom_site_fract_x
 _atom_site_fract_y
 _atom_site_fract_z
 _atom_site_occupancy
  Li  Li0  1  0.169770  0.830330  0.201117  1
  Li  Li1  1  0.337747  0.168091  0.705536  1
  Li  Li2  1  0.831841  0.662309  0.705533  1
  Li  Li3  1  0.165176  0.336240  0.209598  1
  Li  Li4  1  0.663734  0.834866  0.209607  1
  Li  Li5  1  0.830429  0.169370  0.700026  1
  Li  Li6  1  0.332566  0.667483  0.809464  1
  Li  Li7  1  0.668675  0.331126  0.306366  1
  Tb  Tb8  1  0.510269  0.489730  0.991378  1
  Tb  Tb9  1  0.019783  0.506787  0.487228  1
  Y  Y10  1  0.493195  0.979993  0.487266  1
  Y  Y11  1  0.518035  0.025680  0.992423  1
  Y  Y12  1  0.974371  0.481974  0.992492  1
  Y  Y13  1  0.489674  0.510364  0.489912  1
  Y  Y14  1  0.996725  0.003289  0.984632  1
  Y  Y15  1  0.997390  0.002607  0.479023  1
  Sn  Sn16  1  0.833837  0.166007  0.249207  1
  Sn  Sn17  1  0.334042  0.666226  0.225618  1
  Sn  Sn18  1  0.665991  0.333720  0.725391  1
  Bi  Bi19  1  0.166448  0.833892  0.748611  1
  Bi  Bi20  1  0.332933  0.166431  0.247561  1
  Bi  Bi21  1  0.833551  0.667217  0.247444  1
  Bi  Bi22  1  0.166763  0.332912  0.747337  1
  Bi  Bi23  1  0.667055  0.833355  0.747236  1
