# generated using pymatgen
data_Y6Ga5Tc11O
_symmetry_space_group_name_H-M   'P 1'
_cell_length_a   8.04717760
_cell_length_b   8.06471120
_cell_length_c   8.04717800
_cell_angle_alpha   109.61297163
_cell_angle_beta   109.09936295
_cell_angle_gamma   109.61299035
_symmetry_Int_Tables_number   1
_chemical_formula_structural   Y6Ga5Tc11O
_chemical_formula_sum   'Y6 Ga5 Tc11 O1'
_cell_volume   402.45559753
_cell_formula_units_Z   1
loop_
 _symmetry_equiv_pos_site_id
 _symmetry_equiv_pos_as_xyz
  1  'x, y, z'
loop_
 _atom_site_type_symbol
 _atom_site_label
 _atom_site_symmetry_multiplicity
 _atom_site_fract_x
 _atom_site_fract_y
 _atom_site_fract_z
 _atom_site_occupancy
  Y  Y0  1  0.265752  0.000000  0.261461  1
  Y  Y1  1  0.001188  0.262216  0.261027  1
  Y  Y2  1  0.997100  0.730610  0.733511  1
  Y  Y3  1  0.266489  0.269390  0.002900  1
  Y  Y4  1  0.738973  0.737784  0.998812  1
  Y  Y5  1  0.738539  0.000000  0.734248  1
  Ga  Ga6  1  0.346457  0.000000  0.653543  1
  Ga  Ga7  1  0.676071  0.340568  0.341162  1
  Ga  Ga8  1  0.999406  0.340568  0.664499  1
  Ga  Ga9  1  0.658838  0.659432  0.323929  1
  Ga  Ga10  1  0.335501  0.659432  0.000594  1
  Tc  Tc11  1  0.999698  0.000000  0.473969  1
  Tc  Tc12  1  0.526031  0.000000  0.000302  1
  Tc  Tc13  1  0.990490  0.500000  0.009510  1
  Tc  Tc14  1  0.490490  0.500000  0.509510  1
  Tc  Tc15  1  0.344202  0.690122  0.345920  1
  Tc  Tc16  1  0.654080  0.309878  0.655798  1
  Tc  Tc17  1  0.338124  0.337511  0.686321  1
  Tc  Tc18  1  0.313679  0.662489  0.661876  1
  Tc  Tc19  1  0.651191  0.337511  0.999388  1
  Tc  Tc20  1  0.000612  0.662489  0.348809  1
  Tc  Tc21  1  0.660715  0.000000  0.339285  1
  O  O22  1  0.006374  0.000000  0.993626  1
