# generated using pymatgen
data_Tb4TcIr3F28
_symmetry_space_group_name_H-M   'P 1'
_cell_length_a   5.60777556
_cell_length_b   8.96277226
_cell_length_c   12.00110587
_cell_angle_alpha   62.62789853
_cell_angle_beta   90.06942830
_cell_angle_gamma   89.97846790
_symmetry_Int_Tables_number   1
_chemical_formula_structural   Tb4TcIr3F28
_chemical_formula_sum   'Tb4 Tc1 Ir3 F28'
_cell_volume   535.65592050
_cell_formula_units_Z   1
loop_
 _symmetry_equiv_pos_site_id
 _symmetry_equiv_pos_as_xyz
  1  'x, y, z'
loop_
 _atom_site_type_symbol
 _atom_site_label
 _atom_site_symmetry_multiplicity
 _atom_site_fract_x
 _atom_site_fract_y
 _atom_site_fract_z
 _atom_site_occupancy
  Tb  Tb0  1  0.259562  0.813610  0.264279  1
  Tb  Tb1  1  0.739315  0.187631  0.734103  1
  Tb  Tb2  1  0.760804  0.186215  0.235380  1
  Tb  Tb3  1  0.240975  0.812464  0.767643  1
  Tc  Tc4  1  0.743523  0.726585  0.543633  1
  Ir  Ir5  1  0.755901  0.725867  0.044182  1
  Ir  Ir6  1  0.243413  0.272580  0.957185  1
  Ir  Ir7  1  0.257373  0.273922  0.455482  1
  F  F8  1  0.949700  0.706723  0.419531  1
  F  F9  1  0.059662  0.295190  0.581417  1
  F  F10  1  0.447826  0.294389  0.082341  1
  F  F11  1  0.555560  0.706003  0.916912  1
  F  F12  1  0.468807  0.730516  0.137545  1
  F  F13  1  0.528184  0.266406  0.864015  1
  F  F14  1  0.969251  0.273311  0.359368  1
  F  F15  1  0.023825  0.731407  0.640249  1
  F  F16  1  0.952127  0.744890  0.173571  1
  F  F17  1  0.043664  0.252492  0.828994  1
  F  F18  1  0.451272  0.254713  0.326849  1
  F  F19  1  0.542115  0.747959  0.670117  1
  F  F20  1  0.762635  0.482042  0.140759  1
  F  F21  1  0.236710  0.516989  0.859526  1
  F  F22  1  0.269292  0.517723  0.357521  1
  F  F23  1  0.732040  0.480813  0.642071  1
  F  F24  1  0.951847  0.283487  0.045343  1
  F  F25  1  0.049508  0.716395  0.955582  1
  F  F26  1  0.453119  0.718263  0.453590  1
  F  F27  1  0.553429  0.280432  0.545373  1
  F  F28  1  0.741799  0.971802  0.446986  1
  F  F29  1  0.254671  0.030198  0.549817  1
  F  F30  1  0.239330  0.028211  0.050551  1
  F  F31  1  0.758312  0.969727  0.950305  1
  F  F32  1  0.581509  0.971304  0.231303  1
  F  F33  1  0.419317  0.028338  0.768570  1
  F  F34  1  0.082574  0.028705  0.267759  1
  F  F35  1  0.921049  0.972702  0.732145  1
