# generated using pymatgen
data_YbEu4Rh3
_symmetry_space_group_name_H-M   'P 1'
_cell_length_a   8.88171524
_cell_length_b   8.88171502
_cell_length_c   8.88171507
_cell_angle_alpha   128.98286880
_cell_angle_beta   128.98286868
_cell_angle_gamma   75.03814551
_symmetry_Int_Tables_number   1
_chemical_formula_structural   YbEu4Rh3
_chemical_formula_sum   'Yb2 Eu8 Rh6'
_cell_volume   412.23710720
_cell_formula_units_Z   2
loop_
 _symmetry_equiv_pos_site_id
 _symmetry_equiv_pos_as_xyz
  1  'x, y, z'
loop_
 _atom_site_type_symbol
 _atom_site_label
 _atom_site_symmetry_multiplicity
 _atom_site_fract_x
 _atom_site_fract_y
 _atom_site_fract_z
 _atom_site_occupancy
  Yb  Yb0  1  0.000000  0.000000  0.000000  1
  Yb  Yb1  1  0.500000  0.500000  0.000000  1
  Eu  Eu2  1  0.815511  0.969205  0.500000  1
  Eu  Eu3  1  0.684489  0.184489  0.153693  1
  Eu  Eu4  1  0.530795  0.684489  0.500000  1
  Eu  Eu5  1  0.030795  0.530795  0.846307  1
  Eu  Eu6  1  0.469205  0.315511  0.500000  1
  Eu  Eu7  1  0.315511  0.815511  0.846307  1
  Eu  Eu8  1  0.184489  0.030795  0.500000  1
  Eu  Eu9  1  0.969205  0.469205  0.153693  1
  Rh  Rh10  1  0.126689  0.373311  0.500000  1
  Rh  Rh11  1  0.250000  0.250000  0.000000  1
  Rh  Rh12  1  0.873311  0.626689  0.500000  1
  Rh  Rh13  1  0.750000  0.750000  0.000000  1
  Rh  Rh14  1  0.626689  0.126689  0.753379  1
  Rh  Rh15  1  0.373311  0.873311  0.246621  1
