# generated using pymatgen
data_ErTmPa2(ReB6)2
_symmetry_space_group_name_H-M   'P 1'
_cell_length_a   3.70413500
_cell_length_b   9.13513307
_cell_length_c   11.49144909
_cell_angle_alpha   90.01400612
_cell_angle_beta   90.00000000
_cell_angle_gamma   90.00000000
_symmetry_Int_Tables_number   1
_chemical_formula_structural   ErTmPa2(ReB6)2
_chemical_formula_sum   'Er2 Tm2 Pa4 Re4 B24'
_cell_volume   388.84495502
_cell_formula_units_Z   2
loop_
 _symmetry_equiv_pos_site_id
 _symmetry_equiv_pos_as_xyz
  1  'x, y, z'
loop_
 _atom_site_type_symbol
 _atom_site_label
 _atom_site_symmetry_multiplicity
 _atom_site_fract_x
 _atom_site_fract_y
 _atom_site_fract_z
 _atom_site_occupancy
  Er  Er0  1  0.000000  0.944810  0.374154  1
  Er  Er1  1  0.000000  0.055190  0.625846  1
  Tm  Tm2  1  0.000000  0.444893  0.125634  1
  Tm  Tm3  1  0.000000  0.555107  0.874366  1
  Pa  Pa4  1  0.000000  0.322633  0.413398  1
  Pa  Pa5  1  0.000000  0.677367  0.586602  1
  Pa  Pa6  1  0.000000  0.822352  0.086451  1
  Pa  Pa7  1  0.000000  0.177648  0.913549  1
  Re  Re8  1  0.000000  0.638609  0.321011  1
  Re  Re9  1  0.000000  0.361391  0.678989  1
  Re  Re10  1  0.000000  0.139244  0.178677  1
  Re  Re11  1  0.000000  0.860756  0.821323  1
  B  B12  1  0.500000  0.552978  0.433304  1
  B  B13  1  0.500000  0.447022  0.566696  1
  B  B14  1  0.500000  0.053089  0.066604  1
  B  B15  1  0.500000  0.946911  0.933396  1
  B  B16  1  0.500000  0.748876  0.419906  1
  B  B17  1  0.500000  0.251124  0.580094  1
  B  B18  1  0.500000  0.249359  0.080065  1
  B  B19  1  0.500000  0.750641  0.919935  1
  B  B20  1  0.500000  0.793126  0.265489  1
  B  B21  1  0.500000  0.206874  0.734511  1
  B  B22  1  0.500000  0.293536  0.234285  1
  B  B23  1  0.500000  0.706464  0.765715  1
  B  B24  1  0.500000  0.632334  0.184536  1
  B  B25  1  0.500000  0.367666  0.815464  1
  B  B26  1  0.500000  0.132762  0.315190  1
  B  B27  1  0.500000  0.867238  0.684810  1
  B  B28  1  0.500000  0.982435  0.213442  1
  B  B29  1  0.500000  0.017565  0.786558  1
  B  B30  1  0.500000  0.482249  0.286258  1
  B  B31  1  0.500000  0.517751  0.713742  1
  B  B32  1  0.500000  0.608375  0.029887  1
  B  B33  1  0.500000  0.391625  0.970113  1
  B  B34  1  0.500000  0.109249  0.469904  1
  B  B35  1  0.500000  0.890751  0.530096  1
