# generated using pymatgen
data_Ce4B4Ir9Ru
_symmetry_space_group_name_H-M   'P 1'
_cell_length_a   11.01501689
_cell_length_b   11.02338977
_cell_length_c   11.02339014
_cell_angle_alpha   28.85101896
_cell_angle_beta   29.02717350
_cell_angle_gamma   29.02718253
_symmetry_Int_Tables_number   1
_chemical_formula_structural   Ce4B4Ir9Ru
_chemical_formula_sum   'Ce4 B4 Ir9 Ru1'
_cell_volume   277.68812684
_cell_formula_units_Z   1
loop_
 _symmetry_equiv_pos_site_id
 _symmetry_equiv_pos_as_xyz
  1  'x, y, z'
loop_
 _atom_site_type_symbol
 _atom_site_label
 _atom_site_symmetry_multiplicity
 _atom_site_fract_x
 _atom_site_fract_y
 _atom_site_fract_z
 _atom_site_occupancy
  Ce  Ce0  1  0.152236  0.152202  0.152202  1
  Ce  Ce1  1  0.949763  0.949440  0.949440  1
  Ce  Ce2  1  0.847764  0.847798  0.847798  1
  Ce  Ce3  1  0.050237  0.050560  0.050560  1
  B  B4  1  0.619838  0.616932  0.616932  1
  B  B5  1  0.719761  0.714815  0.714815  1
  B  B6  1  0.380162  0.383068  0.383068  1
  B  B7  1  0.280239  0.285185  0.285185  1
  Ir  Ir8  1  0.406746  0.899819  0.406335  1
  Ir  Ir9  1  0.899332  0.407558  0.407558  1
  Ir  Ir10  1  0.500000  0.500000  0.000000  1
  Ir  Ir11  1  0.500000  0.000000  0.500000  1
  Ir  Ir12  1  0.500000  0.500000  0.500000  1
  Ir  Ir13  1  0.593254  0.100181  0.593665  1
  Ir  Ir14  1  0.593254  0.593665  0.100181  1
  Ir  Ir15  1  0.100668  0.592442  0.592442  1
  Ir  Ir16  1  0.406746  0.406335  0.899819  1
  Ru  Ru17  1  0.000000  0.500000  0.500000  1
