# generated using pymatgen
data_Er4Tc3B16Rh
_symmetry_space_group_name_H-M   'P 1'
_cell_length_a   3.56987900
_cell_length_b   5.95023664
_cell_length_c   11.51422201
_cell_angle_alpha   90.14318142
_cell_angle_beta   90.00000000
_cell_angle_gamma   90.00000000
_symmetry_Int_Tables_number   1
_chemical_formula_structural   Er4Tc3B16Rh
_chemical_formula_sum   'Er4 Tc3 B16 Rh1'
_cell_volume   244.58002014
_cell_formula_units_Z   1
loop_
 _symmetry_equiv_pos_site_id
 _symmetry_equiv_pos_as_xyz
  1  'x, y, z'
loop_
 _atom_site_type_symbol
 _atom_site_label
 _atom_site_symmetry_multiplicity
 _atom_site_fract_x
 _atom_site_fract_y
 _atom_site_fract_z
 _atom_site_occupancy
  Er  Er0  1  0.000000  0.129461  0.651344  1
  Er  Er1  1  0.000000  0.871244  0.351077  1
  Er  Er2  1  0.000000  0.629661  0.849378  1
  Er  Er3  1  0.000000  0.370452  0.147715  1
  Tc  Tc4  1  0.000000  0.633417  0.586859  1
  Tc  Tc5  1  0.000000  0.365192  0.411107  1
  Tc  Tc6  1  0.000000  0.140245  0.909805  1
  B  B7  1  0.500000  0.789045  0.685328  1
  B  B8  1  0.500000  0.209327  0.314559  1
  B  B9  1  0.500000  0.289906  0.814385  1
  B  B10  1  0.500000  0.707787  0.185661  1
  B  B11  1  0.500000  0.865201  0.530922  1
  B  B12  1  0.500000  0.134592  0.469073  1
  B  B13  1  0.500000  0.366373  0.969589  1
  B  B14  1  0.500000  0.635241  0.030590  1
  B  B15  1  0.500000  0.024913  0.192809  1
  B  B16  1  0.500000  0.976415  0.807350  1
  B  B17  1  0.500000  0.522820  0.306875  1
  B  B18  1  0.500000  0.479275  0.692657  1
  B  B19  1  0.500000  0.114120  0.047196  1
  B  B20  1  0.500000  0.887264  0.951825  1
  B  B21  1  0.500000  0.612736  0.452446  1
  B  B22  1  0.500000  0.386921  0.547246  1
  Rh  Rh23  1  0.000000  0.858393  0.094205  1
