# generated using pymatgen
data_Th2Al16Pt9
_symmetry_space_group_name_H-M   'P 1'
_cell_length_a   11.14663768
_cell_length_b   11.14663925
_cell_length_c   11.14663878
_cell_angle_alpha   158.46707868
_cell_angle_beta   114.63088827
_cell_angle_gamma   69.69742854
_symmetry_Int_Tables_number   1
_chemical_formula_structural   Th2Al16Pt9
_chemical_formula_sum   'Th2 Al16 Pt9'
_cell_volume   458.62003664
_cell_formula_units_Z   1
loop_
 _symmetry_equiv_pos_site_id
 _symmetry_equiv_pos_as_xyz
  1  'x, y, z'
loop_
 _atom_site_type_symbol
 _atom_site_label
 _atom_site_symmetry_multiplicity
 _atom_site_fract_x
 _atom_site_fract_y
 _atom_site_fract_z
 _atom_site_occupancy
  Th  Th0  1  0.227879  0.227879  0.000000  1
  Th  Th1  1  0.772121  0.772121  0.000000  1
  Al  Al2  1  0.273127  0.392137  0.880990  1
  Al  Al3  1  0.092151  0.920750  0.171402  1
  Al  Al4  1  0.509793  0.202498  0.307296  1
  Al  Al5  1  0.250652  0.079250  0.171402  1
  Al  Al6  1  0.914204  0.414204  0.500000  1
  Al  Al7  1  0.726873  0.607863  0.119010  1
  Al  Al8  1  0.895202  0.202498  0.692704  1
  Al  Al9  1  0.490207  0.797502  0.692704  1
  Al  Al10  1  0.386657  0.000000  0.386657  1
  Al  Al11  1  0.613343  0.000000  0.613343  1
  Al  Al12  1  0.488853  0.607863  0.880990  1
  Al  Al13  1  0.104798  0.797502  0.307296  1
  Al  Al14  1  0.907849  0.079250  0.828598  1
  Al  Al15  1  0.749348  0.920750  0.828598  1
  Al  Al16  1  0.511147  0.392137  0.119010  1
  Al  Al17  1  0.085796  0.585796  0.500000  1
  Pt  Pt18  1  0.748862  0.500000  0.248862  1
  Pt  Pt19  1  0.022892  0.339088  0.683804  1
  Pt  Pt20  1  0.625925  0.125925  0.500000  1
  Pt  Pt21  1  0.251138  0.500000  0.751138  1
  Pt  Pt22  1  0.374075  0.874075  0.500000  1
  Pt  Pt23  1  0.000000  0.000000  0.000000  1
  Pt  Pt24  1  0.655285  0.339088  0.316196  1
  Pt  Pt25  1  0.344715  0.660912  0.683804  1
  Pt  Pt26  1  0.977108  0.660912  0.316196  1
