# generated using pymatgen
data_DyZr2Sc(Al8Pt3)3
_symmetry_space_group_name_H-M   'P 1'
_cell_length_a   7.49003545
_cell_length_b   7.49733799
_cell_length_c   13.02272676
_cell_angle_alpha   84.55744144
_cell_angle_beta   78.96193266
_cell_angle_gamma   59.95904978
_symmetry_Int_Tables_number   1
_chemical_formula_structural   DyZr2Sc(Al8Pt3)3
_chemical_formula_sum   'Dy1 Zr2 Sc1 Al24 Pt9'
_cell_volume   621.34707045
_cell_formula_units_Z   1
loop_
 _symmetry_equiv_pos_site_id
 _symmetry_equiv_pos_as_xyz
  1  'x, y, z'
loop_
 _atom_site_type_symbol
 _atom_site_label
 _atom_site_symmetry_multiplicity
 _atom_site_fract_x
 _atom_site_fract_y
 _atom_site_fract_z
 _atom_site_occupancy
  Dy  Dy0  1  0.266915  0.501736  0.191090  1
  Zr  Zr1  1  0.393452  0.167770  0.810340  1
  Zr  Zr2  1  0.606768  0.831557  0.189361  1
  Sc  Sc3  1  0.733975  0.498991  0.806572  1
  Al  Al4  1  0.682142  0.832583  0.940417  1
  Al  Al5  1  0.318529  0.163914  0.055579  1
  Al  Al6  1  0.145736  0.833187  0.563837  1
  Al  Al7  1  0.853953  0.167065  0.437261  1
  Al  Al8  1  0.479834  0.166972  0.561686  1
  Al  Al9  1  0.519810  0.832963  0.439226  1
  Al  Al10  1  0.220433  0.163540  0.327313  1
  Al  Al11  1  0.778306  0.834247  0.676406  1
  Al  Al12  1  0.437844  0.504350  0.676539  1
  Al  Al13  1  0.563341  0.495599  0.327108  1
  Al  Al14  1  0.107341  0.163005  0.675299  1
  Al  Al15  1  0.888743  0.839634  0.328443  1
  Al  Al16  1  0.358521  0.496337  0.939031  1
  Al  Al17  1  0.647802  0.502470  0.055275  1
  Al  Al18  1  0.016543  0.171125  0.947822  1
  Al  Al19  1  0.981932  0.832628  0.047563  1
  Al  Al20  1  0.186431  0.499791  0.440799  1
  Al  Al21  1  0.812822  0.500258  0.560888  1
  Al  Al22  1  0.734223  0.158400  0.183580  1
  Al  Al23  1  0.269844  0.838583  0.816414  1
  Al  Al24  1  0.063058  0.625492  0.815507  1
  Al  Al25  1  0.933393  0.373506  0.184675  1
  Al  Al26  1  0.849397  0.045225  0.816047  1
  Al  Al27  1  0.149239  0.959627  0.184274  1
  Pt  Pt28  1  0.119964  0.490903  0.639527  1
  Pt  Pt29  1  0.879687  0.508821  0.361207  1
  Pt  Pt30  1  0.656814  0.172070  0.999619  1
  Pt  Pt31  1  0.342838  0.827562  0.000267  1
  Pt  Pt32  1  0.537085  0.166623  0.361742  1
  Pt  Pt33  1  0.462835  0.833494  0.638827  1
  Pt  Pt34  1  0.778288  0.176059  0.637959  1
  Pt  Pt35  1  0.221270  0.824153  0.362615  1
  Pt  Pt36  1  0.000892  0.499760  0.999886  1
