# generated using pymatgen
data_Cs5RbAs4W
_symmetry_space_group_name_H-M   'P 1'
_cell_length_a   11.11344445
_cell_length_b   11.11344552
_cell_length_c   8.87693167
_cell_angle_alpha   89.19592456
_cell_angle_beta   89.19592704
_cell_angle_gamma   120.19034102
_symmetry_Int_Tables_number   1
_chemical_formula_structural   Cs5RbAs4W
_chemical_formula_sum   'Cs10 Rb2 As8 W2'
_cell_volume   947.28929146
_cell_formula_units_Z   2
loop_
 _symmetry_equiv_pos_site_id
 _symmetry_equiv_pos_as_xyz
  1  'x, y, z'
loop_
 _atom_site_type_symbol
 _atom_site_label
 _atom_site_symmetry_multiplicity
 _atom_site_fract_x
 _atom_site_fract_y
 _atom_site_fract_z
 _atom_site_occupancy
  Cs  Cs0  1  0.464595  0.533887  0.605214  1
  Cs  Cs1  1  0.068758  0.534347  0.607325  1
  Cs  Cs2  1  0.533887  0.464595  0.105214  1
  Cs  Cs3  1  0.534347  0.068758  0.107325  1
  Cs  Cs4  1  0.855477  0.142560  0.788537  1
  Cs  Cs5  1  0.295640  0.147619  0.803974  1
  Cs  Cs6  1  0.853808  0.709238  0.777216  1
  Cs  Cs7  1  0.142560  0.855477  0.288537  1
  Cs  Cs8  1  0.709238  0.853808  0.277216  1
  Cs  Cs9  1  0.147619  0.295640  0.303974  1
  Rb  Rb10  1  0.467736  0.936633  0.607899  1
  Rb  Rb11  1  0.936633  0.467736  0.107899  1
  As  As12  1  0.672389  0.334241  0.773027  1
  As  As13  1  0.334241  0.672389  0.273027  1
  As  As14  1  0.207913  0.786409  0.913331  1
  As  As15  1  0.570897  0.786548  0.905950  1
  As  As16  1  0.208837  0.424915  0.924994  1
  As  As17  1  0.786409  0.207913  0.413331  1
  As  As18  1  0.424915  0.208837  0.424994  1
  As  As19  1  0.786548  0.570897  0.405950  1
  W  W20  1  0.667728  0.329824  0.499731  1
  W  W21  1  0.329824  0.667728  0.999731  1
