# generated using pymatgen
data_Cs8Pa3SbCl24
_symmetry_space_group_name_H-M   'P 1'
_cell_length_a   13.45754761
_cell_length_b   13.45754783
_cell_length_c   13.45754800
_cell_angle_alpha   132.09777773
_cell_angle_beta   132.09777858
_cell_angle_gamma   70.07464279
_symmetry_Int_Tables_number   1
_chemical_formula_structural   Cs8Pa3SbCl24
_chemical_formula_sum   'Cs8 Pa3 Sb1 Cl24'
_cell_volume   1315.47964092
_cell_formula_units_Z   1
loop_
 _symmetry_equiv_pos_site_id
 _symmetry_equiv_pos_as_xyz
  1  'x, y, z'
loop_
 _atom_site_type_symbol
 _atom_site_label
 _atom_site_symmetry_multiplicity
 _atom_site_fract_x
 _atom_site_fract_y
 _atom_site_fract_z
 _atom_site_occupancy
  Cs  Cs0  1  0.645485  0.644864  0.527252  1
  Cs  Cs1  1  0.881766  0.354515  0.999379  1
  Cs  Cs2  1  0.117613  0.118234  0.472748  1
  Cs  Cs3  1  0.355136  0.882387  0.000621  1
  Cs  Cs4  1  0.117613  0.644864  0.999379  1
  Cs  Cs5  1  0.881766  0.882387  0.527252  1
  Cs  Cs6  1  0.355136  0.354515  0.472748  1
  Cs  Cs7  1  0.645485  0.118234  0.000621  1
  Pa  Pa8  1  0.250000  0.750000  0.500000  1
  Pa  Pa9  1  0.500000  0.500000  0.000000  1
  Pa  Pa10  1  0.750000  0.250000  0.500000  1
  Sb  Sb11  1  0.000000  0.000000  0.000000  1
  Cl  Cl12  1  0.121919  0.121919  0.000000  1
  Cl  Cl13  1  0.488752  0.749039  0.739713  1
  Cl  Cl14  1  0.869141  0.369141  0.500000  1
  Cl  Cl15  1  0.990590  0.251124  0.739467  1
  Cl  Cl16  1  0.878081  0.878081  0.000000  1
  Cl  Cl17  1  0.250961  0.990674  0.739713  1
  Cl  Cl18  1  0.261041  0.500150  0.760893  1
  Cl  Cl19  1  0.499850  0.260743  0.760893  1
  Cl  Cl20  1  0.499850  0.738959  0.239107  1
  Cl  Cl21  1  0.511657  0.251124  0.260533  1
  Cl  Cl22  1  0.000482  0.755125  0.754642  1
  Cl  Cl23  1  0.250961  0.511248  0.260287  1
  Cl  Cl24  1  0.130875  0.630875  0.500000  1
  Cl  Cl25  1  0.739257  0.500150  0.239107  1
  Cl  Cl26  1  0.244875  0.999518  0.245358  1
  Cl  Cl27  1  0.748876  0.009410  0.260533  1
  Cl  Cl28  1  0.754161  0.999518  0.754642  1
  Cl  Cl29  1  0.630859  0.130859  0.500000  1
  Cl  Cl30  1  0.381805  0.381805  0.000000  1
  Cl  Cl31  1  0.618195  0.618195  0.000000  1
  Cl  Cl32  1  0.748876  0.488343  0.739467  1
  Cl  Cl33  1  0.009326  0.749039  0.260287  1
  Cl  Cl34  1  0.000482  0.245839  0.245358  1
  Cl  Cl35  1  0.369125  0.869125  0.500000  1
