# generated using pymatgen
data_Tm10(TlSb)3
_symmetry_space_group_name_H-M   'P 1'
_cell_length_a   6.44933900
_cell_length_b   8.84150372
_cell_length_c   8.84106800
_cell_angle_alpha   60.00109741
_cell_angle_beta   90.00153406
_cell_angle_gamma   89.99828525
_symmetry_Int_Tables_number   1
_chemical_formula_structural   Tm10(TlSb)3
_chemical_formula_sum   'Tm10 Tl3 Sb3'
_cell_volume   436.59776106
_cell_formula_units_Z   1
loop_
 _symmetry_equiv_pos_site_id
 _symmetry_equiv_pos_as_xyz
  1  'x, y, z'
loop_
 _atom_site_type_symbol
 _atom_site_label
 _atom_site_symmetry_multiplicity
 _atom_site_fract_x
 _atom_site_fract_y
 _atom_site_fract_z
 _atom_site_occupancy
  Tm  Tm0  1  0.501864  0.333295  0.333286  1
  Tm  Tm1  1  0.501864  0.666713  0.666706  1
  Tm  Tm2  1  0.998129  0.666668  0.666641  1
  Tm  Tm3  1  0.998130  0.333360  0.333331  1
  Tm  Tm4  1  0.749981  0.238117  0.761881  1
  Tm  Tm5  1  0.750016  0.761945  0.000045  1
  Tm  Tm6  1  0.750015  0.999954  0.238058  1
  Tm  Tm7  1  0.250012  0.761636  0.238362  1
  Tm  Tm8  1  0.250001  0.238337  0.000013  1
  Tm  Tm9  1  0.250001  0.999986  0.761662  1
  Tl  Tl10  1  0.749876  0.606922  0.393093  1
  Tl  Tl11  1  0.750062  0.393114  0.999998  1
  Tl  Tl12  1  0.750065  0.000019  0.606860  1
  Sb  Sb13  1  0.250026  0.394572  0.605427  1
  Sb  Sb14  1  0.249979  0.605406  0.000041  1
  Sb  Sb15  1  0.249979  0.999958  0.394595  1
