# generated using pymatgen
data_Nd5Sn15(PtRh3)2
_symmetry_space_group_name_H-M   'P 1'
_cell_length_a   4.54040000
_cell_length_b   7.31847050
_cell_length_c   18.88924644
_cell_angle_alpha   89.98323503
_cell_angle_beta   90.00000000
_cell_angle_gamma   90.00000000
_symmetry_Int_Tables_number   1
_chemical_formula_structural   Nd5Sn15(PtRh3)2
_chemical_formula_sum   'Nd5 Sn15 Pt2 Rh6'
_cell_volume   627.66665274
_cell_formula_units_Z   1
loop_
 _symmetry_equiv_pos_site_id
 _symmetry_equiv_pos_as_xyz
  1  'x, y, z'
loop_
 _atom_site_type_symbol
 _atom_site_label
 _atom_site_symmetry_multiplicity
 _atom_site_fract_x
 _atom_site_fract_y
 _atom_site_fract_z
 _atom_site_occupancy
  Nd  Nd0  1  0.500000  0.005230  0.854731  1
  Nd  Nd1  1  0.500000  0.498253  0.358787  1
  Nd  Nd2  1  0.000000  0.998198  0.144588  1
  Nd  Nd3  1  0.000000  0.501123  0.640159  1
  Nd  Nd4  1  0.500000  0.494313  0.928886  1
  Sn  Sn5  1  0.000000  0.719573  0.805229  1
  Sn  Sn6  1  0.000000  0.779394  0.306099  1
  Sn  Sn7  1  0.500000  0.277517  0.196031  1
  Sn  Sn8  1  0.500000  0.219154  0.692636  1
  Sn  Sn9  1  0.000000  0.850866  0.967171  1
  Sn  Sn10  1  0.000000  0.632966  0.468260  1
  Sn  Sn11  1  0.500000  0.136233  0.034033  1
  Sn  Sn12  1  0.500000  0.365688  0.530570  1
  Sn  Sn13  1  0.000000  0.304261  0.816287  1
  Sn  Sn14  1  0.000000  0.199267  0.318845  1
  Sn  Sn15  1  0.500000  0.697981  0.188178  1
  Sn  Sn16  1  0.500000  0.805665  0.678370  1
  Sn  Sn17  1  0.500000  0.019174  0.432682  1
  Sn  Sn18  1  0.000000  0.512612  0.069014  1
  Sn  Sn19  1  0.000000  0.981236  0.568226  1
  Pt  Pt20  1  0.000000  0.230863  0.965250  1
  Pt  Pt21  1  0.500000  0.763131  0.045664  1
  Rh  Rh22  1  0.000000  0.250251  0.466010  1
  Rh  Rh23  1  0.500000  0.749401  0.532414  1
  Rh  Rh24  1  0.000000  0.017824  0.715693  1
  Rh  Rh25  1  0.000000  0.483608  0.211751  1
  Rh  Rh26  1  0.500000  0.986126  0.288650  1
  Rh  Rh27  1  0.500000  0.520090  0.775789  1
