# generated using pymatgen
data_Er9Lu3Co4TcSn
_symmetry_space_group_name_H-M   'P 1'
_cell_length_a   8.18496676
_cell_length_b   8.18899356
_cell_length_c   8.18496706
_cell_angle_alpha   111.64847545
_cell_angle_beta   110.57204905
_cell_angle_gamma   106.22349777
_symmetry_Int_Tables_number   1
_chemical_formula_structural   Er9Lu3Co4TcSn
_chemical_formula_sum   'Er9 Lu3 Co4 Tc1 Sn1'
_cell_volume   421.37601470
_cell_formula_units_Z   1
loop_
 _symmetry_equiv_pos_site_id
 _symmetry_equiv_pos_as_xyz
  1  'x, y, z'
loop_
 _atom_site_type_symbol
 _atom_site_label
 _atom_site_symmetry_multiplicity
 _atom_site_fract_x
 _atom_site_fract_y
 _atom_site_fract_z
 _atom_site_occupancy
  Er  Er0  1  0.419166  0.222086  0.196143  1
  Er  Er1  1  0.581284  0.777474  0.804283  1
  Er  Er2  1  0.025942  0.222086  0.802921  1
  Er  Er3  1  0.973192  0.777474  0.196190  1
  Er  Er4  1  0.183030  0.278577  0.462979  1
  Er  Er5  1  0.817616  0.720627  0.537374  1
  Er  Er6  1  0.183251  0.720627  0.903011  1
  Er  Er7  1  0.815599  0.278577  0.095545  1
  Er  Er8  1  0.312907  0.618984  0.306077  1
  Lu  Lu9  1  0.686946  0.380103  0.693157  1
  Lu  Lu10  1  0.313204  0.006398  0.693196  1
  Lu  Lu11  1  0.687067  0.993891  0.306823  1
  Co  Co12  1  0.377370  0.001801  0.377526  1
  Co  Co13  1  0.624274  0.001801  0.624431  1
  Co  Co14  1  0.111738  0.612033  0.500295  1
  Co  Co15  1  0.887376  0.387005  0.499629  1
  Tc  Tc16  1  0.999974  0.001084  0.001110  1
  Sn  Sn17  1  0.500064  0.499373  0.999309  1
