# generated using pymatgen
data_Y4Co3Si12Ni17
_symmetry_space_group_name_H-M   'P 1'
_cell_length_a   18.65940925
_cell_length_b   3.78024100
_cell_length_c   6.66077995
_cell_angle_alpha   90.00000000
_cell_angle_beta   89.84553803
_cell_angle_gamma   90.00000000
_symmetry_Int_Tables_number   1
_chemical_formula_structural   Y4Co3Si12Ni17
_chemical_formula_sum   'Y4 Co3 Si12 Ni17'
_cell_volume   469.83015322
_cell_formula_units_Z   1
loop_
 _symmetry_equiv_pos_site_id
 _symmetry_equiv_pos_as_xyz
  1  'x, y, z'
loop_
 _atom_site_type_symbol
 _atom_site_label
 _atom_site_symmetry_multiplicity
 _atom_site_fract_x
 _atom_site_fract_y
 _atom_site_fract_z
 _atom_site_occupancy
  Y  Y0  1  0.856518  0.749999  0.122176  1
  Y  Y1  1  0.356336  0.749999  0.374034  1
  Y  Y2  1  0.643895  0.250000  0.622597  1
  Y  Y3  1  0.143217  0.250000  0.878349  1
  Co  Co4  1  0.295049  0.250000  0.065465  1
  Co  Co5  1  0.487464  0.749999  0.115761  1
  Co  Co6  1  0.995085  0.250000  0.133392  1
  Si  Si7  1  0.416812  0.250000  0.085777  1
  Si  Si8  1  0.736744  0.250000  0.120731  1
  Si  Si9  1  0.072221  0.749999  0.154016  1
  Si  Si10  1  0.573347  0.749999  0.346242  1
  Si  Si11  1  0.238164  0.250000  0.373978  1
  Si  Si12  1  0.915560  0.250000  0.412917  1
  Si  Si13  1  0.085664  0.749999  0.581154  1
  Si  Si14  1  0.762972  0.749999  0.620756  1
  Si  Si15  1  0.424270  0.250000  0.657791  1
  Si  Si16  1  0.926567  0.250000  0.848312  1
  Si  Si17  1  0.262677  0.749999  0.881859  1
  Si  Si18  1  0.584955  0.749999  0.918807  1
  Ni  Ni19  1  0.613465  0.250000  0.143468  1
  Ni  Ni20  1  0.199899  0.749999  0.186170  1
  Ni  Ni21  1  0.699444  0.749999  0.313743  1
  Ni  Ni22  1  0.115506  0.250000  0.357605  1
  Ni  Ni23  1  0.494582  0.250000  0.372366  1
  Ni  Ni24  1  0.985224  0.749999  0.387080  1
  Ni  Ni25  1  0.793732  0.250000  0.429660  1
  Ni  Ni26  1  0.206743  0.749999  0.569757  1
  Ni  Ni27  1  0.014855  0.250000  0.615542  1
  Ni  Ni28  1  0.504199  0.749999  0.635355  1
  Ni  Ni29  1  0.885200  0.749999  0.642704  1
  Ni  Ni30  1  0.298996  0.250000  0.684920  1
  Ni  Ni31  1  0.800496  0.250000  0.813448  1
  Ni  Ni32  1  0.384136  0.749999  0.861601  1
  Ni  Ni33  1  0.005105  0.749999  0.864182  1
  Ni  Ni34  1  0.514954  0.250000  0.878839  1
  Ni  Ni35  1  0.705952  0.749999  0.929454  1
