# generated using pymatgen
data_TmMgZr2(Al8Pt3)3
_symmetry_space_group_name_H-M   'P 1'
_cell_length_a   7.48374342
_cell_length_b   7.49843063
_cell_length_c   13.04338675
_cell_angle_alpha   84.61191171
_cell_angle_beta   79.10504655
_cell_angle_gamma   59.94188884
_symmetry_Int_Tables_number   1
_chemical_formula_structural   TmMgZr2(Al8Pt3)3
_chemical_formula_sum   'Tm1 Mg1 Zr2 Al24 Pt9'
_cell_volume   622.09409482
_cell_formula_units_Z   1
loop_
 _symmetry_equiv_pos_site_id
 _symmetry_equiv_pos_as_xyz
  1  'x, y, z'
loop_
 _atom_site_type_symbol
 _atom_site_label
 _atom_site_symmetry_multiplicity
 _atom_site_fract_x
 _atom_site_fract_y
 _atom_site_fract_z
 _atom_site_occupancy
  Tm  Tm0  1  0.266772  0.498955  0.191013  1
  Mg  Mg1  1  0.396791  0.170680  0.795585  1
  Zr  Zr2  1  0.605225  0.835271  0.188481  1
  Zr  Zr3  1  0.733001  0.497383  0.811838  1
  Al  Al4  1  0.677891  0.836578  0.939307  1
  Al  Al5  1  0.316951  0.164795  0.052751  1
  Al  Al6  1  0.146612  0.832027  0.563980  1
  Al  Al7  1  0.853047  0.167588  0.437672  1
  Al  Al8  1  0.480923  0.166330  0.558883  1
  Al  Al9  1  0.520322  0.833462  0.439837  1
  Al  Al10  1  0.220754  0.163188  0.325406  1
  Al  Al11  1  0.778191  0.833940  0.678345  1
  Al  Al12  1  0.438588  0.504246  0.678848  1
  Al  Al13  1  0.563647  0.496027  0.325365  1
  Al  Al14  1  0.106924  0.162464  0.677539  1
  Al  Al15  1  0.889855  0.839362  0.326505  1
  Al  Al16  1  0.356947  0.493305  0.939311  1
  Al  Al17  1  0.646447  0.502639  0.057126  1
  Al  Al18  1  0.020251  0.170870  0.946532  1
  Al  Al19  1  0.982049  0.832587  0.048396  1
  Al  Al20  1  0.186687  0.499409  0.441381  1
  Al  Al21  1  0.812515  0.500517  0.561513  1
  Al  Al22  1  0.735337  0.159771  0.183206  1
  Al  Al23  1  0.275586  0.829860  0.817978  1
  Al  Al24  1  0.054560  0.629308  0.817160  1
  Al  Al25  1  0.934837  0.373781  0.185025  1
  Al  Al26  1  0.852935  0.049350  0.817386  1
  Al  Al27  1  0.150136  0.957275  0.184696  1
  Pt  Pt28  1  0.121514  0.489998  0.639998  1
  Pt  Pt29  1  0.880112  0.508976  0.361647  1
  Pt  Pt30  1  0.656739  0.171747  0.001551  1
  Pt  Pt31  1  0.341716  0.824617  0.003101  1
  Pt  Pt32  1  0.536511  0.167345  0.359888  1
  Pt  Pt33  1  0.462425  0.834866  0.639198  1
  Pt  Pt34  1  0.779262  0.174943  0.637543  1
  Pt  Pt35  1  0.221404  0.823274  0.363499  1
  Pt  Pt36  1  0.996540  0.503269  0.002500  1
