# generated using pymatgen
data_PrTh2(GaRh)3
_symmetry_space_group_name_H-M   'P 1'
_cell_length_a   7.34714628
_cell_length_b   7.30444531
_cell_length_c   4.03406200
_cell_angle_alpha   90.00000000
_cell_angle_beta   90.00000000
_cell_angle_gamma   119.80793666
_symmetry_Int_Tables_number   1
_chemical_formula_structural   PrTh2(GaRh)3
_chemical_formula_sum   'Pr1 Th2 Ga3 Rh3'
_cell_volume   187.85224719
_cell_formula_units_Z   1
loop_
 _symmetry_equiv_pos_site_id
 _symmetry_equiv_pos_as_xyz
  1  'x, y, z'
loop_
 _atom_site_type_symbol
 _atom_site_label
 _atom_site_symmetry_multiplicity
 _atom_site_fract_x
 _atom_site_fract_y
 _atom_site_fract_z
 _atom_site_occupancy
  Pr  Pr0  1  0.000000  0.413339  0.500000  1
  Th  Th1  1  0.584729  0.587556  0.500000  1
  Th  Th2  1  0.415271  0.002828  0.500000  1
  Ga  Ga3  1  0.000000  0.750591  0.000000  1
  Ga  Ga4  1  0.229238  0.237904  0.000000  1
  Ga  Ga5  1  0.770762  0.008666  0.000000  1
  Rh  Rh6  1  0.359108  0.689123  0.000000  1
  Rh  Rh7  1  0.640892  0.330014  0.000000  1
  Rh  Rh8  1  0.000000  0.979978  0.500000  1
