# generated using pymatgen
data_Pr7Ho(Si3Ir)4
_symmetry_space_group_name_H-M   'P 1'
_cell_length_a   8.28422404
_cell_length_b   8.29425627
_cell_length_c   8.42788000
_cell_angle_alpha   90.00000000
_cell_angle_beta   90.00000000
_cell_angle_gamma   120.04006595
_symmetry_Int_Tables_number   1
_chemical_formula_structural   Pr7Ho(Si3Ir)4
_chemical_formula_sum   'Pr7 Ho1 Si12 Ir4'
_cell_volume   501.30585932
_cell_formula_units_Z   1
loop_
 _symmetry_equiv_pos_site_id
 _symmetry_equiv_pos_as_xyz
  1  'x, y, z'
loop_
 _atom_site_type_symbol
 _atom_site_label
 _atom_site_symmetry_multiplicity
 _atom_site_fract_x
 _atom_site_fract_y
 _atom_site_fract_z
 _atom_site_occupancy
  Pr  Pr0  1  0.000302  0.000151  0.250000  1
  Pr  Pr1  1  0.999827  0.999914  0.750000  1
  Pr  Pr2  1  0.504938  0.495570  0.250000  1
  Pr  Pr3  1  0.504938  0.009369  0.250000  1
  Pr  Pr4  1  0.992587  0.496293  0.250000  1
  Pr  Pr5  1  0.493582  0.506622  0.750000  1
  Pr  Pr6  1  0.493582  0.986960  0.750000  1
  Ho  Ho7  1  0.008009  0.504004  0.750000  1
  Si  Si8  1  0.165681  0.832079  0.506174  1
  Si  Si9  1  0.165681  0.333601  0.506174  1
  Si  Si10  1  0.666798  0.833399  0.500904  1
  Si  Si11  1  0.833423  0.168165  0.500246  1
  Si  Si12  1  0.833423  0.665259  0.500246  1
  Si  Si13  1  0.335246  0.167623  0.498792  1
  Si  Si14  1  0.833423  0.168165  0.999754  1
  Si  Si15  1  0.833423  0.665259  0.999754  1
  Si  Si16  1  0.335246  0.167623  0.001208  1
  Si  Si17  1  0.165681  0.832079  0.993826  1
  Si  Si18  1  0.165681  0.333601  0.993826  1
  Si  Si19  1  0.666798  0.833399  0.999096  1
  Ir  Ir20  1  0.331022  0.665511  0.486137  1
  Ir  Ir21  1  0.669845  0.334922  0.529125  1
  Ir  Ir22  1  0.669845  0.334922  0.970875  1
  Ir  Ir23  1  0.331022  0.665511  0.013863  1
