# generated using pymatgen
data_NdMoH9
_symmetry_space_group_name_H-M   'P 1'
_cell_length_a   4.82520568
_cell_length_b   4.82520598
_cell_length_c   8.96247500
_cell_angle_alpha   90.00000000
_cell_angle_beta   90.00000000
_cell_angle_gamma   119.95105552
_symmetry_Int_Tables_number   1
_chemical_formula_structural   NdMoH9
_chemical_formula_sum   'Nd2 Mo2 H18'
_cell_volume   180.80242787
_cell_formula_units_Z   2
loop_
 _symmetry_equiv_pos_site_id
 _symmetry_equiv_pos_as_xyz
  1  'x, y, z'
loop_
 _atom_site_type_symbol
 _atom_site_label
 _atom_site_symmetry_multiplicity
 _atom_site_fract_x
 _atom_site_fract_y
 _atom_site_fract_z
 _atom_site_occupancy
  Nd  Nd0  1  0.000000  0.000000  0.500000  1
  Nd  Nd1  1  0.000000  0.000000  0.000000  1
  Mo  Mo2  1  0.334735  0.665265  0.750000  1
  Mo  Mo3  1  0.665265  0.334735  0.250000  1
  H  H4  1  0.480486  0.519514  0.606837  1
  H  H5  1  0.519514  0.480486  0.393163  1
  H  H6  1  0.480486  0.519514  0.893163  1
  H  H7  1  0.519514  0.480486  0.106837  1
  H  H8  1  0.485811  0.967560  0.888860  1
  H  H9  1  0.967560  0.485811  0.111140  1
  H  H10  1  0.485811  0.967560  0.611140  1
  H  H11  1  0.967560  0.485811  0.388860  1
  H  H12  1  0.514189  0.032440  0.111140  1
  H  H13  1  0.032440  0.514189  0.888860  1
  H  H14  1  0.514189  0.032440  0.388860  1
  H  H15  1  0.032440  0.514189  0.611140  1
  H  H16  1  0.743881  0.861818  0.750000  1
  H  H17  1  0.861818  0.743881  0.250000  1
  H  H18  1  0.256119  0.138182  0.250000  1
  H  H19  1  0.138182  0.256119  0.750000  1
  H  H20  1  0.131154  0.868846  0.750000  1
  H  H21  1  0.868846  0.131154  0.250000  1
