# generated using pymatgen
data_TaNbSi2PdRu
_symmetry_space_group_name_H-M   'P 1'
_cell_length_a   3.77573000
_cell_length_b   6.45840500
_cell_length_c   7.41384700
_cell_angle_alpha   90.00000000
_cell_angle_beta   90.00000000
_cell_angle_gamma   90.00000000
_symmetry_Int_Tables_number   1
_chemical_formula_structural   TaNbSi2PdRu
_chemical_formula_sum   'Ta2 Nb2 Si4 Pd2 Ru2'
_cell_volume   180.78809375
_cell_formula_units_Z   2
loop_
 _symmetry_equiv_pos_site_id
 _symmetry_equiv_pos_as_xyz
  1  'x, y, z'
loop_
 _atom_site_type_symbol
 _atom_site_label
 _atom_site_symmetry_multiplicity
 _atom_site_fract_x
 _atom_site_fract_y
 _atom_site_fract_z
 _atom_site_occupancy
  Ta  Ta0  1  0.750000  0.526277  0.828442  1
  Ta  Ta1  1  0.750000  0.026277  0.671558  1
  Nb  Nb2  1  0.250000  0.971347  0.326578  1
  Nb  Nb3  1  0.250000  0.471347  0.173422  1
  Si  Si4  1  0.250000  0.231237  0.868620  1
  Si  Si5  1  0.250000  0.731237  0.631380  1
  Si  Si6  1  0.750000  0.764259  0.121452  1
  Si  Si7  1  0.750000  0.264259  0.378548  1
  Pd  Pd8  1  0.750000  0.648985  0.437365  1
  Pd  Pd9  1  0.750000  0.148985  0.062635  1
  Ru  Ru10  1  0.250000  0.857894  0.937038  1
  Ru  Ru11  1  0.250000  0.357894  0.562962  1
