# generated using pymatgen
data_LaDy2Y2(FeB3)2
_symmetry_space_group_name_H-M   'P 1'
_cell_length_a   5.43756177
_cell_length_b   5.43756129
_cell_length_c   8.27077251
_cell_angle_alpha   70.80880756
_cell_angle_beta   70.80880933
_cell_angle_gamma   59.99999391
_symmetry_Int_Tables_number   1
_chemical_formula_structural   LaDy2Y2(FeB3)2
_chemical_formula_sum   'La1 Dy2 Y2 Fe2 B6'
_cell_volume   195.93065236
_cell_formula_units_Z   1
loop_
 _symmetry_equiv_pos_site_id
 _symmetry_equiv_pos_as_xyz
  1  'x, y, z'
loop_
 _atom_site_type_symbol
 _atom_site_label
 _atom_site_symmetry_multiplicity
 _atom_site_fract_x
 _atom_site_fract_y
 _atom_site_fract_z
 _atom_site_occupancy
  La  La0  1  0.000000  0.000000  0.000000  1
  Dy  Dy1  1  0.749889  0.749889  0.750334  1
  Dy  Dy2  1  0.250111  0.250111  0.249666  1
  Y  Y3  1  0.582701  0.582701  0.251896  1
  Y  Y4  1  0.417299  0.417299  0.748104  1
  Fe  Fe5  1  0.884478  0.884478  0.346566  1
  Fe  Fe6  1  0.115522  0.115522  0.653434  1
  B  B7  1  0.500000  0.167027  0.500000  1
  B  B8  1  0.832973  0.500000  0.500000  1
  B  B9  1  0.167027  0.832973  0.500000  1
  B  B10  1  0.167027  0.500000  0.500000  1
  B  B11  1  0.832973  0.167027  0.500000  1
  B  B12  1  0.500000  0.832973  0.500000  1
