# generated using pymatgen
data_La4TmMgSi4
_symmetry_space_group_name_H-M   'P 1'
_cell_length_a   7.59569000
_cell_length_b   7.59569000
_cell_length_c   4.48945400
_cell_angle_alpha   90.00000000
_cell_angle_beta   90.00000000
_cell_angle_gamma   90.00000000
_symmetry_Int_Tables_number   1
_chemical_formula_structural   La4TmMgSi4
_chemical_formula_sum   'La4 Tm1 Mg1 Si4'
_cell_volume   259.01683333
_cell_formula_units_Z   1
loop_
 _symmetry_equiv_pos_site_id
 _symmetry_equiv_pos_as_xyz
  1  'x, y, z'
loop_
 _atom_site_type_symbol
 _atom_site_label
 _atom_site_symmetry_multiplicity
 _atom_site_fract_x
 _atom_site_fract_y
 _atom_site_fract_z
 _atom_site_occupancy
  La  La0  1  0.671340  0.186742  0.500000  1
  La  La1  1  0.328660  0.813258  0.500000  1
  La  La2  1  0.186742  0.328660  0.500000  1
  La  La3  1  0.813258  0.671340  0.500000  1
  Tm  Tm4  1  0.000000  0.000000  0.000000  1
  Mg  Mg5  1  0.500000  0.500000  0.000000  1
  Si  Si6  1  0.107312  0.619830  0.000000  1
  Si  Si7  1  0.892688  0.380170  0.000000  1
  Si  Si8  1  0.619830  0.892688  0.000000  1
  Si  Si9  1  0.380170  0.107312  0.000000  1
