# generated using pymatgen
data_Hf12GaMo5Ir6
_symmetry_space_group_name_H-M   'P 1'
_cell_length_a   4.64554700
_cell_length_b   6.58971300
_cell_length_c   13.92710300
_cell_angle_alpha   90.00000000
_cell_angle_beta   90.00010283
_cell_angle_gamma   90.00000000
_symmetry_Int_Tables_number   1
_chemical_formula_structural   Hf12GaMo5Ir6
_chemical_formula_sum   'Hf12 Ga1 Mo5 Ir6'
_cell_volume   426.34791757
_cell_formula_units_Z   1
loop_
 _symmetry_equiv_pos_site_id
 _symmetry_equiv_pos_as_xyz
  1  'x, y, z'
loop_
 _atom_site_type_symbol
 _atom_site_label
 _atom_site_symmetry_multiplicity
 _atom_site_fract_x
 _atom_site_fract_y
 _atom_site_fract_z
 _atom_site_occupancy
  Hf  Hf0  1  0.500001  0.243426  0.000000  1
  Hf  Hf1  1  0.500001  0.756574  0.000000  1
  Hf  Hf2  1  0.999994  0.246553  0.169968  1
  Hf  Hf3  1  0.999994  0.753447  0.169968  1
  Hf  Hf4  1  0.499997  0.249760  0.334582  1
  Hf  Hf5  1  0.499997  0.750240  0.334582  1
  Hf  Hf6  1  0.000000  0.250734  0.500000  1
  Hf  Hf7  1  0.000000  0.749266  0.500000  1
  Hf  Hf8  1  0.500002  0.249760  0.665418  1
  Hf  Hf9  1  0.500002  0.750240  0.665418  1
  Hf  Hf10  1  0.000006  0.246553  0.830032  1
  Hf  Hf11  1  0.000006  0.753447  0.830032  1
  Ga  Ga12  1  0.000000  0.500000  0.000000  1
  Mo  Mo13  1  0.499995  0.000000  0.165788  1
  Mo  Mo14  1  0.999993  0.500000  0.331104  1
  Mo  Mo15  1  0.500000  0.000000  0.500000  1
  Mo  Mo16  1  0.000007  0.500000  0.668896  1
  Mo  Mo17  1  0.500006  0.000000  0.834212  1
  Ir  Ir18  1  0.000000  0.000000  0.000000  1
  Ir  Ir19  1  0.499993  0.500000  0.164105  1
  Ir  Ir20  1  0.999995  0.000000  0.333257  1
  Ir  Ir21  1  0.500000  0.500000  0.500000  1
  Ir  Ir22  1  0.000005  0.000000  0.666743  1
  Ir  Ir23  1  0.500008  0.500000  0.835895  1
