# generated using pymatgen
data_CsGdZnS3
_symmetry_space_group_name_H-M   'P 1'
_cell_length_a   8.08867104
_cell_length_b   8.08867159
_cell_length_c   10.75197500
_cell_angle_alpha   90.00000000
_cell_angle_beta   90.00000000
_cell_angle_gamma   150.74506506
_symmetry_Int_Tables_number   1
_chemical_formula_structural   CsGdZnS3
_chemical_formula_sum   'Cs2 Gd2 Zn2 S6'
_cell_volume   343.78090580
_cell_formula_units_Z   2
loop_
 _symmetry_equiv_pos_site_id
 _symmetry_equiv_pos_as_xyz
  1  'x, y, z'
loop_
 _atom_site_type_symbol
 _atom_site_label
 _atom_site_symmetry_multiplicity
 _atom_site_fract_x
 _atom_site_fract_y
 _atom_site_fract_z
 _atom_site_occupancy
  Cs  Cs0  1  0.740198  0.259802  0.250000  1
  Cs  Cs1  1  0.259802  0.740198  0.750000  1
  Gd  Gd2  1  0.000000  0.000000  0.000000  1
  Gd  Gd3  1  0.000000  0.000000  0.500000  1
  Zn  Zn4  1  0.461459  0.538542  0.250000  1
  Zn  Zn5  1  0.538542  0.461459  0.750000  1
  S  S6  1  0.386988  0.613013  0.063161  1
  S  S7  1  0.050794  0.949207  0.250000  1
  S  S8  1  0.386988  0.613013  0.436839  1
  S  S9  1  0.613013  0.386988  0.563161  1
  S  S10  1  0.949207  0.050794  0.750000  1
  S  S11  1  0.613013  0.386988  0.936839  1
