# generated using pymatgen
data_Tb3Dy5Re2(TcC4)2
_symmetry_space_group_name_H-M   'P 1'
_cell_length_a   5.12304300
_cell_length_b   6.59104870
_cell_length_c   9.89577806
_cell_angle_alpha   89.94713953
_cell_angle_beta   90.00000000
_cell_angle_gamma   90.00000000
_symmetry_Int_Tables_number   1
_chemical_formula_structural   Tb3Dy5Re2(TcC4)2
_chemical_formula_sum   'Tb3 Dy5 Re2 Tc2 C8'
_cell_volume   334.14293510
_cell_formula_units_Z   1
loop_
 _symmetry_equiv_pos_site_id
 _symmetry_equiv_pos_as_xyz
  1  'x, y, z'
loop_
 _atom_site_type_symbol
 _atom_site_label
 _atom_site_symmetry_multiplicity
 _atom_site_fract_x
 _atom_site_fract_y
 _atom_site_fract_z
 _atom_site_occupancy
  Tb  Tb0  1  0.250000  0.032427  0.284088  1
  Tb  Tb1  1  0.750000  0.968029  0.715101  1
  Tb  Tb2  1  0.250000  0.531798  0.215088  1
  Dy  Dy3  1  0.750000  0.822196  0.056082  1
  Dy  Dy4  1  0.250000  0.677816  0.556189  1
  Dy  Dy5  1  0.750000  0.320851  0.442737  1
  Dy  Dy6  1  0.250000  0.179217  0.942533  1
  Dy  Dy7  1  0.750000  0.467398  0.783740  1
  Re  Re8  1  0.750000  0.779006  0.365345  1
  Re  Re9  1  0.250000  0.720613  0.865106  1
  Tc  Tc10  1  0.750000  0.278858  0.134664  1
  Tc  Tc11  1  0.250000  0.221349  0.634791  1
  C  C12  1  0.750000  0.178463  0.952612  1
  C  C13  1  0.250000  0.821969  0.048036  1
  C  C14  1  0.750000  0.677490  0.548377  1
  C  C15  1  0.250000  0.322645  0.452978  1
  C  C16  1  0.750000  0.044843  0.259469  1
  C  C17  1  0.250000  0.455116  0.759668  1
  C  C18  1  0.750000  0.546779  0.241744  1
  C  C19  1  0.250000  0.953139  0.741654  1
