# generated using pymatgen
data_Ce2Be23Au3
_symmetry_space_group_name_H-M   'P 1'
_cell_length_a   7.47659300
_cell_length_b   7.47659307
_cell_length_c   7.60437335
_cell_angle_alpha   119.44568225
_cell_angle_beta   90.00000004
_cell_angle_gamma   120.00000229
_symmetry_Int_Tables_number   1
_chemical_formula_structural   Ce2Be23Au3
_chemical_formula_sum   'Ce2 Be23 Au3'
_cell_volume   303.07092747
_cell_formula_units_Z   1
loop_
 _symmetry_equiv_pos_site_id
 _symmetry_equiv_pos_as_xyz
  1  'x, y, z'
loop_
 _atom_site_type_symbol
 _atom_site_label
 _atom_site_symmetry_multiplicity
 _atom_site_fract_x
 _atom_site_fract_y
 _atom_site_fract_z
 _atom_site_occupancy
  Ce  Ce0  1  0.757154  0.514308  0.271462  1
  Ce  Ce1  1  0.246426  0.492852  0.739278  1
  Be  Be2  1  0.996696  0.993392  0.990087  1
  Be  Be3  1  0.436753  0.660280  0.234583  1
  Be  Be4  1  0.574302  0.011056  0.234583  1
  Be  Be5  1  0.223527  0.797829  0.234583  1
  Be  Be6  1  0.072673  0.013507  0.307139  1
  Be  Be7  1  0.293632  0.366304  0.307139  1
  Be  Be8  1  0.940834  0.234466  0.307139  1
  Be  Be9  1  0.787344  0.002689  0.442742  1
  Be  Be10  1  0.440053  0.227398  0.442742  1
  Be  Be11  1  0.215344  0.655397  0.442742  1
  Be  Be12  1  0.501131  0.002262  0.503393  1
  Be  Be13  1  0.215448  0.003559  0.564753  1
  Be  Be14  1  0.561193  0.776642  0.564753  1
  Be  Be15  1  0.788110  0.349304  0.564753  1
  Be  Be16  1  0.705209  0.640963  0.694755  1
  Be  Be17  1  0.053791  0.758999  0.694755  1
  Be  Be18  1  0.935754  0.989545  0.694755  1
  Be  Be19  1  0.433218  0.994194  0.768242  1
  Be  Be20  1  0.774048  0.207267  0.768242  1
  Be  Be21  1  0.560975  0.335024  0.768242  1
  Be  Be22  1  0.942976  0.624412  0.931954  1
  Be  Be23  1  0.681436  0.988978  0.931954  1
  Be  Be24  1  0.307542  0.250519  0.931954  1
  Au  Au25  1  0.311252  0.007400  0.054423  1
  Au  Au26  1  0.047024  0.358275  0.054423  1
  Au  Au27  1  0.696147  0.743170  0.054423  1
