# generated using pymatgen
data_Ca5(B5Rh7)2
_symmetry_space_group_name_H-M   'P 1'
_cell_length_a   15.24375582
_cell_length_b   14.71374250
_cell_length_c   5.61258960
_cell_angle_alpha   84.57215016
_cell_angle_beta   73.92556099
_cell_angle_gamma   21.50229451
_symmetry_Int_Tables_number   1
_chemical_formula_structural   Ca5(B5Rh7)2
_chemical_formula_sum   'Ca5 B10 Rh14'
_cell_volume   393.02691879
_cell_formula_units_Z   1
loop_
 _symmetry_equiv_pos_site_id
 _symmetry_equiv_pos_as_xyz
  1  'x, y, z'
loop_
 _atom_site_type_symbol
 _atom_site_label
 _atom_site_symmetry_multiplicity
 _atom_site_fract_x
 _atom_site_fract_y
 _atom_site_fract_z
 _atom_site_occupancy
  Ca  Ca0  1  0.711023  0.711023  0.288977  1
  Ca  Ca1  1  0.288977  0.288977  0.711023  1
  Ca  Ca2  1  0.604441  0.604441  0.395559  1
  Ca  Ca3  1  0.395559  0.395559  0.604441  1
  Ca  Ca4  1  0.500000  0.500000  0.500000  1
  B  B5  1  0.043616  0.363397  0.636603  1
  B  B6  1  0.956384  0.636603  0.363397  1
  B  B7  1  0.636603  0.956384  0.043616  1
  B  B8  1  0.363397  0.043616  0.956384  1
  B  B9  1  0.933563  0.269706  0.730294  1
  B  B10  1  0.066437  0.730294  0.269706  1
  B  B11  1  0.730294  0.066437  0.933563  1
  B  B12  1  0.269706  0.933563  0.066437  1
  B  B13  1  0.833611  0.166389  0.833611  1
  B  B14  1  0.166389  0.833611  0.166389  1
  Rh  Rh15  1  0.750000  0.750000  0.750000  1
  Rh  Rh16  1  0.250000  0.250000  0.250000  1
  Rh  Rh17  1  0.652117  0.652117  0.847883  1
  Rh  Rh18  1  0.847883  0.847883  0.652117  1
  Rh  Rh19  1  0.347883  0.347883  0.152117  1
  Rh  Rh20  1  0.152117  0.152117  0.347883  1
  Rh  Rh21  1  0.550902  0.550902  0.949098  1
  Rh  Rh22  1  0.949098  0.949098  0.550902  1
  Rh  Rh23  1  0.449098  0.449098  0.050902  1
  Rh  Rh24  1  0.050902  0.050902  0.449098  1
  Rh  Rh25  1  0.847671  0.847671  0.152329  1
  Rh  Rh26  1  0.152329  0.152329  0.847671  1
  Rh  Rh27  1  0.949292  0.949292  0.050708  1
  Rh  Rh28  1  0.050708  0.050708  0.949292  1
