# generated using pymatgen
data_YbSm3In2Rh3
_symmetry_space_group_name_H-M   'P 1'
_cell_length_a   7.69325253
_cell_length_b   7.69325275
_cell_length_c   4.04282600
_cell_angle_alpha   90.00000000
_cell_angle_beta   90.00000000
_cell_angle_gamma   120.24459432
_symmetry_Int_Tables_number   1
_chemical_formula_structural   YbSm3In2Rh3
_chemical_formula_sum   'Yb1 Sm3 In2 Rh3'
_cell_volume   206.70928383
_cell_formula_units_Z   1
loop_
 _symmetry_equiv_pos_site_id
 _symmetry_equiv_pos_as_xyz
  1  'x, y, z'
loop_
 _atom_site_type_symbol
 _atom_site_label
 _atom_site_symmetry_multiplicity
 _atom_site_fract_x
 _atom_site_fract_y
 _atom_site_fract_z
 _atom_site_occupancy
  Yb  Yb0  1  0.242198  0.242198  0.000000  1
  Sm  Sm1  1  0.973544  0.412284  0.500000  1
  Sm  Sm2  1  0.615143  0.615143  0.500000  1
  Sm  Sm3  1  0.412284  0.973544  0.500000  1
  In  In4  1  0.010091  0.750755  0.000000  1
  In  In5  1  0.750755  0.010091  0.000000  1
  Rh  Rh6  1  0.339294  0.666534  0.000000  1
  Rh  Rh7  1  0.990156  0.990156  0.500000  1
  Rh  Rh8  1  0.666534  0.339294  0.000000  1
