# generated using pymatgen
data_Ac(EuSn2)5
_symmetry_space_group_name_H-M   'P 1'
_cell_length_a   6.73394455
_cell_length_b   6.73394378
_cell_length_c   10.71523311
_cell_angle_alpha   89.78275260
_cell_angle_beta   89.78275367
_cell_angle_gamma   101.54786808
_symmetry_Int_Tables_number   1
_chemical_formula_structural   Ac(EuSn2)5
_chemical_formula_sum   'Ac1 Eu5 Sn10'
_cell_volume   476.04890291
_cell_formula_units_Z   1
loop_
 _symmetry_equiv_pos_site_id
 _symmetry_equiv_pos_as_xyz
  1  'x, y, z'
loop_
 _atom_site_type_symbol
 _atom_site_label
 _atom_site_symmetry_multiplicity
 _atom_site_fract_x
 _atom_site_fract_y
 _atom_site_fract_z
 _atom_site_occupancy
  Ac  Ac0  1  0.795464  0.204536  0.000000  1
  Eu  Eu1  1  0.204385  0.795615  0.000000  1
  Eu  Eu2  1  0.204491  0.795509  0.500000  1
  Eu  Eu3  1  0.795226  0.204774  0.500000  1
  Eu  Eu4  1  0.632582  0.632915  0.250311  1
  Eu  Eu5  1  0.367085  0.367418  0.749689  1
  Sn  Sn6  1  0.077226  0.495252  0.251905  1
  Sn  Sn7  1  0.925505  0.509006  0.746435  1
  Sn  Sn8  1  0.490994  0.074495  0.253565  1
  Sn  Sn9  1  0.504748  0.922775  0.748095  1
  Sn  Sn10  1  0.026900  0.023544  0.252498  1
  Sn  Sn11  1  0.976456  0.973100  0.747502  1
  Sn  Sn12  1  0.309469  0.310615  0.049522  1
  Sn  Sn13  1  0.689385  0.690531  0.950478  1
  Sn  Sn14  1  0.690726  0.690641  0.547704  1
  Sn  Sn15  1  0.309359  0.309274  0.452296  1
