# generated using pymatgen
data_La2Co9Mo3As6P
_symmetry_space_group_name_H-M   'P 1'
_cell_length_a   3.89494800
_cell_length_b   9.46091362
_cell_length_c   9.46091300
_cell_angle_alpha   119.99999435
_cell_angle_beta   90.00000000
_cell_angle_gamma   90.00000000
_symmetry_Int_Tables_number   1
_chemical_formula_structural   La2Co9Mo3As6P
_chemical_formula_sum   'La2 Co9 Mo3 As6 P1'
_cell_volume   301.92456293
_cell_formula_units_Z   1
loop_
 _symmetry_equiv_pos_site_id
 _symmetry_equiv_pos_as_xyz
  1  'x, y, z'
loop_
 _atom_site_type_symbol
 _atom_site_label
 _atom_site_symmetry_multiplicity
 _atom_site_fract_x
 _atom_site_fract_y
 _atom_site_fract_z
 _atom_site_occupancy
  La  La0  1  0.000000  0.666667  0.333333  1
  La  La1  1  0.500000  0.333333  0.666667  1
  Co  Co2  1  0.000000  0.574404  0.941104  1
  Co  Co3  1  0.000000  0.366700  0.425596  1
  Co  Co4  1  0.000000  0.058896  0.633300  1
  Co  Co5  1  0.000000  0.880732  0.148672  1
  Co  Co6  1  0.000000  0.267940  0.119268  1
  Co  Co7  1  0.000000  0.851328  0.732060  1
  Co  Co8  1  0.500000  0.948974  0.376726  1
  Co  Co9  1  0.500000  0.427751  0.051026  1
  Co  Co10  1  0.500000  0.623274  0.572249  1
  Mo  Mo11  1  0.500000  0.792540  0.904167  1
  Mo  Mo12  1  0.500000  0.111628  0.207460  1
  Mo  Mo13  1  0.500000  0.095833  0.888372  1
  As  As14  1  0.500000  0.705593  0.111099  1
  As  As15  1  0.500000  0.405507  0.294407  1
  As  As16  1  0.500000  0.888901  0.594493  1
  As  As17  1  0.000000  0.591704  0.697981  1
  As  As18  1  0.000000  0.106276  0.408296  1
  As  As19  1  0.000000  0.302019  0.893724  1
  P  P20  1  0.000000  0.000000  0.000000  1
