# generated using pymatgen
data_Al11Tc4
_symmetry_space_group_name_H-M   'P 1'
_cell_length_a   5.18082623
_cell_length_b   5.16380411
_cell_length_c   8.99150138
_cell_angle_alpha   104.95757195
_cell_angle_beta   90.63357958
_cell_angle_gamma   99.38698109
_symmetry_Int_Tables_number   1
_chemical_formula_structural   Al11Tc4
_chemical_formula_sum   'Al11 Tc4'
_cell_volume   228.92839239
_cell_formula_units_Z   1
loop_
 _symmetry_equiv_pos_site_id
 _symmetry_equiv_pos_as_xyz
  1  'x, y, z'
loop_
 _atom_site_type_symbol
 _atom_site_label
 _atom_site_symmetry_multiplicity
 _atom_site_fract_x
 _atom_site_fract_y
 _atom_site_fract_z
 _atom_site_occupancy
  Al  Al0  1  0.000000  0.000000  0.000000  1
  Al  Al1  1  0.944999  0.804666  0.669422  1
  Al  Al2  1  0.055001  0.195334  0.330578  1
  Al  Al3  1  0.798357  0.261610  0.634246  1
  Al  Al4  1  0.852199  0.534842  0.128113  1
  Al  Al5  1  0.147801  0.465158  0.871887  1
  Al  Al6  1  0.500722  0.899423  0.126904  1
  Al  Al7  1  0.499278  0.100577  0.873096  1
  Al  Al8  1  0.563875  0.320358  0.376199  1
  Al  Al9  1  0.436125  0.679642  0.623801  1
  Al  Al10  1  0.201643  0.738390  0.365754  1
  Tc  Tc11  1  0.279493  0.155260  0.602455  1
  Tc  Tc12  1  0.720507  0.844740  0.397545  1
  Tc  Tc13  1  0.662514  0.611706  0.868433  1
  Tc  Tc14  1  0.337486  0.388294  0.131567  1
