# generated using pymatgen
data_Ba6NaPd4O15
_symmetry_space_group_name_H-M   'P 1'
_cell_length_a   7.51180942
_cell_length_b   7.51182558
_cell_length_c   7.51180395
_cell_angle_alpha   85.12115041
_cell_angle_beta   85.12127066
_cell_angle_gamma   85.12114604
_symmetry_Int_Tables_number   1
_chemical_formula_structural   Ba6NaPd4O15
_chemical_formula_sum   'Ba6 Na1 Pd4 O15'
_cell_volume   419.51096040
_cell_formula_units_Z   1
loop_
 _symmetry_equiv_pos_site_id
 _symmetry_equiv_pos_as_xyz
  1  'x, y, z'
loop_
 _atom_site_type_symbol
 _atom_site_label
 _atom_site_symmetry_multiplicity
 _atom_site_fract_x
 _atom_site_fract_y
 _atom_site_fract_z
 _atom_site_occupancy
  Ba  Ba0  1  0.339645  0.660429  0.999876  1
  Ba  Ba1  1  0.000052  0.339704  0.660392  1
  Ba  Ba2  1  0.660336  0.999968  0.339718  1
  Ba  Ba3  1  0.149287  0.850768  0.500039  1
  Ba  Ba4  1  0.499965  0.149167  0.850764  1
  Ba  Ba5  1  0.850788  0.500017  0.149214  1
  Na  Na6  1  0.500030  0.500044  0.499984  1
  Pd  Pd7  1  0.293211  0.293185  0.293161  1
  Pd  Pd8  1  0.707001  0.706834  0.706953  1
  Pd  Pd9  1  0.096450  0.096428  0.096450  1
  Pd  Pd10  1  0.903500  0.903542  0.903533  1
  O  O11  1  0.150700  0.999983  0.849348  1
  O  O12  1  0.849279  0.150671  0.000014  1
  O  O13  1  0.999994  0.849308  0.150691  1
  O  O14  1  0.031891  0.196597  0.340914  1
  O  O15  1  0.340936  0.031934  0.196580  1
  O  O16  1  0.196543  0.340917  0.031904  1
  O  O17  1  0.803371  0.968066  0.659089  1
  O  O18  1  0.659054  0.803401  0.968058  1
  O  O19  1  0.968001  0.659088  0.803388  1
  O  O20  1  0.365975  0.216809  0.537199  1
  O  O21  1  0.537219  0.365926  0.216810  1
  O  O22  1  0.216845  0.537228  0.365977  1
  O  O23  1  0.783143  0.634040  0.462789  1
  O  O24  1  0.462807  0.783142  0.633997  1
  O  O25  1  0.633980  0.462801  0.783157  1
