# generated using pymatgen
data_TbZrGa8Fe9
_symmetry_space_group_name_H-M   'P 1'
_cell_length_a   6.53645774
_cell_length_b   6.53645790
_cell_length_c   6.53645734
_cell_angle_alpha   83.53120537
_cell_angle_beta   96.46879446
_cell_angle_gamma   96.46879708
_symmetry_Int_Tables_number   1
_chemical_formula_structural   TbZrGa8Fe9
_chemical_formula_sum   'Tb1 Zr1 Ga8 Fe9'
_cell_volume   274.31016262
_cell_formula_units_Z   1
loop_
 _symmetry_equiv_pos_site_id
 _symmetry_equiv_pos_as_xyz
  1  'x, y, z'
loop_
 _atom_site_type_symbol
 _atom_site_label
 _atom_site_symmetry_multiplicity
 _atom_site_fract_x
 _atom_site_fract_y
 _atom_site_fract_z
 _atom_site_occupancy
  Tb  Tb0  1  0.361488  0.638514  0.638513  1
  Zr  Zr1  1  0.626387  0.373614  0.373614  1
  Ga  Ga2  1  0.323357  0.318174  0.001598  1
  Ga  Ga3  1  0.681826  0.676643  0.001598  1
  Ga  Ga4  1  0.864071  0.135930  0.135930  1
  Ga  Ga5  1  0.998402  0.676644  0.318173  1
  Ga  Ga6  1  0.323357  0.001598  0.318174  1
  Ga  Ga7  1  0.681826  0.001598  0.676643  1
  Ga  Ga8  1  0.998402  0.318173  0.676643  1
  Ga  Ga9  1  0.127783  0.872219  0.872218  1
  Fe  Fe10  1  0.501300  0.998708  0.998708  1
  Fe  Fe11  1  0.001292  0.498700  0.998708  1
  Fe  Fe12  1  0.339630  0.660371  0.165890  1
  Fe  Fe13  1  0.168737  0.336443  0.336443  1
  Fe  Fe14  1  0.663557  0.831262  0.336444  1
  Fe  Fe15  1  0.001292  0.998708  0.498700  1
  Fe  Fe16  1  0.834109  0.660371  0.660370  1
  Fe  Fe17  1  0.339630  0.165890  0.660371  1
  Fe  Fe18  1  0.663556  0.336443  0.831262  1
