# generated using pymatgen
data_Tb13Ho3InAg3Rh4
_symmetry_space_group_name_H-M   'P 1'
_cell_length_a   9.55043835
_cell_length_b   9.60417997
_cell_length_c   9.59556121
_cell_angle_alpha   60.20706081
_cell_angle_beta   60.03089639
_cell_angle_gamma   60.02909679
_symmetry_Int_Tables_number   1
_chemical_formula_structural   Tb13Ho3InAg3Rh4
_chemical_formula_sum   'Tb13 Ho3 In1 Ag3 Rh4'
_cell_volume   623.60754344
_cell_formula_units_Z   1
loop_
 _symmetry_equiv_pos_site_id
 _symmetry_equiv_pos_as_xyz
  1  'x, y, z'
loop_
 _atom_site_type_symbol
 _atom_site_label
 _atom_site_symmetry_multiplicity
 _atom_site_fract_x
 _atom_site_fract_y
 _atom_site_fract_z
 _atom_site_occupancy
  Tb  Tb0  1  0.648483  0.054167  0.648894  1
  Tb  Tb1  1  0.067537  0.061105  0.436087  1
  Tb  Tb2  1  0.438664  0.435390  0.062215  1
  Tb  Tb3  1  0.649187  0.648678  0.649021  1
  Tb  Tb4  1  0.810976  0.189983  0.189551  1
  Tb  Tb5  1  0.187549  0.812895  0.812547  1
  Tb  Tb6  1  0.055625  0.646959  0.647798  1
  Tb  Tb7  1  0.438084  0.063023  0.062244  1
  Tb  Tb8  1  0.438518  0.062256  0.435860  1
  Tb  Tb9  1  0.067641  0.435713  0.060965  1
  Tb  Tb10  1  0.649314  0.648790  0.053264  1
  Tb  Tb11  1  0.187460  0.813342  0.188730  1
  Tb  Tb12  1  0.068295  0.434906  0.435664  1
  Ho  Ho13  1  0.811427  0.809622  0.189695  1
  Ho  Ho14  1  0.812018  0.189620  0.809524  1
  Ho  Ho15  1  0.187298  0.188724  0.813167  1
  In  In16  1  0.736634  0.421146  0.420950  1
  Ag  Ag17  1  0.416144  0.417945  0.418030  1
  Ag  Ag18  1  0.416014  0.417425  0.748425  1
  Ag  Ag19  1  0.416307  0.748245  0.417377  1
  Rh  Rh20  1  0.856999  0.427379  0.856285  1
  Rh  Rh21  1  0.856577  0.858534  0.858584  1
  Rh  Rh22  1  0.855773  0.856460  0.428019  1
  Rh  Rh23  1  0.427477  0.857693  0.857101  1
