# generated using pymatgen
data_Ac8Zn3MoN12
_symmetry_space_group_name_H-M   'P 1'
_cell_length_a   6.39863554
_cell_length_b   6.48505233
_cell_length_c   12.56110034
_cell_angle_alpha   89.24397875
_cell_angle_beta   87.97366473
_cell_angle_gamma   125.38740495
_symmetry_Int_Tables_number   1
_chemical_formula_structural   Ac8Zn3MoN12
_chemical_formula_sum   'Ac8 Zn3 Mo1 N12'
_cell_volume   424.30605557
_cell_formula_units_Z   1
loop_
 _symmetry_equiv_pos_site_id
 _symmetry_equiv_pos_as_xyz
  1  'x, y, z'
loop_
 _atom_site_type_symbol
 _atom_site_label
 _atom_site_symmetry_multiplicity
 _atom_site_fract_x
 _atom_site_fract_y
 _atom_site_fract_z
 _atom_site_occupancy
  Ac  Ac0  1  0.560601  0.977047  0.833894  1
  Ac  Ac1  1  0.030100  0.441457  0.653696  1
  Ac  Ac2  1  0.434157  0.046055  0.154040  1
  Ac  Ac3  1  0.960548  0.531598  0.361167  1
  Ac  Ac4  1  0.326614  0.123413  0.579941  1
  Ac  Ac5  1  0.868507  0.665998  0.906807  1
  Ac  Ac6  1  0.650616  0.856828  0.439044  1
  Ac  Ac7  1  0.144515  0.357333  0.057110  1
  Zn  Zn8  1  0.719507  0.711302  0.664380  1
  Zn  Zn9  1  0.280758  0.275096  0.832745  1
  Zn  Zn10  1  0.275479  0.257716  0.345832  1
  Mo  Mo11  1  0.739865  0.743847  0.165779  1
  N  N12  1  0.612977  0.378308  0.747878  1
  N  N13  1  0.426180  0.594412  0.245683  1
  N  N14  1  0.482602  0.847827  0.629254  1
  N  N15  1  0.155791  0.521570  0.873326  1
  N  N16  1  0.499488  0.130546  0.364941  1
  N  N17  1  0.840964  0.526248  0.132477  1
  N  N18  1  0.696289  0.883511  0.041880  1
  N  N19  1  0.100148  0.306487  0.469889  1
  N  N20  1  0.334334  0.144567  0.979313  1
  N  N21  1  0.880160  0.673648  0.525045  1
  N  N22  1  0.977959  0.998259  0.755804  1
  N  N23  1  0.001840  0.006928  0.240074  1
