# generated using pymatgen
data_Sr(CoO2)2
_symmetry_space_group_name_H-M   'P 1'
_cell_length_a   5.00120100
_cell_length_b   5.76928400
_cell_length_c   11.46706400
_cell_angle_alpha   90.00000000
_cell_angle_beta   90.00000000
_cell_angle_gamma   90.00000000
_symmetry_Int_Tables_number   1
_chemical_formula_structural   Sr(CoO2)2
_chemical_formula_sum   'Sr4 Co8 O16'
_cell_volume   330.86319857
_cell_formula_units_Z   4
loop_
 _symmetry_equiv_pos_site_id
 _symmetry_equiv_pos_as_xyz
  1  'x, y, z'
loop_
 _atom_site_type_symbol
 _atom_site_label
 _atom_site_symmetry_multiplicity
 _atom_site_fract_x
 _atom_site_fract_y
 _atom_site_fract_z
 _atom_site_occupancy
  Sr  Sr0  1  0.635338  0.000000  0.000000  1
  Sr  Sr1  1  0.364662  0.500000  0.500000  1
  Sr  Sr2  1  0.042437  0.500000  0.000000  1
  Sr  Sr3  1  0.957563  0.000000  0.500000  1
  Co  Co4  1  0.500000  0.750000  0.250000  1
  Co  Co5  1  0.500000  0.250000  0.750000  1
  Co  Co6  1  0.500000  0.250000  0.250000  1
  Co  Co7  1  0.500000  0.750000  0.750000  1
  Co  Co8  1  0.999701  0.500000  0.253682  1
  Co  Co9  1  0.999701  0.500000  0.746318  1
  Co  Co10  1  0.000299  0.000000  0.246318  1
  Co  Co11  1  0.000299  0.000000  0.753682  1
  O  O12  1  0.834643  0.747761  0.160317  1
  O  O13  1  0.834643  0.252239  0.839683  1
  O  O14  1  0.165357  0.247761  0.339683  1
  O  O15  1  0.165357  0.752239  0.660317  1
  O  O16  1  0.165357  0.752239  0.339683  1
  O  O17  1  0.165357  0.247761  0.660317  1
  O  O18  1  0.834643  0.252239  0.160317  1
  O  O19  1  0.834643  0.747761  0.839683  1
  O  O20  1  0.666260  0.000000  0.333548  1
  O  O21  1  0.666260  0.000000  0.666452  1
  O  O22  1  0.333740  0.500000  0.166452  1
  O  O23  1  0.333740  0.500000  0.833548  1
  O  O24  1  0.329607  0.000000  0.837629  1
  O  O25  1  0.329607  0.000000  0.162371  1
  O  O26  1  0.670393  0.500000  0.662371  1
  O  O27  1  0.670393  0.500000  0.337629  1
