# generated using pymatgen
data_LiEr8Sc10Si16Tc
_symmetry_space_group_name_H-M   'P 1'
_cell_length_a   6.95781264
_cell_length_b   7.32391593
_cell_length_c   13.87638200
_cell_angle_alpha   90.00000000
_cell_angle_beta   90.00000000
_cell_angle_gamma   90.08720622
_symmetry_Int_Tables_number   1
_chemical_formula_structural   LiEr8Sc10Si16Tc
_chemical_formula_sum   'Li1 Er8 Sc10 Si16 Tc1'
_cell_volume   707.11788830
_cell_formula_units_Z   1
loop_
 _symmetry_equiv_pos_site_id
 _symmetry_equiv_pos_as_xyz
  1  'x, y, z'
loop_
 _atom_site_type_symbol
 _atom_site_label
 _atom_site_symmetry_multiplicity
 _atom_site_fract_x
 _atom_site_fract_y
 _atom_site_fract_z
 _atom_site_occupancy
  Li  Li0  1  0.842687  0.492062  0.250000  1
  Er  Er1  1  0.011933  0.185946  0.095586  1
  Er  Er2  1  0.992035  0.818100  0.900293  1
  Er  Er3  1  0.487687  0.673226  0.902851  1
  Er  Er4  1  0.992035  0.818100  0.599707  1
  Er  Er5  1  0.516916  0.325274  0.096635  1
  Er  Er6  1  0.011933  0.185946  0.404414  1
  Er  Er7  1  0.516916  0.325274  0.403365  1
  Er  Er8  1  0.487687  0.673226  0.597149  1
  Sc  Sc9  1  0.346481  0.002539  0.250000  1
  Sc  Sc10  1  0.656032  0.994454  0.750000  1
  Sc  Sc11  1  0.324692  0.177528  0.627013  1
  Sc  Sc12  1  0.677509  0.820034  0.373339  1
  Sc  Sc13  1  0.167552  0.670135  0.375355  1
  Sc  Sc14  1  0.677509  0.820034  0.126661  1
  Sc  Sc15  1  0.824115  0.329446  0.628686  1
  Sc  Sc16  1  0.324692  0.177528  0.872987  1
  Sc  Sc17  1  0.824115  0.329446  0.871314  1
  Sc  Sc18  1  0.167552  0.670135  0.124645  1
  Si  Si19  1  0.027647  0.118432  0.750000  1
  Si  Si20  1  0.976400  0.897972  0.250000  1
  Si  Si21  1  0.468581  0.612207  0.250000  1
  Si  Si22  1  0.515173  0.396537  0.750000  1
  Si  Si23  1  0.284779  0.859499  0.750000  1
  Si  Si24  1  0.718541  0.123914  0.250000  1
  Si  Si25  1  0.222716  0.371147  0.250000  1
  Si  Si26  1  0.791867  0.629498  0.750000  1
  Si  Si27  1  0.153706  0.466366  0.548117  1
  Si  Si28  1  0.840679  0.538955  0.467668  1
  Si  Si29  1  0.344857  0.965632  0.461364  1
  Si  Si30  1  0.840679  0.538955  0.032332  1
  Si  Si31  1  0.657992  0.033308  0.538382  1
  Si  Si32  1  0.153706  0.466366  0.951883  1
  Si  Si33  1  0.657992  0.033308  0.961618  1
  Si  Si34  1  0.344857  0.965632  0.038636  1
  Tc  Tc35  1  0.149749  0.493845  0.750000  1
