# generated using pymatgen
data_Cs3NdI6
_symmetry_space_group_name_H-M   'P 1'
_cell_length_a   10.71797000
_cell_length_b   10.71797000
_cell_length_c   8.89558500
_cell_angle_alpha   90.00000000
_cell_angle_beta   90.00000000
_cell_angle_gamma   90.00000000
_symmetry_Int_Tables_number   1
_chemical_formula_structural   Cs3NdI6
_chemical_formula_sum   'Cs6 Nd2 I12'
_cell_volume   1021.87926760
_cell_formula_units_Z   2
loop_
 _symmetry_equiv_pos_site_id
 _symmetry_equiv_pos_as_xyz
  1  'x, y, z'
loop_
 _atom_site_type_symbol
 _atom_site_label
 _atom_site_symmetry_multiplicity
 _atom_site_fract_x
 _atom_site_fract_y
 _atom_site_fract_z
 _atom_site_occupancy
  Cs  Cs0  1  0.000000  0.000000  0.500000  1
  Cs  Cs1  1  0.000000  0.000000  0.000000  1
  Cs  Cs2  1  0.233050  0.588023  0.500000  1
  Cs  Cs3  1  0.766950  0.411977  0.500000  1
  Cs  Cs4  1  0.411977  0.233050  0.000000  1
  Cs  Cs5  1  0.588023  0.766950  0.000000  1
  Nd  Nd6  1  0.500000  0.000000  0.500000  1
  Nd  Nd7  1  0.000000  0.500000  0.000000  1
  I  I8  1  0.699053  0.061191  0.748875  1
  I  I9  1  0.300947  0.938809  0.748875  1
  I  I10  1  0.938809  0.699053  0.248875  1
  I  I11  1  0.061191  0.300947  0.248875  1
  I  I12  1  0.300947  0.938809  0.251125  1
  I  I13  1  0.699053  0.061191  0.251125  1
  I  I14  1  0.061191  0.300947  0.751125  1
  I  I15  1  0.938809  0.699053  0.751125  1
  I  I16  1  0.570915  0.717594  0.500000  1
  I  I17  1  0.429085  0.282406  0.500000  1
  I  I18  1  0.282406  0.570915  0.000000  1
  I  I19  1  0.717594  0.429085  0.000000  1
