# generated using pymatgen
data_Pr4Dy2Al24AgOs7
_symmetry_space_group_name_H-M   'P 1'
_cell_length_a   8.96126252
_cell_length_b   8.96126265
_cell_length_c   9.64719100
_cell_angle_alpha   90.14953003
_cell_angle_beta   89.85046357
_cell_angle_gamma   120.26813345
_symmetry_Int_Tables_number   1
_chemical_formula_structural   Pr4Dy2Al24AgOs7
_chemical_formula_sum   'Pr4 Dy2 Al24 Ag1 Os7'
_cell_volume   669.09560953
_cell_formula_units_Z   1
loop_
 _symmetry_equiv_pos_site_id
 _symmetry_equiv_pos_as_xyz
  1  'x, y, z'
loop_
 _atom_site_type_symbol
 _atom_site_label
 _atom_site_symmetry_multiplicity
 _atom_site_fract_x
 _atom_site_fract_y
 _atom_site_fract_z
 _atom_site_occupancy
  Pr  Pr0  1  0.190189  0.381224  0.248527  1
  Pr  Pr1  1  0.809811  0.618776  0.751473  1
  Pr  Pr2  1  0.618776  0.809811  0.248527  1
  Pr  Pr3  1  0.381224  0.190189  0.751473  1
  Dy  Dy4  1  0.195251  0.804749  0.255899  1
  Dy  Dy5  1  0.804749  0.195251  0.744101  1
  Al  Al6  1  0.327190  0.672810  0.015001  1
  Al  Al7  1  0.672810  0.327190  0.984999  1
  Al  Al8  1  0.666257  0.333743  0.513706  1
  Al  Al9  1  0.333743  0.666257  0.486294  1
  Al  Al10  1  0.160808  0.326170  0.573642  1
  Al  Al11  1  0.839192  0.673830  0.426358  1
  Al  Al12  1  0.673830  0.839192  0.573642  1
  Al  Al13  1  0.853236  0.678555  0.081773  1
  Al  Al14  1  0.326170  0.160808  0.426358  1
  Al  Al15  1  0.146764  0.321445  0.918227  1
  Al  Al16  1  0.162904  0.837096  0.573580  1
  Al  Al17  1  0.321445  0.146764  0.081773  1
  Al  Al18  1  0.837096  0.162904  0.426420  1
  Al  Al19  1  0.678555  0.853236  0.918227  1
  Al  Al20  1  0.836619  0.163381  0.071915  1
  Al  Al21  1  0.163381  0.836619  0.928085  1
  Al  Al22  1  0.561021  0.120619  0.249618  1
  Al  Al23  1  0.438979  0.879381  0.750382  1
  Al  Al24  1  0.879381  0.438979  0.249618  1
  Al  Al25  1  0.120619  0.561021  0.750382  1
  Al  Al26  1  0.566133  0.433867  0.257641  1
  Al  Al27  1  0.433867  0.566133  0.742359  1
  Al  Al28  1  0.003022  0.996978  0.250688  1
  Al  Al29  1  0.996978  0.003022  0.749312  1
  Ag  Ag30  1  0.500000  0.500000  0.000000  1
  Os  Os31  1  0.500000  0.000000  0.000000  1
  Os  Os32  1  0.000000  0.500000  0.000000  1
  Os  Os33  1  0.500000  0.000000  0.500000  1
  Os  Os34  1  0.000000  0.500000  0.500000  1
  Os  Os35  1  0.500000  0.500000  0.500000  1
  Os  Os36  1  0.000000  0.000000  0.000000  1
  Os  Os37  1  0.000000  0.000000  0.500000  1
