# generated using pymatgen
data_Dy19Tm(Sn3Pb5)2
_symmetry_space_group_name_H-M   'P 1'
_cell_length_a   8.14916600
_cell_length_b   8.22706148
_cell_length_c   15.60116800
_cell_angle_alpha   90.00000000
_cell_angle_beta   90.00000000
_cell_angle_gamma   89.96559632
_symmetry_Int_Tables_number   1
_chemical_formula_structural   Dy19Tm(Sn3Pb5)2
_chemical_formula_sum   'Dy19 Tm1 Sn6 Pb10'
_cell_volume   1045.95967807
_cell_formula_units_Z   1
loop_
 _symmetry_equiv_pos_site_id
 _symmetry_equiv_pos_as_xyz
  1  'x, y, z'
loop_
 _atom_site_type_symbol
 _atom_site_label
 _atom_site_symmetry_multiplicity
 _atom_site_fract_x
 _atom_site_fract_y
 _atom_site_fract_z
 _atom_site_occupancy
  Dy  Dy0  1  0.377070  0.838838  0.877613  1
  Dy  Dy1  1  0.877903  0.660619  0.622390  1
  Dy  Dy2  1  0.622187  0.159793  0.376703  1
  Dy  Dy3  1  0.122265  0.340268  0.122920  1
  Dy  Dy4  1  0.622187  0.159793  0.123297  1
  Dy  Dy5  1  0.122265  0.340268  0.377080  1
  Dy  Dy6  1  0.377070  0.838838  0.622387  1
  Dy  Dy7  1  0.877903  0.660619  0.877610  1
  Dy  Dy8  1  0.534833  0.325791  0.899491  1
  Dy  Dy9  1  0.035306  0.174923  0.600494  1
  Dy  Dy10  1  0.464783  0.676183  0.396979  1
  Dy  Dy11  1  0.964737  0.823804  0.103360  1
  Dy  Dy12  1  0.464783  0.676183  0.103021  1
  Dy  Dy13  1  0.964737  0.823804  0.396640  1
  Dy  Dy14  1  0.534833  0.325791  0.600509  1
  Dy  Dy15  1  0.035306  0.174923  0.899506  1
  Dy  Dy16  1  0.709948  0.992735  0.750000  1
  Dy  Dy17  1  0.790232  0.496491  0.250000  1
  Dy  Dy18  1  0.290157  0.003633  0.250000  1
  Tm  Tm19  1  0.210403  0.508030  0.750000  1
  Sn  Sn20  1  0.572814  0.622828  0.750000  1
  Sn  Sn21  1  0.074258  0.875638  0.750000  1
  Sn  Sn22  1  0.424943  0.377821  0.250000  1
  Sn  Sn23  1  0.925289  0.122501  0.250000  1
  Sn  Sn24  1  0.656949  0.850981  0.250000  1
  Sn  Sn25  1  0.157378  0.648608  0.250000  1
  Pb  Pb26  1  0.282495  0.033376  0.042157  1
  Pb  Pb27  1  0.782325  0.466337  0.457859  1
  Pb  Pb28  1  0.717537  0.966583  0.541768  1
  Pb  Pb29  1  0.217402  0.532915  0.957439  1
  Pb  Pb30  1  0.717537  0.966583  0.958232  1
  Pb  Pb31  1  0.217402  0.532915  0.542561  1
  Pb  Pb32  1  0.282495  0.033376  0.457843  1
  Pb  Pb33  1  0.782325  0.466337  0.042141  1
  Pb  Pb34  1  0.344405  0.153774  0.750000  1
  Pb  Pb35  1  0.845535  0.348091  0.750000  1
