# generated using pymatgen
data_Gd2Hf2Sc2Pb5
_symmetry_space_group_name_H-M   'P 1'
_cell_length_a   6.16658171
_cell_length_b   9.18451593
_cell_length_c   11.24097000
_cell_angle_alpha   114.11243423
_cell_angle_beta   105.91973918
_cell_angle_gamma   89.99999981
_symmetry_Int_Tables_number   1
_chemical_formula_structural   Gd2Hf2Sc2Pb5
_chemical_formula_sum   'Gd4 Hf4 Sc4 Pb10'
_cell_volume   554.24483995
_cell_formula_units_Z   2
loop_
 _symmetry_equiv_pos_site_id
 _symmetry_equiv_pos_as_xyz
  1  'x, y, z'
loop_
 _atom_site_type_symbol
 _atom_site_label
 _atom_site_symmetry_multiplicity
 _atom_site_fract_x
 _atom_site_fract_y
 _atom_site_fract_z
 _atom_site_occupancy
  Gd  Gd0  1  0.144963  0.258607  0.289925  1
  Gd  Gd1  1  0.855037  0.741393  0.710075  1
  Gd  Gd2  1  0.644963  0.031318  0.289925  1
  Gd  Gd3  1  0.355037  0.968682  0.710075  1
  Hf  Hf4  1  0.556761  0.306761  0.613523  1
  Hf  Hf5  1  0.443239  0.693239  0.386477  1
  Hf  Hf6  1  0.943239  0.693239  0.386477  1
  Hf  Hf7  1  0.056761  0.306761  0.613523  1
  Sc  Sc8  1  0.438845  0.674727  0.877691  1
  Sc  Sc9  1  0.561155  0.325273  0.122309  1
  Sc  Sc10  1  0.938845  0.202964  0.877691  1
  Sc  Sc11  1  0.061155  0.797036  0.122309  1
  Pb  Pb12  1  0.292461  0.590339  0.584923  1
  Pb  Pb13  1  0.707539  0.409661  0.415077  1
  Pb  Pb14  1  0.792461  0.994584  0.584923  1
  Pb  Pb15  1  0.207539  0.005416  0.415077  1
  Pb  Pb16  1  0.250000  0.000000  0.000000  1
  Pb  Pb17  1  0.750000  0.000000  0.000000  1
  Pb  Pb18  1  0.071403  0.473338  0.142808  1
  Pb  Pb19  1  0.928597  0.526662  0.857192  1
  Pb  Pb20  1  0.571403  0.669470  0.142808  1
  Pb  Pb21  1  0.428597  0.330530  0.857192  1
