# generated using pymatgen
data_AcLa2RuBr3
_symmetry_space_group_name_H-M   'P 1'
_cell_length_a   10.79132149
_cell_length_b   10.79132016
_cell_length_c   10.79132020
_cell_angle_alpha   112.59923169
_cell_angle_beta   107.93022903
_cell_angle_gamma   107.93021693
_symmetry_Int_Tables_number   1
_chemical_formula_structural   AcLa2RuBr3
_chemical_formula_sum   'Ac4 La8 Ru4 Br12'
_cell_volume   965.21541113
_cell_formula_units_Z   4
loop_
 _symmetry_equiv_pos_site_id
 _symmetry_equiv_pos_as_xyz
  1  'x, y, z'
loop_
 _atom_site_type_symbol
 _atom_site_label
 _atom_site_symmetry_multiplicity
 _atom_site_fract_x
 _atom_site_fract_y
 _atom_site_fract_z
 _atom_site_occupancy
  Ac  Ac0  1  0.750000  0.236680  0.263320  1
  Ac  Ac1  1  0.750000  0.013320  0.486680  1
  Ac  Ac2  1  0.473358  0.486680  0.236680  1
  Ac  Ac3  1  0.026642  0.263320  0.013320  1
  La  La4  1  0.261308  0.740213  0.223552  1
  La  La5  1  0.483339  0.759787  0.021094  1
  La  La6  1  0.238692  0.462242  0.478906  1
  La  La7  1  0.016661  0.037758  0.276448  1
  La  La8  1  0.238692  0.276448  0.759787  1
  La  La9  1  0.016661  0.478906  0.740213  1
  La  La10  1  0.483339  0.223552  0.462242  1
  La  La11  1  0.261308  0.021094  0.037758  1
  Ru  Ru12  1  0.499360  0.999680  0.249680  1
  Ru  Ru13  1  0.250000  0.500320  0.999680  1
  Ru  Ru14  1  0.000640  0.250320  0.500320  1
  Ru  Ru15  1  0.250000  0.249680  0.250320  1
  Br  Br16  1  0.250000  0.000603  0.499397  1
  Br  Br17  1  0.498796  0.499397  0.749397  1
  Br  Br18  1  0.250000  0.749397  0.750603  1
  Br  Br19  1  0.001204  0.750603  0.000603  1
  Br  Br20  1  0.005987  0.521188  0.263960  1
  Br  Br21  1  0.742772  0.978812  0.984798  1
  Br  Br22  1  0.757228  0.742027  0.236040  1
  Br  Br23  1  0.494013  0.757973  0.515202  1
  Br  Br24  1  0.494013  0.236040  0.978812  1
  Br  Br25  1  0.757228  0.515202  0.521188  1
  Br  Br26  1  0.742772  0.263960  0.757973  1
  Br  Br27  1  0.005987  0.984798  0.742027  1
