# generated using pymatgen
data_La3Tb13(InRu)4
_symmetry_space_group_name_H-M   'P 1'
_cell_length_a   9.78430176
_cell_length_b   9.72312745
_cell_length_c   9.72447696
_cell_angle_alpha   60.36703289
_cell_angle_beta   60.01118036
_cell_angle_gamma   60.09558497
_symmetry_Int_Tables_number   1
_chemical_formula_structural   La3Tb13(InRu)4
_chemical_formula_sum   'La3 Tb13 In4 Ru4'
_cell_volume   656.49090695
_cell_formula_units_Z   1
loop_
 _symmetry_equiv_pos_site_id
 _symmetry_equiv_pos_as_xyz
  1  'x, y, z'
loop_
 _atom_site_type_symbol
 _atom_site_label
 _atom_site_symmetry_multiplicity
 _atom_site_fract_x
 _atom_site_fract_y
 _atom_site_fract_z
 _atom_site_occupancy
  La  La0  1  0.096649  0.713842  0.098235  1
  La  La1  1  0.937974  0.941107  0.559184  1
  La  La2  1  0.937344  0.556071  0.940724  1
  Tb  Tb3  1  0.315873  0.682963  0.311432  1
  Tb  Tb4  1  0.938812  0.553034  0.555905  1
  Tb  Tb5  1  0.315046  0.308781  0.685016  1
  Tb  Tb6  1  0.102588  0.097668  0.096483  1
  Tb  Tb7  1  0.556230  0.556753  0.939371  1
  Tb  Tb8  1  0.097656  0.101751  0.707171  1
  Tb  Tb9  1  0.690009  0.309542  0.691976  1
  Tb  Tb10  1  0.688698  0.690632  0.311424  1
  Tb  Tb11  1  0.688395  0.307549  0.310064  1
  Tb  Tb12  1  0.310976  0.691801  0.691734  1
  Tb  Tb13  1  0.554531  0.940020  0.557482  1
  Tb  Tb14  1  0.708349  0.098295  0.096181  1
  Tb  Tb15  1  0.551555  0.945949  0.945715  1
  In  In16  1  0.331414  0.329605  0.333139  1
  In  In17  1  0.003674  0.330025  0.334414  1
  In  In18  1  0.336301  0.001506  0.331666  1
  In  In19  1  0.336381  0.328222  0.002837  1
  Ru  Ru20  1  0.889619  0.888605  0.879629  1
  Ru  Ru21  1  0.886827  0.897102  0.338179  1
  Ru  Ru22  1  0.334537  0.892091  0.887351  1
  Ru  Ru23  1  0.890558  0.337087  0.894685  1
