# generated using pymatgen
data_LiTi6Mn5Rh12
_symmetry_space_group_name_H-M   'P 1'
_cell_length_a   4.36354900
_cell_length_b   6.10793000
_cell_length_c   13.06206900
_cell_angle_alpha   90.00000000
_cell_angle_beta   90.00016213
_cell_angle_gamma   90.00000000
_symmetry_Int_Tables_number   1
_chemical_formula_structural   LiTi6Mn5Rh12
_chemical_formula_sum   'Li1 Ti6 Mn5 Rh12'
_cell_volume   348.13355259
_cell_formula_units_Z   1
loop_
 _symmetry_equiv_pos_site_id
 _symmetry_equiv_pos_as_xyz
  1  'x, y, z'
loop_
 _atom_site_type_symbol
 _atom_site_label
 _atom_site_symmetry_multiplicity
 _atom_site_fract_x
 _atom_site_fract_y
 _atom_site_fract_z
 _atom_site_occupancy
  Li  Li0  1  0.000000  0.500000  0.000000  1
  Ti  Ti1  1  0.000000  0.000000  0.000000  1
  Ti  Ti2  1  0.499975  0.500000  0.164966  1
  Ti  Ti3  1  0.999983  0.000000  0.331553  1
  Ti  Ti4  1  0.499999  0.500000  0.500000  1
  Ti  Ti5  1  0.000017  0.000000  0.668447  1
  Ti  Ti6  1  0.500025  0.500000  0.835034  1
  Mn  Mn7  1  0.499983  0.000000  0.165476  1
  Mn  Mn8  1  0.999976  0.500000  0.332818  1
  Mn  Mn9  1  0.499999  0.000000  0.500000  1
  Mn  Mn10  1  0.000024  0.500000  0.667182  1
  Mn  Mn11  1  0.500018  0.000000  0.834525  1
  Rh  Rh12  1  0.499999  0.252920  0.000000  1
  Rh  Rh13  1  0.499999  0.747079  0.000000  1
  Rh  Rh14  1  0.999977  0.251630  0.165894  1
  Rh  Rh15  1  0.999977  0.748369  0.165894  1
  Rh  Rh16  1  0.499983  0.249970  0.333409  1
  Rh  Rh17  1  0.499983  0.750029  0.333409  1
  Rh  Rh18  1  0.000000  0.249860  0.500000  1
  Rh  Rh19  1  0.000000  0.750139  0.500000  1
  Rh  Rh20  1  0.500016  0.249970  0.666590  1
  Rh  Rh21  1  0.500016  0.750029  0.666590  1
  Rh  Rh22  1  0.000023  0.251630  0.834105  1
  Rh  Rh23  1  0.000023  0.748369  0.834105  1
