# generated using pymatgen
data_AlZn2GaPd8
_symmetry_space_group_name_H-M   'P 1'
_cell_length_a   4.13220200
_cell_length_b   5.46840194
_cell_length_c   7.90176229
_cell_angle_alpha   89.83607356
_cell_angle_beta   90.00000000
_cell_angle_gamma   90.00000000
_symmetry_Int_Tables_number   1
_chemical_formula_structural   AlZn2GaPd8
_chemical_formula_sum   'Al1 Zn2 Ga1 Pd8'
_cell_volume   178.55176815
_cell_formula_units_Z   1
loop_
 _symmetry_equiv_pos_site_id
 _symmetry_equiv_pos_as_xyz
  1  'x, y, z'
loop_
 _atom_site_type_symbol
 _atom_site_label
 _atom_site_symmetry_multiplicity
 _atom_site_fract_x
 _atom_site_fract_y
 _atom_site_fract_z
 _atom_site_occupancy
  Al  Al0  1  0.250000  0.687701  0.400942  1
  Zn  Zn1  1  0.750000  0.812524  0.896943  1
  Zn  Zn2  1  0.750000  0.309413  0.603614  1
  Ga  Ga3  1  0.250000  0.183214  0.097346  1
  Pd  Pd4  1  0.750000  0.463975  0.283332  1
  Pd  Pd5  1  0.250000  0.546594  0.720369  1
  Pd  Pd6  1  0.750000  0.961288  0.220067  1
  Pd  Pd7  1  0.250000  0.046280  0.776945  1
  Pd  Pd8  1  0.750000  0.332827  0.935207  1
  Pd  Pd9  1  0.250000  0.663855  0.073607  1
  Pd  Pd10  1  0.750000  0.827677  0.564428  1
  Pd  Pd11  1  0.250000  0.164650  0.427196  1
