# generated using pymatgen
data_Yb2In2PtRh3O14
_symmetry_space_group_name_H-M   'P 1'
_cell_length_a   7.07945709
_cell_length_b   7.19001865
_cell_length_c   7.18180891
_cell_angle_alpha   60.88404161
_cell_angle_beta   60.47032702
_cell_angle_gamma   60.50737579
_symmetry_Int_Tables_number   1
_chemical_formula_structural   Yb2In2PtRh3O14
_chemical_formula_sum   'Yb2 In2 Pt1 Rh3 O14'
_cell_volume   262.10730139
_cell_formula_units_Z   1
loop_
 _symmetry_equiv_pos_site_id
 _symmetry_equiv_pos_as_xyz
  1  'x, y, z'
loop_
 _atom_site_type_symbol
 _atom_site_label
 _atom_site_symmetry_multiplicity
 _atom_site_fract_x
 _atom_site_fract_y
 _atom_site_fract_z
 _atom_site_occupancy
  Yb  Yb0  1  0.125000  0.625000  0.125000  1
  Yb  Yb1  1  0.125000  0.125000  0.625000  1
  In  In2  1  0.125000  0.125000  0.125000  1
  In  In3  1  0.625000  0.125000  0.125000  1
  Pt  Pt4  1  0.625000  0.625000  0.125000  1
  Rh  Rh5  1  0.625000  0.125000  0.625000  1
  Rh  Rh6  1  0.125000  0.625000  0.625000  1
  Rh  Rh7  1  0.625000  0.625000  0.625000  1
  O  O8  1  0.261988  0.237736  0.238289  1
  O  O9  1  0.709445  0.290612  0.290498  1
  O  O10  1  0.698919  0.294875  0.710948  1
  O  O11  1  0.289231  0.718094  0.291397  1
  O  O12  1  0.701279  0.718094  0.291397  1
  O  O13  1  0.295260  0.294875  0.710948  1
  O  O14  1  0.957525  0.538708  0.546242  1
  O  O15  1  0.292475  0.711292  0.703758  1
  O  O16  1  0.954740  0.955125  0.539052  1
  O  O17  1  0.551081  0.955125  0.539052  1
  O  O18  1  0.548721  0.531906  0.958603  1
  O  O19  1  0.960769  0.531906  0.958603  1
  O  O20  1  0.540555  0.959388  0.959502  1
  O  O21  1  0.988012  0.012264  0.011711  1
