# generated using pymatgen
data_Ti(FeRe)6
_symmetry_space_group_name_H-M   'P 1'
_cell_length_a   4.72336604
_cell_length_b   4.72336507
_cell_length_c   9.09181004
_cell_angle_alpha   74.94421254
_cell_angle_beta   74.94421924
_cell_angle_gamma   59.99999256
_symmetry_Int_Tables_number   1
_chemical_formula_structural   Ti(FeRe)6
_chemical_formula_sum   'Ti1 Fe6 Re6'
_cell_volume   167.57635661
_cell_formula_units_Z   1
loop_
 _symmetry_equiv_pos_site_id
 _symmetry_equiv_pos_as_xyz
  1  'x, y, z'
loop_
 _atom_site_type_symbol
 _atom_site_label
 _atom_site_symmetry_multiplicity
 _atom_site_fract_x
 _atom_site_fract_y
 _atom_site_fract_z
 _atom_site_occupancy
  Ti  Ti0  1  0.834908  0.834908  0.495277  1
  Fe  Fe1  1  0.907732  0.907732  0.764230  1
  Fe  Fe2  1  0.420304  0.907732  0.764230  1
  Fe  Fe3  1  0.907732  0.420304  0.764230  1
  Fe  Fe4  1  0.093066  0.093066  0.234834  1
  Fe  Fe5  1  0.579036  0.093066  0.234834  1
  Fe  Fe6  1  0.093066  0.579036  0.234834  1
  Re  Re7  1  0.001436  0.001436  0.995691  1
  Re  Re8  1  0.163909  0.163909  0.508273  1
  Re  Re9  1  0.649641  0.649641  0.051080  1
  Re  Re10  1  0.349295  0.349295  0.952114  1
  Re  Re11  1  0.547940  0.547940  0.356182  1
  Re  Re12  1  0.451935  0.451935  0.644193  1
