# generated using pymatgen
data_TbDy3(Al3Ir)6
_symmetry_space_group_name_H-M   'P 1'
_cell_length_a   7.55607341
_cell_length_b   7.55688573
_cell_length_c   9.48910200
_cell_angle_alpha   90.00000000
_cell_angle_beta   90.00000000
_cell_angle_gamma   119.49100793
_symmetry_Int_Tables_number   1
_chemical_formula_structural   TbDy3(Al3Ir)6
_chemical_formula_sum   'Tb1 Dy3 Al18 Ir6'
_cell_volume   471.62787948
_cell_formula_units_Z   1
loop_
 _symmetry_equiv_pos_site_id
 _symmetry_equiv_pos_as_xyz
  1  'x, y, z'
loop_
 _atom_site_type_symbol
 _atom_site_label
 _atom_site_symmetry_multiplicity
 _atom_site_fract_x
 _atom_site_fract_y
 _atom_site_fract_z
 _atom_site_occupancy
  Tb  Tb0  1  0.994566  0.671019  0.750000  1
  Dy  Dy1  1  0.005436  0.328955  0.250000  1
  Dy  Dy2  1  0.671015  0.994634  0.750000  1
  Dy  Dy3  1  0.328978  0.005461  0.250000  1
  Al  Al4  1  0.128989  0.129213  0.750000  1
  Al  Al5  1  0.871086  0.871162  0.250000  1
  Al  Al6  1  0.000961  0.334802  0.573502  1
  Al  Al7  1  0.999020  0.664951  0.425894  1
  Al  Al8  1  0.999020  0.664951  0.074106  1
  Al  Al9  1  0.335272  0.001182  0.926472  1
  Al  Al10  1  0.000961  0.334802  0.926498  1
  Al  Al11  1  0.664962  0.999025  0.073800  1
  Al  Al12  1  0.664962  0.999025  0.426200  1
  Al  Al13  1  0.335272  0.001182  0.573528  1
  Al  Al14  1  0.333407  0.333412  0.051344  1
  Al  Al15  1  0.666411  0.666611  0.949079  1
  Al  Al16  1  0.666411  0.666611  0.550921  1
  Al  Al17  1  0.333407  0.333412  0.448656  1
  Al  Al18  1  0.339721  0.548357  0.750000  1
  Al  Al19  1  0.660447  0.451520  0.250000  1
  Al  Al20  1  0.548041  0.339142  0.750000  1
  Al  Al21  1  0.451635  0.660546  0.250000  1
  Ir  Ir22  1  0.671867  0.327973  0.499877  1
  Ir  Ir23  1  0.328075  0.671917  0.499893  1
  Ir  Ir24  1  0.328075  0.671917  0.000107  1
  Ir  Ir25  1  0.671867  0.327973  0.000123  1
  Ir  Ir26  1  0.000070  0.000122  0.499866  1
  Ir  Ir27  1  0.000070  0.000122  0.000134  1
