# generated using pymatgen
data_Ba4NaMoWN7
_symmetry_space_group_name_H-M   'P 1'
_cell_length_a   6.55814200
_cell_length_b   10.46527397
_cell_length_c   15.73601100
_cell_angle_alpha   98.95970100
_cell_angle_beta   90.00000000
_cell_angle_gamma   90.00000000
_symmetry_Int_Tables_number   1
_chemical_formula_structural   Ba4NaMoWN7
_chemical_formula_sum   'Ba16 Na4 Mo4 W4 N28'
_cell_volume   1066.82765673
_cell_formula_units_Z   4
loop_
 _symmetry_equiv_pos_site_id
 _symmetry_equiv_pos_as_xyz
  1  'x, y, z'
loop_
 _atom_site_type_symbol
 _atom_site_label
 _atom_site_symmetry_multiplicity
 _atom_site_fract_x
 _atom_site_fract_y
 _atom_site_fract_z
 _atom_site_occupancy
  Ba  Ba0  1  0.679686  0.250000  0.250000  1
  Ba  Ba1  1  0.135752  0.076331  0.380568  1
  Ba  Ba2  1  0.135752  0.423669  0.119432  1
  Ba  Ba3  1  0.864248  0.923669  0.619432  1
  Ba  Ba4  1  0.864248  0.576331  0.880568  1
  Ba  Ba5  1  0.710022  0.255028  0.513353  1
  Ba  Ba6  1  0.710022  0.244972  0.986647  1
  Ba  Ba7  1  0.289978  0.744972  0.486647  1
  Ba  Ba8  1  0.289978  0.755028  0.013353  1
  Ba  Ba9  1  0.216777  0.418927  0.571391  1
  Ba  Ba10  1  0.216777  0.081073  0.928609  1
  Ba  Ba11  1  0.783223  0.581073  0.428609  1
  Ba  Ba12  1  0.783223  0.918927  0.071391  1
  Ba  Ba13  1  0.032223  0.250000  0.750000  1
  Ba  Ba14  1  0.967777  0.750000  0.250000  1
  Ba  Ba15  1  0.320314  0.750000  0.750000  1
  Na  Na16  1  0.471039  0.902775  0.238543  1
  Na  Na17  1  0.528961  0.402775  0.738543  1
  Na  Na18  1  0.528961  0.097225  0.761457  1
  Na  Na19  1  0.471039  0.597225  0.261457  1
  Mo  Mo20  1  0.679802  0.577885  0.092765  1
  Mo  Mo21  1  0.679802  0.922115  0.407235  1
  Mo  Mo22  1  0.320199  0.422115  0.907235  1
  Mo  Mo23  1  0.320199  0.077885  0.592765  1
  W  W24  1  0.786248  0.892327  0.845344  1
  W  W25  1  0.786248  0.607673  0.654656  1
  W  W26  1  0.213752  0.107673  0.154656  1
  W  W27  1  0.213752  0.392327  0.345344  1
  N  N28  1  0.463795  0.098737  0.097272  1
  N  N29  1  0.856154  0.049448  0.810289  1
  N  N30  1  0.856154  0.450551  0.689711  1
  N  N31  1  0.143846  0.950551  0.189711  1
  N  N32  1  0.143846  0.549449  0.310289  1
  N  N33  1  0.451599  0.223156  0.646020  1
  N  N34  1  0.451599  0.276844  0.853980  1
  N  N35  1  0.548401  0.776844  0.353980  1
  N  N36  1  0.548401  0.723156  0.146020  1
  N  N37  1  0.536205  0.901263  0.902728  1
  N  N38  1  0.536205  0.598737  0.597272  1
  N  N39  1  0.934213  0.864016  0.438374  1
  N  N40  1  0.725579  0.040311  0.332824  1
  N  N41  1  0.725579  0.459689  0.167176  1
  N  N42  1  0.274421  0.959689  0.667176  1
  N  N43  1  0.274421  0.540311  0.832824  1
  N  N44  1  0.500000  0.500000  0.000000  1
  N  N45  1  0.500000  0.000000  0.500000  1
  N  N46  1  0.234305  0.250000  0.250000  1
  N  N47  1  0.765695  0.750000  0.750000  1
  N  N48  1  0.990274  0.853410  0.919607  1
  N  N49  1  0.990274  0.646590  0.580393  1
  N  N50  1  0.009726  0.146590  0.080393  1
  N  N51  1  0.009726  0.353410  0.419607  1
  N  N52  1  0.065787  0.364016  0.938374  1
  N  N53  1  0.934213  0.635984  0.061626  1
  N  N54  1  0.065787  0.135984  0.561626  1
  N  N55  1  0.463795  0.401263  0.402728  1
