# generated using pymatgen
data_Ba20GeBi8P3
_symmetry_space_group_name_H-M   'P 1'
_cell_length_a   14.26389398
_cell_length_b   10.49573900
_cell_length_c   9.19646887
_cell_angle_alpha   90.00000000
_cell_angle_beta   89.57470069
_cell_angle_gamma   90.00000000
_symmetry_Int_Tables_number   1
_chemical_formula_structural   Ba20GeBi8P3
_chemical_formula_sum   'Ba20 Ge1 Bi8 P3'
_cell_volume   1376.76641993
_cell_formula_units_Z   1
loop_
 _symmetry_equiv_pos_site_id
 _symmetry_equiv_pos_as_xyz
  1  'x, y, z'
loop_
 _atom_site_type_symbol
 _atom_site_label
 _atom_site_symmetry_multiplicity
 _atom_site_fract_x
 _atom_site_fract_y
 _atom_site_fract_z
 _atom_site_occupancy
  Ba  Ba0  1  0.076618  0.534007  0.818000  1
  Ba  Ba1  1  0.575139  0.969816  0.679532  1
  Ba  Ba2  1  0.924040  0.025286  0.181285  1
  Ba  Ba3  1  0.424347  0.469748  0.320589  1
  Ba  Ba4  1  0.924040  0.474714  0.181285  1
  Ba  Ba5  1  0.424347  0.030252  0.320589  1
  Ba  Ba6  1  0.076618  0.965993  0.818000  1
  Ba  Ba7  1  0.575139  0.530184  0.679532  1
  Ba  Ba8  1  0.999648  0.750000  0.447307  1
  Ba  Ba9  1  0.500099  0.750000  0.052570  1
  Ba  Ba10  1  0.999619  0.250000  0.551615  1
  Ba  Ba11  1  0.500485  0.250000  0.946138  1
  Ba  Ba12  1  0.207825  0.750000  0.162659  1
  Ba  Ba13  1  0.707459  0.750000  0.335976  1
  Ba  Ba14  1  0.788904  0.250000  0.835376  1
  Ba  Ba15  1  0.288657  0.250000  0.667906  1
  Ba  Ba16  1  0.304592  0.750000  0.643153  1
  Ba  Ba17  1  0.804180  0.750000  0.857030  1
  Ba  Ba18  1  0.694818  0.250000  0.355755  1
  Ba  Ba19  1  0.200206  0.250000  0.146635  1
  Ge  Ge20  1  0.011515  0.250000  0.938162  1
  Bi  Bi21  1  0.331609  0.508232  0.937286  1
  Bi  Bi22  1  0.827174  0.992260  0.560917  1
  Bi  Bi23  1  0.669592  0.005885  0.063445  1
  Bi  Bi24  1  0.172480  0.495573  0.437967  1
  Bi  Bi25  1  0.669592  0.494115  0.063445  1
  Bi  Bi26  1  0.172480  0.004427  0.437967  1
  Bi  Bi27  1  0.331609  0.991768  0.937286  1
  Bi  Bi28  1  0.827174  0.507740  0.560917  1
  P  P29  1  0.490865  0.750000  0.439155  1
  P  P30  1  0.990376  0.750000  0.062981  1
  P  P31  1  0.508757  0.250000  0.559538  1
