# generated using pymatgen
data_Y2Tm6Tc3B24Rh
_symmetry_space_group_name_H-M   'P 1'
_cell_length_a   3.64973700
_cell_length_b   9.10476611
_cell_length_c   11.48730301
_cell_angle_alpha   90.12404087
_cell_angle_beta   90.00000000
_cell_angle_gamma   90.00000000
_symmetry_Int_Tables_number   1
_chemical_formula_structural   Y2Tm6Tc3B24Rh
_chemical_formula_sum   'Y2 Tm6 Tc3 B24 Rh1'
_cell_volume   381.72220431
_cell_formula_units_Z   1
loop_
 _symmetry_equiv_pos_site_id
 _symmetry_equiv_pos_as_xyz
  1  'x, y, z'
loop_
 _atom_site_type_symbol
 _atom_site_label
 _atom_site_symmetry_multiplicity
 _atom_site_fract_x
 _atom_site_fract_y
 _atom_site_fract_z
 _atom_site_occupancy
  Y  Y0  1  0.500000  0.318161  0.415829  1
  Y  Y1  1  0.500000  0.678315  0.591041  1
  Tm  Tm2  1  0.500000  0.177371  0.913001  1
  Tm  Tm3  1  0.500000  0.827418  0.080619  1
  Tm  Tm4  1  0.500000  0.440168  0.128351  1
  Tm  Tm5  1  0.500000  0.557252  0.871469  1
  Tm  Tm6  1  0.500000  0.056313  0.630293  1
  Tm  Tm7  1  0.500000  0.943860  0.369188  1
  Tc  Tc8  1  0.500000  0.138119  0.179645  1
  Tc  Tc9  1  0.500000  0.861854  0.821083  1
  Tc  Tc10  1  0.500000  0.361702  0.679442  1
  B  B11  1  0.000000  0.099411  0.471938  1
  B  B12  1  0.000000  0.897487  0.527586  1
  B  B13  1  0.000000  0.397455  0.972136  1
  B  B14  1  0.000000  0.603640  0.029136  1
  B  B15  1  0.000000  0.129659  0.314685  1
  B  B16  1  0.000000  0.869563  0.685716  1
  B  B17  1  0.000000  0.369323  0.815415  1
  B  B18  1  0.000000  0.631501  0.183018  1
  B  B19  1  0.000000  0.053407  0.066128  1
  B  B20  1  0.000000  0.947509  0.933085  1
  B  B21  1  0.000000  0.445927  0.567205  1
  B  B22  1  0.000000  0.554337  0.433217  1
  B  B23  1  0.000000  0.483095  0.286971  1
  B  B24  1  0.000000  0.518028  0.713307  1
  B  B25  1  0.000000  0.018425  0.787733  1
  B  B26  1  0.000000  0.981869  0.211431  1
  B  B27  1  0.000000  0.249449  0.080581  1
  B  B28  1  0.000000  0.751562  0.919611  1
  B  B29  1  0.000000  0.249286  0.581805  1
  B  B30  1  0.000000  0.750006  0.419332  1
  B  B31  1  0.000000  0.291548  0.234703  1
  B  B32  1  0.000000  0.708431  0.766506  1
  B  B33  1  0.000000  0.207904  0.735330  1
  B  B34  1  0.000000  0.791738  0.263950  1
  Rh  Rh35  1  0.500000  0.638905  0.319512  1
