# generated using pymatgen
data_Y18Ho2TcAg6Pd
_symmetry_space_group_name_H-M   'P 1'
_cell_length_a   9.57283214
_cell_length_b   9.56803663
_cell_length_c   9.71328823
_cell_angle_alpha   89.99999666
_cell_angle_beta   89.93077680
_cell_angle_gamma   119.98346358
_symmetry_Int_Tables_number   1
_chemical_formula_structural   Y18Ho2TcAg6Pd
_chemical_formula_sum   'Y18 Ho2 Tc1 Ag6 Pd1'
_cell_volume   770.60549485
_cell_formula_units_Z   1
loop_
 _symmetry_equiv_pos_site_id
 _symmetry_equiv_pos_as_xyz
  1  'x, y, z'
loop_
 _atom_site_type_symbol
 _atom_site_label
 _atom_site_symmetry_multiplicity
 _atom_site_fract_x
 _atom_site_fract_y
 _atom_site_fract_z
 _atom_site_occupancy
  Y  Y0  1  0.581197  0.790599  0.941884  1
  Y  Y1  1  0.794056  0.206939  0.055473  1
  Y  Y2  1  0.794056  0.587117  0.055473  1
  Y  Y3  1  0.413557  0.206778  0.055069  1
  Y  Y4  1  0.793381  0.206949  0.444190  1
  Y  Y5  1  0.793381  0.586432  0.444190  1
  Y  Y6  1  0.413663  0.206831  0.444271  1
  Y  Y7  1  0.208957  0.790911  0.559558  1
  Y  Y8  1  0.208957  0.418045  0.559559  1
  Y  Y9  1  0.580454  0.790226  0.559337  1
  Y  Y10  1  0.538928  0.460668  0.750585  1
  Y  Y11  1  0.538928  0.078261  0.750585  1
  Y  Y12  1  0.922737  0.461369  0.750974  1
  Y  Y13  1  0.456837  0.542603  0.249508  1
  Y  Y14  1  0.456838  0.914234  0.249508  1
  Y  Y15  1  0.086615  0.543306  0.249030  1
  Y  Y16  1  0.001421  0.000710  0.998574  1
  Y  Y17  1  0.000022  0.000011  0.499306  1
  Ho  Ho18  1  0.209322  0.790390  0.941232  1
  Ho  Ho19  1  0.209322  0.418933  0.941231  1
  Tc  Tc20  1  0.330776  0.665388  0.752314  1
  Ag  Ag21  1  0.881736  0.118160  0.750038  1
  Ag  Ag22  1  0.881735  0.763577  0.750038  1
  Ag  Ag23  1  0.236563  0.118282  0.749687  1
  Ag  Ag24  1  0.116405  0.883340  0.249522  1
  Ag  Ag25  1  0.116405  0.233066  0.249522  1
  Ag  Ag26  1  0.767295  0.883648  0.249895  1
  Pd  Pd27  1  0.666453  0.333227  0.249447  1
