# generated using pymatgen
data_NaF7
_symmetry_space_group_name_H-M   'P 1'
_cell_length_a   3.82844272
_cell_length_b   4.55553049
_cell_length_c   9.11587734
_cell_angle_alpha   90.24579148
_cell_angle_beta   89.48267556
_cell_angle_gamma   119.52273531
_symmetry_Int_Tables_number   1
_chemical_formula_structural   NaF7
_chemical_formula_sum   'Na1 F7'
_cell_volume   138.33787646
_cell_formula_units_Z   1
loop_
 _symmetry_equiv_pos_site_id
 _symmetry_equiv_pos_as_xyz
  1  'x, y, z'
loop_
 _atom_site_type_symbol
 _atom_site_label
 _atom_site_symmetry_multiplicity
 _atom_site_fract_x
 _atom_site_fract_y
 _atom_site_fract_z
 _atom_site_occupancy
  Na  Na0  1  0.603769  0.813854  0.122324  1
  F  F1  1  0.078441  0.570401  0.952667  1
  F  F2  1  0.544750  0.520457  0.364733  1
  F  F3  1  0.651823  0.043642  0.734785  1
  F  F4  1  0.272373  0.112677  0.189330  1
  F  F5  1  0.733826  0.799942  0.468168  1
  F  F6  1  0.824242  0.869873  0.810610  1
  F  F7  1  0.691725  0.351905  0.061723  1
