# generated using pymatgen
data_Nd6IrAu
_symmetry_space_group_name_H-M   'P 1'
_cell_length_a   6.63130400
_cell_length_b   7.39488800
_cell_length_c   10.05101000
_cell_angle_alpha   90.00000000
_cell_angle_beta   90.00000000
_cell_angle_gamma   90.00000000
_symmetry_Int_Tables_number   1
_chemical_formula_structural   Nd6IrAu
_chemical_formula_sum   'Nd12 Ir2 Au2'
_cell_volume   492.87891939
_cell_formula_units_Z   2
loop_
 _symmetry_equiv_pos_site_id
 _symmetry_equiv_pos_as_xyz
  1  'x, y, z'
loop_
 _atom_site_type_symbol
 _atom_site_label
 _atom_site_symmetry_multiplicity
 _atom_site_fract_x
 _atom_site_fract_y
 _atom_site_fract_z
 _atom_site_occupancy
  Nd  Nd0  1  0.662162  0.165417  0.437943  1
  Nd  Nd1  1  0.162162  0.334583  0.562057  1
  Nd  Nd2  1  0.826047  0.688289  0.057649  1
  Nd  Nd3  1  0.326047  0.811711  0.942351  1
  Nd  Nd4  1  0.150151  0.020864  0.250000  1
  Nd  Nd5  1  0.650151  0.479136  0.750000  1
  Nd  Nd6  1  0.375408  0.536748  0.250000  1
  Nd  Nd7  1  0.875408  0.963252  0.750000  1
  Nd  Nd8  1  0.662162  0.165417  0.062057  1
  Nd  Nd9  1  0.162162  0.334583  0.937943  1
  Nd  Nd10  1  0.826047  0.688289  0.442351  1
  Nd  Nd11  1  0.326047  0.811711  0.557649  1
  Ir  Ir12  1  0.066441  0.619612  0.750000  1
  Ir  Ir13  1  0.566441  0.880388  0.250000  1
  Au  Au14  1  0.431580  0.112887  0.750000  1
  Au  Au15  1  0.931580  0.387113  0.250000  1
