# generated using pymatgen
data_Pa2RuC2
_symmetry_space_group_name_H-M   'P 1'
_cell_length_a   3.55783389
_cell_length_b   3.55783472
_cell_length_c   6.81226700
_cell_angle_alpha   105.13736681
_cell_angle_beta   105.13737043
_cell_angle_gamma   90.00001444
_symmetry_Int_Tables_number   1
_chemical_formula_structural   Pa2RuC2
_chemical_formula_sum   'Pa2 Ru1 C2'
_cell_volume   80.13530834
_cell_formula_units_Z   1
loop_
 _symmetry_equiv_pos_site_id
 _symmetry_equiv_pos_as_xyz
  1  'x, y, z'
loop_
 _atom_site_type_symbol
 _atom_site_label
 _atom_site_symmetry_multiplicity
 _atom_site_fract_x
 _atom_site_fract_y
 _atom_site_fract_z
 _atom_site_occupancy
  Pa  Pa0  1  0.645670  0.645670  0.291340  1
  Pa  Pa1  1  0.354330  0.354330  0.708660  1
  Ru  Ru2  1  0.000000  0.000000  0.000000  1
  C  C3  1  0.170284  0.170283  0.340566  1
  C  C4  1  0.829716  0.829717  0.659434  1
