# generated using pymatgen
data_Ba2LaGaO5
_symmetry_space_group_name_H-M   'P 1'
_cell_length_a   6.29277200
_cell_length_b   8.01790582
_cell_length_c   13.01879133
_cell_angle_alpha   91.18881627
_cell_angle_beta   90.00000000
_cell_angle_gamma   90.00000000
_symmetry_Int_Tables_number   1
_chemical_formula_structural   Ba2LaGaO5
_chemical_formula_sum   'Ba8 La4 Ga4 O20'
_cell_volume   656.71981748
_cell_formula_units_Z   4
loop_
 _symmetry_equiv_pos_site_id
 _symmetry_equiv_pos_as_xyz
  1  'x, y, z'
loop_
 _atom_site_type_symbol
 _atom_site_label
 _atom_site_symmetry_multiplicity
 _atom_site_fract_x
 _atom_site_fract_y
 _atom_site_fract_z
 _atom_site_occupancy
  Ba  Ba0  1  0.771536  0.475260  0.337906  1
  Ba  Ba1  1  0.728464  0.975260  0.837906  1
  Ba  Ba2  1  0.228464  0.524740  0.662094  1
  Ba  Ba3  1  0.271536  0.024740  0.162094  1
  Ba  Ba4  1  0.764510  0.991484  0.378681  1
  Ba  Ba5  1  0.735490  0.491484  0.878681  1
  Ba  Ba6  1  0.235490  0.008516  0.621319  1
  Ba  Ba7  1  0.264510  0.508516  0.121319  1
  La  La8  1  0.748435  0.274699  0.622127  1
  La  La9  1  0.751565  0.774699  0.122127  1
  La  La10  1  0.251565  0.725301  0.377873  1
  La  La11  1  0.248435  0.225301  0.877873  1
  Ga  Ga12  1  0.730767  0.744521  0.584683  1
  Ga  Ga13  1  0.769233  0.244521  0.084683  1
  Ga  Ga14  1  0.269233  0.255479  0.415317  1
  Ga  Ga15  1  0.230767  0.755479  0.915317  1
  O  O16  1  0.776648  0.968494  0.627903  1
  O  O17  1  0.723352  0.468494  0.127903  1
  O  O18  1  0.223352  0.031506  0.372097  1
  O  O19  1  0.276648  0.531506  0.872097  1
  O  O20  1  0.720594  0.079772  0.181797  1
  O  O21  1  0.779406  0.579772  0.681797  1
  O  O22  1  0.279406  0.920228  0.818203  1
  O  O23  1  0.220594  0.420228  0.318203  1
  O  O24  1  0.557700  0.745121  0.278744  1
  O  O25  1  0.942300  0.245121  0.778744  1
  O  O26  1  0.442300  0.254879  0.721256  1
  O  O27  1  0.057700  0.754879  0.221256  1
  O  O28  1  0.575653  0.214325  0.974706  1
  O  O29  1  0.924347  0.714325  0.474706  1
  O  O30  1  0.424347  0.785675  0.025294  1
  O  O31  1  0.075653  0.285675  0.525294  1
  O  O32  1  0.053820  0.234602  0.038944  1
  O  O33  1  0.446180  0.734602  0.538944  1
  O  O34  1  0.946180  0.765398  0.961056  1
  O  O35  1  0.553820  0.265398  0.461056  1
