# generated using pymatgen
data_Pr8Dy12Si15Se
_symmetry_space_group_name_H-M   'P 1'
_cell_length_a   7.55610440
_cell_length_b   7.86438328
_cell_length_c   14.83726200
_cell_angle_alpha   90.00000000
_cell_angle_beta   90.00000000
_cell_angle_gamma   90.70384121
_symmetry_Int_Tables_number   1
_chemical_formula_structural   Pr8Dy12Si15Se
_chemical_formula_sum   'Pr8 Dy12 Si15 Se1'
_cell_volume   881.62443282
_cell_formula_units_Z   1
loop_
 _symmetry_equiv_pos_site_id
 _symmetry_equiv_pos_as_xyz
  1  'x, y, z'
loop_
 _atom_site_type_symbol
 _atom_site_label
 _atom_site_symmetry_multiplicity
 _atom_site_fract_x
 _atom_site_fract_y
 _atom_site_fract_z
 _atom_site_occupancy
  Pr  Pr0  1  0.021489  0.181452  0.402203  1
  Pr  Pr1  1  0.519641  0.319838  0.402571  1
  Pr  Pr2  1  0.488315  0.670545  0.906724  1
  Pr  Pr3  1  0.488315  0.670545  0.593276  1
  Pr  Pr4  1  0.981306  0.822740  0.600348  1
  Pr  Pr5  1  0.981306  0.822740  0.899652  1
  Pr  Pr6  1  0.519641  0.319838  0.097429  1
  Pr  Pr7  1  0.021489  0.181452  0.097797  1
  Dy  Dy8  1  0.318017  0.176873  0.624801  1
  Dy  Dy9  1  0.677420  0.823076  0.376539  1
  Dy  Dy10  1  0.662965  0.988772  0.750000  1
  Dy  Dy11  1  0.176259  0.679946  0.376857  1
  Dy  Dy12  1  0.816168  0.325306  0.878562  1
  Dy  Dy13  1  0.816168  0.325306  0.621438  1
  Dy  Dy14  1  0.843057  0.488761  0.250000  1
  Dy  Dy15  1  0.345772  0.012858  0.250000  1
  Dy  Dy16  1  0.318017  0.176873  0.875199  1
  Dy  Dy17  1  0.176259  0.679946  0.123143  1
  Dy  Dy18  1  0.677420  0.823076  0.123461  1
  Dy  Dy19  1  0.151277  0.501034  0.750000  1
  Si  Si20  1  0.468991  0.611577  0.250000  1
  Si  Si21  1  0.011376  0.138589  0.750000  1
  Si  Si22  1  0.525093  0.385991  0.750000  1
  Si  Si23  1  0.146636  0.470252  0.540596  1
  Si  Si24  1  0.971153  0.890289  0.250000  1
  Si  Si25  1  0.727856  0.121030  0.250000  1
  Si  Si26  1  0.853195  0.534680  0.040055  1
  Si  Si27  1  0.353550  0.967694  0.037658  1
  Si  Si28  1  0.146636  0.470252  0.959404  1
  Si  Si29  1  0.643598  0.028744  0.541199  1
  Si  Si30  1  0.353550  0.967694  0.462342  1
  Si  Si31  1  0.853195  0.534680  0.459945  1
  Si  Si32  1  0.775070  0.624794  0.750000  1
  Si  Si33  1  0.227138  0.380596  0.250000  1
  Si  Si34  1  0.643598  0.028744  0.958801  1
  Se  Se35  1  0.299064  0.853414  0.750000  1
