# generated using pymatgen
data_Gd2MnOs3
_symmetry_space_group_name_H-M   'P 1'
_cell_length_a   5.28044100
_cell_length_b   5.24499410
_cell_length_c   8.78966100
_cell_angle_alpha   90.00000000
_cell_angle_beta   90.00000000
_cell_angle_gamma   120.22381985
_symmetry_Int_Tables_number   1
_chemical_formula_structural   Gd2MnOs3
_chemical_formula_sum   'Gd4 Mn2 Os6'
_cell_volume   210.34589546
_cell_formula_units_Z   2
loop_
 _symmetry_equiv_pos_site_id
 _symmetry_equiv_pos_as_xyz
  1  'x, y, z'
loop_
 _atom_site_type_symbol
 _atom_site_label
 _atom_site_symmetry_multiplicity
 _atom_site_fract_x
 _atom_site_fract_y
 _atom_site_fract_z
 _atom_site_occupancy
  Gd  Gd0  1  0.336303  0.666787  0.063375  1
  Gd  Gd1  1  0.669515  0.333213  0.936625  1
  Gd  Gd2  1  0.336303  0.666787  0.436625  1
  Gd  Gd3  1  0.669515  0.333213  0.563375  1
  Mn  Mn4  1  0.656654  0.828661  0.750000  1
  Mn  Mn5  1  0.827992  0.171339  0.250000  1
  Os  Os6  1  0.006143  0.000000  0.500000  1
  Os  Os7  1  0.006143  0.000000  0.000000  1
  Os  Os8  1  0.823962  0.656836  0.250000  1
  Os  Os9  1  0.167127  0.343164  0.750000  1
  Os  Os10  1  0.336439  0.172537  0.250000  1
  Os  Os11  1  0.163903  0.827463  0.750000  1
