# generated using pymatgen
data_Tb2Nd3(TcB3)2
_symmetry_space_group_name_H-M   'P 1'
_cell_length_a   8.71445148
_cell_length_b   8.71445147
_cell_length_c   8.71445166
_cell_angle_alpha   37.31656927
_cell_angle_beta   37.31657020
_cell_angle_gamma   37.31656168
_symmetry_Int_Tables_number   1
_chemical_formula_structural   Tb2Nd3(TcB3)2
_chemical_formula_sum   'Tb2 Nd3 Tc2 B6'
_cell_volume   218.04275767
_cell_formula_units_Z   1
loop_
 _symmetry_equiv_pos_site_id
 _symmetry_equiv_pos_as_xyz
  1  'x, y, z'
loop_
 _atom_site_type_symbol
 _atom_site_label
 _atom_site_symmetry_multiplicity
 _atom_site_fract_x
 _atom_site_fract_y
 _atom_site_fract_z
 _atom_site_occupancy
  Tb  Tb0  1  0.578829  0.578829  0.578829  1
  Tb  Tb1  1  0.421171  0.421171  0.421171  1
  Nd  Nd2  1  0.749246  0.749246  0.749246  1
  Nd  Nd3  1  0.250754  0.250754  0.250754  1
  Nd  Nd4  1  0.000000  0.000000  0.000000  1
  Tc  Tc5  1  0.886511  0.886511  0.886511  1
  Tc  Tc6  1  0.113489  0.113489  0.113489  1
  B  B7  1  0.500000  0.831382  0.168618  1
  B  B8  1  0.168618  0.500000  0.831382  1
  B  B9  1  0.831382  0.168618  0.500000  1
  B  B10  1  0.500000  0.168618  0.831382  1
  B  B11  1  0.831382  0.500000  0.168618  1
  B  B12  1  0.168618  0.831382  0.500000  1
