# generated using pymatgen
data_La10FeTcI15
_symmetry_space_group_name_H-M   'P 1'
_cell_length_a   10.16516069
_cell_length_b   11.20104767
_cell_length_c   11.99757600
_cell_angle_alpha   91.89179718
_cell_angle_beta   114.00698861
_cell_angle_gamma   110.39833605
_symmetry_Int_Tables_number   1
_chemical_formula_structural   La10FeTcI15
_chemical_formula_sum   'La10 Fe1 Tc1 I15'
_cell_volume   1144.98965734
_cell_formula_units_Z   1
loop_
 _symmetry_equiv_pos_site_id
 _symmetry_equiv_pos_as_xyz
  1  'x, y, z'
loop_
 _atom_site_type_symbol
 _atom_site_label
 _atom_site_symmetry_multiplicity
 _atom_site_fract_x
 _atom_site_fract_y
 _atom_site_fract_z
 _atom_site_occupancy
  La  La0  1  0.215804  0.588581  0.058116  1
  La  La1  1  0.776751  0.423157  0.950978  1
  La  La2  1  0.301244  0.905332  0.273890  1
  La  La3  1  0.702517  0.095226  0.726439  1
  La  La4  1  0.090249  0.546639  0.333700  1
  La  La5  1  0.909713  0.450166  0.668673  1
  La  La6  1  0.854388  0.741268  0.170306  1
  La  La7  1  0.163324  0.251544  0.824533  1
  La  La8  1  0.973695  0.796274  0.902313  1
  La  La9  1  0.023790  0.204877  0.093926  1
  Fe  Fe10  1  0.024695  0.680031  0.123212  1
  Tc  Tc11  1  0.969157  0.317447  0.874883  1
  I  I12  1  0.335940  0.443599  0.298449  1
  I  I13  1  0.661933  0.555688  0.699679  1
  I  I14  1  0.207304  0.734277  0.816879  1
  I  I15  1  0.790155  0.264020  0.183969  1
  I  I16  1  0.143574  0.386213  0.583242  1
  I  I17  1  0.857305  0.612578  0.416838  1
  I  I18  1  0.389142  0.801776  0.531689  1
  I  I19  1  0.610319  0.198116  0.468359  1
  I  I20  1  0.264670  0.088691  0.054475  1
  I  I21  1  0.735158  0.911866  0.945900  1
  I  I22  1  0.560572  0.840872  0.224422  1
  I  I23  1  0.439245  0.160073  0.776443  1
  I  I24  1  0.093315  0.038167  0.334143  1
  I  I25  1  0.908225  0.960748  0.663298  1
  I  I26  1  0.497819  0.502775  0.001245  1
