# generated using pymatgen
data_Dy7Th(CoHg)2
_symmetry_space_group_name_H-M   'P 1'
_cell_length_a   9.51404671
_cell_length_b   9.51404669
_cell_length_c   9.52623400
_cell_angle_alpha   59.95760950
_cell_angle_beta   59.95760956
_cell_angle_gamma   60.08116462
_symmetry_Int_Tables_number   1
_chemical_formula_structural   Dy7Th(CoHg)2
_chemical_formula_sum   'Dy14 Th2 Co4 Hg4'
_cell_volume   609.71037898
_cell_formula_units_Z   2
loop_
 _symmetry_equiv_pos_site_id
 _symmetry_equiv_pos_as_xyz
  1  'x, y, z'
loop_
 _atom_site_type_symbol
 _atom_site_label
 _atom_site_symmetry_multiplicity
 _atom_site_fract_x
 _atom_site_fract_y
 _atom_site_fract_z
 _atom_site_occupancy
  Dy  Dy0  1  0.599969  0.199997  0.600018  1
  Dy  Dy1  1  0.199997  0.599969  0.600018  1
  Dy  Dy2  1  0.062625  0.438724  0.437822  1
  Dy  Dy3  1  0.438724  0.062625  0.060830  1
  Dy  Dy4  1  0.438724  0.062625  0.437822  1
  Dy  Dy5  1  0.062625  0.438724  0.060830  1
  Dy  Dy6  1  0.437065  0.437065  0.062935  1
  Dy  Dy7  1  0.062489  0.062489  0.437511  1
  Dy  Dy8  1  0.188535  0.812716  0.813249  1
  Dy  Dy9  1  0.812716  0.188535  0.185499  1
  Dy  Dy10  1  0.812716  0.188535  0.813249  1
  Dy  Dy11  1  0.188535  0.812716  0.185499  1
  Dy  Dy12  1  0.812996  0.812996  0.187004  1
  Dy  Dy13  1  0.189063  0.189063  0.810937  1
  Th  Th14  1  0.592228  0.592228  0.597844  1
  Th  Th15  1  0.592228  0.592228  0.217700  1
  Co  Co16  1  0.394193  0.394193  0.389566  1
  Co  Co17  1  0.394193  0.394193  0.822050  1
  Co  Co18  1  0.398556  0.819803  0.390821  1
  Co  Co19  1  0.819803  0.398556  0.390821  1
  Hg  Hg20  1  0.835127  0.835127  0.832198  1
  Hg  Hg21  1  0.835127  0.835127  0.497547  1
  Hg  Hg22  1  0.836728  0.495042  0.834115  1
  Hg  Hg23  1  0.495042  0.836728  0.834115  1
