# generated using pymatgen
data_YbY3IrRh3O14
_symmetry_space_group_name_H-M   'P 1'
_cell_length_a   7.23756221
_cell_length_b   7.23756256
_cell_length_c   7.24598596
_cell_angle_alpha   59.87076625
_cell_angle_beta   59.87076458
_cell_angle_gamma   59.83539931
_symmetry_Int_Tables_number   1
_chemical_formula_structural   YbY3IrRh3O14
_chemical_formula_sum   'Yb1 Y3 Ir1 Rh3 O14'
_cell_volume   267.53152949
_cell_formula_units_Z   1
loop_
 _symmetry_equiv_pos_site_id
 _symmetry_equiv_pos_as_xyz
  1  'x, y, z'
loop_
 _atom_site_type_symbol
 _atom_site_label
 _atom_site_symmetry_multiplicity
 _atom_site_fract_x
 _atom_site_fract_y
 _atom_site_fract_z
 _atom_site_occupancy
  Yb  Yb0  1  0.125000  0.125000  0.625000  1
  Y  Y1  1  0.625000  0.125000  0.125000  1
  Y  Y2  1  0.125000  0.625000  0.125000  1
  Y  Y3  1  0.125000  0.125000  0.125000  1
  Ir  Ir4  1  0.625000  0.625000  0.625000  1
  Rh  Rh5  1  0.125000  0.625000  0.625000  1
  Rh  Rh6  1  0.625000  0.125000  0.625000  1
  Rh  Rh7  1  0.625000  0.625000  0.125000  1
  O  O8  1  0.707596  0.707596  0.293952  1
  O  O9  1  0.290672  0.290672  0.710704  1
  O  O10  1  0.701869  0.296955  0.709270  1
  O  O11  1  0.288910  0.709138  0.287946  1
  O  O12  1  0.296955  0.701869  0.709270  1
  O  O13  1  0.709138  0.288910  0.287946  1
  O  O14  1  0.542404  0.542404  0.956048  1
  O  O15  1  0.959328  0.959328  0.539296  1
  O  O16  1  0.548131  0.953045  0.540730  1
  O  O17  1  0.961090  0.540862  0.962054  1
  O  O18  1  0.953045  0.548131  0.540730  1
  O  O19  1  0.540862  0.961090  0.962054  1
  O  O20  1  0.252456  0.252456  0.245190  1
  O  O21  1  0.997544  0.997544  0.004810  1
