# generated using pymatgen
data_Er10Ir3Os
_symmetry_space_group_name_H-M   'P 1'
_cell_length_a   6.43889188
_cell_length_b   7.21265235
_cell_length_c   8.38030773
_cell_angle_alpha   96.46613427
_cell_angle_beta   112.30133301
_cell_angle_gamma   89.98475450
_symmetry_Int_Tables_number   1
_chemical_formula_structural   Er10Ir3Os
_chemical_formula_sum   'Er10 Ir3 Os1'
_cell_volume   357.40998343
_cell_formula_units_Z   1
loop_
 _symmetry_equiv_pos_site_id
 _symmetry_equiv_pos_as_xyz
  1  'x, y, z'
loop_
 _atom_site_type_symbol
 _atom_site_label
 _atom_site_symmetry_multiplicity
 _atom_site_fract_x
 _atom_site_fract_y
 _atom_site_fract_z
 _atom_site_occupancy
  Er  Er0  1  0.428244  0.749621  0.000468  1
  Er  Er1  1  0.573925  0.251418  0.000775  1
  Er  Er2  1  0.971313  0.917566  0.183150  1
  Er  Er3  1  0.210928  0.418878  0.183503  1
  Er  Er4  1  0.655215  0.816457  0.439630  1
  Er  Er5  1  0.786732  0.318332  0.439905  1
  Er  Er6  1  0.346468  0.182671  0.559351  1
  Er  Er7  1  0.210684  0.682250  0.557410  1
  Er  Er8  1  0.028575  0.081432  0.817707  1
  Er  Er9  1  0.789342  0.581482  0.820061  1
  Ir  Ir10  1  0.392028  0.073489  0.219106  1
  Ir  Ir11  1  0.607054  0.927164  0.780591  1
  Ir  Ir12  1  0.173536  0.425788  0.780906  1
  Os  Os13  1  0.825956  0.573452  0.217436  1
