# generated using pymatgen
data_Dy12InCo4Ni
_symmetry_space_group_name_H-M   'P 1'
_cell_length_a   8.30221010
_cell_length_b   8.30221065
_cell_length_c   8.30221034
_cell_angle_alpha   110.73086629
_cell_angle_beta   110.66480581
_cell_angle_gamma   107.04490692
_symmetry_Int_Tables_number   1
_chemical_formula_structural   Dy12InCo4Ni
_chemical_formula_sum   'Dy12 In1 Co4 Ni1'
_cell_volume   439.92408849
_cell_formula_units_Z   1
loop_
 _symmetry_equiv_pos_site_id
 _symmetry_equiv_pos_as_xyz
  1  'x, y, z'
loop_
 _atom_site_type_symbol
 _atom_site_label
 _atom_site_symmetry_multiplicity
 _atom_site_fract_x
 _atom_site_fract_y
 _atom_site_fract_z
 _atom_site_occupancy
  Dy  Dy0  1  0.404903  0.210750  0.194154  1
  Dy  Dy1  1  0.595097  0.789250  0.805846  1
  Dy  Dy2  1  0.016597  0.210750  0.805846  1
  Dy  Dy3  1  0.983403  0.789250  0.194154  1
  Dy  Dy4  1  0.185721  0.293165  0.478886  1
  Dy  Dy5  1  0.814279  0.706835  0.521114  1
  Dy  Dy6  1  0.185721  0.706835  0.892556  1
  Dy  Dy7  1  0.814279  0.293165  0.107444  1
  Dy  Dy8  1  0.316186  0.622025  0.305839  1
  Dy  Dy9  1  0.683814  0.377975  0.694161  1
  Dy  Dy10  1  0.316186  0.010347  0.694161  1
  Dy  Dy11  1  0.683814  0.989653  0.305839  1
  In  In12  1  0.500000  0.500000  0.000000  1
  Co  Co13  1  0.376722  0.000000  0.376722  1
  Co  Co14  1  0.623278  0.000000  0.623278  1
  Co  Co15  1  0.112381  0.612381  0.500000  1
  Co  Co16  1  0.887619  0.387619  0.500000  1
  Ni  Ni17  1  0.000000  0.000000  0.000000  1
