# generated using pymatgen
data_HoPa(CoSi2)2
_symmetry_space_group_name_H-M   'P 1'
_cell_length_a   8.37718551
_cell_length_b   8.37718523
_cell_length_c   3.94940900
_cell_angle_alpha   90.00000000
_cell_angle_beta   90.00000000
_cell_angle_gamma   152.57300750
_symmetry_Int_Tables_number   1
_chemical_formula_structural   HoPa(CoSi2)2
_chemical_formula_sum   'Ho1 Pa1 Co2 Si4'
_cell_volume   127.66423854
_cell_formula_units_Z   1
loop_
 _symmetry_equiv_pos_site_id
 _symmetry_equiv_pos_as_xyz
  1  'x, y, z'
loop_
 _atom_site_type_symbol
 _atom_site_label
 _atom_site_symmetry_multiplicity
 _atom_site_fract_x
 _atom_site_fract_y
 _atom_site_fract_z
 _atom_site_occupancy
  Ho  Ho0  1  0.893251  0.106749  0.750000  1
  Pa  Pa1  1  0.108754  0.891246  0.250000  1
  Co  Co2  1  0.321116  0.678884  0.250000  1
  Co  Co3  1  0.675029  0.324971  0.750000  1
  Si  Si4  1  0.250824  0.749176  0.750000  1
  Si  Si5  1  0.752529  0.247471  0.250000  1
  Si  Si6  1  0.539592  0.460408  0.750000  1
  Si  Si7  1  0.458904  0.541096  0.250000  1
