# generated using pymatgen
data_Er16MgCd3(IrPd)2
_symmetry_space_group_name_H-M   'P 1'
_cell_length_a   9.62538019
_cell_length_b   9.62538106
_cell_length_c   9.56244444
_cell_angle_alpha   59.75650243
_cell_angle_beta   59.75649751
_cell_angle_gamma   60.17154315
_symmetry_Int_Tables_number   1
_chemical_formula_structural   Er16MgCd3(IrPd)2
_chemical_formula_sum   'Er16 Mg1 Cd3 Ir2 Pd2'
_cell_volume   624.93832661
_cell_formula_units_Z   1
loop_
 _symmetry_equiv_pos_site_id
 _symmetry_equiv_pos_as_xyz
  1  'x, y, z'
loop_
 _atom_site_type_symbol
 _atom_site_label
 _atom_site_symmetry_multiplicity
 _atom_site_fract_x
 _atom_site_fract_y
 _atom_site_fract_z
 _atom_site_occupancy
  Er  Er0  1  0.600532  0.600532  0.594924  1
  Er  Er1  1  0.600820  0.600820  0.204404  1
  Er  Er2  1  0.609282  0.191268  0.600689  1
  Er  Er3  1  0.191268  0.609282  0.600689  1
  Er  Er4  1  0.054949  0.442564  0.438434  1
  Er  Er5  1  0.438998  0.058340  0.065150  1
  Er  Er6  1  0.442564  0.054949  0.438434  1
  Er  Er7  1  0.058340  0.438998  0.065150  1
  Er  Er8  1  0.441213  0.441213  0.057864  1
  Er  Er9  1  0.062908  0.062908  0.436021  1
  Er  Er10  1  0.187836  0.818194  0.812202  1
  Er  Er11  1  0.816231  0.187008  0.186194  1
  Er  Er12  1  0.818194  0.187836  0.812202  1
  Er  Er13  1  0.187008  0.816231  0.186194  1
  Er  Er14  1  0.816112  0.816112  0.185907  1
  Er  Er15  1  0.186574  0.186574  0.813297  1
  Mg  Mg16  1  0.826327  0.826327  0.828272  1
  Cd  Cd17  1  0.830757  0.830757  0.504282  1
  Cd  Cd18  1  0.829457  0.504991  0.832336  1
  Cd  Cd19  1  0.504991  0.829457  0.832336  1
  Ir  Ir20  1  0.389228  0.822694  0.394526  1
  Ir  Ir21  1  0.822694  0.389228  0.394526  1
  Pd  Pd22  1  0.391773  0.391773  0.397849  1
  Pd  Pd23  1  0.391942  0.391942  0.818117  1
