# generated using pymatgen
data_NaV6InTe6
_symmetry_space_group_name_H-M   'P 1'
_cell_length_a   4.49091100
_cell_length_b   9.25958566
_cell_length_c   9.50261053
_cell_angle_alpha   119.50810043
_cell_angle_beta   90.00000000
_cell_angle_gamma   90.00000000
_symmetry_Int_Tables_number   1
_chemical_formula_structural   NaV6InTe6
_chemical_formula_sum   'Na1 V6 In1 Te6'
_cell_volume   343.89904025
_cell_formula_units_Z   1
loop_
 _symmetry_equiv_pos_site_id
 _symmetry_equiv_pos_as_xyz
  1  'x, y, z'
loop_
 _atom_site_type_symbol
 _atom_site_label
 _atom_site_symmetry_multiplicity
 _atom_site_fract_x
 _atom_site_fract_y
 _atom_site_fract_z
 _atom_site_occupancy
  Na  Na0  1  0.750000  0.667165  0.326403  1
  V  V1  1  0.750000  0.957280  0.806854  1
  V  V2  1  0.750000  0.191011  0.161602  1
  V  V3  1  0.750000  0.891512  0.022869  1
  V  V4  1  0.250000  0.042602  0.188829  1
  V  V5  1  0.250000  0.812712  0.844182  1
  V  V6  1  0.250000  0.110721  0.977432  1
  In  In7  1  0.250000  0.325676  0.667603  1
  Te  Te8  1  0.750000  0.625927  0.698637  1
  Te  Te9  1  0.750000  0.291696  0.937989  1
  Te  Te10  1  0.750000  0.063365  0.367029  1
  Te  Te11  1  0.250000  0.377763  0.307219  1
  Te  Te12  1  0.250000  0.706062  0.061808  1
  Te  Te13  1  0.250000  0.936508  0.631544  1
