# generated using pymatgen
data_Ho6AlFeTc
_symmetry_space_group_name_H-M   'P 1'
_cell_length_a   8.39428348
_cell_length_b   8.39428404
_cell_length_c   8.39428300
_cell_angle_alpha   112.18949606
_cell_angle_beta   111.86398609
_cell_angle_gamma   104.47303871
_symmetry_Int_Tables_number   1
_chemical_formula_structural   Ho6AlFeTc
_chemical_formula_sum   'Ho12 Al2 Fe2 Tc2'
_cell_volume   452.76028812
_cell_formula_units_Z   2
loop_
 _symmetry_equiv_pos_site_id
 _symmetry_equiv_pos_as_xyz
  1  'x, y, z'
loop_
 _atom_site_type_symbol
 _atom_site_label
 _atom_site_symmetry_multiplicity
 _atom_site_fract_x
 _atom_site_fract_y
 _atom_site_fract_z
 _atom_site_occupancy
  Ho  Ho0  1  0.438737  0.245537  0.193202  1
  Ho  Ho1  1  0.561263  0.754463  0.806798  1
  Ho  Ho2  1  0.052334  0.245537  0.806798  1
  Ho  Ho3  1  0.947666  0.754463  0.193202  1
  Ho  Ho4  1  0.183673  0.280120  0.463794  1
  Ho  Ho5  1  0.816327  0.719880  0.536206  1
  Ho  Ho6  1  0.183673  0.719880  0.903553  1
  Ho  Ho7  1  0.816327  0.280120  0.096447  1
  Ho  Ho8  1  0.327347  0.644824  0.317478  1
  Ho  Ho9  1  0.672653  0.355176  0.682522  1
  Ho  Ho10  1  0.327347  0.009868  0.682522  1
  Ho  Ho11  1  0.672653  0.990132  0.317478  1
  Al  Al12  1  0.500000  0.500000  0.000000  1
  Al  Al13  1  0.000000  0.000000  0.000000  1
  Fe  Fe14  1  0.105614  0.605614  0.500000  1
  Fe  Fe15  1  0.894386  0.394386  0.500000  1
  Tc  Tc16  1  0.316664  0.000000  0.316664  1
  Tc  Tc17  1  0.683336  0.000000  0.683336  1
