# generated using pymatgen
data_Tm3ZnSn3Ir2
_symmetry_space_group_name_H-M   'P 1'
_cell_length_a   7.51821200
_cell_length_b   7.51821150
_cell_length_c   3.91761300
_cell_angle_alpha   90.00000000
_cell_angle_beta   90.00000000
_cell_angle_gamma   120.00000222
_symmetry_Int_Tables_number   1
_chemical_formula_structural   Tm3ZnSn3Ir2
_chemical_formula_sum   'Tm3 Zn1 Sn3 Ir2'
_cell_volume   191.77026161
_cell_formula_units_Z   1
loop_
 _symmetry_equiv_pos_site_id
 _symmetry_equiv_pos_as_xyz
  1  'x, y, z'
loop_
 _atom_site_type_symbol
 _atom_site_label
 _atom_site_symmetry_multiplicity
 _atom_site_fract_x
 _atom_site_fract_y
 _atom_site_fract_z
 _atom_site_occupancy
  Tm  Tm0  1  0.982280  0.389227  0.500000  1
  Tm  Tm1  1  0.610773  0.593053  0.500000  1
  Tm  Tm2  1  0.406947  0.017720  0.500000  1
  Zn  Zn3  1  0.333333  0.666667  0.000000  1
  Sn  Sn4  1  0.002788  0.740972  0.000000  1
  Sn  Sn5  1  0.259028  0.261816  0.000000  1
  Sn  Sn6  1  0.738184  0.997212  0.000000  1
  Ir  Ir7  1  0.666667  0.333333  0.000000  1
  Ir  Ir8  1  0.000000  0.000000  0.500000  1
