# generated using pymatgen
data_Ba4Al2ZnCrH20
_symmetry_space_group_name_H-M   'P 1'
_cell_length_a   4.76902363
_cell_length_b   5.37087786
_cell_length_c   12.88459696
_cell_angle_alpha   94.54035262
_cell_angle_beta   90.64673459
_cell_angle_gamma   90.03945804
_symmetry_Int_Tables_number   1
_chemical_formula_structural   Ba4Al2ZnCrH20
_chemical_formula_sum   'Ba4 Al2 Zn1 Cr1 H20'
_cell_volume   328.96700431
_cell_formula_units_Z   1
loop_
 _symmetry_equiv_pos_site_id
 _symmetry_equiv_pos_as_xyz
  1  'x, y, z'
loop_
 _atom_site_type_symbol
 _atom_site_label
 _atom_site_symmetry_multiplicity
 _atom_site_fract_x
 _atom_site_fract_y
 _atom_site_fract_z
 _atom_site_occupancy
  Ba  Ba0  1  0.280765  0.178954  0.656990  1
  Ba  Ba1  1  0.780096  0.318485  0.334036  1
  Ba  Ba2  1  0.238161  0.782584  0.144534  1
  Ba  Ba3  1  0.742495  0.721043  0.855886  1
  Al  Al4  1  0.169565  0.843018  0.410900  1
  Al  Al5  1  0.670258  0.652256  0.583155  1
  Zn  Zn6  1  0.239448  0.237203  0.938755  1
  Cr  Cr7  1  0.774169  0.261461  0.046645  1
  H  H8  1  0.533090  0.404445  0.510578  1
  H  H9  1  0.027451  0.089587  0.481122  1
  H  H10  1  0.938180  0.512437  0.015059  1
  H  H11  1  0.527897  0.052076  0.011104  1
  H  H12  1  0.255854  0.980585  0.843303  1
  H  H13  1  0.676737  0.463414  0.143695  1
  H  H14  1  0.310863  0.044337  0.325703  1
  H  H15  1  0.814835  0.452039  0.669746  1
  H  H16  1  0.254212  0.451731  0.842522  1
  H  H17  1  0.701339  0.081970  0.142415  1
  H  H18  1  0.288186  0.580219  0.339443  1
  H  H19  1  0.792945  0.918245  0.652932  1
  H  H20  1  0.764116  0.239256  0.917317  1
  H  H21  1  0.040552  0.285451  0.130705  1
  H  H22  1  0.880682  0.821893  0.322658  1
  H  H23  1  0.383011  0.673622  0.664981  1
  H  H24  1  0.960574  0.011512  0.011112  1
  H  H25  1  0.514217  0.444298  0.012848  1
  H  H26  1  0.470722  0.856775  0.497150  1
  H  H27  1  0.969583  0.641109  0.494706  1
