# generated using pymatgen
data_LiTm3As6Ir7
_symmetry_space_group_name_H-M   'P 1'
_cell_length_a   7.23979072
_cell_length_b   7.18490996
_cell_length_c   7.18491022
_cell_angle_alpha   109.31597471
_cell_angle_beta   109.62602462
_cell_angle_gamma   109.62602548
_symmetry_Int_Tables_number   1
_chemical_formula_structural   LiTm3As6Ir7
_chemical_formula_sum   'Li1 Tm3 As6 Ir7'
_cell_volume   287.15309757
_cell_formula_units_Z   1
loop_
 _symmetry_equiv_pos_site_id
 _symmetry_equiv_pos_as_xyz
  1  'x, y, z'
loop_
 _atom_site_type_symbol
 _atom_site_label
 _atom_site_symmetry_multiplicity
 _atom_site_fract_x
 _atom_site_fract_y
 _atom_site_fract_z
 _atom_site_occupancy
  Li  Li0  1  0.500000  0.000000  0.000000  1
  Tm  Tm1  1  0.000000  0.000000  0.500000  1
  Tm  Tm2  1  0.000000  0.500000  0.000000  1
  Tm  Tm3  1  0.500000  0.500000  0.500000  1
  As  As4  1  0.678743  0.688845  0.000000  1
  As  As5  1  0.321257  0.311155  0.000000  1
  As  As6  1  0.010102  0.688845  0.688845  1
  As  As7  1  0.989898  0.311155  0.311155  1
  As  As8  1  0.678743  0.000000  0.688845  1
  As  As9  1  0.321257  0.000000  0.311155  1
  Ir  Ir10  1  0.000000  0.000000  0.000000  1
  Ir  Ir11  1  0.249593  0.499187  0.749593  1
  Ir  Ir12  1  0.750407  0.250407  0.500813  1
  Ir  Ir13  1  0.500000  0.250407  0.749593  1
  Ir  Ir14  1  0.500000  0.749593  0.250407  1
  Ir  Ir15  1  0.750407  0.500813  0.250407  1
  Ir  Ir16  1  0.249593  0.749593  0.499187  1
