# generated using pymatgen
data_Co4AsIr7O24
_symmetry_space_group_name_H-M   'P 1'
_cell_length_a   4.51934046
_cell_length_b   10.36852425
_cell_length_c   9.02537370
_cell_angle_alpha   64.20038712
_cell_angle_beta   90.10971150
_cell_angle_gamma   90.04784931
_symmetry_Int_Tables_number   1
_chemical_formula_structural   Co4AsIr7O24
_chemical_formula_sum   'Co4 As1 Ir7 O24'
_cell_volume   380.76246296
_cell_formula_units_Z   1
loop_
 _symmetry_equiv_pos_site_id
 _symmetry_equiv_pos_as_xyz
  1  'x, y, z'
loop_
 _atom_site_type_symbol
 _atom_site_label
 _atom_site_symmetry_multiplicity
 _atom_site_fract_x
 _atom_site_fract_y
 _atom_site_fract_z
 _atom_site_occupancy
  Co  Co0  1  0.996289  0.998409  0.499276  1
  Co  Co1  1  0.500001  0.498143  0.000929  1
  Co  Co2  1  0.003711  0.998406  0.002322  1
  Co  Co3  1  0.500000  0.506065  0.496974  1
  As  As4  1  0.499991  0.832088  0.333954  1
  Ir  Ir5  1  0.997902  0.667822  0.668493  1
  Ir  Ir6  1  0.002092  0.667831  0.163669  1
  Ir  Ir7  1  0.997023  0.333216  0.331380  1
  Ir  Ir8  1  0.002977  0.333197  0.835414  1
  Ir  Ir9  1  0.499997  0.164414  0.167807  1
  Ir  Ir10  1  0.500000  0.169481  0.665253  1
  Ir  Ir11  1  0.499999  0.829704  0.835137  1
  O  O12  1  0.311555  0.993267  0.347110  1
  O  O13  1  0.310749  0.999809  0.845130  1
  O  O14  1  0.689260  0.999821  0.655044  1
  O  O15  1  0.688463  0.993266  0.159677  1
  O  O16  1  0.200741  0.500397  0.847995  1
  O  O17  1  0.185868  0.500737  0.344843  1
  O  O18  1  0.799267  0.500418  0.151595  1
  O  O19  1  0.814143  0.500731  0.654418  1
  O  O20  1  0.308753  0.336950  0.176357  1
  O  O21  1  0.303190  0.332913  0.682475  1
  O  O22  1  0.190854  0.830733  0.686160  1
  O  O23  1  0.211256  0.829983  0.184639  1
  O  O24  1  0.309548  0.659680  0.016086  1
  O  O25  1  0.304670  0.678724  0.507417  1
  O  O26  1  0.196054  0.167664  0.016667  1
  O  O27  1  0.197481  0.169748  0.511344  1
  O  O28  1  0.809170  0.830731  0.983083  1
  O  O29  1  0.788745  0.829980  0.485368  1
  O  O30  1  0.691257  0.336947  0.986701  1
  O  O31  1  0.696801  0.332927  0.484600  1
  O  O32  1  0.690427  0.659676  0.824229  1
  O  O33  1  0.695336  0.678715  0.313838  1
  O  O34  1  0.803917  0.167673  0.315700  1
  O  O35  1  0.802512  0.169736  0.818916  1
