# generated using pymatgen
data_Nb3Zn2PtC
_symmetry_space_group_name_H-M   'P 1'
_cell_length_a   8.35366876
_cell_length_b   8.35366924
_cell_length_c   8.35366800
_cell_angle_alpha   59.99999700
_cell_angle_beta   59.99999508
_cell_angle_gamma   59.99999407
_symmetry_Int_Tables_number   1
_chemical_formula_structural   Nb3Zn2PtC
_chemical_formula_sum   'Nb12 Zn8 Pt4 C4'
_cell_volume   412.20826374
_cell_formula_units_Z   4
loop_
 _symmetry_equiv_pos_site_id
 _symmetry_equiv_pos_as_xyz
  1  'x, y, z'
loop_
 _atom_site_type_symbol
 _atom_site_label
 _atom_site_symmetry_multiplicity
 _atom_site_fract_x
 _atom_site_fract_y
 _atom_site_fract_z
 _atom_site_occupancy
  Nb  Nb0  1  0.813007  0.186993  0.813007  1
  Nb  Nb1  1  0.063007  0.436993  0.436993  1
  Nb  Nb2  1  0.436993  0.063007  0.063007  1
  Nb  Nb3  1  0.063007  0.436993  0.063007  1
  Nb  Nb4  1  0.436993  0.436993  0.063007  1
  Nb  Nb5  1  0.063007  0.063007  0.436993  1
  Nb  Nb6  1  0.813007  0.813007  0.186993  1
  Nb  Nb7  1  0.186993  0.813007  0.813007  1
  Nb  Nb8  1  0.813007  0.186993  0.186993  1
  Nb  Nb9  1  0.186993  0.186993  0.813007  1
  Nb  Nb10  1  0.436993  0.063007  0.436993  1
  Nb  Nb11  1  0.186993  0.813007  0.186993  1
  Zn  Zn12  1  0.414597  0.414597  0.414597  1
  Zn  Zn13  1  0.493791  0.835403  0.835403  1
  Zn  Zn14  1  0.835403  0.493791  0.835403  1
  Zn  Zn15  1  0.835403  0.835403  0.493791  1
  Zn  Zn16  1  0.414597  0.756209  0.414597  1
  Zn  Zn17  1  0.414597  0.414597  0.756209  1
  Zn  Zn18  1  0.756209  0.414597  0.414597  1
  Zn  Zn19  1  0.835403  0.835403  0.835403  1
  Pt  Pt20  1  0.625000  0.625000  0.625000  1
  Pt  Pt21  1  0.125000  0.625000  0.625000  1
  Pt  Pt22  1  0.625000  0.125000  0.625000  1
  Pt  Pt23  1  0.625000  0.625000  0.125000  1
  C  C24  1  0.125000  0.125000  0.125000  1
  C  C25  1  0.625000  0.125000  0.125000  1
  C  C26  1  0.125000  0.625000  0.125000  1
  C  C27  1  0.125000  0.125000  0.625000  1
