# generated using pymatgen
data_Pa3Fe5(P3Ru2)2
_symmetry_space_group_name_H-M   'P 1'
_cell_length_a   3.80511100
_cell_length_b   10.69090200
_cell_length_c   12.50973300
_cell_angle_alpha   90.00000000
_cell_angle_beta   90.00000000
_cell_angle_gamma   90.00000000
_symmetry_Int_Tables_number   1
_chemical_formula_structural   Pa3Fe5(P3Ru2)2
_chemical_formula_sum   'Pa6 Fe10 P12 Ru8'
_cell_volume   508.89679911
_cell_formula_units_Z   2
loop_
 _symmetry_equiv_pos_site_id
 _symmetry_equiv_pos_as_xyz
  1  'x, y, z'
loop_
 _atom_site_type_symbol
 _atom_site_label
 _atom_site_symmetry_multiplicity
 _atom_site_fract_x
 _atom_site_fract_y
 _atom_site_fract_z
 _atom_site_occupancy
  Pa  Pa0  1  0.000000  0.500000  0.523458  1
  Pa  Pa1  1  0.500000  0.000000  0.476542  1
  Pa  Pa2  1  0.500000  0.815863  0.198328  1
  Pa  Pa3  1  0.500000  0.184137  0.198328  1
  Pa  Pa4  1  0.000000  0.684137  0.801672  1
  Pa  Pa5  1  0.000000  0.315863  0.801672  1
  Fe  Fe6  1  0.000000  0.500000  0.987999  1
  Fe  Fe7  1  0.500000  0.000000  0.012001  1
  Fe  Fe8  1  0.500000  0.879361  0.721305  1
  Fe  Fe9  1  0.500000  0.120639  0.721305  1
  Fe  Fe10  1  0.000000  0.620639  0.278695  1
  Fe  Fe11  1  0.000000  0.379361  0.278695  1
  Fe  Fe12  1  0.500000  0.331861  0.993373  1
  Fe  Fe13  1  0.500000  0.668139  0.993373  1
  Fe  Fe14  1  0.000000  0.168139  0.006627  1
  Fe  Fe15  1  0.000000  0.831861  0.006627  1
  P  P16  1  0.500000  0.301684  0.620765  1
  P  P17  1  0.500000  0.698316  0.620765  1
  P  P18  1  0.000000  0.198316  0.379235  1
  P  P19  1  0.000000  0.801684  0.379235  1
  P  P20  1  0.500000  0.500000  0.894491  1
  P  P21  1  0.000000  0.000000  0.105509  1
  P  P22  1  0.500000  0.845786  0.900683  1
  P  P23  1  0.500000  0.154214  0.900683  1
  P  P24  1  0.000000  0.654214  0.099317  1
  P  P25  1  0.000000  0.345786  0.099317  1
  P  P26  1  0.500000  0.500000  0.335830  1
  P  P27  1  0.000000  0.000000  0.664170  1
  Ru  Ru28  1  0.500000  0.305384  0.427659  1
  Ru  Ru29  1  0.500000  0.694616  0.427659  1
  Ru  Ru30  1  0.000000  0.194616  0.572341  1
  Ru  Ru31  1  0.000000  0.805384  0.572341  1
  Ru  Ru32  1  0.500000  0.500000  0.150876  1
  Ru  Ru33  1  0.000000  0.000000  0.849124  1
  Ru  Ru34  1  0.500000  0.500000  0.705942  1
  Ru  Ru35  1  0.000000  0.000000  0.294058  1
