# generated using pymatgen
data_Y8Be3Si13W12
_symmetry_space_group_name_H-M   'P 1'
_cell_length_a   6.73276614
_cell_length_b   6.85337379
_cell_length_c   12.92404200
_cell_angle_alpha   90.00000000
_cell_angle_beta   90.00000000
_cell_angle_gamma   89.86083415
_symmetry_Int_Tables_number   1
_chemical_formula_structural   Y8Be3Si13W12
_chemical_formula_sum   'Y8 Be3 Si13 W12'
_cell_volume   596.34149378
_cell_formula_units_Z   1
loop_
 _symmetry_equiv_pos_site_id
 _symmetry_equiv_pos_as_xyz
  1  'x, y, z'
loop_
 _atom_site_type_symbol
 _atom_site_label
 _atom_site_symmetry_multiplicity
 _atom_site_fract_x
 _atom_site_fract_y
 _atom_site_fract_z
 _atom_site_occupancy
  Y  Y0  1  0.501770  0.666878  0.596434  1
  Y  Y1  1  0.000784  0.833724  0.903957  1
  Y  Y2  1  0.501578  0.335254  0.093420  1
  Y  Y3  1  0.001411  0.168642  0.405804  1
  Y  Y4  1  0.501578  0.335254  0.406580  1
  Y  Y5  1  0.001411  0.168642  0.094196  1
  Y  Y6  1  0.501770  0.666878  0.903566  1
  Y  Y7  1  0.000784  0.833724  0.596043  1
  Be  Be8  1  0.456656  0.371499  0.750000  1
  Be  Be9  1  0.956190  0.128688  0.750000  1
  Be  Be10  1  0.542641  0.628720  0.250000  1
  Si  Si11  1  0.662243  0.957353  0.456981  1
  Si  Si12  1  0.161874  0.542605  0.042780  1
  Si  Si13  1  0.338363  0.043778  0.956389  1
  Si  Si14  1  0.838636  0.454835  0.544825  1
  Si  Si15  1  0.338363  0.043778  0.543611  1
  Si  Si16  1  0.838636  0.454835  0.955175  1
  Si  Si17  1  0.662243  0.957353  0.043019  1
  Si  Si18  1  0.161874  0.542605  0.457220  1
  Si  Si19  1  0.037222  0.872422  0.250000  1
  Si  Si20  1  0.706661  0.878334  0.750000  1
  Si  Si21  1  0.206643  0.620921  0.750000  1
  Si  Si22  1  0.301404  0.133926  0.250000  1
  Si  Si23  1  0.792159  0.376351  0.250000  1
  W  W24  1  0.660641  0.170662  0.628988  1
  W  W25  1  0.161322  0.328247  0.870880  1
  W  W26  1  0.339082  0.830455  0.127569  1
  W  W27  1  0.833391  0.664574  0.374374  1
  W  W28  1  0.339082  0.830455  0.372431  1
  W  W29  1  0.833391  0.664574  0.125626  1
  W  W30  1  0.660641  0.170662  0.871012  1
  W  W31  1  0.161322  0.328247  0.629120  1
  W  W32  1  0.837335  0.482952  0.750000  1
  W  W33  1  0.336572  0.017025  0.750000  1
  W  W34  1  0.163201  0.508668  0.250000  1
  W  W35  1  0.661124  0.986482  0.250000  1
