# generated using pymatgen
data_Y9Ho6Lu(CdCo)4
_symmetry_space_group_name_H-M   'P 1'
_cell_length_a   9.50008940
_cell_length_b   9.48682687
_cell_length_c   9.49766559
_cell_angle_alpha   60.05297664
_cell_angle_beta   59.91945543
_cell_angle_gamma   60.00049245
_symmetry_Int_Tables_number   1
_chemical_formula_structural   Y9Ho6Lu(CdCo)4
_chemical_formula_sum   'Y9 Ho6 Lu1 Cd4 Co4'
_cell_volume   605.14641623
_cell_formula_units_Z   1
loop_
 _symmetry_equiv_pos_site_id
 _symmetry_equiv_pos_as_xyz
  1  'x, y, z'
loop_
 _atom_site_type_symbol
 _atom_site_label
 _atom_site_symmetry_multiplicity
 _atom_site_fract_x
 _atom_site_fract_y
 _atom_site_fract_z
 _atom_site_occupancy
  Y  Y0  1  0.938989  0.938940  0.561137  1
  Y  Y1  1  0.813295  0.187611  0.186298  1
  Y  Y2  1  0.938657  0.560427  0.563247  1
  Y  Y3  1  0.938935  0.560389  0.937561  1
  Y  Y4  1  0.811415  0.811431  0.188041  1
  Y  Y5  1  0.346875  0.346367  0.348054  1
  Y  Y6  1  0.559491  0.939787  0.938439  1
  Y  Y7  1  0.561402  0.937735  0.564127  1
  Y  Y8  1  0.187849  0.812357  0.812316  1
  Ho  Ho9  1  0.345929  0.346464  0.960971  1
  Ho  Ho10  1  0.346556  0.961994  0.346534  1
  Ho  Ho11  1  0.811737  0.188551  0.811755  1
  Ho  Ho12  1  0.560999  0.560932  0.938778  1
  Ho  Ho13  1  0.188348  0.812662  0.186789  1
  Ho  Ho14  1  0.961948  0.346548  0.345980  1
  Lu  Lu15  1  0.187450  0.187405  0.812748  1
  Cd  Cd16  1  0.580171  0.579653  0.259311  1
  Cd  Cd17  1  0.259357  0.579632  0.580394  1
  Cd  Cd18  1  0.579687  0.580209  0.580022  1
  Cd  Cd19  1  0.579619  0.259367  0.580038  1
  Co  Co20  1  0.575774  0.142859  0.137532  1
  Co  Co21  1  0.144276  0.140025  0.139906  1
  Co  Co22  1  0.142724  0.575778  0.141838  1
  Co  Co23  1  0.138521  0.142880  0.578186  1
