# generated using pymatgen
data_NiAg2RhO4
_symmetry_space_group_name_H-M   'P 1'
_cell_length_a   5.32605224
_cell_length_b   6.15911176
_cell_length_c   7.24279939
_cell_angle_alpha   64.31496385
_cell_angle_beta   104.43211410
_cell_angle_gamma   90.01866535
_symmetry_Int_Tables_number   1
_chemical_formula_structural   NiAg2RhO4
_chemical_formula_sum   'Ni2 Ag4 Rh2 O8'
_cell_volume   205.77316155
_cell_formula_units_Z   2
loop_
 _symmetry_equiv_pos_site_id
 _symmetry_equiv_pos_as_xyz
  1  'x, y, z'
loop_
 _atom_site_type_symbol
 _atom_site_label
 _atom_site_symmetry_multiplicity
 _atom_site_fract_x
 _atom_site_fract_y
 _atom_site_fract_z
 _atom_site_occupancy
  Ni  Ni0  1  0.500188  0.251795  0.499942  1
  Ni  Ni1  1  0.999851  0.498252  0.500046  1
  Ag  Ag2  1  0.000508  0.000347  0.997712  1
  Ag  Ag3  1  0.500631  0.251297  0.997946  1
  Ag  Ag4  1  0.999300  0.498710  0.002059  1
  Ag  Ag5  1  0.499544  0.749684  0.002287  1
  Rh  Rh6  1  0.499775  0.746342  0.500005  1
  Rh  Rh7  1  0.000210  0.003553  0.499993  1
  O  O8  1  0.887402  0.671717  0.664524  1
  O  O9  1  0.387308  0.910046  0.664884  1
  O  O10  1  0.889790  0.160064  0.662840  1
  O  O11  1  0.389143  0.422836  0.662861  1
  O  O12  1  0.112368  0.840252  0.335134  1
  O  O13  1  0.612910  0.078652  0.335452  1
  O  O14  1  0.110570  0.326850  0.337120  1
  O  O15  1  0.610505  0.589603  0.337195  1
