# generated using pymatgen
data_LiLa2Th2Zn9Sn2
_symmetry_space_group_name_H-M   'P 1'
_cell_length_a   8.67539942
_cell_length_b   8.67539986
_cell_length_c   9.10295800
_cell_angle_alpha   90.00000000
_cell_angle_beta   90.00000000
_cell_angle_gamma   149.73508463
_symmetry_Int_Tables_number   1
_chemical_formula_structural   LiLa2Th2Zn9Sn2
_chemical_formula_sum   'Li1 La2 Th2 Zn9 Sn2'
_cell_volume   345.29560667
_cell_formula_units_Z   1
loop_
 _symmetry_equiv_pos_site_id
 _symmetry_equiv_pos_as_xyz
  1  'x, y, z'
loop_
 _atom_site_type_symbol
 _atom_site_label
 _atom_site_symmetry_multiplicity
 _atom_site_fract_x
 _atom_site_fract_y
 _atom_site_fract_z
 _atom_site_occupancy
  Li  Li0  1  0.396988  0.603012  0.250000  1
  La  La1  1  0.000299  0.999701  0.501290  1
  La  La2  1  0.000299  0.999701  0.998710  1
  Th  Th3  1  0.206629  0.793371  0.250000  1
  Th  Th4  1  0.793119  0.206881  0.750000  1
  Zn  Zn5  1  0.813606  0.186394  0.391965  1
  Zn  Zn6  1  0.185987  0.814013  0.608797  1
  Zn  Zn7  1  0.813606  0.186394  0.108035  1
  Zn  Zn8  1  0.185987  0.814013  0.891203  1
  Zn  Zn9  1  0.659451  0.340549  0.482861  1
  Zn  Zn10  1  0.340499  0.659501  0.515749  1
  Zn  Zn11  1  0.659451  0.340549  0.017139  1
  Zn  Zn12  1  0.340499  0.659501  0.984251  1
  Zn  Zn13  1  0.604002  0.395998  0.750000  1
  Sn  Sn14  1  0.557507  0.442493  0.250000  1
  Sn  Sn15  1  0.442072  0.557928  0.750000  1
