# generated using pymatgen
data_Y6U2Re3TcB24
_symmetry_space_group_name_H-M   'P 1'
_cell_length_a   3.68635300
_cell_length_b   9.21909736
_cell_length_c   11.47521492
_cell_angle_alpha   89.40032620
_cell_angle_beta   90.00000000
_cell_angle_gamma   90.00000000
_symmetry_Int_Tables_number   1
_chemical_formula_structural   Y6U2Re3TcB24
_chemical_formula_sum   'Y6 U2 Re3 Tc1 B24'
_cell_volume   389.96206602
_cell_formula_units_Z   1
loop_
 _symmetry_equiv_pos_site_id
 _symmetry_equiv_pos_as_xyz
  1  'x, y, z'
loop_
 _atom_site_type_symbol
 _atom_site_label
 _atom_site_symmetry_multiplicity
 _atom_site_fract_x
 _atom_site_fract_y
 _atom_site_fract_z
 _atom_site_occupancy
  Y  Y0  1  0.000000  0.325572  0.411708  1
  Y  Y1  1  0.000000  0.674635  0.588194  1
  Y  Y2  1  0.000000  0.834847  0.089387  1
  Y  Y3  1  0.000000  0.165489  0.910549  1
  Y  Y4  1  0.000000  0.944540  0.371630  1
  Y  Y5  1  0.000000  0.054677  0.628039  1
  U  U6  1  0.000000  0.454457  0.105868  1
  U  U7  1  0.000000  0.545762  0.894560  1
  Re  Re8  1  0.000000  0.363662  0.685957  1
  Re  Re9  1  0.000000  0.149022  0.176697  1
  Re  Re10  1  0.000000  0.850946  0.823387  1
  Tc  Tc11  1  0.000000  0.636414  0.313989  1
  B  B12  1  0.500000  0.554052  0.431653  1
  B  B13  1  0.500000  0.446182  0.568070  1
  B  B14  1  0.500000  0.052638  0.067640  1
  B  B15  1  0.500000  0.947588  0.932327  1
  B  B16  1  0.500000  0.747784  0.418712  1
  B  B17  1  0.500000  0.251930  0.581086  1
  B  B18  1  0.500000  0.245968  0.079691  1
  B  B19  1  0.500000  0.754210  0.920495  1
  B  B20  1  0.500000  0.795914  0.268048  1
  B  B21  1  0.500000  0.203780  0.731827  1
  B  B22  1  0.500000  0.297791  0.229905  1
  B  B23  1  0.500000  0.702194  0.770361  1
  B  B24  1  0.500000  0.637203  0.186712  1
  B  B25  1  0.500000  0.362878  0.813404  1
  B  B26  1  0.500000  0.135891  0.313512  1
  B  B27  1  0.500000  0.863944  0.686447  1
  B  B28  1  0.500000  0.987468  0.213527  1
  B  B29  1  0.500000  0.012493  0.786298  1
  B  B30  1  0.500000  0.484459  0.282311  1
  B  B31  1  0.500000  0.515591  0.717811  1
  B  B32  1  0.500000  0.632144  0.036068  1
  B  B33  1  0.500000  0.368332  0.964323  1
  B  B34  1  0.500000  0.108666  0.469971  1
  B  B35  1  0.500000  0.890874  0.529839  1
