# generated using pymatgen
data_Ti4Co9Si2Rh
_symmetry_space_group_name_H-M   'P 1'
_cell_length_a   3.77210500
_cell_length_b   5.04194361
_cell_length_c   9.94981553
_cell_angle_alpha   90.24487542
_cell_angle_beta   90.00000000
_cell_angle_gamma   90.00000000
_symmetry_Int_Tables_number   1
_chemical_formula_structural   Ti4Co9Si2Rh
_chemical_formula_sum   'Ti4 Co9 Si2 Rh1'
_cell_volume   189.23123323
_cell_formula_units_Z   1
loop_
 _symmetry_equiv_pos_site_id
 _symmetry_equiv_pos_as_xyz
  1  'x, y, z'
loop_
 _atom_site_type_symbol
 _atom_site_label
 _atom_site_symmetry_multiplicity
 _atom_site_fract_x
 _atom_site_fract_y
 _atom_site_fract_z
 _atom_site_occupancy
  Ti  Ti0  1  0.500000  0.311816  0.146923  1
  Ti  Ti1  1  0.500000  0.688184  0.853077  1
  Ti  Ti2  1  0.500000  0.819280  0.361739  1
  Ti  Ti3  1  0.500000  0.180720  0.638261  1
  Co  Co4  1  0.000000  0.000000  0.500000  1
  Co  Co5  1  0.000000  0.071569  0.249174  1
  Co  Co6  1  0.000000  0.928431  0.750826  1
  Co  Co7  1  0.000000  0.572584  0.259868  1
  Co  Co8  1  0.000000  0.427416  0.740132  1
  Co  Co9  1  0.500000  0.311639  0.393127  1
  Co  Co10  1  0.500000  0.688361  0.606873  1
  Co  Co11  1  0.500000  0.817002  0.112402  1
  Co  Co12  1  0.500000  0.182998  0.887598  1
  Si  Si13  1  0.000000  0.000000  0.000000  1
  Si  Si14  1  0.000000  0.500000  0.500000  1
  Rh  Rh15  1  0.000000  0.500000  0.000000  1
