# generated using pymatgen
data_YAlTeO6
_symmetry_space_group_name_H-M   'P 1'
_cell_length_a   5.07687502
_cell_length_b   5.07665518
_cell_length_c   9.88090400
_cell_angle_alpha   90.00285880
_cell_angle_beta   89.99857518
_cell_angle_gamma   119.99855128
_symmetry_Int_Tables_number   1
_chemical_formula_structural   YAlTeO6
_chemical_formula_sum   'Y2 Al2 Te2 O12'
_cell_volume   220.55036919
_cell_formula_units_Z   2
loop_
 _symmetry_equiv_pos_site_id
 _symmetry_equiv_pos_as_xyz
  1  'x, y, z'
loop_
 _atom_site_type_symbol
 _atom_site_label
 _atom_site_symmetry_multiplicity
 _atom_site_fract_x
 _atom_site_fract_y
 _atom_site_fract_z
 _atom_site_occupancy
  Y  Y0  1  0.000000  0.000000  0.000000  1
  Y  Y1  1  0.000000  0.000000  0.500000  1
  Al  Al2  1  0.333239  0.666620  0.250000  1
  Al  Al3  1  0.666761  0.333380  0.750000  1
  Te  Te4  1  0.333416  0.666708  0.750000  1
  Te  Te5  1  0.666584  0.333292  0.250000  1
  O  O6  1  0.364198  0.367526  0.141478  1
  O  O7  1  0.632323  0.996646  0.141472  1
  O  O8  1  0.003177  0.635645  0.141472  1
  O  O9  1  0.635802  0.632474  0.858522  1
  O  O10  1  0.367677  0.003354  0.858528  1
  O  O11  1  0.996823  0.364355  0.858528  1
  O  O12  1  0.632323  0.635677  0.358528  1
  O  O13  1  0.364198  0.996672  0.358522  1
  O  O14  1  0.003177  0.367533  0.358528  1
  O  O15  1  0.367677  0.364323  0.641472  1
  O  O16  1  0.635802  0.003328  0.641478  1
  O  O17  1  0.996823  0.632467  0.641472  1
