# generated using pymatgen
data_NdHo9(In2Pt)4
_symmetry_space_group_name_H-M   'P 1'
_cell_length_a   3.62262000
_cell_length_b   8.16385102
_cell_length_c   18.29033140
_cell_angle_alpha   89.86107462
_cell_angle_beta   90.00000000
_cell_angle_gamma   90.00000000
_symmetry_Int_Tables_number   1
_chemical_formula_structural   NdHo9(In2Pt)4
_chemical_formula_sum   'Nd1 Ho9 In8 Pt4'
_cell_volume   540.92636414
_cell_formula_units_Z   1
loop_
 _symmetry_equiv_pos_site_id
 _symmetry_equiv_pos_as_xyz
  1  'x, y, z'
loop_
 _atom_site_type_symbol
 _atom_site_label
 _atom_site_symmetry_multiplicity
 _atom_site_fract_x
 _atom_site_fract_y
 _atom_site_fract_z
 _atom_site_occupancy
  Nd  Nd0  1  0.000000  0.000000  0.000000  1
  Ho  Ho1  1  0.000000  0.116811  0.414865  1
  Ho  Ho2  1  0.000000  0.883189  0.585135  1
  Ho  Ho3  1  0.000000  0.380728  0.914066  1
  Ho  Ho4  1  0.000000  0.619272  0.085934  1
  Ho  Ho5  1  0.000000  0.242817  0.220660  1
  Ho  Ho6  1  0.000000  0.757183  0.779340  1
  Ho  Ho7  1  0.000000  0.257742  0.719317  1
  Ho  Ho8  1  0.000000  0.742258  0.280683  1
  Ho  Ho9  1  0.000000  0.500000  0.500000  1
  In  In10  1  0.500000  0.423093  0.351288  1
  In  In11  1  0.500000  0.576907  0.648712  1
  In  In12  1  0.500000  0.077853  0.848237  1
  In  In13  1  0.500000  0.922147  0.151763  1
  In  In14  1  0.500000  0.298882  0.068078  1
  In  In15  1  0.500000  0.701118  0.931922  1
  In  In16  1  0.500000  0.207805  0.566355  1
  In  In17  1  0.500000  0.792195  0.433645  1
  Pt  Pt18  1  0.500000  0.024709  0.304276  1
  Pt  Pt19  1  0.500000  0.975291  0.695724  1
  Pt  Pt20  1  0.500000  0.475056  0.802885  1
  Pt  Pt21  1  0.500000  0.524944  0.197115  1
