# generated using pymatgen
data_Li3CeSm3ZnPt4
_symmetry_space_group_name_H-M   'P 1'
_cell_length_a   4.09419500
_cell_length_b   7.14497879
_cell_length_c   8.46257649
_cell_angle_alpha   90.09128931
_cell_angle_beta   90.00000000
_cell_angle_gamma   90.00000000
_symmetry_Int_Tables_number   1
_chemical_formula_structural   Li3CeSm3ZnPt4
_chemical_formula_sum   'Li3 Ce1 Sm3 Zn1 Pt4'
_cell_volume   247.55489819
_cell_formula_units_Z   1
loop_
 _symmetry_equiv_pos_site_id
 _symmetry_equiv_pos_as_xyz
  1  'x, y, z'
loop_
 _atom_site_type_symbol
 _atom_site_label
 _atom_site_symmetry_multiplicity
 _atom_site_fract_x
 _atom_site_fract_y
 _atom_site_fract_z
 _atom_site_occupancy
  Li  Li0  1  0.250000  0.632699  0.561028  1
  Li  Li1  1  0.250000  0.131857  0.940767  1
  Li  Li2  1  0.750000  0.364678  0.440753  1
  Ce  Ce3  1  0.250000  0.542486  0.186137  1
  Sm  Sm4  1  0.750000  0.460485  0.808575  1
  Sm  Sm5  1  0.250000  0.039184  0.312636  1
  Sm  Sm6  1  0.750000  0.955932  0.689444  1
  Zn  Zn7  1  0.750000  0.870168  0.063247  1
  Pt  Pt8  1  0.250000  0.753903  0.887329  1
  Pt  Pt9  1  0.250000  0.245622  0.617136  1
  Pt  Pt10  1  0.750000  0.746821  0.375823  1
  Pt  Pt11  1  0.750000  0.256166  0.117125  1
