# generated using pymatgen
data_ScGa11(IrRu)6
_symmetry_space_group_name_H-M   'P 1'
_cell_length_a   4.29992300
_cell_length_b   6.12521200
_cell_length_c   12.98935101
_cell_angle_alpha   90.00001818
_cell_angle_beta   90.00410745
_cell_angle_gamma   89.99992261
_symmetry_Int_Tables_number   1
_chemical_formula_structural   ScGa11(IrRu)6
_chemical_formula_sum   'Sc1 Ga11 Ir6 Ru6'
_cell_volume   342.11274630
_cell_formula_units_Z   1
loop_
 _symmetry_equiv_pos_site_id
 _symmetry_equiv_pos_as_xyz
  1  'x, y, z'
loop_
 _atom_site_type_symbol
 _atom_site_label
 _atom_site_symmetry_multiplicity
 _atom_site_fract_x
 _atom_site_fract_y
 _atom_site_fract_z
 _atom_site_occupancy
  Sc  Sc0  1  0.500001  0.250231  0.999999  1
  Ga  Ga1  1  0.499999  0.751424  0.000000  1
  Ga  Ga2  1  0.000059  0.250288  0.161546  1
  Ga  Ga3  1  0.000078  0.750177  0.170603  1
  Ga  Ga4  1  0.500090  0.249287  0.333139  1
  Ga  Ga5  1  0.500092  0.749720  0.337641  1
  Ga  Ga6  1  0.000000  0.249782  0.500000  1
  Ga  Ga7  1  0.000000  0.749736  0.500000  1
  Ga  Ga8  1  0.499909  0.249285  0.666862  1
  Ga  Ga9  1  0.499909  0.749724  0.662359  1
  Ga  Ga10  1  0.999942  0.250290  0.838452  1
  Ga  Ga11  1  0.999922  0.750174  0.829397  1
  Ir  Ir12  1  0.000001  0.514878  0.000000  1
  Ir  Ir13  1  0.500089  0.995403  0.171492  1
  Ir  Ir14  1  0.000068  0.493792  0.333562  1
  Ir  Ir15  1  0.500000  0.002522  0.500001  1
  Ir  Ir16  1  0.999934  0.493793  0.666438  1
  Ir  Ir17  1  0.499911  0.995400  0.828507  1
  Ru  Ru18  1  0.999998  0.984250  0.000001  1
  Ru  Ru19  1  0.500089  0.508612  0.171979  1
  Ru  Ru20  1  0.000017  0.000908  0.334249  1
  Ru  Ru21  1  0.500000  0.500799  0.499999  1
  Ru  Ru22  1  0.999982  0.000908  0.665752  1
  Ru  Ru23  1  0.499910  0.508613  0.828021  1
