# generated using pymatgen
data_HfZrFeSb2Pd
_symmetry_space_group_name_H-M   'P 1'
_cell_length_a   7.61526022
_cell_length_b   7.62530694
_cell_length_c   7.62031194
_cell_angle_alpha   131.45349547
_cell_angle_beta   131.41941556
_cell_angle_gamma   71.12025297
_symmetry_Int_Tables_number   1
_chemical_formula_structural   HfZrFeSb2Pd
_chemical_formula_sum   'Hf2 Zr2 Fe2 Sb4 Pd2'
_cell_volume   243.49669966
_cell_formula_units_Z   2
loop_
 _symmetry_equiv_pos_site_id
 _symmetry_equiv_pos_as_xyz
  1  'x, y, z'
loop_
 _atom_site_type_symbol
 _atom_site_label
 _atom_site_symmetry_multiplicity
 _atom_site_fract_x
 _atom_site_fract_y
 _atom_site_fract_z
 _atom_site_occupancy
  Hf  Hf0  1  0.636766  0.625151  0.511866  1
  Hf  Hf1  1  0.874900  0.363285  0.988133  1
  Zr  Zr2  1  0.374807  0.886913  0.011784  1
  Zr  Zr3  1  0.113023  0.125128  0.488216  1
  Fe  Fe4  1  0.998358  0.000082  0.998449  1
  Fe  Fe5  1  0.749909  0.251634  0.501551  1
  Sb  Sb6  1  0.639882  0.125196  0.014302  1
  Sb  Sb7  1  0.375580  0.360893  0.485697  1
  Sb  Sb8  1  0.874790  0.890579  0.516138  1
  Sb  Sb9  1  0.108652  0.624441  0.983861  1
  Pd  Pd10  1  0.503409  0.500093  0.003488  1
  Pd  Pd11  1  0.249921  0.746605  0.496512  1
