# generated using pymatgen
data_TiNbB2PRu5
_symmetry_space_group_name_H-M   'P 1'
_cell_length_a   9.22065682
_cell_length_b   9.22065682
_cell_length_c   2.94233700
_cell_angle_alpha   90.00000000
_cell_angle_beta   90.00000000
_cell_angle_gamma   89.44327412
_symmetry_Int_Tables_number   1
_chemical_formula_structural   TiNbB2PRu5
_chemical_formula_sum   'Ti2 Nb2 B4 P2 Ru10'
_cell_volume   250.14718959
_cell_formula_units_Z   2
loop_
 _symmetry_equiv_pos_site_id
 _symmetry_equiv_pos_as_xyz
  1  'x, y, z'
loop_
 _atom_site_type_symbol
 _atom_site_label
 _atom_site_symmetry_multiplicity
 _atom_site_fract_x
 _atom_site_fract_y
 _atom_site_fract_z
 _atom_site_occupancy
  Ti  Ti0  1  0.825475  0.674525  0.000000  1
  Ti  Ti1  1  0.174525  0.325475  0.000000  1
  Nb  Nb2  1  0.322901  0.822901  0.000000  1
  Nb  Nb3  1  0.677099  0.177099  0.000000  1
  B  B4  1  0.626228  0.873772  0.000000  1
  B  B5  1  0.373772  0.126228  0.000000  1
  B  B6  1  0.123779  0.623779  0.000000  1
  B  B7  1  0.876221  0.376221  0.000000  1
  P  P8  1  0.500000  0.500000  0.000000  1
  P  P9  1  0.000000  0.000000  0.000000  1
  Ru  Ru10  1  0.568220  0.707956  0.500000  1
  Ru  Ru11  1  0.431780  0.292044  0.500000  1
  Ru  Ru12  1  0.066097  0.791753  0.500000  1
  Ru  Ru13  1  0.933903  0.208247  0.500000  1
  Ru  Ru14  1  0.291753  0.566097  0.500000  1
  Ru  Ru15  1  0.708247  0.433903  0.500000  1
  Ru  Ru16  1  0.207956  0.068220  0.500000  1
  Ru  Ru17  1  0.792044  0.931780  0.500000  1
  Ru  Ru18  1  0.500000  0.000000  0.500000  1
  Ru  Ru19  1  0.000000  0.500000  0.500000  1
