# generated using pymatgen
data_Y4Ta3Ti3Si8
_symmetry_space_group_name_H-M   'P 1'
_cell_length_a   7.05309019
_cell_length_b   7.05284518
_cell_length_c   12.98420899
_cell_angle_alpha   90.11357513
_cell_angle_beta   90.04269506
_cell_angle_gamma   90.00972495
_symmetry_Int_Tables_number   1
_chemical_formula_structural   Y4Ta3Ti3Si8
_chemical_formula_sum   'Y8 Ta6 Ti6 Si16'
_cell_volume   645.88961991
_cell_formula_units_Z   2
loop_
 _symmetry_equiv_pos_site_id
 _symmetry_equiv_pos_as_xyz
  1  'x, y, z'
loop_
 _atom_site_type_symbol
 _atom_site_label
 _atom_site_symmetry_multiplicity
 _atom_site_fract_x
 _atom_site_fract_y
 _atom_site_fract_z
 _atom_site_occupancy
  Y  Y0  1  0.341142  0.001620  0.466624  1
  Y  Y1  1  0.498011  0.841060  0.716761  1
  Y  Y2  1  0.501912  0.158400  0.217095  1
  Y  Y3  1  0.839760  0.498137  0.283155  1
  Y  Y4  1  0.159392  0.502420  0.782606  1
  Y  Y5  1  0.658729  0.997951  0.967100  1
  Y  Y6  1  0.001698  0.340700  0.532885  1
  Y  Y7  1  0.997649  0.660661  0.032906  1
  Ta  Ta8  1  0.327530  0.328172  0.000165  1
  Ta  Ta9  1  0.173045  0.826935  0.249887  1
  Ta  Ta10  1  0.829054  0.172305  0.750356  1
  Ta  Ta11  1  0.672284  0.671790  0.500036  1
  Ta  Ta12  1  0.152920  0.009358  0.875230  1
  Ta  Ta13  1  0.489949  0.653176  0.124267  1
  Ti  Ti14  1  0.509358  0.346045  0.625414  1
  Ti  Ti15  1  0.654474  0.490876  0.875236  1
  Ti  Ti16  1  0.347523  0.509053  0.374906  1
  Ti  Ti17  1  0.846391  0.990479  0.374507  1
  Ti  Ti18  1  0.008721  0.152478  0.124653  1
  Ti  Ti19  1  0.991328  0.845815  0.625650  1
  Si  Si20  1  0.203373  0.130862  0.683573  1
  Si  Si21  1  0.369528  0.703452  0.932880  1
  Si  Si22  1  0.630364  0.298222  0.434816  1
  Si  Si23  1  0.703255  0.367019  0.066509  1
  Si  Si24  1  0.298609  0.630130  0.565162  1
  Si  Si25  1  0.797603  0.869903  0.184429  1
  Si  Si26  1  0.130221  0.201512  0.315742  1
  Si  Si27  1  0.867303  0.796973  0.815866  1
  Si  Si28  1  0.291501  0.954963  0.064389  1
  Si  Si29  1  0.546135  0.792407  0.314800  1
  Si  Si30  1  0.454848  0.210062  0.813328  1
  Si  Si31  1  0.792060  0.545041  0.685817  1
  Si  Si32  1  0.205817  0.452237  0.186672  1
  Si  Si33  1  0.709419  0.045792  0.563980  1
  Si  Si34  1  0.953212  0.295125  0.936251  1
  Si  Si35  1  0.045886  0.708871  0.436347  1
