# generated using pymatgen
data_Li2Tb4YP12Ru17
_symmetry_space_group_name_H-M   'P 1'
_cell_length_a   12.73313500
_cell_length_b   12.53052088
_cell_length_c   3.96428500
_cell_angle_alpha   90.00000000
_cell_angle_beta   90.00000000
_cell_angle_gamma   120.53392669
_symmetry_Int_Tables_number   1
_chemical_formula_structural   Li2Tb4YP12Ru17
_chemical_formula_sum   'Li2 Tb4 Y1 P12 Ru17'
_cell_volume   544.80131162
_cell_formula_units_Z   1
loop_
 _symmetry_equiv_pos_site_id
 _symmetry_equiv_pos_as_xyz
  1  'x, y, z'
loop_
 _atom_site_type_symbol
 _atom_site_label
 _atom_site_symmetry_multiplicity
 _atom_site_fract_x
 _atom_site_fract_y
 _atom_site_fract_z
 _atom_site_occupancy
  Li  Li0  1  0.000592  0.562672  0.000000  1
  Li  Li1  1  0.438038  0.437498  0.000000  1
  Tb  Tb2  1  0.001061  0.181877  0.500000  1
  Tb  Tb3  1  0.819049  0.818031  0.500000  1
  Tb  Tb4  1  0.182520  0.999973  0.500000  1
  Tb  Tb5  1  0.662957  0.325199  0.000000  1
  Y  Y6  1  0.337878  0.674699  0.000000  1
  P  P7  1  0.998354  0.808775  0.000000  1
  P  P8  1  0.189517  0.191275  0.000000  1
  P  P9  1  0.818495  0.999934  0.000000  1
  P  P10  1  0.691789  0.169095  0.500000  1
  P  P11  1  0.816730  0.515233  0.500000  1
  P  P12  1  0.477016  0.300905  0.500000  1
  P  P13  1  0.176192  0.699101  0.500000  1
  P  P14  1  0.522599  0.830761  0.500000  1
  P  P15  1  0.301632  0.484866  0.500000  1
  P  P16  1  0.002239  0.370820  0.000000  1
  P  P17  1  0.631294  0.629111  0.000000  1
  P  P18  1  0.376632  0.000052  0.000000  1
  Ru  Ru19  1  0.557147  0.000113  0.000000  1
  Ru  Ru20  1  0.997891  0.711462  0.500000  1
  Ru  Ru21  1  0.286376  0.288530  0.500000  1
  Ru  Ru22  1  0.718357  0.999938  0.500000  1
  Ru  Ru23  1  0.809121  0.185611  0.000000  1
  Ru  Ru24  1  0.811857  0.614780  0.000000  1
  Ru  Ru25  1  0.376930  0.191435  0.000000  1
  Ru  Ru26  1  0.185662  0.808645  0.000000  1
  Ru  Ru27  1  0.623439  0.814335  0.000000  1
  Ru  Ru28  1  0.197178  0.385354  0.000000  1
  Ru  Ru29  1  0.873929  0.366426  0.500000  1
  Ru  Ru30  1  0.628678  0.510021  0.500000  1
  Ru  Ru31  1  0.491312  0.123809  0.500000  1
  Ru  Ru32  1  0.367592  0.875919  0.500000  1
  Ru  Ru33  1  0.507354  0.633612  0.500000  1
  Ru  Ru34  1  0.118801  0.490145  0.500000  1
  Ru  Ru35  1  0.003794  0.999988  0.000000  1
