# generated using pymatgen
data_La2DyThPd4
_symmetry_space_group_name_H-M   'P 1'
_cell_length_a   4.74884700
_cell_length_b   5.69412659
_cell_length_c   7.31255900
_cell_angle_alpha   90.23913029
_cell_angle_beta   90.00000000
_cell_angle_gamma   90.00000000
_symmetry_Int_Tables_number   1
_chemical_formula_structural   La2DyThPd4
_chemical_formula_sum   'La2 Dy1 Th1 Pd4'
_cell_volume   197.73379263
_cell_formula_units_Z   1
loop_
 _symmetry_equiv_pos_site_id
 _symmetry_equiv_pos_as_xyz
  1  'x, y, z'
loop_
 _atom_site_type_symbol
 _atom_site_label
 _atom_site_symmetry_multiplicity
 _atom_site_fract_x
 _atom_site_fract_y
 _atom_site_fract_z
 _atom_site_occupancy
  La  La0  1  0.250000  0.142116  0.178878  1
  La  La1  1  0.750000  0.640712  0.317793  1
  Dy  Dy2  1  0.750000  0.856615  0.815898  1
  Th  Th3  1  0.250000  0.355375  0.687076  1
  Pd  Pd4  1  0.250000  0.847644  0.563462  1
  Pd  Pd5  1  0.250000  0.655883  0.019227  1
  Pd  Pd6  1  0.750000  0.152358  0.478747  1
  Pd  Pd7  1  0.750000  0.349299  0.938919  1
