# generated using pymatgen
data_Tb15Lu5(Sn5Sb3)2
_symmetry_space_group_name_H-M   'P 1'
_cell_length_a   8.10618888
_cell_length_b   8.15104672
_cell_length_c   15.40371100
_cell_angle_alpha   90.19454201
_cell_angle_beta   89.93714291
_cell_angle_gamma   90.06819332
_symmetry_Int_Tables_number   1
_chemical_formula_structural   Tb15Lu5(Sn5Sb3)2
_chemical_formula_sum   'Tb15 Lu5 Sn10 Sb6'
_cell_volume   1017.77643866
_cell_formula_units_Z   1
loop_
 _symmetry_equiv_pos_site_id
 _symmetry_equiv_pos_as_xyz
  1  'x, y, z'
loop_
 _atom_site_type_symbol
 _atom_site_label
 _atom_site_symmetry_multiplicity
 _atom_site_fract_x
 _atom_site_fract_y
 _atom_site_fract_z
 _atom_site_occupancy
  Tb  Tb0  1  0.883438  0.660804  0.620813  1
  Tb  Tb1  1  0.616443  0.160160  0.379176  1
  Tb  Tb2  1  0.118370  0.339948  0.119624  1
  Tb  Tb3  1  0.617266  0.162051  0.120456  1
  Tb  Tb4  1  0.116949  0.338697  0.380072  1
  Tb  Tb5  1  0.382449  0.840016  0.621484  1
  Tb  Tb6  1  0.881681  0.659420  0.879446  1
  Tb  Tb7  1  0.549102  0.329779  0.894753  1
  Tb  Tb8  1  0.051231  0.168477  0.606918  1
  Tb  Tb9  1  0.451382  0.673976  0.394462  1
  Tb  Tb10  1  0.952263  0.825552  0.105621  1
  Tb  Tb11  1  0.458197  0.671594  0.103407  1
  Tb  Tb12  1  0.955196  0.830640  0.394111  1
  Tb  Tb13  1  0.543405  0.323822  0.604990  1
  Tb  Tb14  1  0.041429  0.175313  0.895802  1
  Lu  Lu15  1  0.380859  0.840850  0.877670  1
  Lu  Lu16  1  0.214673  0.500041  0.750216  1
  Lu  Lu17  1  0.713514  0.999364  0.750928  1
  Lu  Lu18  1  0.786344  0.499699  0.248385  1
  Lu  Lu19  1  0.286064  0.000502  0.250818  1
  Sn  Sn20  1  0.276263  0.025132  0.455001  1
  Sn  Sn21  1  0.778113  0.473515  0.045037  1
  Sn  Sn22  1  0.577047  0.626766  0.750565  1
  Sn  Sn23  1  0.078303  0.873949  0.751928  1
  Sn  Sn24  1  0.421579  0.374937  0.250118  1
  Sn  Sn25  1  0.921879  0.126199  0.249148  1
  Sn  Sn26  1  0.352290  0.145372  0.752181  1
  Sn  Sn27  1  0.851599  0.353556  0.749100  1
  Sn  Sn28  1  0.648247  0.854206  0.249590  1
  Sn  Sn29  1  0.149443  0.645233  0.249719  1
  Sb  Sb30  1  0.273305  0.020275  0.044729  1
  Sb  Sb31  1  0.771502  0.479795  0.452855  1
  Sb  Sb32  1  0.726597  0.977580  0.547429  1
  Sb  Sb33  1  0.227594  0.527386  0.952351  1
  Sb  Sb34  1  0.720196  0.973906  0.952861  1
  Sb  Sb35  1  0.225788  0.521488  0.548237  1
