# generated using pymatgen
data_Ba4U4OF27
_symmetry_space_group_name_H-M   'P 1'
_cell_length_a   9.93926700
_cell_length_b   6.12481348
_cell_length_c   10.42679937
_cell_angle_alpha   87.49005508
_cell_angle_beta   89.86915307
_cell_angle_gamma   89.35338837
_symmetry_Int_Tables_number   1
_chemical_formula_structural   Ba4U4OF27
_chemical_formula_sum   'Ba4 U4 O1 F27'
_cell_volume   634.09312066
_cell_formula_units_Z   1
loop_
 _symmetry_equiv_pos_site_id
 _symmetry_equiv_pos_as_xyz
  1  'x, y, z'
loop_
 _atom_site_type_symbol
 _atom_site_label
 _atom_site_symmetry_multiplicity
 _atom_site_fract_x
 _atom_site_fract_y
 _atom_site_fract_z
 _atom_site_occupancy
  Ba  Ba0  1  0.313374  0.270098  0.513468  1
  Ba  Ba1  1  0.812381  0.726144  0.983535  1
  Ba  Ba2  1  0.684500  0.728828  0.487424  1
  Ba  Ba3  1  0.185753  0.271556  0.017803  1
  U  U4  1  0.616660  0.236423  0.217396  1
  U  U5  1  0.383304  0.774345  0.785074  1
  U  U6  1  0.885261  0.232983  0.716114  1
  U  U7  1  0.115204  0.766018  0.284031  1
  O  O8  1  0.385152  0.035004  0.868845  1
  F  F9  1  0.051959  0.336999  0.609569  1
  F  F10  1  0.717727  0.550106  0.243871  1
  F  F11  1  0.275453  0.476500  0.750927  1
  F  F12  1  0.492169  0.978122  0.635052  1
  F  F13  1  0.767083  0.313578  0.548630  1
  F  F14  1  0.773604  0.081483  0.320246  1
  F  F15  1  0.992312  0.013184  0.854699  1
  F  F16  1  0.450003  0.338616  0.108614  1
  F  F17  1  0.219044  0.447829  0.257873  1
  F  F18  1  0.112668  0.059678  0.383317  1
  F  F19  1  0.614814  0.942837  0.118406  1
  F  F20  1  0.273228  0.915933  0.182573  1
  F  F21  1  0.019061  0.572587  0.128067  1
  F  F22  1  0.504986  0.019998  0.352241  1
  F  F23  1  0.006108  0.984851  0.146789  1
  F  F24  1  0.224090  0.923626  0.676932  1
  F  F25  1  0.887641  0.940147  0.616325  1
  F  F26  1  0.520263  0.430328  0.377245  1
  F  F27  1  0.949483  0.663141  0.391984  1
  F  F28  1  0.980778  0.424880  0.873554  1
  F  F29  1  0.725178  0.085252  0.815351  1
  F  F30  1  0.485184  0.566871  0.643545  1
  F  F31  1  0.266565  0.679431  0.954357  1
  F  F32  1  0.236979  0.688298  0.449730  1
  F  F33  1  0.737595  0.309211  0.050997  1
  F  F34  1  0.552046  0.664181  0.893184  1
  F  F35  1  0.782387  0.550935  0.742233  1
