# generated using pymatgen
data_Dy2Co2Sn2C
_symmetry_space_group_name_H-M   'P 1'
_cell_length_a   6.04680559
_cell_length_b   6.04680503
_cell_length_c   7.18114232
_cell_angle_alpha   125.26206235
_cell_angle_beta   125.26206172
_cell_angle_gamma   39.15376555
_symmetry_Int_Tables_number   1
_chemical_formula_structural   Dy2Co2Sn2C
_chemical_formula_sum   'Dy2 Co2 Sn2 C1'
_cell_volume   131.01985213
_cell_formula_units_Z   1
loop_
 _symmetry_equiv_pos_site_id
 _symmetry_equiv_pos_as_xyz
  1  'x, y, z'
loop_
 _atom_site_type_symbol
 _atom_site_label
 _atom_site_symmetry_multiplicity
 _atom_site_fract_x
 _atom_site_fract_y
 _atom_site_fract_z
 _atom_site_occupancy
  Dy  Dy0  1  0.551307  0.551307  0.272831  1
  Dy  Dy1  1  0.448693  0.448693  0.727169  1
  Co  Co2  1  0.177269  0.177269  0.074951  1
  Co  Co3  1  0.822731  0.822731  0.925049  1
  Sn  Sn4  1  0.835806  0.835806  0.297725  1
  Sn  Sn5  1  0.164195  0.164195  0.702275  1
  C  C6  1  0.000000  0.000000  0.000000  1
