# generated using pymatgen
data_PaNbB6Os
_symmetry_space_group_name_H-M   'P 1'
_cell_length_a   3.51076800
_cell_length_b   9.06880300
_cell_length_c   11.42572000
_cell_angle_alpha   90.00000000
_cell_angle_beta   90.00000000
_cell_angle_gamma   90.00000000
_symmetry_Int_Tables_number   1
_chemical_formula_structural   PaNbB6Os
_chemical_formula_sum   'Pa4 Nb4 B24 Os4'
_cell_volume   363.77736770
_cell_formula_units_Z   4
loop_
 _symmetry_equiv_pos_site_id
 _symmetry_equiv_pos_as_xyz
  1  'x, y, z'
loop_
 _atom_site_type_symbol
 _atom_site_label
 _atom_site_symmetry_multiplicity
 _atom_site_fract_x
 _atom_site_fract_y
 _atom_site_fract_z
 _atom_site_occupancy
  Pa  Pa0  1  0.000000  0.322232  0.412084  1
  Pa  Pa1  1  0.000000  0.677768  0.587916  1
  Pa  Pa2  1  0.000000  0.822232  0.087916  1
  Pa  Pa3  1  0.000000  0.177768  0.912084  1
  Nb  Nb4  1  0.000000  0.947323  0.375603  1
  Nb  Nb5  1  0.000000  0.052677  0.624397  1
  Nb  Nb6  1  0.000000  0.447323  0.124397  1
  Nb  Nb7  1  0.000000  0.552677  0.875603  1
  B  B8  1  0.500000  0.552535  0.435112  1
  B  B9  1  0.500000  0.447465  0.564888  1
  B  B10  1  0.500000  0.052535  0.064888  1
  B  B11  1  0.500000  0.947465  0.935112  1
  B  B12  1  0.500000  0.754697  0.421088  1
  B  B13  1  0.500000  0.245303  0.578912  1
  B  B14  1  0.500000  0.254697  0.078912  1
  B  B15  1  0.500000  0.745303  0.921088  1
  B  B16  1  0.500000  0.798284  0.265728  1
  B  B17  1  0.500000  0.201716  0.734271  1
  B  B18  1  0.500000  0.298284  0.234272  1
  B  B19  1  0.500000  0.701716  0.765729  1
  B  B20  1  0.500000  0.630777  0.181040  1
  B  B21  1  0.500000  0.369223  0.818960  1
  B  B22  1  0.500000  0.130777  0.318960  1
  B  B23  1  0.500000  0.869223  0.681040  1
  B  B24  1  0.500000  0.979959  0.215792  1
  B  B25  1  0.500000  0.020041  0.784208  1
  B  B26  1  0.500000  0.479959  0.284208  1
  B  B27  1  0.500000  0.520041  0.715792  1
  B  B28  1  0.500000  0.601135  0.026905  1
  B  B29  1  0.500000  0.398865  0.973095  1
  B  B30  1  0.500000  0.101135  0.473095  1
  B  B31  1  0.500000  0.898865  0.526905  1
  Os  Os32  1  0.000000  0.640872  0.321573  1
  Os  Os33  1  0.000000  0.359128  0.678427  1
  Os  Os34  1  0.000000  0.140872  0.178427  1
  Os  Os35  1  0.000000  0.859128  0.821573  1
