# generated using pymatgen
data_Ho16Mg2TlInIr4
_symmetry_space_group_name_H-M   'P 1'
_cell_length_a   9.65458194
_cell_length_b   9.64994157
_cell_length_c   9.67893800
_cell_angle_alpha   59.90055115
_cell_angle_beta   59.91651308
_cell_angle_gamma   59.77767279
_symmetry_Int_Tables_number   1
_chemical_formula_structural   Ho16Mg2TlInIr4
_chemical_formula_sum   'Ho16 Mg2 Tl1 In1 Ir4'
_cell_volume   635.67629658
_cell_formula_units_Z   1
loop_
 _symmetry_equiv_pos_site_id
 _symmetry_equiv_pos_as_xyz
  1  'x, y, z'
loop_
 _atom_site_type_symbol
 _atom_site_label
 _atom_site_symmetry_multiplicity
 _atom_site_fract_x
 _atom_site_fract_y
 _atom_site_fract_z
 _atom_site_occupancy
  Ho  Ho0  1  0.437034  0.437080  0.062943  1
  Ho  Ho1  1  0.651798  0.651179  0.045126  1
  Ho  Ho2  1  0.189446  0.810934  0.189437  1
  Ho  Ho3  1  0.061534  0.438711  0.062117  1
  Ho  Ho4  1  0.189446  0.810934  0.810182  1
  Ho  Ho5  1  0.061534  0.438711  0.437639  1
  Ho  Ho6  1  0.811044  0.189845  0.189948  1
  Ho  Ho7  1  0.651798  0.651179  0.651899  1
  Ho  Ho8  1  0.811044  0.189845  0.809164  1
  Ho  Ho9  1  0.187030  0.186964  0.813003  1
  Ho  Ho10  1  0.042403  0.651718  0.652940  1
  Ho  Ho11  1  0.439041  0.061620  0.061451  1
  Ho  Ho12  1  0.060819  0.060958  0.439111  1
  Ho  Ho13  1  0.651960  0.042981  0.652530  1
  Ho  Ho14  1  0.808550  0.807627  0.191911  1
  Ho  Ho15  1  0.439041  0.061620  0.437888  1
  Mg  Mg16  1  0.423152  0.422832  0.419581  1
  Mg  Mg17  1  0.423152  0.422832  0.734436  1
  Tl  Tl18  1  0.415042  0.749895  0.417532  1
  In  In19  1  0.748395  0.415700  0.417953  1
  Ir  Ir20  1  0.423852  0.857185  0.859481  1
  Ir  Ir21  1  0.857895  0.857934  0.859875  1
  Ir  Ir22  1  0.857098  0.423783  0.859559  1
  Ir  Ir23  1  0.857895  0.857934  0.424295  1
