# generated using pymatgen
data_Ho4IrPb2Au3
_symmetry_space_group_name_H-M   'P 1'
_cell_length_a   3.61406400
_cell_length_b   8.11137632
_cell_length_c   8.11137599
_cell_angle_alpha   89.92712449
_cell_angle_beta   90.00000000
_cell_angle_gamma   90.00000000
_symmetry_Int_Tables_number   1
_chemical_formula_structural   Ho4IrPb2Au3
_chemical_formula_sum   'Ho4 Ir1 Pb2 Au3'
_cell_volume   237.78506354
_cell_formula_units_Z   1
loop_
 _symmetry_equiv_pos_site_id
 _symmetry_equiv_pos_as_xyz
  1  'x, y, z'
loop_
 _atom_site_type_symbol
 _atom_site_label
 _atom_site_symmetry_multiplicity
 _atom_site_fract_x
 _atom_site_fract_y
 _atom_site_fract_z
 _atom_site_occupancy
  Ho  Ho0  1  0.500000  0.165690  0.665690  1
  Ho  Ho1  1  0.500000  0.814500  0.314500  1
  Ho  Ho2  1  0.500000  0.353513  0.174837  1
  Ho  Ho3  1  0.500000  0.674837  0.853513  1
  Ir  Ir4  1  0.000000  0.623465  0.123465  1
  Pb  Pb5  1  0.000000  0.001154  0.002639  1
  Pb  Pb6  1  0.000000  0.502639  0.501154  1
  Au  Au7  1  0.000000  0.372130  0.872130  1
  Au  Au8  1  0.000000  0.870897  0.621173  1
  Au  Au9  1  0.000000  0.121173  0.370897  1
