# generated using pymatgen
data_PrSmU8O20
_symmetry_space_group_name_H-M   'P 1'
_cell_length_a   6.66471795
_cell_length_b   7.68265920
_cell_length_c   8.60454273
_cell_angle_alpha   102.87210326
_cell_angle_beta   97.45764832
_cell_angle_gamma   106.66099259
_symmetry_Int_Tables_number   1
_chemical_formula_structural   PrSmU8O20
_chemical_formula_sum   'Pr1 Sm1 U8 O20'
_cell_volume   402.52930379
_cell_formula_units_Z   1
loop_
 _symmetry_equiv_pos_site_id
 _symmetry_equiv_pos_as_xyz
  1  'x, y, z'
loop_
 _atom_site_type_symbol
 _atom_site_label
 _atom_site_symmetry_multiplicity
 _atom_site_fract_x
 _atom_site_fract_y
 _atom_site_fract_z
 _atom_site_occupancy
  Pr  Pr0  1  0.999686  0.999244  0.998923  1
  Sm  Sm1  1  0.400079  0.800158  0.800804  1
  U  U2  1  0.000599  0.500207  0.999240  1
  U  U3  1  0.400265  0.300703  0.800663  1
  U  U4  1  0.796787  0.098448  0.599091  1
  U  U5  1  0.799716  0.599519  0.600118  1
  U  U6  1  0.200267  0.400727  0.400972  1
  U  U7  1  0.200982  0.899962  0.400994  1
  U  U8  1  0.601368  0.700718  0.200088  1
  U  U9  1  0.599910  0.200838  0.199265  1
  O  O10  1  0.363795  0.089898  0.951676  1
  O  O11  1  0.352367  0.568135  0.955696  1
  O  O12  1  0.047539  0.234572  0.842827  1
  O  O13  1  0.040556  0.707210  0.844764  1
  O  O14  1  0.447834  0.514254  0.644671  1
  O  O15  1  0.445639  0.030301  0.643705  1
  O  O16  1  0.743091  0.371470  0.750407  1
  O  O17  1  0.748776  0.871378  0.735425  1
  O  O18  1  0.142593  0.671362  0.541841  1
  O  O19  1  0.143502  0.173056  0.548307  1
  O  O20  1  0.845734  0.323246  0.452618  1
  O  O21  1  0.554813  0.478133  0.348486  1
  O  O22  1  0.551675  0.974190  0.353830  1
  O  O23  1  0.850702  0.826183  0.447139  1
  O  O24  1  0.261514  0.130301  0.260673  1
  O  O25  1  0.258081  0.627271  0.252061  1
  O  O26  1  0.653777  0.428416  0.049166  1
  O  O27  1  0.643635  0.924977  0.062363  1
  O  O28  1  0.950815  0.289031  0.157231  1
  O  O29  1  0.953902  0.766095  0.156958  1
