# generated using pymatgen
data_Na(Yb3Au5)2
_symmetry_space_group_name_H-M   'P 1'
_cell_length_a   8.74049217
_cell_length_b   8.74048910
_cell_length_c   10.42554000
_cell_angle_alpha   89.92654880
_cell_angle_beta   89.92661438
_cell_angle_gamma   107.01034992
_symmetry_Int_Tables_number   1
_chemical_formula_structural   Na(Yb3Au5)2
_chemical_formula_sum   'Na2 Yb12 Au20'
_cell_volume   761.62553775
_cell_formula_units_Z   2
loop_
 _symmetry_equiv_pos_site_id
 _symmetry_equiv_pos_as_xyz
  1  'x, y, z'
loop_
 _atom_site_type_symbol
 _atom_site_label
 _atom_site_symmetry_multiplicity
 _atom_site_fract_x
 _atom_site_fract_y
 _atom_site_fract_z
 _atom_site_occupancy
  Na  Na0  1  0.190250  0.190249  0.690428  1
  Na  Na1  1  0.809750  0.809751  0.309572  1
  Yb  Yb2  1  0.694767  0.305236  0.000000  1
  Yb  Yb3  1  0.305233  0.694764  0.000000  1
  Yb  Yb4  1  0.806530  0.193468  0.500000  1
  Yb  Yb5  1  0.193470  0.806532  0.500000  1
  Yb  Yb6  1  0.000000  0.000000  0.000000  1
  Yb  Yb7  1  0.500000  0.500000  0.500000  1
  Yb  Yb8  1  0.997972  0.511925  0.250556  1
  Yb  Yb9  1  0.002028  0.488075  0.749444  1
  Yb  Yb10  1  0.488076  0.002029  0.749445  1
  Yb  Yb11  1  0.511924  0.997971  0.250555  1
  Yb  Yb12  1  0.310246  0.310246  0.190147  1
  Yb  Yb13  1  0.689754  0.689754  0.809853  1
  Au  Au14  1  0.868243  0.158993  0.209824  1
  Au  Au15  1  0.131757  0.841007  0.790176  1
  Au  Au16  1  0.640547  0.351158  0.709368  1
  Au  Au17  1  0.648841  0.359453  0.290632  1
  Au  Au18  1  0.359453  0.648842  0.290632  1
  Au  Au19  1  0.351159  0.640547  0.709368  1
  Au  Au20  1  0.841008  0.131756  0.790177  1
  Au  Au21  1  0.158992  0.868244  0.209823  1
  Au  Au22  1  0.936675  0.643676  0.999223  1
  Au  Au23  1  0.063325  0.356324  0.000777  1
  Au  Au24  1  0.560651  0.854647  0.507448  1
  Au  Au25  1  0.145353  0.439350  0.492551  1
  Au  Au26  1  0.439349  0.145353  0.492552  1
  Au  Au27  1  0.854647  0.560650  0.507449  1
  Au  Au28  1  0.356326  0.063326  0.000777  1
  Au  Au29  1  0.643674  0.936674  0.999223  1
  Au  Au30  1  0.103897  0.103896  0.395362  1
  Au  Au31  1  0.896103  0.896104  0.604638  1
  Au  Au32  1  0.401130  0.401130  0.899548  1
  Au  Au33  1  0.598870  0.598870  0.100452  1
