# generated using pymatgen
data_Lu8Ta9Si16Mo3
_symmetry_space_group_name_H-M   'P 1'
_cell_length_a   6.72287207
_cell_length_b   6.97026461
_cell_length_c   13.21362200
_cell_angle_alpha   90.00000000
_cell_angle_beta   90.00000000
_cell_angle_gamma   89.96902235
_symmetry_Int_Tables_number   1
_chemical_formula_structural   Lu8Ta9Si16Mo3
_chemical_formula_sum   'Lu8 Ta9 Si16 Mo3'
_cell_volume   619.19284268
_cell_formula_units_Z   1
loop_
 _symmetry_equiv_pos_site_id
 _symmetry_equiv_pos_as_xyz
  1  'x, y, z'
loop_
 _atom_site_type_symbol
 _atom_site_label
 _atom_site_symmetry_multiplicity
 _atom_site_fract_x
 _atom_site_fract_y
 _atom_site_fract_z
 _atom_site_occupancy
  Lu  Lu0  1  0.500924  0.327881  0.094192  1
  Lu  Lu1  1  0.000799  0.172385  0.405645  1
  Lu  Lu2  1  0.498768  0.672513  0.594715  1
  Lu  Lu3  1  0.998500  0.827804  0.905806  1
  Lu  Lu4  1  0.498768  0.672513  0.905285  1
  Lu  Lu5  1  0.998500  0.827804  0.594194  1
  Lu  Lu6  1  0.500924  0.327881  0.405808  1
  Lu  Lu7  1  0.000799  0.172385  0.094355  1
  Ta  Ta8  1  0.834743  0.329176  0.625172  1
  Ta  Ta9  1  0.334904  0.171054  0.875128  1
  Ta  Ta10  1  0.165370  0.670142  0.125721  1
  Ta  Ta11  1  0.665719  0.829956  0.373689  1
  Ta  Ta12  1  0.165370  0.670142  0.374279  1
  Ta  Ta13  1  0.665719  0.829956  0.126311  1
  Ta  Ta14  1  0.834743  0.329176  0.874828  1
  Ta  Ta15  1  0.334904  0.171054  0.624872  1
  Ta  Ta16  1  0.660828  0.007932  0.750000  1
  Si  Si17  1  0.666571  0.036177  0.540843  1
  Si  Si18  1  0.166316  0.462779  0.958348  1
  Si  Si19  1  0.333875  0.962731  0.042203  1
  Si  Si20  1  0.833821  0.537250  0.458126  1
  Si  Si21  1  0.333875  0.962731  0.457797  1
  Si  Si22  1  0.833821  0.537250  0.041874  1
  Si  Si23  1  0.666571  0.036177  0.959157  1
  Si  Si24  1  0.166316  0.462779  0.541652  1
  Si  Si25  1  0.533482  0.383579  0.750000  1
  Si  Si26  1  0.038266  0.118526  0.750000  1
  Si  Si27  1  0.465188  0.617602  0.250000  1
  Si  Si28  1  0.966077  0.882867  0.250000  1
  Si  Si29  1  0.796774  0.632695  0.750000  1
  Si  Si30  1  0.293427  0.863840  0.750000  1
  Si  Si31  1  0.203078  0.364825  0.250000  1
  Si  Si32  1  0.703008  0.135477  0.250000  1
  Mo  Mo33  1  0.160479  0.492671  0.750000  1
  Mo  Mo34  1  0.339709  0.993304  0.250000  1
  Mo  Mo35  1  0.839066  0.506980  0.250000  1
