# generated using pymatgen
data_Pr5P12Ru18Rh
_symmetry_space_group_name_H-M   'P 1'
_cell_length_a   12.64871200
_cell_length_b   12.66671581
_cell_length_c   4.02863200
_cell_angle_alpha   90.00000000
_cell_angle_beta   90.00000000
_cell_angle_gamma   119.95299333
_symmetry_Int_Tables_number   1
_chemical_formula_structural   Pr5P12Ru18Rh
_chemical_formula_sum   'Pr5 P12 Ru18 Rh1'
_cell_volume   559.24753472
_cell_formula_units_Z   1
loop_
 _symmetry_equiv_pos_site_id
 _symmetry_equiv_pos_as_xyz
  1  'x, y, z'
loop_
 _atom_site_type_symbol
 _atom_site_label
 _atom_site_symmetry_multiplicity
 _atom_site_fract_x
 _atom_site_fract_y
 _atom_site_fract_z
 _atom_site_occupancy
  Pr  Pr0  1  0.816552  0.000000  0.500000  1
  Pr  Pr1  1  0.000241  0.815709  0.500000  1
  Pr  Pr2  1  0.184532  0.184291  0.500000  1
  Pr  Pr3  1  0.332663  0.665085  0.000000  1
  Pr  Pr4  1  0.667579  0.334915  0.000000  1
  P  P5  1  0.189655  0.000000  0.000000  1
  P  P6  1  0.999390  0.187146  0.000000  1
  P  P7  1  0.812245  0.812854  0.000000  1
  P  P8  1  0.523275  0.695079  0.500000  1
  P  P9  1  0.301097  0.824396  0.500000  1
  P  P10  1  0.170656  0.474636  0.500000  1
  P  P11  1  0.476701  0.175604  0.500000  1
  P  P12  1  0.696021  0.525364  0.500000  1
  P  P13  1  0.828196  0.304921  0.500000  1
  P  P14  1  0.627442  0.000000  0.000000  1
  P  P15  1  0.999702  0.624526  0.000000  1
  P  P16  1  0.375176  0.375474  0.000000  1
  Ru  Ru17  1  0.999035  0.444531  0.000000  1
  Ru  Ru18  1  0.554504  0.555469  0.000000  1
  Ru  Ru19  1  0.287986  0.000000  0.500000  1
  Ru  Ru20  1  0.998988  0.284728  0.500000  1
  Ru  Ru21  1  0.714260  0.715272  0.500000  1
  Ru  Ru22  1  0.620762  0.806285  0.000000  1
  Ru  Ru23  1  0.194006  0.815021  0.000000  1
  Ru  Ru24  1  0.183697  0.377574  0.000000  1
  Ru  Ru25  1  0.378985  0.184979  0.000000  1
  Ru  Ru26  1  0.806124  0.622426  0.000000  1
  Ru  Ru27  1  0.814477  0.193715  0.000000  1
  Ru  Ru28  1  0.507919  0.875845  0.500000  1
  Ru  Ru29  1  0.122938  0.630986  0.500000  1
  Ru  Ru30  1  0.367102  0.491428  0.500000  1
  Ru  Ru31  1  0.491952  0.369014  0.500000  1
  Ru  Ru32  1  0.875675  0.508572  0.500000  1
  Ru  Ru33  1  0.632074  0.124155  0.500000  1
  Ru  Ru34  1  0.001424  0.000000  0.000000  1
  Rh  Rh35  1  0.446971  0.000000  0.000000  1
