# generated using pymatgen
data_Y4Tm4Tc(B8Rh)3
_symmetry_space_group_name_H-M   'P 1'
_cell_length_a   3.65459600
_cell_length_b   9.12362709
_cell_length_c   11.49754513
_cell_angle_alpha   90.15688091
_cell_angle_beta   90.00000000
_cell_angle_gamma   90.00000000
_symmetry_Int_Tables_number   1
_chemical_formula_structural   Y4Tm4Tc(B8Rh)3
_chemical_formula_sum   'Y4 Tm4 Tc1 B24 Rh3'
_cell_volume   383.36317694
_cell_formula_units_Z   1
loop_
 _symmetry_equiv_pos_site_id
 _symmetry_equiv_pos_as_xyz
  1  'x, y, z'
loop_
 _atom_site_type_symbol
 _atom_site_label
 _atom_site_symmetry_multiplicity
 _atom_site_fract_x
 _atom_site_fract_y
 _atom_site_fract_z
 _atom_site_occupancy
  Y  Y0  1  0.500000  0.318417  0.410887  1
  Y  Y1  1  0.500000  0.677919  0.585626  1
  Y  Y2  1  0.500000  0.178952  0.917393  1
  Y  Y3  1  0.500000  0.824402  0.086846  1
  Tm  Tm4  1  0.500000  0.442631  0.126302  1
  Tm  Tm5  1  0.500000  0.556790  0.872411  1
  Tm  Tm6  1  0.500000  0.056180  0.628073  1
  Tm  Tm7  1  0.500000  0.945942  0.372517  1
  Tc  Tc8  1  0.500000  0.138975  0.179897  1
  B  B9  1  0.000000  0.104764  0.472502  1
  B  B10  1  0.000000  0.894256  0.529401  1
  B  B11  1  0.000000  0.395713  0.970396  1
  B  B12  1  0.000000  0.606785  0.028197  1
  B  B13  1  0.000000  0.131378  0.315402  1
  B  B14  1  0.000000  0.867640  0.683470  1
  B  B15  1  0.000000  0.369020  0.816704  1
  B  B16  1  0.000000  0.631966  0.183103  1
  B  B17  1  0.000000  0.054204  0.067115  1
  B  B18  1  0.000000  0.945984  0.933518  1
  B  B19  1  0.000000  0.444297  0.565721  1
  B  B20  1  0.000000  0.553609  0.433367  1
  B  B21  1  0.000000  0.483182  0.286055  1
  B  B22  1  0.000000  0.517170  0.713101  1
  B  B23  1  0.000000  0.017523  0.787000  1
  B  B24  1  0.000000  0.983269  0.213823  1
  B  B25  1  0.000000  0.249802  0.081018  1
  B  B26  1  0.000000  0.750177  0.919670  1
  B  B27  1  0.000000  0.249067  0.579643  1
  B  B28  1  0.000000  0.750062  0.420198  1
  B  B29  1  0.000000  0.292854  0.234506  1
  B  B30  1  0.000000  0.706245  0.763968  1
  B  B31  1  0.000000  0.207393  0.735770  1
  B  B32  1  0.000000  0.792604  0.265648  1
  Rh  Rh33  1  0.500000  0.861298  0.820597  1
  Rh  Rh34  1  0.500000  0.360383  0.679787  1
  Rh  Rh35  1  0.500000  0.639153  0.320367  1
