# generated using pymatgen
data_Ho8ReSi16W11
_symmetry_space_group_name_H-M   'P 1'
_cell_length_a   6.86475445
_cell_length_b   6.86475412
_cell_length_c   12.74481522
_cell_angle_alpha   90.02836924
_cell_angle_beta   89.97162964
_cell_angle_gamma   89.77680194
_symmetry_Int_Tables_number   1
_chemical_formula_structural   Ho8ReSi16W11
_chemical_formula_sum   'Ho8 Re1 Si16 W11'
_cell_volume   600.59281813
_cell_formula_units_Z   1
loop_
 _symmetry_equiv_pos_site_id
 _symmetry_equiv_pos_as_xyz
  1  'x, y, z'
loop_
 _atom_site_type_symbol
 _atom_site_label
 _atom_site_symmetry_multiplicity
 _atom_site_fract_x
 _atom_site_fract_y
 _atom_site_fract_z
 _atom_site_occupancy
  Ho  Ho0  1  0.338434  0.996971  0.469095  1
  Ho  Ho1  1  0.502877  0.836789  0.718553  1
  Ho  Ho2  1  0.498170  0.163121  0.219526  1
  Ho  Ho3  1  0.836789  0.502877  0.281447  1
  Ho  Ho4  1  0.163121  0.498170  0.780474  1
  Ho  Ho5  1  0.662435  0.002204  0.969088  1
  Ho  Ho6  1  0.996971  0.338434  0.530905  1
  Ho  Ho7  1  0.002204  0.662435  0.030912  1
  Re  Re8  1  0.667484  0.667484  0.500000  1
  Si  Si9  1  0.202734  0.125884  0.683650  1
  Si  Si10  1  0.374015  0.701682  0.933565  1
  Si  Si11  1  0.623707  0.302267  0.434406  1
  Si  Si12  1  0.701682  0.374015  0.066435  1
  Si  Si13  1  0.302267  0.623707  0.565594  1
  Si  Si14  1  0.796901  0.873756  0.183667  1
  Si  Si15  1  0.125884  0.202734  0.316350  1
  Si  Si16  1  0.873756  0.796901  0.816333  1
  Si  Si17  1  0.288523  0.963979  0.064094  1
  Si  Si18  1  0.537741  0.788680  0.315704  1
  Si  Si19  1  0.463492  0.209848  0.814608  1
  Si  Si20  1  0.788680  0.537741  0.684296  1
  Si  Si21  1  0.209848  0.463492  0.185392  1
  Si  Si22  1  0.714722  0.032394  0.562076  1
  Si  Si23  1  0.963979  0.288523  0.935906  1
  Si  Si24  1  0.032394  0.714722  0.437924  1
  W  W25  1  0.333109  0.333109  0.000000  1
  W  W26  1  0.166286  0.832973  0.250832  1
  W  W27  1  0.832973  0.166286  0.749168  1
  W  W28  1  0.163455  0.998265  0.873541  1
  W  W29  1  0.500323  0.664912  0.124819  1
  W  W30  1  0.499845  0.330990  0.625226  1
  W  W31  1  0.664912  0.500323  0.875181  1
  W  W32  1  0.330990  0.499845  0.374774  1
  W  W33  1  0.835046  0.005981  0.371760  1
  W  W34  1  0.998265  0.163455  0.126459  1
  W  W35  1  0.005981  0.835046  0.628240  1
