# generated using pymatgen
data_Sm4Mg(In2Pt)10
_symmetry_space_group_name_H-M   'P 1'
_cell_length_a   4.49843506
_cell_length_b   12.00655279
_cell_length_c   14.65812600
_cell_angle_alpha   81.36767198
_cell_angle_beta   81.17338225
_cell_angle_gamma   79.20284423
_symmetry_Int_Tables_number   1
_chemical_formula_structural   Sm4Mg(In2Pt)10
_chemical_formula_sum   'Sm4 Mg1 In20 Pt10'
_cell_volume   762.44115804
_cell_formula_units_Z   1
loop_
 _symmetry_equiv_pos_site_id
 _symmetry_equiv_pos_as_xyz
  1  'x, y, z'
loop_
 _atom_site_type_symbol
 _atom_site_label
 _atom_site_symmetry_multiplicity
 _atom_site_fract_x
 _atom_site_fract_y
 _atom_site_fract_z
 _atom_site_occupancy
  Sm  Sm0  1  0.122204  0.086801  0.668791  1
  Sm  Sm1  1  0.877796  0.913199  0.331209  1
  Sm  Sm2  1  0.771334  0.629919  0.827411  1
  Sm  Sm3  1  0.228666  0.370081  0.172589  1
  Mg  Mg4  1  0.500000  0.500000  0.500000  1
  In  In5  1  0.012489  0.068360  0.906663  1
  In  In6  1  0.987511  0.931640  0.093337  1
  In  In7  1  0.062674  0.672460  0.202193  1
  In  In8  1  0.937326  0.327540  0.797807  1
  In  In9  1  0.112571  0.324653  0.450202  1
  In  In10  1  0.887429  0.675347  0.549798  1
  In  In11  1  0.201393  0.603066  0.994146  1
  In  In12  1  0.798607  0.396934  0.005854  1
  In  In13  1  0.255379  0.785851  0.703393  1
  In  In14  1  0.744621  0.214149  0.296607  1
  In  In15  1  0.300744  0.900842  0.497671  1
  In  In16  1  0.699256  0.099158  0.502329  1
  In  In17  1  0.385880  0.524508  0.703731  1
  In  In18  1  0.614120  0.475492  0.296269  1
  In  In19  1  0.399014  0.205937  0.996033  1
  In  In20  1  0.600986  0.794063  0.003967  1
  In  In21  1  0.542078  0.284627  0.631217  1
  In  In22  1  0.457922  0.715373  0.368783  1
  In  In23  1  0.634203  0.934930  0.796665  1
  In  In24  1  0.365797  0.065070  0.203335  1
  Pt  Pt25  1  0.025145  0.562690  0.387019  1
  Pt  Pt26  1  0.974855  0.437310  0.612981  1
  Pt  Pt27  1  0.140859  0.829049  0.889233  1
  Pt  Pt28  1  0.859141  0.170951  0.110767  1
  Pt  Pt29  1  0.248824  0.115069  0.387284  1
  Pt  Pt30  1  0.751176  0.884931  0.612716  1
  Pt  Pt31  1  0.344074  0.424059  0.887794  1
  Pt  Pt32  1  0.655926  0.575941  0.112206  1
  Pt  Pt33  1  0.509466  0.170371  0.810698  1
  Pt  Pt34  1  0.490534  0.829629  0.189302  1
