# generated using pymatgen
data_Ba11LaCo4(O9F)2
_symmetry_space_group_name_H-M   'P 1'
_cell_length_a   7.34799426
_cell_length_b   7.31919923
_cell_length_c   11.74567498
_cell_angle_alpha   89.98734631
_cell_angle_beta   89.88334372
_cell_angle_gamma   90.17199031
_symmetry_Int_Tables_number   1
_chemical_formula_structural   Ba11LaCo4(O9F)2
_chemical_formula_sum   'Ba11 La1 Co4 O18 F2'
_cell_volume   631.69507124
_cell_formula_units_Z   1
loop_
 _symmetry_equiv_pos_site_id
 _symmetry_equiv_pos_as_xyz
  1  'x, y, z'
loop_
 _atom_site_type_symbol
 _atom_site_label
 _atom_site_symmetry_multiplicity
 _atom_site_fract_x
 _atom_site_fract_y
 _atom_site_fract_z
 _atom_site_occupancy
  Ba  Ba0  1  0.991283  0.001802  0.255751  1
  Ba  Ba1  1  0.495373  0.485056  0.750601  1
  Ba  Ba2  1  0.495343  0.476328  0.248070  1
  Ba  Ba3  1  0.987249  0.001345  0.744359  1
  Ba  Ba4  1  0.167075  0.678673  0.502725  1
  Ba  Ba5  1  0.335778  0.822121  0.999439  1
  Ba  Ba6  1  0.830743  0.320074  0.501934  1
  Ba  Ba7  1  0.824396  0.675140  0.999030  1
  Ba  Ba8  1  0.321812  0.161682  0.501216  1
  Ba  Ba9  1  0.175475  0.332163  0.998674  1
  Ba  Ba10  1  0.671847  0.831911  0.500485  1
  La  La11  1  0.661739  0.187116  0.995814  1
  Co  Co12  1  0.503563  0.001555  0.753399  1
  Co  Co13  1  0.993199  0.495404  0.754242  1
  Co  Co14  1  0.992891  0.494694  0.245912  1
  Co  Co15  1  0.505252  0.000829  0.245954  1
  O  O16  1  0.515683  0.484604  0.006843  1
  O  O17  1  0.998199  0.993500  0.498528  1
  O  O18  1  0.125982  0.640118  0.153438  1
  O  O19  1  0.628889  0.147368  0.646420  1
  O  O20  1  0.370918  0.852808  0.344083  1
  O  O21  1  0.855454  0.343011  0.859618  1
  O  O22  1  0.861360  0.347274  0.150793  1
  O  O23  1  0.370001  0.853020  0.655689  1
  O  O24  1  0.371845  0.139874  0.140165  1
  O  O25  1  0.843977  0.624770  0.653630  1
  O  O26  1  0.846431  0.626480  0.337475  1
  O  O27  1  0.385392  0.148618  0.862466  1
  O  O28  1  0.630907  0.147638  0.352979  1
  O  O29  1  0.128391  0.636668  0.855724  1
  O  O30  1  0.138731  0.363394  0.338785  1
  O  O31  1  0.661737  0.901731  0.862394  1
  O  O32  1  0.671039  0.915427  0.135716  1
  O  O33  1  0.141690  0.362380  0.652803  1
  F  F34  1  0.006285  0.007040  0.999005  1
  F  F35  1  0.494071  0.498381  0.495841  1
