# generated using pymatgen
data_Ho4Co4P12Ir13Rh3
_symmetry_space_group_name_H-M   'P 1'
_cell_length_a   3.91361500
_cell_length_b   10.72314439
_cell_length_c   12.38865945
_cell_angle_alpha   89.96897942
_cell_angle_beta   90.00000000
_cell_angle_gamma   90.00000000
_symmetry_Int_Tables_number   1
_chemical_formula_structural   Ho4Co4P12Ir13Rh3
_chemical_formula_sum   'Ho4 Co4 P12 Ir13 Rh3'
_cell_volume   519.90561193
_cell_formula_units_Z   1
loop_
 _symmetry_equiv_pos_site_id
 _symmetry_equiv_pos_as_xyz
  1  'x, y, z'
loop_
 _atom_site_type_symbol
 _atom_site_label
 _atom_site_symmetry_multiplicity
 _atom_site_fract_x
 _atom_site_fract_y
 _atom_site_fract_z
 _atom_site_occupancy
  Ho  Ho0  1  0.250000  0.585999  0.709414  1
  Ho  Ho1  1  0.250000  0.914725  0.209268  1
  Ho  Ho2  1  0.750000  0.414960  0.290803  1
  Ho  Ho3  1  0.750000  0.085461  0.790957  1
  Co  Co4  1  0.250000  0.463344  0.933495  1
  Co  Co5  1  0.250000  0.038290  0.433830  1
  Co  Co6  1  0.750000  0.536764  0.066316  1
  Co  Co7  1  0.750000  0.963972  0.566079  1
  P  P8  1  0.250000  0.425734  0.105474  1
  P  P9  1  0.250000  0.073415  0.605883  1
  P  P10  1  0.750000  0.574194  0.894207  1
  P  P11  1  0.750000  0.924891  0.394530  1
  P  P12  1  0.250000  0.271039  0.871596  1
  P  P13  1  0.250000  0.228810  0.371234  1
  P  P14  1  0.750000  0.729009  0.128485  1
  P  P15  1  0.750000  0.771021  0.628388  1
  P  P16  1  0.250000  0.596161  0.385778  1
  P  P17  1  0.250000  0.904052  0.885845  1
  P  P18  1  0.750000  0.405425  0.615312  1
  P  P19  1  0.750000  0.095818  0.114026  1
  Ir  Ir20  1  0.750000  0.221447  0.517362  1
  Ir  Ir21  1  0.250000  0.407209  0.477761  1
  Ir  Ir22  1  0.250000  0.092262  0.978115  1
  Ir  Ir23  1  0.750000  0.591453  0.521717  1
  Ir  Ir24  1  0.750000  0.907711  0.021954  1
  Ir  Ir25  1  0.250000  0.231238  0.179883  1
  Ir  Ir26  1  0.250000  0.268221  0.678790  1
  Ir  Ir27  1  0.750000  0.768974  0.820601  1
  Ir  Ir28  1  0.750000  0.730912  0.320362  1
  Ir  Ir29  1  0.250000  0.886488  0.698951  1
  Ir  Ir30  1  0.250000  0.613112  0.198768  1
  Ir  Ir31  1  0.750000  0.112781  0.301228  1
  Ir  Ir32  1  0.750000  0.385918  0.801109  1
  Rh  Rh33  1  0.250000  0.720648  0.982510  1
  Rh  Rh34  1  0.250000  0.779175  0.482285  1
  Rh  Rh35  1  0.750000  0.279369  0.017681  1
