# generated using pymatgen
data_Rb2U(SeO3)4
_symmetry_space_group_name_H-M   'P 1'
_cell_length_a   7.51631252
_cell_length_b   10.63257666
_cell_length_c   11.66095303
_cell_angle_alpha   62.50710524
_cell_angle_beta   81.40342608
_cell_angle_gamma   74.77115427
_symmetry_Int_Tables_number   1
_chemical_formula_structural   Rb2U(SeO3)4
_chemical_formula_sum   'Rb4 U2 Se8 O24'
_cell_volume   797.21144739
_cell_formula_units_Z   2
loop_
 _symmetry_equiv_pos_site_id
 _symmetry_equiv_pos_as_xyz
  1  'x, y, z'
loop_
 _atom_site_type_symbol
 _atom_site_label
 _atom_site_symmetry_multiplicity
 _atom_site_fract_x
 _atom_site_fract_y
 _atom_site_fract_z
 _atom_site_occupancy
  Rb  Rb0  1  0.796932  0.191910  0.022609  1
  Rb  Rb1  1  0.168064  0.710248  0.382364  1
  Rb  Rb2  1  0.831959  0.289763  0.617592  1
  Rb  Rb3  1  0.203090  0.808132  0.977347  1
  U  U4  1  0.662501  0.738868  0.176585  1
  U  U5  1  0.337539  0.261144  0.823411  1
  Se  Se6  1  0.326251  0.070226  0.189107  1
  Se  Se7  1  0.051561  0.400297  0.262732  1
  Se  Se8  1  0.792469  0.116740  0.385706  1
  Se  Se9  1  0.667007  0.727121  0.506040  1
  Se  Se10  1  0.332990  0.272859  0.493972  1
  Se  Se11  1  0.207458  0.883186  0.614288  1
  Se  Se12  1  0.948432  0.599690  0.737284  1
  Se  Se13  1  0.673700  0.929837  0.810887  1
  O  O14  1  0.395693  0.184529  0.030473  1
  O  O15  1  0.808968  0.868347  0.135569  1
  O  O16  1  0.949898  0.578107  0.169884  1
  O  O17  1  0.405713  0.896768  0.188948  1
  O  O18  1  0.514986  0.611901  0.214868  1
  O  O19  1  0.098551  0.096795  0.182334  1
  O  O20  1  0.640402  0.194282  0.270705  1
  O  O21  1  0.874484  0.323794  0.351783  1
  O  O22  1  0.676066  0.649939  0.403348  1
  O  O23  1  0.139806  0.431947  0.382116  1
  O  O24  1  0.787593  0.855741  0.428021  1
  O  O25  1  0.685989  0.108965  0.524592  1
  O  O26  1  0.313988  0.890994  0.475410  1
  O  O27  1  0.212399  0.144238  0.572042  1
  O  O28  1  0.860186  0.568020  0.617918  1
  O  O29  1  0.323994  0.350046  0.596655  1
  O  O30  1  0.125477  0.676215  0.648183  1
  O  O31  1  0.359499  0.805671  0.729305  1
  O  O32  1  0.901418  0.903167  0.817627  1
  O  O33  1  0.485066  0.388111  0.785137  1
  O  O34  1  0.594386  0.103284  0.811076  1
  O  O35  1  0.050128  0.421906  0.830143  1
  O  O36  1  0.191109  0.131660  0.864414  1
  O  O37  1  0.604245  0.815550  0.969524  1
