# generated using pymatgen
data_TbPr(Co3Si2)2
_symmetry_space_group_name_H-M   'P 1'
_cell_length_a   6.32824859
_cell_length_b   6.32824760
_cell_length_c   6.32824980
_cell_angle_alpha   130.36006112
_cell_angle_beta   114.09315570
_cell_angle_gamma   86.80064291
_symmetry_Int_Tables_number   1
_chemical_formula_structural   TbPr(Co3Si2)2
_chemical_formula_sum   'Tb1 Pr1 Co6 Si4'
_cell_volume   168.17559186
_cell_formula_units_Z   1
loop_
 _symmetry_equiv_pos_site_id
 _symmetry_equiv_pos_as_xyz
  1  'x, y, z'
loop_
 _atom_site_type_symbol
 _atom_site_label
 _atom_site_symmetry_multiplicity
 _atom_site_fract_x
 _atom_site_fract_y
 _atom_site_fract_z
 _atom_site_occupancy
  Tb  Tb0  1  0.250000  0.963544  0.713544  1
  Pr  Pr1  1  0.750000  0.030996  0.280996  1
  Co  Co2  1  0.499655  0.501381  0.501037  1
  Co  Co3  1  0.000345  0.501381  0.001726  1
  Co  Co4  1  0.276724  0.999784  0.280025  1
  Co  Co5  1  0.719760  0.999784  0.723060  1
  Co  Co6  1  0.223276  0.503301  0.723060  1
  Co  Co7  1  0.780240  0.503301  0.280025  1
  Si  Si8  1  0.082112  0.285143  0.203032  1
  Si  Si9  1  0.922178  0.717410  0.795233  1
  Si  Si10  1  0.417888  0.620919  0.203032  1
  Si  Si11  1  0.577822  0.373056  0.795233  1
