# generated using pymatgen
data_NbHgO3F
_symmetry_space_group_name_H-M   'P 1'
_cell_length_a   3.90243317
_cell_length_b   7.35072985
_cell_length_c   6.90586004
_cell_angle_alpha   69.06715028
_cell_angle_beta   89.94884070
_cell_angle_gamma   90.01242480
_symmetry_Int_Tables_number   1
_chemical_formula_structural   NbHgO3F
_chemical_formula_sum   'Nb2 Hg2 O6 F2'
_cell_volume   185.02492739
_cell_formula_units_Z   2
loop_
 _symmetry_equiv_pos_site_id
 _symmetry_equiv_pos_as_xyz
  1  'x, y, z'
loop_
 _atom_site_type_symbol
 _atom_site_label
 _atom_site_symmetry_multiplicity
 _atom_site_fract_x
 _atom_site_fract_y
 _atom_site_fract_z
 _atom_site_occupancy
  Nb  Nb0  1  0.249834  0.844537  0.193953  1
  Nb  Nb1  1  0.750166  0.155462  0.806047  1
  Hg  Hg2  1  0.749636  0.335612  0.227427  1
  Hg  Hg3  1  0.250364  0.664387  0.772573  1
  O  O4  1  0.250292  0.640345  0.080561  1
  O  O5  1  0.749669  0.913388  0.126980  1
  O  O6  1  0.249832  0.686370  0.468183  1
  O  O7  1  0.750168  0.313629  0.531818  1
  O  O8  1  0.250331  0.086611  0.873020  1
  O  O9  1  0.749709  0.359656  0.919439  1
  F  F10  1  0.249617  0.088892  0.278785  1
  F  F11  1  0.750383  0.911107  0.721215  1
