# generated using pymatgen
data_Y6Tm14Cd6CoRu
_symmetry_space_group_name_H-M   'P 1'
_cell_length_a   9.50333000
_cell_length_b   9.50332983
_cell_length_c   9.66438500
_cell_angle_alpha   90.00000000
_cell_angle_beta   90.00000000
_cell_angle_gamma   120.00000060
_symmetry_Int_Tables_number   1
_chemical_formula_structural   Y6Tm14Cd6CoRu
_chemical_formula_sum   'Y6 Tm14 Cd6 Co1 Ru1'
_cell_volume   755.88628287
_cell_formula_units_Z   1
loop_
 _symmetry_equiv_pos_site_id
 _symmetry_equiv_pos_as_xyz
  1  'x, y, z'
loop_
 _atom_site_type_symbol
 _atom_site_label
 _atom_site_symmetry_multiplicity
 _atom_site_fract_x
 _atom_site_fract_y
 _atom_site_fract_z
 _atom_site_occupancy
  Y  Y0  1  0.541173  0.458827  0.250000  1
  Y  Y1  1  0.541173  0.082346  0.250000  1
  Y  Y2  1  0.917654  0.458827  0.250000  1
  Y  Y3  1  0.458775  0.541225  0.750000  1
  Y  Y4  1  0.458775  0.917550  0.750000  1
  Y  Y5  1  0.082450  0.541225  0.750000  1
  Tm  Tm6  1  0.000000  0.000000  0.499739  1
  Tm  Tm7  1  0.000000  0.000000  0.000261  1
  Tm  Tm8  1  0.212044  0.787956  0.436021  1
  Tm  Tm9  1  0.212044  0.424089  0.436021  1
  Tm  Tm10  1  0.575911  0.787956  0.436021  1
  Tm  Tm11  1  0.790676  0.209324  0.559833  1
  Tm  Tm12  1  0.790676  0.581352  0.559833  1
  Tm  Tm13  1  0.418648  0.209324  0.559833  1
  Tm  Tm14  1  0.790676  0.209324  0.940167  1
  Tm  Tm15  1  0.790676  0.581352  0.940167  1
  Tm  Tm16  1  0.418648  0.209324  0.940167  1
  Tm  Tm17  1  0.212044  0.787956  0.063979  1
  Tm  Tm18  1  0.212044  0.424089  0.063979  1
  Tm  Tm19  1  0.575911  0.787956  0.063979  1
  Cd  Cd20  1  0.885658  0.114342  0.250000  1
  Cd  Cd21  1  0.885658  0.771317  0.250000  1
  Cd  Cd22  1  0.228683  0.114342  0.250000  1
  Cd  Cd23  1  0.114321  0.885679  0.750000  1
  Cd  Cd24  1  0.114321  0.228642  0.750000  1
  Cd  Cd25  1  0.771358  0.885679  0.750000  1
  Co  Co26  1  0.333333  0.666667  0.250000  1
  Ru  Ru27  1  0.666667  0.333333  0.750000  1
