# generated using pymatgen
data_DyEr15Cd4Ni3Os
_symmetry_space_group_name_H-M   'P 1'
_cell_length_a   9.50748141
_cell_length_b   9.50748118
_cell_length_c   9.50748205
_cell_angle_alpha   59.48220362
_cell_angle_beta   59.48220492
_cell_angle_gamma   59.48220882
_symmetry_Int_Tables_number   1
_chemical_formula_structural   DyEr15Cd4Ni3Os
_chemical_formula_sum   'Dy1 Er15 Cd4 Ni3 Os1'
_cell_volume   600.53220372
_cell_formula_units_Z   1
loop_
 _symmetry_equiv_pos_site_id
 _symmetry_equiv_pos_as_xyz
  1  'x, y, z'
loop_
 _atom_site_type_symbol
 _atom_site_label
 _atom_site_symmetry_multiplicity
 _atom_site_fract_x
 _atom_site_fract_y
 _atom_site_fract_z
 _atom_site_occupancy
  Dy  Dy0  1  0.347324  0.347324  0.347324  1
  Er  Er1  1  0.351954  0.351954  0.953127  1
  Er  Er2  1  0.351954  0.953127  0.351954  1
  Er  Er3  1  0.953127  0.351954  0.351954  1
  Er  Er4  1  0.810431  0.187809  0.187809  1
  Er  Er5  1  0.186316  0.811304  0.811304  1
  Er  Er6  1  0.187809  0.810431  0.187809  1
  Er  Er7  1  0.811304  0.186316  0.811304  1
  Er  Er8  1  0.187809  0.187809  0.810431  1
  Er  Er9  1  0.811304  0.811304  0.186316  1
  Er  Er10  1  0.935075  0.566557  0.566557  1
  Er  Er11  1  0.556977  0.939505  0.939505  1
  Er  Er12  1  0.566557  0.935075  0.566557  1
  Er  Er13  1  0.939505  0.556977  0.939505  1
  Er  Er14  1  0.566557  0.566557  0.935075  1
  Er  Er15  1  0.939505  0.939505  0.556977  1
  Cd  Cd16  1  0.580131  0.580131  0.580131  1
  Cd  Cd17  1  0.579710  0.579710  0.255331  1
  Cd  Cd18  1  0.579710  0.255331  0.579710  1
  Cd  Cd19  1  0.255331  0.579710  0.579710  1
  Ni  Ni20  1  0.141304  0.141304  0.575384  1
  Ni  Ni21  1  0.141304  0.575384  0.141304  1
  Ni  Ni22  1  0.575384  0.141304  0.141304  1
  Os  Os23  1  0.143620  0.143620  0.143620  1
