# generated using pymatgen
data_LiLaNi3Ir
_symmetry_space_group_name_H-M   'P 1'
_cell_length_a   5.00601461
_cell_length_b   5.00601381
_cell_length_c   5.12679311
_cell_angle_alpha   60.77628041
_cell_angle_beta   60.77628751
_cell_angle_gamma   59.99999740
_symmetry_Int_Tables_number   1
_chemical_formula_structural   LiLaNi3Ir
_chemical_formula_sum   'Li1 La1 Ni3 Ir1'
_cell_volume   91.89932423
_cell_formula_units_Z   1
loop_
 _symmetry_equiv_pos_site_id
 _symmetry_equiv_pos_as_xyz
  1  'x, y, z'
loop_
 _atom_site_type_symbol
 _atom_site_label
 _atom_site_symmetry_multiplicity
 _atom_site_fract_x
 _atom_site_fract_y
 _atom_site_fract_z
 _atom_site_occupancy
  Li  Li0  1  0.750211  0.750211  0.749368  1
  La  La1  1  0.499489  0.499489  0.501533  1
  Ni  Ni2  1  0.124095  0.627937  0.123873  1
  Ni  Ni3  1  0.124095  0.124095  0.123873  1
  Ni  Ni4  1  0.627937  0.124095  0.123873  1
  Ir  Ir5  1  0.124173  0.124173  0.627480  1
