# generated using pymatgen
data_Yb4FeOs5Ru2
_symmetry_space_group_name_H-M   'P 1'
_cell_length_a   5.23651040
_cell_length_b   5.19557515
_cell_length_c   8.83948800
_cell_angle_alpha   90.00000000
_cell_angle_beta   90.00000000
_cell_angle_gamma   119.74176140
_symmetry_Int_Tables_number   1
_chemical_formula_structural   Yb4FeOs5Ru2
_chemical_formula_sum   'Yb4 Fe1 Os5 Ru2'
_cell_volume   208.81302557
_cell_formula_units_Z   1
loop_
 _symmetry_equiv_pos_site_id
 _symmetry_equiv_pos_as_xyz
  1  'x, y, z'
loop_
 _atom_site_type_symbol
 _atom_site_label
 _atom_site_symmetry_multiplicity
 _atom_site_fract_x
 _atom_site_fract_y
 _atom_site_fract_z
 _atom_site_occupancy
  Yb  Yb0  1  0.334072  0.667036  0.436400  1
  Yb  Yb1  1  0.667979  0.333989  0.564219  1
  Yb  Yb2  1  0.667979  0.333989  0.935781  1
  Yb  Yb3  1  0.334072  0.667036  0.063600  1
  Fe  Fe4  1  0.657006  0.828504  0.750000  1
  Os  Os5  1  0.824993  0.170584  0.250000  1
  Os  Os6  1  0.824993  0.654408  0.250000  1
  Os  Os7  1  0.332226  0.166113  0.250000  1
  Os  Os8  1  0.169617  0.822077  0.750000  1
  Os  Os9  1  0.169617  0.347542  0.750000  1
  Ru  Ru10  1  0.008723  0.004361  0.508219  1
  Ru  Ru11  1  0.008723  0.004361  0.991781  1
