# generated using pymatgen
data_Zr5Si7(Pt2Rh)3
_symmetry_space_group_name_H-M   'P 1'
_cell_length_a   9.96341400
_cell_length_b   9.96341382
_cell_length_c   3.94302000
_cell_angle_alpha   90.00000000
_cell_angle_beta   90.00000000
_cell_angle_gamma   119.99999396
_symmetry_Int_Tables_number   1
_chemical_formula_structural   Zr5Si7(Pt2Rh)3
_chemical_formula_sum   'Zr5 Si7 Pt6 Rh3'
_cell_volume   338.98148909
_cell_formula_units_Z   1
loop_
 _symmetry_equiv_pos_site_id
 _symmetry_equiv_pos_as_xyz
  1  'x, y, z'
loop_
 _atom_site_type_symbol
 _atom_site_label
 _atom_site_symmetry_multiplicity
 _atom_site_fract_x
 _atom_site_fract_y
 _atom_site_fract_z
 _atom_site_occupancy
  Zr  Zr0  1  0.000000  0.000000  0.000000  1
  Zr  Zr1  1  0.333333  0.666667  0.500000  1
  Zr  Zr2  1  0.895910  0.458698  0.500000  1
  Zr  Zr3  1  0.562788  0.104090  0.500000  1
  Zr  Zr4  1  0.541302  0.437212  0.500000  1
  Si  Si5  1  0.235348  0.187750  0.500000  1
  Si  Si6  1  0.812250  0.047599  0.500000  1
  Si  Si7  1  0.952401  0.764652  0.500000  1
  Si  Si8  1  0.556662  0.648495  0.000000  1
  Si  Si9  1  0.351505  0.908167  0.000000  1
  Si  Si10  1  0.091833  0.443338  0.000000  1
  Si  Si11  1  0.666667  0.333333  0.000000  1
  Pt  Pt12  1  0.311592  0.413860  0.000000  1
  Pt  Pt13  1  0.586140  0.897732  0.000000  1
  Pt  Pt14  1  0.102268  0.688408  0.000000  1
  Pt  Pt15  1  0.377872  0.169900  0.000000  1
  Pt  Pt16  1  0.830100  0.207972  0.000000  1
  Pt  Pt17  1  0.792028  0.622128  0.000000  1
  Rh  Rh18  1  0.220297  0.935910  0.500000  1
  Rh  Rh19  1  0.064090  0.284388  0.500000  1
  Rh  Rh20  1  0.715612  0.779703  0.500000  1
