# generated using pymatgen
data_DyThCdPt2
_symmetry_space_group_name_H-M   'P 1'
_cell_length_a   7.90792100
_cell_length_b   7.84448000
_cell_length_c   3.75727600
_cell_angle_alpha   90.00000000
_cell_angle_beta   90.00000000
_cell_angle_gamma   90.00000000
_symmetry_Int_Tables_number   1
_chemical_formula_structural   DyThCdPt2
_chemical_formula_sum   'Dy2 Th2 Cd2 Pt4'
_cell_volume   233.07708642
_cell_formula_units_Z   2
loop_
 _symmetry_equiv_pos_site_id
 _symmetry_equiv_pos_as_xyz
  1  'x, y, z'
loop_
 _atom_site_type_symbol
 _atom_site_label
 _atom_site_symmetry_multiplicity
 _atom_site_fract_x
 _atom_site_fract_y
 _atom_site_fract_z
 _atom_site_occupancy
  Dy  Dy0  1  0.171129  0.326256  0.500000  1
  Dy  Dy1  1  0.671129  0.173744  0.500000  1
  Th  Th2  1  0.328661  0.833848  0.500000  1
  Th  Th3  1  0.828661  0.666152  0.500000  1
  Cd  Cd4  1  0.996992  0.008652  0.000000  1
  Cd  Cd5  1  0.496992  0.491348  0.000000  1
  Pt  Pt6  1  0.371377  0.126240  0.000000  1
  Pt  Pt7  1  0.871377  0.373760  0.000000  1
  Pt  Pt8  1  0.131840  0.632119  0.000000  1
  Pt  Pt9  1  0.631840  0.867881  0.000000  1
