# generated using pymatgen
data_Ti4Nb4Fe5Co2Si14Rh
_symmetry_space_group_name_H-M   'P 1'
_cell_length_a   9.27047048
_cell_length_b   9.28386855
_cell_length_c   9.28140200
_cell_angle_alpha   94.33235879
_cell_angle_beta   94.25561762
_cell_angle_gamma   148.23163381
_symmetry_Int_Tables_number   1
_chemical_formula_structural   Ti4Nb4Fe5Co2Si14Rh
_chemical_formula_sum   'Ti4 Nb4 Fe5 Co2 Si14 Rh1'
_cell_volume   404.51989921
_cell_formula_units_Z   1
loop_
 _symmetry_equiv_pos_site_id
 _symmetry_equiv_pos_as_xyz
  1  'x, y, z'
loop_
 _atom_site_type_symbol
 _atom_site_label
 _atom_site_symmetry_multiplicity
 _atom_site_fract_x
 _atom_site_fract_y
 _atom_site_fract_z
 _atom_site_occupancy
  Ti  Ti0  1  0.309223  0.500264  0.806842  1
  Ti  Ti1  1  0.695807  0.503073  0.194832  1
  Ti  Ti2  1  0.499025  0.691758  0.194832  1
  Ti  Ti3  1  0.497620  0.306578  0.806842  1
  Nb  Nb4  1  0.134489  0.134489  0.268977  1
  Nb  Nb5  1  0.865687  0.865687  0.731375  1
  Nb  Nb6  1  0.134539  0.866153  0.001581  1
  Nb  Nb7  1  0.867042  0.135428  0.001581  1
  Fe  Fe8  1  0.104509  0.604509  0.209019  1
  Fe  Fe9  1  0.899036  0.094829  0.496468  1
  Fe  Fe10  1  0.597432  0.401638  0.496468  1
  Fe  Fe11  1  0.597509  0.097509  0.195017  1
  Fe  Fe12  1  0.902074  0.402074  0.804147  1
  Co  Co13  1  0.104754  0.899173  0.501430  1
  Co  Co14  1  0.396677  0.602256  0.501430  1
  Si  Si15  1  0.292490  0.292490  0.584981  1
  Si  Si16  1  0.707156  0.707156  0.414311  1
  Si  Si17  1  0.285489  0.697233  0.004426  1
  Si  Si18  1  0.718937  0.307194  0.004426  1
  Si  Si19  1  0.061297  0.463972  0.590559  1
  Si  Si20  1  0.894828  0.489623  0.404573  1
  Si  Si21  1  0.509746  0.914952  0.404573  1
  Si  Si22  1  0.529263  0.126587  0.590559  1
  Si  Si23  1  0.250742  0.250503  0.000535  1
  Si  Si24  1  0.749793  0.750030  0.000535  1
  Si  Si25  1  0.302094  0.004793  0.297156  1
  Si  Si26  1  0.722749  0.014768  0.701889  1
  Si  Si27  1  0.979141  0.687120  0.701889  1
  Si  Si28  1  0.995063  0.292363  0.297156  1
  Rh  Rh29  1  0.395793  0.895793  0.791585  1
