# generated using pymatgen
data_Sc22Tc3Pt5
_symmetry_space_group_name_H-M   'P 1'
_cell_length_a   9.54194847
_cell_length_b   9.54194906
_cell_length_c   9.53234400
_cell_angle_alpha   60.03329293
_cell_angle_beta   60.03329089
_cell_angle_gamma   59.99009094
_symmetry_Int_Tables_number   1
_chemical_formula_structural   Sc22Tc3Pt5
_chemical_formula_sum   'Sc22 Tc3 Pt5'
_cell_volume   613.96647755
_cell_formula_units_Z   1
loop_
 _symmetry_equiv_pos_site_id
 _symmetry_equiv_pos_as_xyz
  1  'x, y, z'
loop_
 _atom_site_type_symbol
 _atom_site_label
 _atom_site_symmetry_multiplicity
 _atom_site_fract_x
 _atom_site_fract_y
 _atom_site_fract_z
 _atom_site_occupancy
  Sc  Sc0  1  0.804018  0.804018  0.195982  1
  Sc  Sc1  1  0.195775  0.804225  0.194183  1
  Sc  Sc2  1  0.804225  0.195775  0.194183  1
  Sc  Sc3  1  0.195982  0.195982  0.804018  1
  Sc  Sc4  1  0.804225  0.195775  0.805817  1
  Sc  Sc5  1  0.195775  0.804225  0.805817  1
  Sc  Sc6  1  0.613899  0.613899  0.151311  1
  Sc  Sc7  1  0.614118  0.150276  0.617802  1
  Sc  Sc8  1  0.150276  0.614118  0.617802  1
  Sc  Sc9  1  0.613899  0.613899  0.620889  1
  Sc  Sc10  1  0.386101  0.386101  0.848689  1
  Sc  Sc11  1  0.385882  0.849724  0.382198  1
  Sc  Sc12  1  0.849724  0.385882  0.382198  1
  Sc  Sc13  1  0.386101  0.386101  0.379111  1
  Sc  Sc14  1  0.841863  0.841863  0.473176  1
  Sc  Sc15  1  0.839734  0.471203  0.844531  1
  Sc  Sc16  1  0.471203  0.839734  0.844531  1
  Sc  Sc17  1  0.841863  0.841863  0.843097  1
  Sc  Sc18  1  0.158137  0.158137  0.526824  1
  Sc  Sc19  1  0.160266  0.528797  0.155469  1
  Sc  Sc20  1  0.528797  0.160266  0.155469  1
  Sc  Sc21  1  0.158137  0.158137  0.156903  1
  Tc  Tc22  1  0.000000  0.000000  0.000000  1
  Tc  Tc23  1  0.500000  0.500000  0.500000  1
  Tc  Tc24  1  0.500000  0.500000  0.000000  1
  Pt  Pt25  1  0.000000  0.000000  0.500000  1
  Pt  Pt26  1  0.500000  0.000000  0.500000  1
  Pt  Pt27  1  0.000000  0.500000  0.500000  1
  Pt  Pt28  1  0.000000  0.500000  0.000000  1
  Pt  Pt29  1  0.500000  0.000000  0.000000  1
