# generated using pymatgen
data_Tl3Ir3RhPbO14
_symmetry_space_group_name_H-M   'P 1'
_cell_length_a   7.35821825
_cell_length_b   7.31607318
_cell_length_c   7.30504670
_cell_angle_alpha   59.95005022
_cell_angle_beta   60.20366679
_cell_angle_gamma   60.18927761
_symmetry_Int_Tables_number   1
_chemical_formula_structural   Tl3Ir3RhPbO14
_chemical_formula_sum   'Tl3 Ir3 Rh1 Pb1 O14'
_cell_volume   278.78978978
_cell_formula_units_Z   1
loop_
 _symmetry_equiv_pos_site_id
 _symmetry_equiv_pos_as_xyz
  1  'x, y, z'
loop_
 _atom_site_type_symbol
 _atom_site_label
 _atom_site_symmetry_multiplicity
 _atom_site_fract_x
 _atom_site_fract_y
 _atom_site_fract_z
 _atom_site_occupancy
  Tl  Tl0  1  0.125000  0.625000  0.125000  1
  Tl  Tl1  1  0.125000  0.125000  0.625000  1
  Tl  Tl2  1  0.125000  0.125000  0.125000  1
  Ir  Ir3  1  0.125000  0.625000  0.625000  1
  Ir  Ir4  1  0.625000  0.125000  0.625000  1
  Ir  Ir5  1  0.625000  0.625000  0.625000  1
  Rh  Rh6  1  0.625000  0.625000  0.125000  1
  Pb  Pb7  1  0.625000  0.125000  0.125000  1
  O  O8  1  0.702769  0.705811  0.298623  1
  O  O9  1  0.301671  0.300020  0.696196  1
  O  O10  1  0.702576  0.297370  0.702682  1
  O  O11  1  0.294703  0.702785  0.299728  1
  O  O12  1  0.301671  0.702112  0.696196  1
  O  O13  1  0.702769  0.292797  0.298623  1
  O  O14  1  0.547231  0.544189  0.951377  1
  O  O15  1  0.948329  0.949980  0.553804  1
  O  O16  1  0.547424  0.952630  0.547318  1
  O  O17  1  0.955297  0.547215  0.950272  1
  O  O18  1  0.948329  0.547888  0.553804  1
  O  O19  1  0.547231  0.957203  0.951377  1
  O  O20  1  0.240298  0.252715  0.254271  1
  O  O21  1  0.009702  0.997285  0.995729  1
