# generated using pymatgen
data_Ta6Al4Co2C
_symmetry_space_group_name_H-M   'P 1'
_cell_length_a   8.12023016
_cell_length_b   8.12019457
_cell_length_c   8.12021700
_cell_angle_alpha   59.99988157
_cell_angle_beta   60.00012555
_cell_angle_gamma   59.99998519
_symmetry_Int_Tables_number   1
_chemical_formula_structural   Ta6Al4Co2C
_chemical_formula_sum   'Ta12 Al8 Co4 C2'
_cell_volume   378.60590835
_cell_formula_units_Z   2
loop_
 _symmetry_equiv_pos_site_id
 _symmetry_equiv_pos_as_xyz
  1  'x, y, z'
loop_
 _atom_site_type_symbol
 _atom_site_label
 _atom_site_symmetry_multiplicity
 _atom_site_fract_x
 _atom_site_fract_y
 _atom_site_fract_z
 _atom_site_occupancy
  Ta  Ta0  1  0.055495  0.055427  0.444529  1
  Ta  Ta1  1  0.444541  0.055437  0.444531  1
  Ta  Ta2  1  0.055449  0.444565  0.444550  1
  Ta  Ta3  1  0.444556  0.444560  0.055447  1
  Ta  Ta4  1  0.055440  0.444558  0.055437  1
  Ta  Ta5  1  0.444534  0.055428  0.055494  1
  Ta  Ta6  1  0.194505  0.194573  0.805471  1
  Ta  Ta7  1  0.805459  0.194563  0.805469  1
  Ta  Ta8  1  0.194551  0.805435  0.805450  1
  Ta  Ta9  1  0.805444  0.805440  0.194553  1
  Ta  Ta10  1  0.194560  0.805442  0.194563  1
  Ta  Ta11  1  0.805466  0.194572  0.194506  1
  Al  Al12  1  0.417183  0.417221  0.748405  1
  Al  Al13  1  0.417198  0.748399  0.417197  1
  Al  Al14  1  0.748403  0.417222  0.417183  1
  Al  Al15  1  0.417188  0.417226  0.417187  1
  Al  Al16  1  0.832817  0.832779  0.501595  1
  Al  Al17  1  0.832802  0.501601  0.832803  1
  Al  Al18  1  0.501597  0.832778  0.832817  1
  Al  Al19  1  0.832812  0.832774  0.832813  1
  Co  Co20  1  0.625000  0.625000  0.125000  1
  Co  Co21  1  0.625000  0.125000  0.625000  1
  Co  Co22  1  0.125000  0.625000  0.625000  1
  Co  Co23  1  0.625000  0.625000  0.625000  1
  C  C24  1  0.249999  0.250000  0.249996  1
  C  C25  1  0.000001  0.000000  0.000004  1
