# generated using pymatgen
data_CaPrNd3Ir2
_symmetry_space_group_name_H-M   'P 1'
_cell_length_a   8.91682498
_cell_length_b   8.91682464
_cell_length_c   7.42950574
_cell_angle_alpha   83.35377014
_cell_angle_beta   83.35376938
_cell_angle_gamma   44.07964205
_symmetry_Int_Tables_number   1
_chemical_formula_structural   CaPrNd3Ir2
_chemical_formula_sum   'Ca2 Pr2 Nd6 Ir4'
_cell_volume   407.72162522
_cell_formula_units_Z   2
loop_
 _symmetry_equiv_pos_site_id
 _symmetry_equiv_pos_as_xyz
  1  'x, y, z'
loop_
 _atom_site_type_symbol
 _atom_site_label
 _atom_site_symmetry_multiplicity
 _atom_site_fract_x
 _atom_site_fract_y
 _atom_site_fract_z
 _atom_site_occupancy
  Ca  Ca0  1  0.983047  0.201015  0.082560  1
  Ca  Ca1  1  0.798985  0.016953  0.417440  1
  Pr  Pr2  1  0.017138  0.797676  0.915277  1
  Pr  Pr3  1  0.202324  0.982862  0.584723  1
  Nd  Nd4  1  0.348329  0.211590  0.817244  1
  Nd  Nd5  1  0.788410  0.651671  0.682756  1
  Nd  Nd6  1  0.649639  0.786860  0.183289  1
  Nd  Nd7  1  0.213140  0.350361  0.316711  1
  Nd  Nd8  1  0.568593  0.431407  0.750000  1
  Nd  Nd9  1  0.436634  0.563366  0.250000  1
  Ir  Ir10  1  0.182619  0.593743  0.575059  1
  Ir  Ir11  1  0.406257  0.817381  0.924941  1
  Ir  Ir12  1  0.817637  0.412750  0.429966  1
  Ir  Ir13  1  0.587250  0.182363  0.070034  1
