# generated using pymatgen
data_Ta12TiMn3(Ga2C)4
_symmetry_space_group_name_H-M   'P 1'
_cell_length_a   8.25230704
_cell_length_b   8.25230734
_cell_length_c   8.25230501
_cell_angle_alpha   60.31840488
_cell_angle_beta   60.31840343
_cell_angle_gamma   60.31840959
_symmetry_Int_Tables_number   1
_chemical_formula_structural   Ta12TiMn3(Ga2C)4
_chemical_formula_sum   'Ta12 Ti1 Mn3 Ga8 C4'
_cell_volume   400.24753978
_cell_formula_units_Z   1
loop_
 _symmetry_equiv_pos_site_id
 _symmetry_equiv_pos_as_xyz
  1  'x, y, z'
loop_
 _atom_site_type_symbol
 _atom_site_label
 _atom_site_symmetry_multiplicity
 _atom_site_fract_x
 _atom_site_fract_y
 _atom_site_fract_z
 _atom_site_occupancy
  Ta  Ta0  1  0.557047  0.942260  0.557047  1
  Ta  Ta1  1  0.307740  0.692953  0.692953  1
  Ta  Ta2  1  0.693992  0.306254  0.306254  1
  Ta  Ta3  1  0.306254  0.693992  0.306254  1
  Ta  Ta4  1  0.692953  0.692953  0.307740  1
  Ta  Ta5  1  0.306254  0.306254  0.693992  1
  Ta  Ta6  1  0.557047  0.557047  0.942260  1
  Ta  Ta7  1  0.942260  0.557047  0.557047  1
  Ta  Ta8  1  0.556008  0.943746  0.943746  1
  Ta  Ta9  1  0.943746  0.943746  0.556008  1
  Ta  Ta10  1  0.692953  0.307740  0.692953  1
  Ta  Ta11  1  0.943746  0.556008  0.943746  1
  Ti  Ti12  1  0.125000  0.125000  0.125000  1
  Mn  Mn13  1  0.625000  0.125000  0.125000  1
  Mn  Mn14  1  0.125000  0.625000  0.125000  1
  Mn  Mn15  1  0.125000  0.125000  0.625000  1
  Ga  Ga16  1  0.914025  0.914025  0.914025  1
  Ga  Ga17  1  0.988778  0.340049  0.340049  1
  Ga  Ga18  1  0.340049  0.988778  0.340049  1
  Ga  Ga19  1  0.340049  0.340049  0.988778  1
  Ga  Ga20  1  0.909951  0.261222  0.909951  1
  Ga  Ga21  1  0.909951  0.909951  0.261222  1
  Ga  Ga22  1  0.261222  0.909951  0.909951  1
  Ga  Ga23  1  0.335975  0.335975  0.335975  1
  C  C24  1  0.625000  0.625000  0.625000  1
  C  C25  1  0.125000  0.625000  0.625000  1
  C  C26  1  0.625000  0.125000  0.625000  1
  C  C27  1  0.625000  0.625000  0.125000  1
