# generated using pymatgen
data_Tb11ThTc3Rh
_symmetry_space_group_name_H-M   'P 1'
_cell_length_a   6.35269205
_cell_length_b   7.39447998
_cell_length_c   9.34809400
_cell_angle_alpha   90.00000000
_cell_angle_beta   90.00000000
_cell_angle_gamma   90.38221036
_symmetry_Int_Tables_number   1
_chemical_formula_structural   Tb11ThTc3Rh
_chemical_formula_sum   'Tb11 Th1 Tc3 Rh1'
_cell_volume   439.11558188
_cell_formula_units_Z   1
loop_
 _symmetry_equiv_pos_site_id
 _symmetry_equiv_pos_as_xyz
  1  'x, y, z'
loop_
 _atom_site_type_symbol
 _atom_site_label
 _atom_site_symmetry_multiplicity
 _atom_site_fract_x
 _atom_site_fract_y
 _atom_site_fract_z
 _atom_site_occupancy
  Tb  Tb0  1  0.333226  0.677823  0.066899  1
  Tb  Tb1  1  0.164240  0.177019  0.436584  1
  Tb  Tb2  1  0.666529  0.318928  0.565227  1
  Tb  Tb3  1  0.834638  0.826628  0.934754  1
  Tb  Tb4  1  0.666529  0.318928  0.934773  1
  Tb  Tb5  1  0.834638  0.826628  0.565246  1
  Tb  Tb6  1  0.333226  0.677823  0.433101  1
  Tb  Tb7  1  0.164240  0.177019  0.063416  1
  Tb  Tb8  1  0.627307  0.042193  0.250000  1
  Tb  Tb9  1  0.135531  0.459023  0.750000  1
  Tb  Tb10  1  0.367287  0.958486  0.750000  1
  Th  Th11  1  0.859968  0.549124  0.250000  1
  Tc  Tc12  1  0.023904  0.870858  0.250000  1
  Tc  Tc13  1  0.481898  0.389013  0.250000  1
  Tc  Tc14  1  0.962411  0.115383  0.750000  1
  Rh  Rh15  1  0.544429  0.615124  0.750000  1
