# generated using pymatgen
data_Ho10In8Pd2RuRh
_symmetry_space_group_name_H-M   'P 1'
_cell_length_a   3.58362900
_cell_length_b   8.12492655
_cell_length_c   18.31522744
_cell_angle_alpha   90.04795820
_cell_angle_beta   90.00000000
_cell_angle_gamma   90.00000000
_symmetry_Int_Tables_number   1
_chemical_formula_structural   Ho10In8Pd2RuRh
_chemical_formula_sum   'Ho10 In8 Pd2 Ru1 Rh1'
_cell_volume   533.27920657
_cell_formula_units_Z   1
loop_
 _symmetry_equiv_pos_site_id
 _symmetry_equiv_pos_as_xyz
  1  'x, y, z'
loop_
 _atom_site_type_symbol
 _atom_site_label
 _atom_site_symmetry_multiplicity
 _atom_site_fract_x
 _atom_site_fract_y
 _atom_site_fract_z
 _atom_site_occupancy
  Ho  Ho0  1  0.000000  0.499846  0.499798  1
  Ho  Ho1  1  0.000000  0.000455  0.000116  1
  Ho  Ho2  1  0.000000  0.729387  0.278023  1
  Ho  Ho3  1  0.000000  0.268875  0.721773  1
  Ho  Ho4  1  0.000000  0.747509  0.780208  1
  Ho  Ho5  1  0.000000  0.252192  0.220176  1
  Ho  Ho6  1  0.000000  0.615437  0.086521  1
  Ho  Ho7  1  0.000000  0.385531  0.912981  1
  Ho  Ho8  1  0.000000  0.883495  0.584782  1
  Ho  Ho9  1  0.000000  0.117947  0.415209  1
  In  In10  1  0.500000  0.709624  0.931318  1
  In  In11  1  0.500000  0.292355  0.068756  1
  In  In12  1  0.500000  0.790569  0.432384  1
  In  In13  1  0.500000  0.209551  0.568097  1
  In  In14  1  0.500000  0.577282  0.649623  1
  In  In15  1  0.500000  0.424823  0.350038  1
  In  In16  1  0.500000  0.921511  0.149796  1
  In  In17  1  0.500000  0.077412  0.850317  1
  Pd  Pd18  1  0.500000  0.978970  0.696119  1
  Pd  Pd19  1  0.500000  0.020199  0.303880  1
  Ru  Ru20  1  0.500000  0.518394  0.195246  1
  Rh  Rh21  1  0.500000  0.478635  0.804838  1
