# generated using pymatgen
data_Dy16Ni4AgHg3
_symmetry_space_group_name_H-M   'P 1'
_cell_length_a   9.47157831
_cell_length_b   9.47157784
_cell_length_c   9.47157793
_cell_angle_alpha   60.18699693
_cell_angle_beta   60.18699781
_cell_angle_gamma   60.18699506
_symmetry_Int_Tables_number   1
_chemical_formula_structural   Dy16Ni4AgHg3
_chemical_formula_sum   'Dy16 Ni4 Ag1 Hg3'
_cell_volume   603.37488606
_cell_formula_units_Z   1
loop_
 _symmetry_equiv_pos_site_id
 _symmetry_equiv_pos_as_xyz
  1  'x, y, z'
loop_
 _atom_site_type_symbol
 _atom_site_label
 _atom_site_symmetry_multiplicity
 _atom_site_fract_x
 _atom_site_fract_y
 _atom_site_fract_z
 _atom_site_occupancy
  Dy  Dy0  1  0.598218  0.598218  0.598218  1
  Dy  Dy1  1  0.601291  0.601291  0.196748  1
  Dy  Dy2  1  0.601291  0.196748  0.601291  1
  Dy  Dy3  1  0.196748  0.601291  0.601291  1
  Dy  Dy4  1  0.061645  0.440248  0.440248  1
  Dy  Dy5  1  0.438877  0.061657  0.061657  1
  Dy  Dy6  1  0.440248  0.061645  0.440248  1
  Dy  Dy7  1  0.061657  0.438877  0.061657  1
  Dy  Dy8  1  0.440248  0.440248  0.061645  1
  Dy  Dy9  1  0.061657  0.061657  0.438877  1
  Dy  Dy10  1  0.185643  0.813180  0.813180  1
  Dy  Dy11  1  0.811981  0.186905  0.186905  1
  Dy  Dy12  1  0.813180  0.185643  0.813180  1
  Dy  Dy13  1  0.186905  0.811981  0.186905  1
  Dy  Dy14  1  0.813180  0.813180  0.185643  1
  Dy  Dy15  1  0.186905  0.186905  0.811981  1
  Ni  Ni16  1  0.393972  0.393972  0.393972  1
  Ni  Ni17  1  0.392154  0.392154  0.821937  1
  Ni  Ni18  1  0.392154  0.821937  0.392154  1
  Ni  Ni19  1  0.821937  0.392154  0.392154  1
  Ag  Ag20  1  0.832937  0.832937  0.832937  1
  Hg  Hg21  1  0.835667  0.835667  0.495844  1
  Hg  Hg22  1  0.835667  0.495844  0.835667  1
  Hg  Hg23  1  0.495844  0.835667  0.835667  1
