# generated using pymatgen
data_Ta4Nb2Al16Ir7
_symmetry_space_group_name_H-M   'P 1'
_cell_length_a   8.59225485
_cell_length_b   8.59225563
_cell_length_c   8.58943600
_cell_angle_alpha   60.01085482
_cell_angle_beta   60.01085182
_cell_angle_gamma   60.02849894
_symmetry_Int_Tables_number   1
_chemical_formula_structural   Ta4Nb2Al16Ir7
_chemical_formula_sum   'Ta4 Nb2 Al16 Ir7'
_cell_volume   448.56842162
_cell_formula_units_Z   1
loop_
 _symmetry_equiv_pos_site_id
 _symmetry_equiv_pos_as_xyz
  1  'x, y, z'
loop_
 _atom_site_type_symbol
 _atom_site_label
 _atom_site_symmetry_multiplicity
 _atom_site_fract_x
 _atom_site_fract_y
 _atom_site_fract_z
 _atom_site_occupancy
  Ta  Ta0  1  0.677557  0.677557  0.320691  1
  Ta  Ta1  1  0.326006  0.673994  0.324611  1
  Ta  Ta2  1  0.673994  0.326006  0.324611  1
  Ta  Ta3  1  0.322443  0.322443  0.675804  1
  Nb  Nb4  1  0.686868  0.313132  0.685429  1
  Nb  Nb5  1  0.313132  0.686868  0.685429  1
  Al  Al6  1  0.881010  0.881010  0.357030  1
  Al  Al7  1  0.880352  0.359036  0.880305  1
  Al  Al8  1  0.359036  0.880352  0.880305  1
  Al  Al9  1  0.879457  0.879457  0.879657  1
  Al  Al10  1  0.120543  0.120543  0.638570  1
  Al  Al11  1  0.119648  0.640964  0.119692  1
  Al  Al12  1  0.640964  0.119648  0.119692  1
  Al  Al13  1  0.118990  0.118990  0.119049  1
  Al  Al14  1  0.663876  0.663876  0.008076  1
  Al  Al15  1  0.663110  0.012053  0.663046  1
  Al  Al16  1  0.012053  0.663110  0.663046  1
  Al  Al17  1  0.661258  0.661258  0.661943  1
  Al  Al18  1  0.338742  0.338742  0.984460  1
  Al  Al19  1  0.336890  0.987947  0.338210  1
  Al  Al20  1  0.987947  0.336890  0.338210  1
  Al  Al21  1  0.336124  0.336124  0.335829  1
  Ir  Ir22  1  0.000000  0.000000  0.995413  1
  Ir  Ir23  1  0.000000  0.000000  0.497218  1
  Ir  Ir24  1  0.501601  0.001585  0.498630  1
  Ir  Ir25  1  0.001585  0.501601  0.498630  1
  Ir  Ir26  1  0.500000  0.500000  0.002785  1
  Ir  Ir27  1  0.998415  0.498399  0.001816  1
  Ir  Ir28  1  0.498399  0.998415  0.001816  1
