# generated using pymatgen
data_TbDy3(TmSb5)4
_symmetry_space_group_name_H-M   'P 1'
_cell_length_a   4.21376600
_cell_length_b   13.18213341
_cell_length_c   14.60054894
_cell_angle_alpha   78.27447331
_cell_angle_beta   90.00000000
_cell_angle_gamma   90.00000000
_symmetry_Int_Tables_number   1
_chemical_formula_structural   TbDy3(TmSb5)4
_chemical_formula_sum   'Tb1 Dy3 Tm4 Sb20'
_cell_volume   794.08448100
_cell_formula_units_Z   1
loop_
 _symmetry_equiv_pos_site_id
 _symmetry_equiv_pos_as_xyz
  1  'x, y, z'
loop_
 _atom_site_type_symbol
 _atom_site_label
 _atom_site_symmetry_multiplicity
 _atom_site_fract_x
 _atom_site_fract_y
 _atom_site_fract_z
 _atom_site_occupancy
  Tb  Tb0  1  0.250000  0.668738  0.576190  1
  Dy  Dy1  1  0.750000  0.331168  0.423706  1
  Dy  Dy2  1  0.250000  0.953235  0.358718  1
  Dy  Dy3  1  0.750000  0.046806  0.641317  1
  Tm  Tm4  1  0.250000  0.395180  0.771362  1
  Tm  Tm5  1  0.750000  0.604780  0.228625  1
  Tm  Tm6  1  0.250000  0.661438  0.856605  1
  Tm  Tm7  1  0.750000  0.338540  0.143488  1
  Sb  Sb8  1  0.250000  0.144872  0.778996  1
  Sb  Sb9  1  0.750000  0.855115  0.221024  1
  Sb  Sb10  1  0.250000  0.143505  0.482367  1
  Sb  Sb11  1  0.750000  0.856930  0.517513  1
  Sb  Sb12  1  0.250000  0.153790  0.170321  1
  Sb  Sb13  1  0.750000  0.846211  0.829668  1
  Sb  Sb14  1  0.250000  0.420693  0.975326  1
  Sb  Sb15  1  0.750000  0.579337  0.024648  1
  Sb  Sb16  1  0.750000  0.028508  0.909502  1
  Sb  Sb17  1  0.250000  0.971488  0.090476  1
  Sb  Sb18  1  0.750000  0.139836  0.321581  1
  Sb  Sb19  1  0.250000  0.860441  0.678551  1
  Sb  Sb20  1  0.750000  0.279657  0.936793  1
  Sb  Sb21  1  0.250000  0.720334  0.063199  1
  Sb  Sb22  1  0.750000  0.286002  0.653635  1
  Sb  Sb23  1  0.250000  0.713990  0.346204  1
  Sb  Sb24  1  0.750000  0.575214  0.736690  1
  Sb  Sb25  1  0.250000  0.424551  0.263753  1
  Sb  Sb26  1  0.750000  0.571527  0.446233  1
  Sb  Sb27  1  0.250000  0.428115  0.553511  1
