# generated using pymatgen
data_EuPdCl6
_symmetry_space_group_name_H-M   'P 1'
_cell_length_a   6.81242463
_cell_length_b   6.80333053
_cell_length_c   7.25705636
_cell_angle_alpha   98.91480401
_cell_angle_beta   98.72605875
_cell_angle_gamma   119.94795929
_symmetry_Int_Tables_number   1
_chemical_formula_structural   EuPdCl6
_chemical_formula_sum   'Eu1 Pd1 Cl6'
_cell_volume   277.41411270
_cell_formula_units_Z   1
loop_
 _symmetry_equiv_pos_site_id
 _symmetry_equiv_pos_as_xyz
  1  'x, y, z'
loop_
 _atom_site_type_symbol
 _atom_site_label
 _atom_site_symmetry_multiplicity
 _atom_site_fract_x
 _atom_site_fract_y
 _atom_site_fract_z
 _atom_site_occupancy
  Eu  Eu0  1  0.833905  0.165105  0.000054  1
  Pd  Pd1  1  0.166594  0.833554  0.000010  1
  Cl  Cl2  1  0.952720  0.614928  0.203028  1
  Cl  Cl3  1  0.520142  0.905399  0.205232  1
  Cl  Cl4  1  0.227209  0.180759  0.205983  1
  Cl  Cl5  1  0.819095  0.772590  0.793761  1
  Cl  Cl6  1  0.385507  0.047451  0.797199  1
  Cl  Cl7  1  0.094827  0.480214  0.794734  1
