# generated using pymatgen
data_Dy5Ho(MoO7)2
_symmetry_space_group_name_H-M   'P 1'
_cell_length_a   6.48248707
_cell_length_b   6.47085434
_cell_length_c   7.45681905
_cell_angle_alpha   90.00570937
_cell_angle_beta   90.01016707
_cell_angle_gamma   108.63186490
_symmetry_Int_Tables_number   1
_chemical_formula_structural   Dy5Ho(MoO7)2
_chemical_formula_sum   'Dy5 Ho1 Mo2 O14'
_cell_volume   296.39968990
_cell_formula_units_Z   1
loop_
 _symmetry_equiv_pos_site_id
 _symmetry_equiv_pos_as_xyz
  1  'x, y, z'
loop_
 _atom_site_type_symbol
 _atom_site_label
 _atom_site_symmetry_multiplicity
 _atom_site_fract_x
 _atom_site_fract_y
 _atom_site_fract_z
 _atom_site_occupancy
  Dy  Dy0  1  0.466592  0.466889  0.999796  1
  Dy  Dy1  1  0.464260  0.999338  0.256534  1
  Dy  Dy2  1  0.535832  0.000719  0.756692  1
  Dy  Dy3  1  0.000642  0.535968  0.243513  1
  Dy  Dy4  1  0.533009  0.532937  0.500175  1
  Ho  Ho5  1  0.999002  0.464105  0.743354  1
  Mo  Mo6  1  0.998768  0.998790  0.999869  1
  Mo  Mo7  1  0.001295  0.001174  0.500332  1
  O  O8  1  0.056149  0.310834  0.462135  1
  O  O9  1  0.074773  0.925211  0.249990  1
  O  O10  1  0.631050  0.369901  0.250008  1
  O  O11  1  0.310891  0.056951  0.538352  1
  O  O12  1  0.917383  0.672585  0.526317  1
  O  O13  1  0.925222  0.075436  0.749989  1
  O  O14  1  0.672547  0.916127  0.474768  1
  O  O15  1  0.362159  0.636749  0.249985  1
  O  O16  1  0.689057  0.942964  0.038229  1
  O  O17  1  0.639208  0.363349  0.750101  1
  O  O18  1  0.082795  0.327206  0.024842  1
  O  O19  1  0.944173  0.689558  0.960504  1
  O  O20  1  0.367354  0.629388  0.749817  1
  O  O21  1  0.327841  0.083821  0.974699  1
