# generated using pymatgen
data_Pr16Er4Si15Ni
_symmetry_space_group_name_H-M   'P 1'
_cell_length_a   7.84988557
_cell_length_b   7.81223449
_cell_length_c   15.19667900
_cell_angle_alpha   90.17215380
_cell_angle_beta   89.84542303
_cell_angle_gamma   90.10980102
_symmetry_Int_Tables_number   1
_chemical_formula_structural   Pr16Er4Si15Ni
_chemical_formula_sum   'Pr16 Er4 Si15 Ni1'
_cell_volume   931.92927485
_cell_formula_units_Z   1
loop_
 _symmetry_equiv_pos_site_id
 _symmetry_equiv_pos_as_xyz
  1  'x, y, z'
loop_
 _atom_site_type_symbol
 _atom_site_label
 _atom_site_symmetry_multiplicity
 _atom_site_fract_x
 _atom_site_fract_y
 _atom_site_fract_z
 _atom_site_occupancy
  Pr  Pr0  1  0.376340  0.012273  0.446766  1
  Pr  Pr1  1  0.487018  0.875956  0.697714  1
  Pr  Pr2  1  0.513317  0.121467  0.195554  1
  Pr  Pr3  1  0.878108  0.485603  0.302672  1
  Pr  Pr4  1  0.120694  0.508333  0.799880  1
  Pr  Pr5  1  0.624063  0.987437  0.946860  1
  Pr  Pr6  1  0.006634  0.376890  0.554153  1
  Pr  Pr7  1  0.987292  0.624433  0.053267  1
  Pr  Pr8  1  0.132682  0.983186  0.874574  1
  Pr  Pr9  1  0.522276  0.629825  0.127116  1
  Pr  Pr10  1  0.466555  0.363590  0.630511  1
  Pr  Pr11  1  0.625710  0.521296  0.871527  1
  Pr  Pr12  1  0.373281  0.477733  0.371858  1
  Pr  Pr13  1  0.876384  0.024701  0.378830  1
  Pr  Pr14  1  0.977940  0.124245  0.121621  1
  Pr  Pr15  1  0.028376  0.885361  0.623355  1
  Er  Er16  1  0.308303  0.308313  0.999191  1
  Er  Er17  1  0.190677  0.808493  0.250024  1
  Er  Er18  1  0.812317  0.189247  0.750428  1
  Er  Er19  1  0.691795  0.687580  0.500993  1
  Si  Si20  1  0.328538  0.688267  0.954296  1
  Si  Si21  1  0.667538  0.311576  0.458040  1
  Si  Si22  1  0.690536  0.330947  0.044116  1
  Si  Si23  1  0.311272  0.671223  0.543871  1
  Si  Si24  1  0.813749  0.827926  0.208650  1
  Si  Si25  1  0.173246  0.187948  0.291909  1
  Si  Si26  1  0.830482  0.811614  0.792895  1
  Si  Si27  1  0.285862  0.921742  0.062302  1
  Si  Si28  1  0.581139  0.783866  0.314489  1
  Si  Si29  1  0.426516  0.208129  0.814200  1
  Si  Si30  1  0.781364  0.582231  0.685443  1
  Si  Si31  1  0.214377  0.422807  0.185743  1
  Si  Si32  1  0.709826  0.075738  0.562862  1
  Si  Si33  1  0.920431  0.286516  0.936715  1
  Si  Si34  1  0.080105  0.716025  0.437529  1
  Ni  Ni35  1  0.185254  0.177485  0.710046  1
