# generated using pymatgen
data_YbDyNi2(BN)2
_symmetry_space_group_name_H-M   'P 1'
_cell_length_a   3.49426400
_cell_length_b   3.49426400
_cell_length_c   7.51354200
_cell_angle_alpha   90.00000000
_cell_angle_beta   90.00000000
_cell_angle_gamma   90.00000000
_symmetry_Int_Tables_number   1
_chemical_formula_structural   YbDyNi2(BN)2
_chemical_formula_sum   'Yb1 Dy1 Ni2 B2 N2'
_cell_volume   91.73945297
_cell_formula_units_Z   1
loop_
 _symmetry_equiv_pos_site_id
 _symmetry_equiv_pos_as_xyz
  1  'x, y, z'
loop_
 _atom_site_type_symbol
 _atom_site_label
 _atom_site_symmetry_multiplicity
 _atom_site_fract_x
 _atom_site_fract_y
 _atom_site_fract_z
 _atom_site_occupancy
  Yb  Yb0  1  0.499999  0.000000  0.167975  1
  Dy  Dy1  1  0.000000  0.499999  0.839474  1
  Ni  Ni2  1  0.000000  0.000000  0.499928  1
  Ni  Ni3  1  0.499999  0.499999  0.499928  1
  B  B4  1  0.000000  0.499999  0.334739  1
  B  B5  1  0.499999  0.000000  0.658441  1
  N  N6  1  0.000000  0.499999  0.148275  1
  N  N7  1  0.499999  0.000000  0.851243  1
