# generated using pymatgen
data_Ho3Er5SnPd24
_symmetry_space_group_name_H-M   'P 1'
_cell_length_a   8.37196301
_cell_length_b   8.37201001
_cell_length_c   8.37199300
_cell_angle_alpha   90.00203938
_cell_angle_beta   90.00231315
_cell_angle_gamma   90.00494117
_symmetry_Int_Tables_number   1
_chemical_formula_structural   Ho3Er5SnPd24
_chemical_formula_sum   'Ho3 Er5 Sn1 Pd24'
_cell_volume   586.79431026
_cell_formula_units_Z   1
loop_
 _symmetry_equiv_pos_site_id
 _symmetry_equiv_pos_as_xyz
  1  'x, y, z'
loop_
 _atom_site_type_symbol
 _atom_site_label
 _atom_site_symmetry_multiplicity
 _atom_site_fract_x
 _atom_site_fract_y
 _atom_site_fract_z
 _atom_site_occupancy
  Ho  Ho0  1  0.252674  0.252671  0.252671  1
  Ho  Ho1  1  0.747335  0.747334  0.747341  1
  Ho  Ho2  1  0.747331  0.747334  0.252664  1
  Er  Er3  1  0.747285  0.252704  0.747281  1
  Er  Er4  1  0.252713  0.252710  0.747292  1
  Er  Er5  1  0.252702  0.747299  0.252713  1
  Er  Er6  1  0.252716  0.747296  0.747278  1
  Er  Er7  1  0.747300  0.252700  0.252704  1
  Sn  Sn8  1  0.999999  0.999997  0.000002  1
  Pd  Pd9  1  0.265186  0.500080  0.999899  1
  Pd  Pd10  1  0.734818  0.499825  0.999993  1
  Pd  Pd11  1  0.999909  0.265184  0.500088  1
  Pd  Pd12  1  0.500082  0.265184  0.999901  1
  Pd  Pd13  1  0.000193  0.734813  0.500005  1
  Pd  Pd14  1  0.499823  0.734813  0.999996  1
  Pd  Pd15  1  0.499996  0.000006  0.265184  1
  Pd  Pd16  1  0.265181  0.999910  0.500088  1
  Pd  Pd17  1  0.499911  0.000096  0.734821  1
  Pd  Pd18  1  0.734812  0.000195  0.500004  1
  Pd  Pd19  1  0.000003  0.499995  0.265184  1
  Pd  Pd20  1  0.000100  0.499909  0.734818  1
  Pd  Pd21  1  0.255006  0.500098  0.500106  1
  Pd  Pd22  1  0.744988  0.499794  0.500005  1
  Pd  Pd23  1  0.500093  0.255005  0.500107  1
  Pd  Pd24  1  0.499797  0.744993  0.500010  1
  Pd  Pd25  1  0.499988  0.499993  0.255005  1
  Pd  Pd26  1  0.499890  0.499889  0.744994  1
  Pd  Pd27  1  0.307768  0.999913  0.999913  1
  Pd  Pd28  1  0.692209  0.000183  0.000001  1
  Pd  Pd29  1  0.999913  0.307768  0.999907  1
  Pd  Pd30  1  0.000183  0.692212  0.000003  1
  Pd  Pd31  1  0.000006  0.000005  0.307792  1
  Pd  Pd32  1  0.000091  0.000093  0.692230  1
