# generated using pymatgen
data_Pr8In2IrRu
_symmetry_space_group_name_H-M   'P 1'
_cell_length_a   10.04786495
_cell_length_b   10.04381643
_cell_length_c   10.04381603
_cell_angle_alpha   59.87540458
_cell_angle_beta   59.98666109
_cell_angle_gamma   59.98666256
_symmetry_Int_Tables_number   1
_chemical_formula_structural   Pr8In2IrRu
_chemical_formula_sum   'Pr16 In4 Ir2 Ru2'
_cell_volume   715.90974181
_cell_formula_units_Z   2
loop_
 _symmetry_equiv_pos_site_id
 _symmetry_equiv_pos_as_xyz
  1  'x, y, z'
loop_
 _atom_site_type_symbol
 _atom_site_label
 _atom_site_symmetry_multiplicity
 _atom_site_fract_x
 _atom_site_fract_y
 _atom_site_fract_z
 _atom_site_occupancy
  Pr  Pr0  1  0.060195  0.439805  0.439805  1
  Pr  Pr1  1  0.190514  0.808236  0.195170  1
  Pr  Pr2  1  0.654435  0.651444  0.651444  1
  Pr  Pr3  1  0.441749  0.440014  0.059080  1
  Pr  Pr4  1  0.059157  0.440014  0.059080  1
  Pr  Pr5  1  0.440784  0.059216  0.059216  1
  Pr  Pr6  1  0.059157  0.059080  0.440014  1
  Pr  Pr7  1  0.653086  0.649584  0.044245  1
  Pr  Pr8  1  0.653086  0.044245  0.649584  1
  Pr  Pr9  1  0.192009  0.807991  0.807991  1
  Pr  Pr10  1  0.441749  0.059080  0.440014  1
  Pr  Pr11  1  0.190514  0.195170  0.808236  1
  Pr  Pr12  1  0.042678  0.651444  0.651444  1
  Pr  Pr13  1  0.806079  0.808236  0.195170  1
  Pr  Pr14  1  0.807576  0.192424  0.192424  1
  Pr  Pr15  1  0.806079  0.195170  0.808236  1
  In  In16  1  0.417721  0.419408  0.419408  1
  In  In17  1  0.418881  0.742385  0.419855  1
  In  In18  1  0.743466  0.419408  0.419408  1
  In  In19  1  0.418881  0.419855  0.742385  1
  Ir  Ir20  1  0.859380  0.859812  0.859812  1
  Ir  Ir21  1  0.420996  0.859812  0.859812  1
  Ru  Ru22  1  0.860914  0.416720  0.861451  1
  Ru  Ru23  1  0.860914  0.861451  0.416720  1
