# generated using pymatgen
data_Sm11Ho(SiI3)4
_symmetry_space_group_name_H-M   'P 1'
_cell_length_a   10.65942194
_cell_length_b   10.66561055
_cell_length_c   10.66001703
_cell_angle_alpha   109.45272272
_cell_angle_beta   109.47629180
_cell_angle_gamma   109.49754930
_symmetry_Int_Tables_number   1
_chemical_formula_structural   Sm11Ho(SiI3)4
_chemical_formula_sum   'Sm11 Ho1 Si4 I12'
_cell_volume   932.79489840
_cell_formula_units_Z   1
loop_
 _symmetry_equiv_pos_site_id
 _symmetry_equiv_pos_as_xyz
  1  'x, y, z'
loop_
 _atom_site_type_symbol
 _atom_site_label
 _atom_site_symmetry_multiplicity
 _atom_site_fract_x
 _atom_site_fract_y
 _atom_site_fract_z
 _atom_site_occupancy
  Sm  Sm0  1  0.750349  0.231868  0.268278  1
  Sm  Sm1  1  0.750349  0.018481  0.482071  1
  Sm  Sm2  1  0.231712  0.463905  0.482367  1
  Sm  Sm3  1  0.268264  0.750335  0.232165  1
  Sm  Sm4  1  0.036854  0.268427  0.018427  1
  Sm  Sm5  1  0.019477  0.037482  0.268151  1
  Sm  Sm6  1  0.482231  0.750142  0.018186  1
  Sm  Sm7  1  0.482231  0.232089  0.464045  1
  Sm  Sm8  1  0.019477  0.481995  0.751326  1
  Sm  Sm9  1  0.268264  0.017928  0.036099  1
  Sm  Sm10  1  0.231712  0.267807  0.749345  1
  Ho  Ho11  1  0.459378  0.479689  0.229689  1
  Si  Si12  1  0.252523  0.252380  0.250392  1
  Si  Si13  1  0.500073  0.000037  0.250037  1
  Si  Si14  1  0.000041  0.250020  0.500020  1
  Si  Si15  1  0.252523  0.500143  0.002131  1
  I  I16  1  0.250091  0.757672  0.742336  1
  I  I17  1  0.515303  0.507652  0.757652  1
  I  I18  1  0.984657  0.742328  0.992328  1
  I  I19  1  0.742521  0.250061  0.757943  1
  I  I20  1  0.992456  0.984828  0.742493  1
  I  I21  1  0.250091  0.992419  0.507755  1
  I  I22  1  0.754114  0.514871  0.503838  1
  I  I23  1  0.508108  0.255044  0.997179  1
  I  I24  1  0.754114  0.739242  0.250276  1
  I  I25  1  0.742521  0.992460  0.984579  1
  I  I26  1  0.992456  0.507629  0.249964  1
  I  I27  1  0.508108  0.753064  0.510928  1
