# generated using pymatgen
data_Rb8TiSb4
_symmetry_space_group_name_H-M   'P 1'
_cell_length_a   12.01235114
_cell_length_b   12.01235081
_cell_length_c   12.01235200
_cell_angle_alpha   59.99999673
_cell_angle_beta   59.99999764
_cell_angle_gamma   59.99999752
_symmetry_Int_Tables_number   1
_chemical_formula_structural   Rb8TiSb4
_chemical_formula_sum   'Rb16 Ti2 Sb8'
_cell_volume   1225.65728626
_cell_formula_units_Z   2
loop_
 _symmetry_equiv_pos_site_id
 _symmetry_equiv_pos_as_xyz
  1  'x, y, z'
loop_
 _atom_site_type_symbol
 _atom_site_label
 _atom_site_symmetry_multiplicity
 _atom_site_fract_x
 _atom_site_fract_y
 _atom_site_fract_z
 _atom_site_occupancy
  Rb  Rb0  1  0.625000  0.125000  0.625000  1
  Rb  Rb1  1  0.625000  0.625000  0.125000  1
  Rb  Rb2  1  0.125000  0.625000  0.625000  1
  Rb  Rb3  1  0.625000  0.625000  0.625000  1
  Rb  Rb4  1  0.025247  0.025247  0.474753  1
  Rb  Rb5  1  0.775247  0.224753  0.224753  1
  Rb  Rb6  1  0.224753  0.775247  0.775247  1
  Rb  Rb7  1  0.775247  0.775247  0.224753  1
  Rb  Rb8  1  0.775247  0.224753  0.775247  1
  Rb  Rb9  1  0.224753  0.775247  0.224753  1
  Rb  Rb10  1  0.474753  0.025247  0.474753  1
  Rb  Rb11  1  0.474753  0.025247  0.025247  1
  Rb  Rb12  1  0.025247  0.474753  0.474753  1
  Rb  Rb13  1  0.025247  0.474753  0.025247  1
  Rb  Rb14  1  0.224753  0.224753  0.775247  1
  Rb  Rb15  1  0.474753  0.474753  0.025247  1
  Ti  Ti16  1  0.750000  0.750000  0.750000  1
  Ti  Ti17  1  0.500000  0.500000  0.500000  1
  Sb  Sb18  1  0.404489  0.786533  0.404489  1
  Sb  Sb19  1  0.845511  0.845511  0.463467  1
  Sb  Sb20  1  0.463467  0.845511  0.845511  1
  Sb  Sb21  1  0.845511  0.845511  0.845511  1
  Sb  Sb22  1  0.786533  0.404489  0.404489  1
  Sb  Sb23  1  0.404489  0.404489  0.404489  1
  Sb  Sb24  1  0.404489  0.404489  0.786533  1
  Sb  Sb25  1  0.845511  0.463467  0.845511  1
