# generated using pymatgen
data_Ba5Tb6Y2Ni4O21
_symmetry_space_group_name_H-M   'P 1'
_cell_length_a   10.23401960
_cell_length_b   10.23401938
_cell_length_c   10.23608900
_cell_angle_alpha   94.53672429
_cell_angle_beta   94.53860847
_cell_angle_gamma   147.32422112
_symmetry_Int_Tables_number   1
_chemical_formula_structural   Ba5Tb6Y2Ni4O21
_chemical_formula_sum   'Ba5 Tb6 Y2 Ni4 O21'
_cell_volume   555.43599352
_cell_formula_units_Z   1
loop_
 _symmetry_equiv_pos_site_id
 _symmetry_equiv_pos_as_xyz
  1  'x, y, z'
loop_
 _atom_site_type_symbol
 _atom_site_label
 _atom_site_symmetry_multiplicity
 _atom_site_fract_x
 _atom_site_fract_y
 _atom_site_fract_z
 _atom_site_occupancy
  Ba  Ba0  1  0.000000  0.000000  0.000000  1
  Ba  Ba1  1  0.138258  0.534855  0.673112  1
  Ba  Ba2  1  0.861742  0.465145  0.326888  1
  Ba  Ba3  1  0.465152  0.138259  0.603411  1
  Ba  Ba4  1  0.534848  0.861741  0.396589  1
  Tb  Tb5  1  0.166758  0.249793  0.416551  1
  Tb  Tb6  1  0.833242  0.750207  0.583449  1
  Tb  Tb7  1  0.750222  0.166783  0.917005  1
  Tb  Tb8  1  0.249778  0.833217  0.082995  1
  Tb  Tb9  1  0.357528  0.410654  0.768182  1
  Tb  Tb10  1  0.642472  0.589346  0.231818  1
  Y  Y11  1  0.589387  0.357593  0.946980  1
  Y  Y12  1  0.410613  0.642407  0.053020  1
  Ni  Ni13  1  0.246450  0.040926  0.287377  1
  Ni  Ni14  1  0.753550  0.959074  0.712623  1
  Ni  Ni15  1  0.959081  0.246450  0.205531  1
  Ni  Ni16  1  0.040919  0.753550  0.794469  1
  O  O17  1  0.500000  0.500000  0.000000  1
  O  O18  1  0.963063  0.630059  0.593122  1
  O  O19  1  0.036937  0.369941  0.406878  1
  O  O20  1  0.369921  0.963071  0.332994  1
  O  O21  1  0.630079  0.036929  0.667006  1
  O  O22  1  0.295173  0.427539  0.225680  1
  O  O23  1  0.201859  0.069492  0.774320  1
  O  O24  1  0.069588  0.295345  0.867803  1
  O  O25  1  0.427542  0.201786  0.132197  1
  O  O26  1  0.704827  0.572461  0.774320  1
  O  O27  1  0.798141  0.930508  0.225680  1
  O  O28  1  0.930412  0.704655  0.132197  1
  O  O29  1  0.572458  0.798214  0.867803  1
  O  O30  1  0.496866  0.607908  0.595007  1
  O  O31  1  0.012902  0.901860  0.404993  1
  O  O32  1  0.901591  0.496730  0.888977  1
  O  O33  1  0.607752  0.012613  0.111023  1
  O  O34  1  0.503134  0.392092  0.404993  1
  O  O35  1  0.987098  0.098140  0.595007  1
  O  O36  1  0.098409  0.503270  0.111023  1
  O  O37  1  0.392248  0.987387  0.888977  1
