# generated using pymatgen
data_YNiSbH
_symmetry_space_group_name_H-M   'P 1'
_cell_length_a   4.18538600
_cell_length_b   4.18538461
_cell_length_c   9.20132400
_cell_angle_alpha   90.00000000
_cell_angle_beta   90.00000000
_cell_angle_gamma   120.00001096
_symmetry_Int_Tables_number   1
_chemical_formula_structural   YNiSbH
_chemical_formula_sum   'Y2 Ni2 Sb2 H2'
_cell_volume   139.58919347
_cell_formula_units_Z   2
loop_
 _symmetry_equiv_pos_site_id
 _symmetry_equiv_pos_as_xyz
  1  'x, y, z'
loop_
 _atom_site_type_symbol
 _atom_site_label
 _atom_site_symmetry_multiplicity
 _atom_site_fract_x
 _atom_site_fract_y
 _atom_site_fract_z
 _atom_site_occupancy
  Y  Y0  1  0.666667  0.333333  0.790588  1
  Y  Y1  1  0.333333  0.666667  0.290588  1
  Ni  Ni2  1  0.666667  0.333333  0.124973  1
  Ni  Ni3  1  0.333333  0.666667  0.624973  1
  Sb  Sb4  1  0.000000  0.000000  0.037286  1
  Sb  Sb5  1  0.000000  0.000000  0.537286  1
  H  H6  1  0.666667  0.333333  0.297154  1
  H  H7  1  0.333333  0.666667  0.797154  1
