# generated using pymatgen
data_LiHo16In3NiIr3
_symmetry_space_group_name_H-M   'P 1'
_cell_length_a   9.56071654
_cell_length_b   9.60182783
_cell_length_c   9.60182821
_cell_angle_alpha   60.14085482
_cell_angle_beta   59.79735121
_cell_angle_gamma   59.79735373
_symmetry_Int_Tables_number   1
_chemical_formula_structural   LiHo16In3NiIr3
_chemical_formula_sum   'Li1 Ho16 In3 Ni1 Ir3'
_cell_volume   622.01884356
_cell_formula_units_Z   1
loop_
 _symmetry_equiv_pos_site_id
 _symmetry_equiv_pos_as_xyz
  1  'x, y, z'
loop_
 _atom_site_type_symbol
 _atom_site_label
 _atom_site_symmetry_multiplicity
 _atom_site_fract_x
 _atom_site_fract_y
 _atom_site_fract_z
 _atom_site_occupancy
  Li  Li0  1  0.429210  0.426868  0.426868  1
  Ho  Ho1  1  0.438810  0.433527  0.063122  1
  Ho  Ho2  1  0.647762  0.651997  0.046352  1
  Ho  Ho3  1  0.188505  0.813410  0.185817  1
  Ho  Ho4  1  0.058915  0.440630  0.059475  1
  Ho  Ho5  1  0.191568  0.809185  0.809185  1
  Ho  Ho6  1  0.062251  0.438420  0.438420  1
  Ho  Ho7  1  0.814248  0.187364  0.187364  1
  Ho  Ho8  1  0.648932  0.653501  0.653501  1
  Ho  Ho9  1  0.810191  0.191344  0.806916  1
  Ho  Ho10  1  0.188505  0.185817  0.813410  1
  Ho  Ho11  1  0.047617  0.650607  0.650607  1
  Ho  Ho12  1  0.439670  0.061936  0.061936  1
  Ho  Ho13  1  0.058915  0.059475  0.440630  1
  Ho  Ho14  1  0.647762  0.046352  0.651997  1
  Ho  Ho15  1  0.810191  0.806916  0.191344  1
  Ho  Ho16  1  0.438810  0.063122  0.433527  1
  In  In17  1  0.418252  0.417218  0.745072  1
  In  In18  1  0.418252  0.745072  0.417218  1
  In  In19  1  0.746121  0.417417  0.417417  1
  Ni  Ni20  1  0.423435  0.859014  0.859014  1
  Ir  Ir21  1  0.856475  0.857496  0.857496  1
  Ir  Ir22  1  0.857800  0.424773  0.858539  1
  Ir  Ir23  1  0.857800  0.858539  0.424773  1
