# generated using pymatgen
data_K2Rb6TiSb4
_symmetry_space_group_name_H-M   'P 1'
_cell_length_a   11.90295439
_cell_length_b   11.90295466
_cell_length_c   11.90295400
_cell_angle_alpha   60.00000184
_cell_angle_beta   60.00000110
_cell_angle_gamma   60.00000147
_symmetry_Int_Tables_number   1
_chemical_formula_structural   K2Rb6TiSb4
_chemical_formula_sum   'K4 Rb12 Ti2 Sb8'
_cell_volume   1192.47510420
_cell_formula_units_Z   2
loop_
 _symmetry_equiv_pos_site_id
 _symmetry_equiv_pos_as_xyz
  1  'x, y, z'
loop_
 _atom_site_type_symbol
 _atom_site_label
 _atom_site_symmetry_multiplicity
 _atom_site_fract_x
 _atom_site_fract_y
 _atom_site_fract_z
 _atom_site_occupancy
  K  K0  1  0.625000  0.125000  0.625000  1
  K  K1  1  0.625000  0.625000  0.125000  1
  K  K2  1  0.125000  0.625000  0.625000  1
  K  K3  1  0.625000  0.625000  0.625000  1
  Rb  Rb4  1  0.025630  0.025630  0.474370  1
  Rb  Rb5  1  0.775630  0.224370  0.224370  1
  Rb  Rb6  1  0.224370  0.775630  0.775630  1
  Rb  Rb7  1  0.775630  0.775630  0.224370  1
  Rb  Rb8  1  0.775630  0.224370  0.775630  1
  Rb  Rb9  1  0.224370  0.775630  0.224370  1
  Rb  Rb10  1  0.474370  0.025630  0.474370  1
  Rb  Rb11  1  0.474370  0.025630  0.025630  1
  Rb  Rb12  1  0.025630  0.474370  0.474370  1
  Rb  Rb13  1  0.025630  0.474370  0.025630  1
  Rb  Rb14  1  0.224370  0.224370  0.775630  1
  Rb  Rb15  1  0.474370  0.474370  0.025630  1
  Ti  Ti16  1  0.750000  0.750000  0.750000  1
  Ti  Ti17  1  0.500000  0.500000  0.500000  1
  Sb  Sb18  1  0.404541  0.786376  0.404541  1
  Sb  Sb19  1  0.845459  0.845459  0.463624  1
  Sb  Sb20  1  0.463624  0.845459  0.845459  1
  Sb  Sb21  1  0.845459  0.845459  0.845459  1
  Sb  Sb22  1  0.786376  0.404541  0.404541  1
  Sb  Sb23  1  0.404541  0.404541  0.404541  1
  Sb  Sb24  1  0.404541  0.404541  0.786376  1
  Sb  Sb25  1  0.845459  0.463624  0.845459  1
