# generated using pymatgen
data_TcMo(OsRu2)2
_symmetry_space_group_name_H-M   'P 1'
_cell_length_a   5.52260233
_cell_length_b   5.52260152
_cell_length_c   4.34938700
_cell_angle_alpha   90.00000000
_cell_angle_beta   90.00000000
_cell_angle_gamma   120.15924448
_symmetry_Int_Tables_number   1
_chemical_formula_structural   TcMo(OsRu2)2
_chemical_formula_sum   'Tc1 Mo1 Os2 Ru4'
_cell_volume   114.69567272
_cell_formula_units_Z   1
loop_
 _symmetry_equiv_pos_site_id
 _symmetry_equiv_pos_as_xyz
  1  'x, y, z'
loop_
 _atom_site_type_symbol
 _atom_site_label
 _atom_site_symmetry_multiplicity
 _atom_site_fract_x
 _atom_site_fract_y
 _atom_site_fract_z
 _atom_site_occupancy
  Tc  Tc0  1  0.666785  0.333215  0.250000  1
  Mo  Mo1  1  0.334388  0.665612  0.750000  1
  Os  Os2  1  0.830430  0.664017  0.750000  1
  Os  Os3  1  0.335983  0.169570  0.750000  1
  Ru  Ru4  1  0.165477  0.331346  0.250000  1
  Ru  Ru5  1  0.668654  0.834523  0.250000  1
  Ru  Ru6  1  0.165777  0.834223  0.250000  1
  Ru  Ru7  1  0.832504  0.167496  0.750000  1
