# generated using pymatgen
data_Tb12Co3CuNiSn
_symmetry_space_group_name_H-M   'P 1'
_cell_length_a   8.35663255
_cell_length_b   8.35662042
_cell_length_c   8.35661957
_cell_angle_alpha   111.68860981
_cell_angle_beta   109.35632841
_cell_angle_gamma   107.39724316
_symmetry_Int_Tables_number   1
_chemical_formula_structural   Tb12Co3CuNiSn
_chemical_formula_sum   'Tb12 Co3 Cu1 Ni1 Sn1'
_cell_volume   448.59961552
_cell_formula_units_Z   1
loop_
 _symmetry_equiv_pos_site_id
 _symmetry_equiv_pos_as_xyz
  1  'x, y, z'
loop_
 _atom_site_type_symbol
 _atom_site_label
 _atom_site_symmetry_multiplicity
 _atom_site_fract_x
 _atom_site_fract_y
 _atom_site_fract_z
 _atom_site_occupancy
  Tb  Tb0  1  0.418445  0.223731  0.194714  1
  Tb  Tb1  1  0.582292  0.777872  0.804421  1
  Tb  Tb2  1  0.026539  0.222116  0.804423  1
  Tb  Tb3  1  0.970963  0.776257  0.194706  1
  Tb  Tb4  1  0.179350  0.287554  0.466899  1
  Tb  Tb5  1  0.818719  0.714715  0.533432  1
  Tb  Tb6  1  0.179350  0.712450  0.891795  1
  Tb  Tb7  1  0.818719  0.285287  0.104005  1
  Tb  Tb8  1  0.323272  0.633232  0.313006  1
  Tb  Tb9  1  0.679815  0.366799  0.690032  1
  Tb  Tb10  1  0.323272  0.010267  0.690041  1
  Tb  Tb11  1  0.679815  0.989783  0.313015  1
  Co  Co12  1  0.648241  0.999997  0.648244  1
  Co  Co13  1  0.113647  0.614048  0.499599  1
  Co  Co14  1  0.885482  0.385894  0.499588  1
  Cu  Cu15  1  0.999043  0.999997  0.999046  1
  Ni  Ni16  1  0.353487  0.999994  0.353494  1
  Sn  Sn17  1  0.499546  0.500006  0.999540  1
