# generated using pymatgen
data_Pr3Ni2Sn3Rh
_symmetry_space_group_name_H-M   'P 1'
_cell_length_a   7.53279900
_cell_length_b   7.53279899
_cell_length_c   4.05793800
_cell_angle_alpha   90.00000000
_cell_angle_beta   90.00000000
_cell_angle_gamma   120.00000442
_symmetry_Int_Tables_number   1
_chemical_formula_structural   Pr3Ni2Sn3Rh
_chemical_formula_sum   'Pr3 Ni2 Sn3 Rh1'
_cell_volume   199.41084677
_cell_formula_units_Z   1
loop_
 _symmetry_equiv_pos_site_id
 _symmetry_equiv_pos_as_xyz
  1  'x, y, z'
loop_
 _atom_site_type_symbol
 _atom_site_label
 _atom_site_symmetry_multiplicity
 _atom_site_fract_x
 _atom_site_fract_y
 _atom_site_fract_z
 _atom_site_occupancy
  Pr  Pr0  1  0.588453  0.001078  0.500000  1
  Pr  Pr1  1  0.412625  0.411547  0.500000  1
  Pr  Pr2  1  0.998922  0.587375  0.500000  1
  Ni  Ni3  1  0.000000  0.000000  0.500000  1
  Ni  Ni4  1  0.333333  0.666667  0.000000  1
  Sn  Sn5  1  0.246115  0.997844  0.000000  1
  Sn  Sn6  1  0.751729  0.753885  0.000000  1
  Sn  Sn7  1  0.002156  0.248271  0.000000  1
  Rh  Rh8  1  0.666667  0.333333  0.000000  1
