# generated using pymatgen
data_Tb10GaSn3Sb4
_symmetry_space_group_name_H-M   'P 1'
_cell_length_a   8.73179468
_cell_length_b   8.73179538
_cell_length_c   8.14638353
_cell_angle_alpha   89.53032197
_cell_angle_beta   89.53033056
_cell_angle_gamma   124.54382702
_symmetry_Int_Tables_number   1
_chemical_formula_structural   Tb10GaSn3Sb4
_chemical_formula_sum   'Tb10 Ga1 Sn3 Sb4'
_cell_volume   511.52836019
_cell_formula_units_Z   1
loop_
 _symmetry_equiv_pos_site_id
 _symmetry_equiv_pos_as_xyz
  1  'x, y, z'
loop_
 _atom_site_type_symbol
 _atom_site_label
 _atom_site_symmetry_multiplicity
 _atom_site_fract_x
 _atom_site_fract_y
 _atom_site_fract_z
 _atom_site_occupancy
  Tb  Tb0  1  0.044331  0.309644  0.325408  1
  Tb  Tb1  1  0.965374  0.695212  0.667322  1
  Tb  Tb2  1  0.466563  0.197690  0.839401  1
  Tb  Tb3  1  0.795907  0.527621  0.165894  1
  Tb  Tb4  1  0.527621  0.795907  0.165894  1
  Tb  Tb5  1  0.197690  0.466563  0.839401  1
  Tb  Tb6  1  0.695212  0.965374  0.667322  1
  Tb  Tb7  1  0.309644  0.044331  0.325408  1
  Tb  Tb8  1  0.004439  0.004439  0.001676  1
  Tb  Tb9  1  0.498593  0.498593  0.495478  1
  Ga  Ga10  1  0.367561  0.367561  0.132057  1
  Sn  Sn11  1  0.628362  0.628362  0.871292  1
  Sn  Sn12  1  0.134373  0.134373  0.632790  1
  Sn  Sn13  1  0.867454  0.867454  0.366410  1
  Sb  Sb14  1  0.793276  0.200399  0.001038  1
  Sb  Sb15  1  0.200399  0.793276  0.001038  1
  Sb  Sb16  1  0.705833  0.297366  0.501089  1
  Sb  Sb17  1  0.297366  0.705833  0.501089  1
