# generated using pymatgen
data_Tc2TeBr12
_symmetry_space_group_name_H-M   'P 1'
_cell_length_a   12.74090700
_cell_length_b   9.24586314
_cell_length_c   10.66302414
_cell_angle_alpha   87.17057444
_cell_angle_beta   90.00000000
_cell_angle_gamma   90.00000000
_symmetry_Int_Tables_number   1
_chemical_formula_structural   Tc2TeBr12
_chemical_formula_sum   'Tc4 Te2 Br24'
_cell_volume   1254.58021678
_cell_formula_units_Z   2
loop_
 _symmetry_equiv_pos_site_id
 _symmetry_equiv_pos_as_xyz
  1  'x, y, z'
loop_
 _atom_site_type_symbol
 _atom_site_label
 _atom_site_symmetry_multiplicity
 _atom_site_fract_x
 _atom_site_fract_y
 _atom_site_fract_z
 _atom_site_occupancy
  Tc  Tc0  1  0.250000  0.111488  0.639959  1
  Tc  Tc1  1  0.750000  0.654281  0.613472  1
  Tc  Tc2  1  0.750000  0.888512  0.360041  1
  Tc  Tc3  1  0.250000  0.345719  0.386528  1
  Te  Te4  1  0.250000  0.839524  0.915173  1
  Te  Te5  1  0.750000  0.160476  0.084827  1
  Br  Br6  1  0.891361  0.654204  0.765436  1
  Br  Br7  1  0.600503  0.168875  0.927437  1
  Br  Br8  1  0.250000  0.604387  0.413678  1
  Br  Br9  1  0.108639  0.345796  0.234564  1
  Br  Br10  1  0.109569  0.926829  0.688547  1
  Br  Br11  1  0.750000  0.395613  0.586322  1
  Br  Br12  1  0.385964  0.305228  0.576059  1
  Br  Br13  1  0.100503  0.831125  0.072563  1
  Br  Br14  1  0.399497  0.831125  0.072563  1
  Br  Br15  1  0.250000  0.572147  0.872778  1
  Br  Br16  1  0.250000  0.178723  0.865779  1
  Br  Br17  1  0.885964  0.694772  0.423941  1
  Br  Br18  1  0.391361  0.345796  0.234564  1
  Br  Br19  1  0.750000  0.427853  0.127222  1
  Br  Br20  1  0.390431  0.926829  0.688547  1
  Br  Br21  1  0.114036  0.305228  0.576059  1
  Br  Br22  1  0.750000  0.821277  0.134221  1
  Br  Br23  1  0.250000  0.055833  0.407192  1
  Br  Br24  1  0.609569  0.073171  0.311453  1
  Br  Br25  1  0.899497  0.168875  0.927437  1
  Br  Br26  1  0.750000  0.944167  0.592808  1
  Br  Br27  1  0.614036  0.694772  0.423941  1
  Br  Br28  1  0.608639  0.654204  0.765436  1
  Br  Br29  1  0.890431  0.073171  0.311453  1
