# generated using pymatgen
data_Ho5Sc3Ti11Si16Pt
_symmetry_space_group_name_H-M   'P 1'
_cell_length_a   6.97501043
_cell_length_b   6.98336627
_cell_length_c   12.74289644
_cell_angle_alpha   90.14378907
_cell_angle_beta   89.88663220
_cell_angle_gamma   89.66818939
_symmetry_Int_Tables_number   1
_chemical_formula_structural   Ho5Sc3Ti11Si16Pt
_chemical_formula_sum   'Ho5 Sc3 Ti11 Si16 Pt1'
_cell_volume   620.68081677
_cell_formula_units_Z   1
loop_
 _symmetry_equiv_pos_site_id
 _symmetry_equiv_pos_as_xyz
  1  'x, y, z'
loop_
 _atom_site_type_symbol
 _atom_site_label
 _atom_site_symmetry_multiplicity
 _atom_site_fract_x
 _atom_site_fract_y
 _atom_site_fract_z
 _atom_site_occupancy
  Ho  Ho0  1  0.841013  0.495234  0.283056  1
  Ho  Ho1  1  0.159161  0.501896  0.784502  1
  Ho  Ho2  1  0.656799  0.998563  0.968992  1
  Ho  Ho3  1  0.005837  0.339295  0.532319  1
  Ho  Ho4  1  0.998158  0.656517  0.032124  1
  Sc  Sc5  1  0.343582  0.999951  0.466264  1
  Sc  Sc6  1  0.499859  0.844062  0.716914  1
  Sc  Sc7  1  0.499085  0.154405  0.215764  1
  Ti  Ti8  1  0.176788  0.827940  0.249178  1
  Ti  Ti9  1  0.825525  0.173973  0.750508  1
  Ti  Ti10  1  0.670919  0.674917  0.500017  1
  Ti  Ti11  1  0.149327  0.002216  0.875056  1
  Ti  Ti12  1  0.494587  0.655379  0.124689  1
  Ti  Ti13  1  0.503992  0.351174  0.626234  1
  Ti  Ti14  1  0.652741  0.493981  0.875474  1
  Ti  Ti15  1  0.352441  0.508366  0.373011  1
  Ti  Ti16  1  0.850305  0.996006  0.374748  1
  Ti  Ti17  1  0.003609  0.149288  0.125089  1
  Ti  Ti18  1  0.992932  0.851625  0.624424  1
  Si  Si19  1  0.207755  0.129022  0.682478  1
  Si  Si20  1  0.373170  0.713819  0.929399  1
  Si  Si21  1  0.626991  0.288796  0.431802  1
  Si  Si22  1  0.703865  0.368545  0.070774  1
  Si  Si23  1  0.298390  0.640750  0.568588  1
  Si  Si24  1  0.792629  0.870448  0.183864  1
  Si  Si25  1  0.142848  0.198043  0.317162  1
  Si  Si26  1  0.862353  0.797505  0.815179  1
  Si  Si27  1  0.288397  0.949528  0.065590  1
  Si  Si28  1  0.544277  0.799419  0.316092  1
  Si  Si29  1  0.451967  0.203671  0.813324  1
  Si  Si30  1  0.789277  0.549474  0.684429  1
  Si  Si31  1  0.213129  0.446001  0.185472  1
  Si  Si32  1  0.700259  0.044765  0.565752  1
  Si  Si33  1  0.944859  0.285920  0.935547  1
  Si  Si34  1  0.051487  0.711049  0.435077  1
  Pt  Pt35  1  0.331685  0.328456  0.001105  1
