# generated using pymatgen
data_Er4Os5W3
_symmetry_space_group_name_H-M   'P 1'
_cell_length_a   5.41629449
_cell_length_b   5.41629428
_cell_length_c   8.54603900
_cell_angle_alpha   90.00000000
_cell_angle_beta   90.00000000
_cell_angle_gamma   117.10491070
_symmetry_Int_Tables_number   1
_chemical_formula_structural   Er4Os5W3
_chemical_formula_sum   'Er4 Os5 W3'
_cell_volume   223.17429913
_cell_formula_units_Z   1
loop_
 _symmetry_equiv_pos_site_id
 _symmetry_equiv_pos_as_xyz
  1  'x, y, z'
loop_
 _atom_site_type_symbol
 _atom_site_label
 _atom_site_symmetry_multiplicity
 _atom_site_fract_x
 _atom_site_fract_y
 _atom_site_fract_z
 _atom_site_occupancy
  Er  Er0  1  0.333914  0.666086  0.437933  1
  Er  Er1  1  0.665411  0.334589  0.566851  1
  Er  Er2  1  0.665411  0.334589  0.933149  1
  Er  Er3  1  0.333914  0.666086  0.062067  1
  Os  Os4  1  0.831674  0.663246  0.250000  1
  Os  Os5  1  0.336754  0.168326  0.250000  1
  Os  Os6  1  0.179550  0.820450  0.750000  1
  Os  Os7  1  0.166147  0.340327  0.750000  1
  Os  Os8  1  0.659673  0.833853  0.750000  1
  W  W9  1  0.002369  0.997631  0.505306  1
  W  W10  1  0.002369  0.997631  0.994694  1
  W  W11  1  0.822812  0.177188  0.250000  1
