# generated using pymatgen
data_Pu2P2O9
_symmetry_space_group_name_H-M   'P 1'
_cell_length_a   5.72394291
_cell_length_b   5.72394329
_cell_length_c   12.68088300
_cell_angle_alpha   90.00000000
_cell_angle_beta   90.00000000
_cell_angle_gamma   103.18680605
_symmetry_Int_Tables_number   1
_chemical_formula_structural   Pu2P2O9
_chemical_formula_sum   'Pu4 P4 O18'
_cell_volume   404.51507424
_cell_formula_units_Z   2
loop_
 _symmetry_equiv_pos_site_id
 _symmetry_equiv_pos_as_xyz
  1  'x, y, z'
loop_
 _atom_site_type_symbol
 _atom_site_label
 _atom_site_symmetry_multiplicity
 _atom_site_fract_x
 _atom_site_fract_y
 _atom_site_fract_z
 _atom_site_occupancy
  Pu  Pu0  1  0.207681  0.792319  0.431207  1
  Pu  Pu1  1  0.292319  0.707681  0.931207  1
  Pu  Pu2  1  0.792319  0.207681  0.568793  1
  Pu  Pu3  1  0.707681  0.292319  0.068793  1
  P  P4  1  0.108482  0.891518  0.142713  1
  P  P5  1  0.391518  0.608482  0.642713  1
  P  P6  1  0.891518  0.108482  0.857287  1
  P  P7  1  0.608482  0.391518  0.357287  1
  O  O8  1  0.938229  0.061771  0.124342  1
  O  O9  1  0.561771  0.438229  0.624342  1
  O  O10  1  0.061771  0.938229  0.875658  1
  O  O11  1  0.438229  0.561771  0.375658  1
  O  O12  1  0.500000  0.500000  0.000000  1
  O  O13  1  0.000000  0.000000  0.500000  1
  O  O14  1  0.639353  0.360647  0.239075  1
  O  O15  1  0.860647  0.139353  0.739075  1
  O  O16  1  0.852786  0.486507  0.415517  1
  O  O17  1  0.647214  0.013493  0.915517  1
  O  O18  1  0.486507  0.852786  0.584483  1
  O  O19  1  0.013493  0.647214  0.084483  1
  O  O20  1  0.147214  0.513493  0.584483  1
  O  O21  1  0.352786  0.986507  0.084483  1
  O  O22  1  0.513493  0.147214  0.415517  1
  O  O23  1  0.986507  0.352786  0.915517  1
  O  O24  1  0.139353  0.860647  0.260925  1
  O  O25  1  0.360647  0.639353  0.760925  1
