# generated using pymatgen
data_HfV3(SeO3)8
_symmetry_space_group_name_H-M   'P 1'
_cell_length_a   8.22531041
_cell_length_b   8.22531067
_cell_length_c   8.22531068
_cell_angle_alpha   89.30118568
_cell_angle_beta   90.69881309
_cell_angle_gamma   90.69881524
_symmetry_Int_Tables_number   1
_chemical_formula_structural   HfV3(SeO3)8
_chemical_formula_sum   'Hf1 V3 Se8 O24'
_cell_volume   556.36625663
_cell_formula_units_Z   1
loop_
 _symmetry_equiv_pos_site_id
 _symmetry_equiv_pos_as_xyz
  1  'x, y, z'
loop_
 _atom_site_type_symbol
 _atom_site_label
 _atom_site_symmetry_multiplicity
 _atom_site_fract_x
 _atom_site_fract_y
 _atom_site_fract_z
 _atom_site_occupancy
  Hf  Hf0  1  0.000000  0.000000  0.500000  1
  V  V1  1  0.500000  0.500000  0.500000  1
  V  V2  1  0.500000  0.000000  0.000000  1
  V  V3  1  0.000000  0.500000  0.000000  1
  Se  Se4  1  0.824238  0.655919  0.308285  1
  Se  Se5  1  0.191715  0.175762  0.155919  1
  Se  Se6  1  0.677532  0.322468  0.822468  1
  Se  Se7  1  0.344081  0.808285  0.675762  1
  Se  Se8  1  0.175762  0.344081  0.691715  1
  Se  Se9  1  0.808285  0.824238  0.844081  1
  Se  Se10  1  0.322468  0.677532  0.177532  1
  Se  Se11  1  0.655919  0.191715  0.324238  1
  O  O12  1  0.730427  0.519310  0.441024  1
  O  O13  1  0.266657  0.031246  0.022257  1
  O  O14  1  0.769974  0.432923  0.977882  1
  O  O15  1  0.239483  0.940253  0.550898  1
  O  O16  1  0.477743  0.733343  0.531246  1
  O  O17  1  0.058976  0.269573  0.019310  1
  O  O18  1  0.949102  0.760517  0.440253  1
  O  O19  1  0.522118  0.230026  0.932923  1
  O  O20  1  0.567077  0.477882  0.730026  1
  O  O21  1  0.059747  0.050898  0.260517  1
  O  O22  1  0.480690  0.941024  0.769573  1
  O  O23  1  0.968754  0.522257  0.233343  1
  O  O24  1  0.269573  0.480690  0.558976  1
  O  O25  1  0.733343  0.968754  0.977743  1
  O  O26  1  0.230026  0.567077  0.022118  1
  O  O27  1  0.760517  0.059747  0.449102  1
  O  O28  1  0.522257  0.266657  0.468754  1
  O  O29  1  0.941024  0.730427  0.980690  1
  O  O30  1  0.050898  0.239483  0.559747  1
  O  O31  1  0.477882  0.769974  0.067077  1
  O  O32  1  0.432923  0.522118  0.269974  1
  O  O33  1  0.940253  0.949102  0.739483  1
  O  O34  1  0.519310  0.058976  0.230427  1
  O  O35  1  0.031246  0.477743  0.766657  1
