# generated using pymatgen
data_PrEu2SbO7
_symmetry_space_group_name_H-M   'P 1'
_cell_length_a   6.63643000
_cell_length_b   6.63642863
_cell_length_c   7.79219100
_cell_angle_alpha   90.00000000
_cell_angle_beta   90.00000000
_cell_angle_gamma   110.14514606
_symmetry_Int_Tables_number   1
_chemical_formula_structural   PrEu2SbO7
_chemical_formula_sum   'Pr2 Eu4 Sb2 O14'
_cell_volume   322.19020807
_cell_formula_units_Z   2
loop_
 _symmetry_equiv_pos_site_id
 _symmetry_equiv_pos_as_xyz
  1  'x, y, z'
loop_
 _atom_site_type_symbol
 _atom_site_label
 _atom_site_symmetry_multiplicity
 _atom_site_fract_x
 _atom_site_fract_y
 _atom_site_fract_z
 _atom_site_occupancy
  Pr  Pr0  1  0.500000  0.500000  0.500000  1
  Pr  Pr1  1  0.500000  0.500000  0.000000  1
  Eu  Eu2  1  0.528554  0.999192  0.750000  1
  Eu  Eu3  1  0.999192  0.528554  0.250000  1
  Eu  Eu4  1  0.471446  0.000808  0.250000  1
  Eu  Eu5  1  0.000808  0.471446  0.750000  1
  Sb  Sb6  1  0.000000  0.000000  0.500000  1
  Sb  Sb7  1  0.000000  0.000000  0.000000  1
  O  O8  1  0.681999  0.927540  0.472731  1
  O  O9  1  0.927540  0.681999  0.527269  1
  O  O10  1  0.681999  0.927540  0.027269  1
  O  O11  1  0.927540  0.681999  0.972731  1
  O  O12  1  0.318001  0.072460  0.527269  1
  O  O13  1  0.072460  0.318001  0.472731  1
  O  O14  1  0.318001  0.072460  0.972731  1
  O  O15  1  0.072460  0.318001  0.027269  1
  O  O16  1  0.938542  0.061458  0.750000  1
  O  O17  1  0.061458  0.938542  0.250000  1
  O  O18  1  0.367110  0.632890  0.750000  1
  O  O19  1  0.632890  0.367110  0.250000  1
  O  O20  1  0.639019  0.360981  0.750000  1
  O  O21  1  0.360981  0.639019  0.250000  1
