# generated using pymatgen
data_CuSb12Ru2Rh
_symmetry_space_group_name_H-M   'P 1'
_cell_length_a   8.10610624
_cell_length_b   8.11778575
_cell_length_c   9.38308183
_cell_angle_alpha   54.76477418
_cell_angle_beta   54.96391999
_cell_angle_gamma   70.68089642
_symmetry_Int_Tables_number   1
_chemical_formula_structural   CuSb12Ru2Rh
_chemical_formula_sum   'Cu1 Sb12 Ru2 Rh1'
_cell_volume   412.93225072
_cell_formula_units_Z   1
loop_
 _symmetry_equiv_pos_site_id
 _symmetry_equiv_pos_as_xyz
  1  'x, y, z'
loop_
 _atom_site_type_symbol
 _atom_site_label
 _atom_site_symmetry_multiplicity
 _atom_site_fract_x
 _atom_site_fract_y
 _atom_site_fract_z
 _atom_site_occupancy
  Cu  Cu0  1  0.500000  0.000000  0.500000  1
  Sb  Sb1  1  0.157438  0.156410  0.177375  1
  Sb  Sb2  1  0.842562  0.843590  0.822625  1
  Sb  Sb3  1  0.847217  0.844095  0.499015  1
  Sb  Sb4  1  0.152783  0.155905  0.500985  1
  Sb  Sb5  1  0.819180  0.505782  0.335352  1
  Sb  Sb6  1  0.180820  0.494218  0.664648  1
  Sb  Sb7  1  0.502803  0.812652  0.338767  1
  Sb  Sb8  1  0.497197  0.187348  0.661233  1
  Sb  Sb9  1  0.661834  0.336965  0.844299  1
  Sb  Sb10  1  0.338166  0.663035  0.155701  1
  Sb  Sb11  1  0.660306  0.345225  0.151686  1
  Sb  Sb12  1  0.339694  0.654775  0.848314  1
  Ru  Ru13  1  0.000000  0.500000  0.000000  1
  Ru  Ru14  1  0.500000  0.000000  0.000000  1
  Rh  Rh15  1  0.000000  0.500000  0.500000  1
