# generated using pymatgen
data_NdHo4Bi3
_symmetry_space_group_name_H-M   'P 1'
_cell_length_a   8.35277600
_cell_length_b   9.50264300
_cell_length_c   12.16707900
_cell_angle_alpha   90.00000000
_cell_angle_beta   90.00000000
_cell_angle_gamma   90.00000000
_symmetry_Int_Tables_number   1
_chemical_formula_structural   NdHo4Bi3
_chemical_formula_sum   'Nd4 Ho16 Bi12'
_cell_volume   965.74301703
_cell_formula_units_Z   4
loop_
 _symmetry_equiv_pos_site_id
 _symmetry_equiv_pos_as_xyz
  1  'x, y, z'
loop_
 _atom_site_type_symbol
 _atom_site_label
 _atom_site_symmetry_multiplicity
 _atom_site_fract_x
 _atom_site_fract_y
 _atom_site_fract_z
 _atom_site_occupancy
  Nd  Nd0  1  0.172094  0.750000  0.226800  1
  Nd  Nd1  1  0.327906  0.750000  0.726800  1
  Nd  Nd2  1  0.827906  0.250000  0.773200  1
  Nd  Nd3  1  0.672094  0.250000  0.273200  1
  Ho  Ho4  1  0.809999  0.563051  0.064871  1
  Ho  Ho5  1  0.690001  0.936949  0.564871  1
  Ho  Ho6  1  0.190001  0.063051  0.935129  1
  Ho  Ho7  1  0.309999  0.436949  0.435129  1
  Ho  Ho8  1  0.190001  0.436949  0.935129  1
  Ho  Ho9  1  0.309999  0.063051  0.435129  1
  Ho  Ho10  1  0.809999  0.936949  0.064871  1
  Ho  Ho11  1  0.690001  0.563051  0.564871  1
  Ho  Ho12  1  0.476573  0.750000  0.003935  1
  Ho  Ho13  1  0.023427  0.750000  0.503935  1
  Ho  Ho14  1  0.523427  0.250000  0.996065  1
  Ho  Ho15  1  0.976573  0.250000  0.496065  1
  Ho  Ho16  1  0.663558  0.750000  0.289490  1
  Ho  Ho17  1  0.836442  0.750000  0.789490  1
  Ho  Ho18  1  0.336442  0.250000  0.710510  1
  Ho  Ho19  1  0.163558  0.250000  0.210510  1
  Bi  Bi20  1  0.403460  0.750000  0.468181  1
  Bi  Bi21  1  0.096540  0.750000  0.968181  1
  Bi  Bi22  1  0.596540  0.250000  0.531819  1
  Bi  Bi23  1  0.903460  0.250000  0.031819  1
  Bi  Bi24  1  0.934842  0.507446  0.328077  1
  Bi  Bi25  1  0.565158  0.992554  0.828077  1
  Bi  Bi26  1  0.065158  0.007446  0.671923  1
  Bi  Bi27  1  0.434842  0.492554  0.171923  1
  Bi  Bi28  1  0.065158  0.492554  0.671923  1
  Bi  Bi29  1  0.434842  0.007446  0.171923  1
  Bi  Bi30  1  0.934842  0.992554  0.328077  1
  Bi  Bi31  1  0.565158  0.507446  0.828077  1
