# generated using pymatgen
data_K5Ir2PtN3
_symmetry_space_group_name_H-M   'P 1'
_cell_length_a   9.20281600
_cell_length_b   9.19498996
_cell_length_c   3.73470400
_cell_angle_alpha   90.00000000
_cell_angle_beta   90.00000000
_cell_angle_gamma   120.02815164
_symmetry_Int_Tables_number   1
_chemical_formula_structural   K5Ir2PtN3
_chemical_formula_sum   'K5 Ir2 Pt1 N3'
_cell_volume   273.61225684
_cell_formula_units_Z   1
loop_
 _symmetry_equiv_pos_site_id
 _symmetry_equiv_pos_as_xyz
  1  'x, y, z'
loop_
 _atom_site_type_symbol
 _atom_site_label
 _atom_site_symmetry_multiplicity
 _atom_site_fract_x
 _atom_site_fract_y
 _atom_site_fract_z
 _atom_site_occupancy
  K  K0  1  0.738320  0.000000  0.500000  1
  K  K1  1  0.264108  0.267405  0.500000  1
  K  K2  1  0.668817  0.335527  0.500000  1
  K  K3  1  0.333291  0.664473  0.500000  1
  K  K4  1  0.996703  0.732596  0.500000  1
  Ir  Ir5  1  0.999930  0.363643  0.000000  1
  Ir  Ir6  1  0.636287  0.636357  0.000000  1
  Pt  Pt7  1  0.363178  0.000000  0.000000  1
  N  N8  1  0.364039  0.000000  0.500000  1
  N  N9  1  0.999888  0.364448  0.500000  1
  N  N10  1  0.635441  0.635552  0.500000  1
