# generated using pymatgen
data_Cs4Na2ScAlAs4
_symmetry_space_group_name_H-M   'P 1'
_cell_length_a   9.72770742
_cell_length_b   9.72770786
_cell_length_c   9.72813071
_cell_angle_alpha   139.73912119
_cell_angle_beta   137.46126749
_cell_angle_gamma   60.00030819
_symmetry_Int_Tables_number   1
_chemical_formula_structural   Cs4Na2ScAlAs4
_chemical_formula_sum   'Cs4 Na2 Sc1 Al1 As4'
_cell_volume   398.11633143
_cell_formula_units_Z   1
loop_
 _symmetry_equiv_pos_site_id
 _symmetry_equiv_pos_as_xyz
  1  'x, y, z'
loop_
 _atom_site_type_symbol
 _atom_site_label
 _atom_site_symmetry_multiplicity
 _atom_site_fract_x
 _atom_site_fract_y
 _atom_site_fract_z
 _atom_site_occupancy
  Cs  Cs0  1  0.096082  0.326530  0.774076  1
  Cs  Cs1  1  0.447573  0.173463  0.269556  1
  Cs  Cs2  1  0.903907  0.678017  0.230444  1
  Cs  Cs3  1  0.552454  0.822006  0.725924  1
  Na  Na4  1  0.499998  0.749998  0.250000  1
  Na  Na5  1  0.499996  0.249996  0.750000  1
  Sc  Sc6  1  0.999930  0.249930  0.250000  1
  Al  Al7  1  0.999986  0.749986  0.750000  1
  As  As8  1  0.118646  0.904249  0.193997  1
  As  As9  1  0.881329  0.075325  0.785477  1
  As  As10  1  0.289849  0.595852  0.714523  1
  As  As11  1  0.710252  0.424649  0.306003  1
