# generated using pymatgen
data_CeNdZn3CuRu
_symmetry_space_group_name_H-M   'P 1'
_cell_length_a   7.17968600
_cell_length_b   7.16365303
_cell_length_c   5.12052768
_cell_angle_alpha   90.17110414
_cell_angle_beta   90.00000000
_cell_angle_gamma   90.00000000
_symmetry_Int_Tables_number   1
_chemical_formula_structural   CeNdZn3CuRu
_chemical_formula_sum   'Ce2 Nd2 Zn6 Cu2 Ru2'
_cell_volume   263.36179589
_cell_formula_units_Z   2
loop_
 _symmetry_equiv_pos_site_id
 _symmetry_equiv_pos_as_xyz
  1  'x, y, z'
loop_
 _atom_site_type_symbol
 _atom_site_label
 _atom_site_symmetry_multiplicity
 _atom_site_fract_x
 _atom_site_fract_y
 _atom_site_fract_z
 _atom_site_occupancy
  Ce  Ce0  1  0.000000  0.992483  0.012417  1
  Ce  Ce1  1  0.500000  0.507233  0.010000  1
  Nd  Nd2  1  0.000000  0.508282  0.760936  1
  Nd  Nd3  1  0.500000  0.993588  0.232744  1
  Zn  Zn4  1  0.813394  0.318205  0.287777  1
  Zn  Zn5  1  0.312533  0.186933  0.715527  1
  Zn  Zn6  1  0.186606  0.318205  0.287777  1
  Zn  Zn7  1  0.687467  0.186933  0.715527  1
  Zn  Zn8  1  0.689957  0.810474  0.703089  1
  Zn  Zn9  1  0.310043  0.810474  0.703089  1
  Cu  Cu10  1  0.180639  0.682536  0.282108  1
  Cu  Cu11  1  0.819361  0.682536  0.282108  1
  Ru  Ru12  1  0.500000  0.496554  0.503923  1
  Ru  Ru13  1  0.000000  0.005563  0.502976  1
