# generated using pymatgen
data_Bi12Ir3Br2
_symmetry_space_group_name_H-M   'P 1'
_cell_length_a   18.28482500
_cell_length_b   16.62997271
_cell_length_c   9.27724216
_cell_angle_alpha   84.73982188
_cell_angle_beta   64.91308314
_cell_angle_gamma   30.34709396
_symmetry_Int_Tables_number   1
_chemical_formula_structural   Bi12Ir3Br2
_chemical_formula_sum   'Bi24 Ir6 Br4'
_cell_volume   1033.34335323
_cell_formula_units_Z   2
loop_
 _symmetry_equiv_pos_site_id
 _symmetry_equiv_pos_as_xyz
  1  'x, y, z'
loop_
 _atom_site_type_symbol
 _atom_site_label
 _atom_site_symmetry_multiplicity
 _atom_site_fract_x
 _atom_site_fract_y
 _atom_site_fract_z
 _atom_site_occupancy
  Bi  Bi0  1  0.436414  0.458018  0.309953  1
  Bi  Bi1  1  0.371041  0.852700  0.049941  1
  Bi  Bi2  1  0.309953  0.795615  0.436414  1
  Bi  Bi3  1  0.940047  0.454385  0.813586  1
  Bi  Bi4  1  0.726318  0.049941  0.852700  1
  Bi  Bi5  1  0.791982  0.813586  0.454385  1
  Bi  Bi6  1  0.112427  0.781176  0.784404  1
  Bi  Bi7  1  0.137573  0.468824  0.465596  1
  Bi  Bi8  1  0.781176  0.112427  0.321991  1
  Bi  Bi9  1  0.200059  0.523682  0.878959  1
  Bi  Bi10  1  0.928009  0.465596  0.468824  1
  Bi  Bi11  1  0.523682  0.200059  0.397300  1
  Bi  Bi12  1  0.795615  0.309953  0.458018  1
  Bi  Bi13  1  0.397300  0.878959  0.523682  1
  Bi  Bi14  1  0.784404  0.321991  0.112427  1
  Bi  Bi15  1  0.454385  0.940047  0.791982  1
  Bi  Bi16  1  0.458018  0.436414  0.795615  1
  Bi  Bi17  1  0.049941  0.726318  0.371041  1
  Bi  Bi18  1  0.852700  0.371041  0.726318  1
  Bi  Bi19  1  0.813586  0.791982  0.940047  1
  Bi  Bi20  1  0.468824  0.137573  0.928009  1
  Bi  Bi21  1  0.878959  0.397300  0.200059  1
  Bi  Bi22  1  0.321991  0.784404  0.781176  1
  Bi  Bi23  1  0.465596  0.928009  0.137573  1
  Ir  Ir24  1  0.625000  0.625000  0.125000  1
  Ir  Ir25  1  0.750000  0.750000  0.750000  1
  Ir  Ir26  1  0.625000  0.125000  0.625000  1
  Ir  Ir27  1  0.625000  0.625000  0.625000  1
  Ir  Ir28  1  0.125000  0.625000  0.625000  1
  Ir  Ir29  1  0.500000  0.500000  0.500000  1
  Br  Br30  1  0.795950  0.204050  0.795950  1
  Br  Br31  1  0.204050  0.795950  0.204050  1
  Br  Br32  1  0.045950  0.454050  0.045950  1
  Br  Br33  1  0.454050  0.045950  0.454050  1
