# generated using pymatgen
data_Zr6Al7Cu3Ni5Pd8
_symmetry_space_group_name_H-M   'P 1'
_cell_length_a   8.55234709
_cell_length_b   8.55236063
_cell_length_c   8.56904612
_cell_angle_alpha   60.06442422
_cell_angle_beta   60.06441565
_cell_angle_gamma   60.00002474
_symmetry_Int_Tables_number   1
_chemical_formula_structural   Zr6Al7Cu3Ni5Pd8
_chemical_formula_sum   'Zr6 Al7 Cu3 Ni5 Pd8'
_cell_volume   443.61995931
_cell_formula_units_Z   1
loop_
 _symmetry_equiv_pos_site_id
 _symmetry_equiv_pos_as_xyz
  1  'x, y, z'
loop_
 _atom_site_type_symbol
 _atom_site_label
 _atom_site_symmetry_multiplicity
 _atom_site_fract_x
 _atom_site_fract_y
 _atom_site_fract_z
 _atom_site_occupancy
  Zr  Zr0  1  0.698338  0.698338  0.302047  1
  Zr  Zr1  1  0.301277  0.698338  0.302047  1
  Zr  Zr2  1  0.698338  0.301277  0.302047  1
  Zr  Zr3  1  0.301397  0.301397  0.702914  1
  Zr  Zr4  1  0.694291  0.301397  0.702914  1
  Zr  Zr5  1  0.301397  0.694292  0.702914  1
  Al  Al6  1  0.000212  0.000213  0.999363  1
  Al  Al7  1  0.997062  0.997062  0.503719  1
  Al  Al8  1  0.502156  0.997061  0.503720  1
  Al  Al9  1  0.997061  0.502156  0.503719  1
  Al  Al10  1  0.501473  0.501474  0.997394  1
  Al  Al11  1  0.999659  0.501473  0.997395  1
  Al  Al12  1  0.501473  0.999659  0.997395  1
  Cu  Cu13  1  0.329971  0.009280  0.330778  1
  Cu  Cu14  1  0.009280  0.329972  0.330777  1
  Cu  Cu15  1  0.329971  0.329972  0.330778  1
  Ni  Ni16  1  0.659717  0.659717  0.020851  1
  Ni  Ni17  1  0.661790  0.016543  0.659877  1
  Ni  Ni18  1  0.016544  0.661790  0.659877  1
  Ni  Ni19  1  0.661790  0.661790  0.659877  1
  Ni  Ni20  1  0.337576  0.337576  0.987271  1
  Pd  Pd21  1  0.879011  0.879009  0.362971  1
  Pd  Pd22  1  0.876932  0.366639  0.879500  1
  Pd  Pd23  1  0.366637  0.876931  0.879501  1
  Pd  Pd24  1  0.876933  0.876931  0.879501  1
  Pd  Pd25  1  0.119399  0.119400  0.641800  1
  Pd  Pd26  1  0.120355  0.639602  0.119685  1
  Pd  Pd27  1  0.639602  0.120356  0.119685  1
  Pd  Pd28  1  0.120355  0.120356  0.119685  1
