# generated using pymatgen
data_Ce2Mn18Si7Ge
_symmetry_space_group_name_H-M   'P 1'
_cell_length_a   8.06259373
_cell_length_b   8.06259459
_cell_length_c   8.11978769
_cell_angle_alpha   121.69848015
_cell_angle_beta   121.69847837
_cell_angle_gamma   87.03224959
_symmetry_Int_Tables_number   1
_chemical_formula_structural   Ce2Mn18Si7Ge
_chemical_formula_sum   'Ce2 Mn18 Si7 Ge1'
_cell_volume   363.28957467
_cell_formula_units_Z   1
loop_
 _symmetry_equiv_pos_site_id
 _symmetry_equiv_pos_as_xyz
  1  'x, y, z'
loop_
 _atom_site_type_symbol
 _atom_site_label
 _atom_site_symmetry_multiplicity
 _atom_site_fract_x
 _atom_site_fract_y
 _atom_site_fract_z
 _atom_site_occupancy
  Ce  Ce0  1  0.752010  0.749415  0.000316  1
  Ce  Ce1  1  0.249415  0.252010  0.000316  1
  Mn  Mn2  1  0.702414  0.441907  0.499638  1
  Mn  Mn3  1  0.445857  0.945857  0.735477  1
  Mn  Mn4  1  0.201774  0.701774  0.256279  1
  Mn  Mn5  1  0.561529  0.061529  0.270270  1
  Mn  Mn6  1  0.941907  0.202414  0.499638  1
  Mn  Mn7  1  0.186616  0.943842  0.132974  1
  Mn  Mn8  1  0.811675  0.056186  0.868236  1
  Mn  Mn9  1  0.443842  0.686616  0.132974  1
  Mn  Mn10  1  0.556186  0.311675  0.868236  1
  Mn  Mn11  1  0.693052  0.558877  0.253220  1
  Mn  Mn12  1  0.305801  0.438541  0.746173  1
  Mn  Mn13  1  0.938541  0.805801  0.746173  1
  Mn  Mn14  1  0.296293  0.555139  0.495676  1
  Mn  Mn15  1  0.797386  0.297386  0.743356  1
  Mn  Mn16  1  0.999120  0.499120  0.499257  1
  Mn  Mn17  1  0.499583  0.999583  0.498733  1
  Mn  Mn18  1  0.058877  0.193052  0.253220  1
  Mn  Mn19  1  0.055139  0.796293  0.495676  1
  Si  Si20  1  0.052224  0.552224  0.849862  1
  Si  Si21  1  0.553572  0.702178  0.498426  1
  Si  Si22  1  0.797705  0.946085  0.502035  1
  Si  Si23  1  0.446085  0.297705  0.502035  1
  Si  Si24  1  0.945320  0.445320  0.148966  1
  Si  Si25  1  0.701712  0.201712  0.148049  1
  Si  Si26  1  0.202178  0.053572  0.498426  1
  Ge  Ge27  1  0.304186  0.804186  0.856363  1
