# generated using pymatgen
data_Ba6Zn(RuO6)2
_symmetry_space_group_name_H-M   'P 1'
_cell_length_a   9.15852754
_cell_length_b   9.15852748
_cell_length_c   7.29980049
_cell_angle_alpha   67.92739361
_cell_angle_beta   67.92739259
_cell_angle_gamma   36.81858151
_symmetry_Int_Tables_number   1
_chemical_formula_structural   Ba6Zn(RuO6)2
_chemical_formula_sum   'Ba6 Zn1 Ru2 O12'
_cell_volume   336.93458751
_cell_formula_units_Z   1
loop_
 _symmetry_equiv_pos_site_id
 _symmetry_equiv_pos_as_xyz
  1  'x, y, z'
loop_
 _atom_site_type_symbol
 _atom_site_label
 _atom_site_symmetry_multiplicity
 _atom_site_fract_x
 _atom_site_fract_y
 _atom_site_fract_z
 _atom_site_occupancy
  Ba  Ba0  1  0.209932  0.209932  0.708492  1
  Ba  Ba1  1  0.886535  0.886535  0.707467  1
  Ba  Ba2  1  0.546929  0.546929  0.719564  1
  Ba  Ba3  1  0.790068  0.790068  0.291508  1
  Ba  Ba4  1  0.453071  0.453071  0.280436  1
  Ba  Ba5  1  0.113465  0.113465  0.292533  1
  Zn  Zn6  1  0.000000  0.000000  0.000000  1
  Ru  Ru7  1  0.672084  0.672084  0.001160  1
  Ru  Ru8  1  0.327916  0.327916  0.998840  1
  O  O9  1  0.279300  0.279300  0.306556  1
  O  O10  1  0.949027  0.949027  0.307302  1
  O  O11  1  0.618181  0.618181  0.306744  1
  O  O12  1  0.720700  0.720700  0.693444  1
  O  O13  1  0.381819  0.381819  0.693256  1
  O  O14  1  0.050973  0.050973  0.692698  1
  O  O15  1  0.000000  0.500000  0.000000  1
  O  O16  1  0.640734  0.176007  0.000645  1
  O  O17  1  0.359266  0.823993  0.999355  1
  O  O18  1  0.500000  0.000000  0.000000  1
  O  O19  1  0.176007  0.640734  0.000645  1
  O  O20  1  0.823993  0.359266  0.999355  1
