# generated using pymatgen
data_NdY(Be12Cu)2
_symmetry_space_group_name_H-M   'P 1'
_cell_length_a   7.31765718
_cell_length_b   7.36815102
_cell_length_c   7.30059039
_cell_angle_alpha   59.84719211
_cell_angle_beta   59.82844548
_cell_angle_gamma   59.61794544
_symmetry_Int_Tables_number   1
_chemical_formula_structural   NdY(Be12Cu)2
_chemical_formula_sum   'Nd1 Y1 Be24 Cu2'
_cell_volume   276.84776595
_cell_formula_units_Z   1
loop_
 _symmetry_equiv_pos_site_id
 _symmetry_equiv_pos_as_xyz
  1  'x, y, z'
loop_
 _atom_site_type_symbol
 _atom_site_label
 _atom_site_symmetry_multiplicity
 _atom_site_fract_x
 _atom_site_fract_y
 _atom_site_fract_z
 _atom_site_occupancy
  Nd  Nd0  1  0.252726  0.247274  0.252726  1
  Y  Y1  1  0.746833  0.753167  0.746833  1
  Be  Be2  1  0.500064  0.499936  0.500064  1
  Be  Be3  1  0.000027  0.999973  0.000027  1
  Be  Be4  1  0.566242  0.790655  0.435657  1
  Be  Be5  1  0.435657  0.207445  0.566242  1
  Be  Be6  1  0.289743  0.935336  0.711935  1
  Be  Be7  1  0.711935  0.062986  0.289743  1
  Be  Be8  1  0.930872  0.278553  0.068152  1
  Be  Be9  1  0.068152  0.722423  0.930872  1
  Be  Be10  1  0.208265  0.797460  0.558809  1
  Be  Be11  1  0.790613  0.200891  0.442512  1
  Be  Be12  1  0.442512  0.565985  0.790613  1
  Be  Be13  1  0.558809  0.435467  0.208265  1
  Be  Be14  1  0.713238  0.285855  0.935442  1
  Be  Be15  1  0.288003  0.715024  0.063379  1
  Be  Be16  1  0.063379  0.933594  0.288003  1
  Be  Be17  1  0.935442  0.065465  0.713238  1
  Be  Be18  1  0.566719  0.206781  0.790257  1
  Be  Be19  1  0.434317  0.791685  0.208492  1
  Be  Be20  1  0.790257  0.436244  0.566719  1
  Be  Be21  1  0.208492  0.565505  0.434317  1
  Be  Be22  1  0.935739  0.713980  0.290019  1
  Be  Be23  1  0.062670  0.287204  0.711653  1
  Be  Be24  1  0.290019  0.060262  0.935739  1
  Be  Be25  1  0.711653  0.938472  0.062670  1
  Cu  Cu26  1  0.801314  0.558802  0.196308  1
  Cu  Cu27  1  0.196308  0.443576  0.801314  1
