# generated using pymatgen
data_Y3TmCoAg
_symmetry_space_group_name_H-M   'P 1'
_cell_length_a   9.42362506
_cell_length_b   9.42362502
_cell_length_c   9.42362700
_cell_angle_alpha   60.00000358
_cell_angle_beta   60.00000371
_cell_angle_gamma   60.00000437
_symmetry_Int_Tables_number   1
_chemical_formula_structural   Y3TmCoAg
_chemical_formula_sum   'Y12 Tm4 Co4 Ag4'
_cell_volume   591.75116707
_cell_formula_units_Z   4
loop_
 _symmetry_equiv_pos_site_id
 _symmetry_equiv_pos_as_xyz
  1  'x, y, z'
loop_
 _atom_site_type_symbol
 _atom_site_label
 _atom_site_symmetry_multiplicity
 _atom_site_fract_x
 _atom_site_fract_y
 _atom_site_fract_z
 _atom_site_occupancy
  Y  Y0  1  0.811113  0.188887  0.188887  1
  Y  Y1  1  0.188887  0.811113  0.811113  1
  Y  Y2  1  0.188887  0.811113  0.188887  1
  Y  Y3  1  0.811113  0.188887  0.811113  1
  Y  Y4  1  0.188887  0.188887  0.811113  1
  Y  Y5  1  0.811113  0.811113  0.188887  1
  Y  Y6  1  0.938578  0.561422  0.561422  1
  Y  Y7  1  0.561422  0.938578  0.938578  1
  Y  Y8  1  0.561422  0.938578  0.561422  1
  Y  Y9  1  0.938578  0.561422  0.938578  1
  Y  Y10  1  0.561422  0.561422  0.938578  1
  Y  Y11  1  0.938578  0.938578  0.561422  1
  Tm  Tm12  1  0.346460  0.346460  0.346460  1
  Tm  Tm13  1  0.346460  0.346460  0.960619  1
  Tm  Tm14  1  0.346460  0.960619  0.346460  1
  Tm  Tm15  1  0.960619  0.346460  0.346460  1
  Co  Co16  1  0.142946  0.142946  0.142946  1
  Co  Co17  1  0.142946  0.142946  0.571161  1
  Co  Co18  1  0.142946  0.571161  0.142946  1
  Co  Co19  1  0.571161  0.142946  0.142946  1
  Ag  Ag20  1  0.580603  0.580603  0.580603  1
  Ag  Ag21  1  0.580603  0.580603  0.258192  1
  Ag  Ag22  1  0.580603  0.258192  0.580603  1
  Ag  Ag23  1  0.258192  0.580603  0.580603  1
