# generated using pymatgen
data_CrRe(Tc2As7)2
_symmetry_space_group_name_H-M   'P 1'
_cell_length_a   7.60940196
_cell_length_b   7.60937310
_cell_length_c   7.60940260
_cell_angle_alpha   109.32646206
_cell_angle_beta   109.76276897
_cell_angle_gamma   109.32647656
_symmetry_Int_Tables_number   1
_chemical_formula_structural   CrRe(Tc2As7)2
_chemical_formula_sum   'Cr1 Re1 Tc4 As14'
_cell_volume   339.16482749
_cell_formula_units_Z   1
loop_
 _symmetry_equiv_pos_site_id
 _symmetry_equiv_pos_as_xyz
  1  'x, y, z'
loop_
 _atom_site_type_symbol
 _atom_site_label
 _atom_site_symmetry_multiplicity
 _atom_site_fract_x
 _atom_site_fract_y
 _atom_site_fract_z
 _atom_site_occupancy
  Cr  Cr0  1  0.340720  0.000013  0.340720  1
  Re  Re1  1  0.657858  0.999979  0.657858  1
  Tc  Tc2  1  0.000863  0.340178  0.341016  1
  Tc  Tc3  1  0.000840  0.659824  0.660686  1
  Tc  Tc4  1  0.341016  0.340178  0.000863  1
  Tc  Tc5  1  0.660686  0.659824  0.000840  1
  As  As6  1  0.750033  0.500002  0.250035  1
  As  As7  1  0.495474  0.752155  0.247628  1
  As  As8  1  0.495476  0.247841  0.743321  1
  As  As9  1  0.743321  0.247841  0.495476  1
  As  As10  1  0.247628  0.752155  0.495474  1
  As  As11  1  0.250035  0.500002  0.750033  1
  As  As12  1  0.007079  0.000002  0.331572  1
  As  As13  1  0.668754  0.000001  0.000630  1
  As  As14  1  0.007076  0.675502  0.007076  1
  As  As15  1  0.331581  0.324511  0.331581  1
  As  As16  1  0.000621  0.331878  0.000621  1
  As  As17  1  0.668736  0.668110  0.668736  1
  As  As18  1  0.331572  0.000002  0.007079  1
  As  As19  1  0.000630  0.000001  0.668754  1
