# generated using pymatgen
data_Li2Dy5Ti(P3Ir4)4
_symmetry_space_group_name_H-M   'P 1'
_cell_length_a   12.83986600
_cell_length_b   12.69135531
_cell_length_c   3.95526500
_cell_angle_alpha   90.00000000
_cell_angle_beta   90.00000000
_cell_angle_gamma   120.38785066
_symmetry_Int_Tables_number   1
_chemical_formula_structural   Li2Dy5Ti(P3Ir4)4
_chemical_formula_sum   'Li2 Dy5 Ti1 P12 Ir16'
_cell_volume   555.98629052
_cell_formula_units_Z   1
loop_
 _symmetry_equiv_pos_site_id
 _symmetry_equiv_pos_as_xyz
  1  'x, y, z'
loop_
 _atom_site_type_symbol
 _atom_site_label
 _atom_site_symmetry_multiplicity
 _atom_site_fract_x
 _atom_site_fract_y
 _atom_site_fract_z
 _atom_site_occupancy
  Li  Li0  1  0.001510  0.445145  0.500000  1
  Li  Li1  1  0.556365  0.554855  0.500000  1
  Dy  Dy2  1  0.334977  0.669396  0.500000  1
  Dy  Dy3  1  0.665582  0.330604  0.500000  1
  Dy  Dy4  1  0.003334  0.811937  0.000000  1
  Dy  Dy5  1  0.191398  0.188063  0.000000  1
  Dy  Dy6  1  0.809680  0.000000  0.000000  1
  Ti  Ti7  1  0.441704  0.000000  0.500000  1
  P  P8  1  0.996479  0.632440  0.500000  1
  P  P9  1  0.364039  0.367560  0.500000  1
  P  P10  1  0.635713  0.000000  0.500000  1
  P  P11  1  0.516065  0.685102  0.000000  1
  P  P12  1  0.316232  0.833575  0.000000  1
  P  P13  1  0.172820  0.483922  0.000000  1
  P  P14  1  0.482658  0.166425  0.000000  1
  P  P15  1  0.688898  0.516078  0.000000  1
  P  P16  1  0.830965  0.314898  0.000000  1
  P  P17  1  0.998691  0.179927  0.500000  1
  P  P18  1  0.818764  0.820073  0.500000  1
  P  P19  1  0.174641  0.000000  0.500000  1
  Ir  Ir20  1  0.510566  0.869249  0.000000  1
  Ir  Ir21  1  0.138311  0.643274  0.000000  1
  Ir  Ir22  1  0.359093  0.485121  0.000000  1
  Ir  Ir23  1  0.495037  0.356726  0.000000  1
  Ir  Ir24  1  0.873973  0.514879  0.000000  1
  Ir  Ir25  1  0.641318  0.130751  0.000000  1
  Ir  Ir26  1  0.999547  0.279785  0.000000  1
  Ir  Ir27  1  0.719762  0.720215  0.000000  1
  Ir  Ir28  1  0.282744  0.000000  0.000000  1
  Ir  Ir29  1  0.624527  0.804003  0.500000  1
  Ir  Ir30  1  0.188727  0.819589  0.500000  1
  Ir  Ir31  1  0.178590  0.376449  0.500000  1
  Ir  Ir32  1  0.369138  0.180411  0.500000  1
  Ir  Ir33  1  0.802141  0.623551  0.500000  1
  Ir  Ir34  1  0.820524  0.195997  0.500000  1
  Ir  Ir35  1  0.995490  0.000000  0.500000  1
