# generated using pymatgen
data_GdTm3(SiPd)4
_symmetry_space_group_name_H-M   'P 1'
_cell_length_a   4.29056800
_cell_length_b   6.95892358
_cell_length_c   7.56489900
_cell_angle_alpha   89.79036828
_cell_angle_beta   90.00000000
_cell_angle_gamma   90.00000000
_symmetry_Int_Tables_number   1
_chemical_formula_structural   GdTm3(SiPd)4
_chemical_formula_sum   'Gd1 Tm3 Si4 Pd4'
_cell_volume   225.86923645
_cell_formula_units_Z   1
loop_
 _symmetry_equiv_pos_site_id
 _symmetry_equiv_pos_as_xyz
  1  'x, y, z'
loop_
 _atom_site_type_symbol
 _atom_site_label
 _atom_site_symmetry_multiplicity
 _atom_site_fract_x
 _atom_site_fract_y
 _atom_site_fract_z
 _atom_site_occupancy
  Gd  Gd0  1  0.250000  0.498401  0.202890  1
  Tm  Tm1  1  0.750000  0.501633  0.794280  1
  Tm  Tm2  1  0.750000  0.001456  0.702810  1
  Tm  Tm3  1  0.250000  0.998690  0.298032  1
  Si  Si4  1  0.250000  0.802298  0.906582  1
  Si  Si5  1  0.750000  0.197776  0.091542  1
  Si  Si6  1  0.750000  0.700527  0.409294  1
  Si  Si7  1  0.250000  0.303178  0.594308  1
  Pd  Pd8  1  0.250000  0.695546  0.583803  1
  Pd  Pd9  1  0.750000  0.299342  0.422078  1
  Pd  Pd10  1  0.750000  0.814575  0.078945  1
  Pd  Pd11  1  0.250000  0.186578  0.915435  1
