# generated using pymatgen
data_TmLu9(Sn3P)2
_symmetry_space_group_name_H-M   'P 1'
_cell_length_a   8.87433338
_cell_length_b   8.87433372
_cell_length_c   6.56584000
_cell_angle_alpha   90.00000000
_cell_angle_beta   90.00000000
_cell_angle_gamma   119.96635742
_symmetry_Int_Tables_number   1
_chemical_formula_structural   TmLu9(Sn3P)2
_chemical_formula_sum   'Tm1 Lu9 Sn6 P2'
_cell_volume   447.96032544
_cell_formula_units_Z   1
loop_
 _symmetry_equiv_pos_site_id
 _symmetry_equiv_pos_as_xyz
  1  'x, y, z'
loop_
 _atom_site_type_symbol
 _atom_site_label
 _atom_site_symmetry_multiplicity
 _atom_site_fract_x
 _atom_site_fract_y
 _atom_site_fract_z
 _atom_site_occupancy
  Tm  Tm0  1  0.757844  0.757844  0.750000  1
  Lu  Lu1  1  0.666605  0.333254  0.000003  1
  Lu  Lu2  1  0.333254  0.666605  0.000003  1
  Lu  Lu3  1  0.333254  0.666605  0.499997  1
  Lu  Lu4  1  0.666605  0.333254  0.499997  1
  Lu  Lu5  1  0.241513  0.000034  0.750000  1
  Lu  Lu6  1  0.000034  0.241513  0.750000  1
  Lu  Lu7  1  0.241527  0.241527  0.250000  1
  Lu  Lu8  1  0.758544  0.000030  0.250000  1
  Lu  Lu9  1  0.000030  0.758544  0.250000  1
  Sn  Sn10  1  0.398713  0.398713  0.750000  1
  Sn  Sn11  1  0.600983  0.000161  0.750000  1
  Sn  Sn12  1  0.000161  0.600983  0.750000  1
  Sn  Sn13  1  0.601151  0.601151  0.250000  1
  Sn  Sn14  1  0.398925  0.000076  0.250000  1
  Sn  Sn15  1  0.000076  0.398925  0.250000  1
  P  P16  1  0.000390  0.000390  0.000386  1
  P  P17  1  0.000390  0.000390  0.499614  1
