# generated using pymatgen
data_Li4Tb(PrSn2)2
_symmetry_space_group_name_H-M   'P 1'
_cell_length_a   8.81123156
_cell_length_b   8.81123260
_cell_length_c   8.81123187
_cell_angle_alpha   148.75155573
_cell_angle_beta   132.92123593
_cell_angle_gamma   57.59378717
_symmetry_Int_Tables_number   1
_chemical_formula_structural   Li4Tb(PrSn2)2
_chemical_formula_sum   'Li4 Tb1 Pr2 Sn4'
_cell_volume   257.93150564
_cell_formula_units_Z   1
loop_
 _symmetry_equiv_pos_site_id
 _symmetry_equiv_pos_as_xyz
  1  'x, y, z'
loop_
 _atom_site_type_symbol
 _atom_site_label
 _atom_site_symmetry_multiplicity
 _atom_site_fract_x
 _atom_site_fract_y
 _atom_site_fract_z
 _atom_site_occupancy
  Li  Li0  1  0.481043  0.671399  0.809645  1
  Li  Li1  1  0.861753  0.671399  0.190355  1
  Li  Li2  1  0.138247  0.328601  0.809645  1
  Li  Li3  1  0.518957  0.328601  0.190355  1
  Tb  Tb4  1  0.500000  0.000000  0.500000  1
  Pr  Pr5  1  0.130035  0.130035  0.000000  1
  Pr  Pr6  1  0.869965  0.869965  0.000000  1
  Sn  Sn7  1  0.204409  0.500000  0.704409  1
  Sn  Sn8  1  0.795591  0.500000  0.295591  1
  Sn  Sn9  1  0.709932  0.209932  0.500000  1
  Sn  Sn10  1  0.290068  0.790068  0.500000  1
