# generated using pymatgen
data_Pr2Nd10OsPd3
_symmetry_space_group_name_H-M   'P 1'
_cell_length_a   6.62732139
_cell_length_b   7.36855805
_cell_length_c   9.96857500
_cell_angle_alpha   90.00000000
_cell_angle_beta   90.00000000
_cell_angle_gamma   90.07167044
_symmetry_Int_Tables_number   1
_chemical_formula_structural   Pr2Nd10OsPd3
_chemical_formula_sum   'Pr2 Nd10 Os1 Pd3'
_cell_volume   486.80304019
_cell_formula_units_Z   1
loop_
 _symmetry_equiv_pos_site_id
 _symmetry_equiv_pos_as_xyz
  1  'x, y, z'
loop_
 _atom_site_type_symbol
 _atom_site_label
 _atom_site_symmetry_multiplicity
 _atom_site_fract_x
 _atom_site_fract_y
 _atom_site_fract_z
 _atom_site_occupancy
  Pr  Pr0  1  0.865119  0.526342  0.250000  1
  Pr  Pr1  1  0.637545  0.028269  0.250000  1
  Nd  Nd2  1  0.333542  0.679452  0.055490  1
  Nd  Nd3  1  0.165616  0.177739  0.438567  1
  Nd  Nd4  1  0.666486  0.328049  0.566324  1
  Nd  Nd5  1  0.824559  0.817384  0.934936  1
  Nd  Nd6  1  0.666486  0.328049  0.933676  1
  Nd  Nd7  1  0.824559  0.817384  0.565064  1
  Nd  Nd8  1  0.333542  0.679452  0.444510  1
  Nd  Nd9  1  0.165616  0.177739  0.061433  1
  Nd  Nd10  1  0.143456  0.474525  0.750000  1
  Nd  Nd11  1  0.370855  0.959577  0.750000  1
  Os  Os12  1  0.563302  0.617820  0.750000  1
  Pd  Pd13  1  0.074195  0.884130  0.250000  1
  Pd  Pd14  1  0.425204  0.388690  0.250000  1
  Pd  Pd15  1  0.939918  0.115397  0.750000  1
