# generated using pymatgen
data_Gd7PtI12
_symmetry_space_group_name_H-M   'P 1'
_cell_length_a   9.77696398
_cell_length_b   9.77696337
_cell_length_c   9.77696500
_cell_angle_alpha   107.41800799
_cell_angle_beta   107.41800686
_cell_angle_gamma   107.41800733
_symmetry_Int_Tables_number   1
_chemical_formula_structural   Gd7PtI12
_chemical_formula_sum   'Gd7 Pt1 I12'
_cell_volume   769.27171157
_cell_formula_units_Z   1
loop_
 _symmetry_equiv_pos_site_id
 _symmetry_equiv_pos_as_xyz
  1  'x, y, z'
loop_
 _atom_site_type_symbol
 _atom_site_label
 _atom_site_symmetry_multiplicity
 _atom_site_fract_x
 _atom_site_fract_y
 _atom_site_fract_z
 _atom_site_occupancy
  Gd  Gd0  1  0.102103  0.031093  0.308610  1
  Gd  Gd1  1  0.308610  0.102103  0.031093  1
  Gd  Gd2  1  0.031093  0.308610  0.102103  1
  Gd  Gd3  1  0.897897  0.968907  0.691390  1
  Gd  Gd4  1  0.691390  0.897897  0.968907  1
  Gd  Gd5  1  0.968907  0.691390  0.897897  1
  Gd  Gd6  1  0.500000  0.500000  0.500000  1
  Pt  Pt7  1  0.000000  0.000000  0.000000  1
  I  I8  1  0.074958  0.680549  0.228694  1
  I  I9  1  0.228694  0.074958  0.680549  1
  I  I10  1  0.680549  0.228694  0.074958  1
  I  I11  1  0.925042  0.319451  0.771306  1
  I  I12  1  0.771306  0.925042  0.319451  1
  I  I13  1  0.319451  0.771306  0.925042  1
  I  I14  1  0.470146  0.153511  0.390738  1
  I  I15  1  0.390738  0.470146  0.153511  1
  I  I16  1  0.153511  0.390738  0.470146  1
  I  I17  1  0.529854  0.846489  0.609262  1
  I  I18  1  0.609262  0.529854  0.846489  1
  I  I19  1  0.846489  0.609262  0.529854  1
