# generated using pymatgen
data_Tb5Ho7Tc4
_symmetry_space_group_name_H-M   'P 1'
_cell_length_a   6.27764794
_cell_length_b   7.41125713
_cell_length_c   9.16994981
_cell_angle_alpha   89.96647690
_cell_angle_beta   89.90900393
_cell_angle_gamma   89.97659089
_symmetry_Int_Tables_number   1
_chemical_formula_structural   Tb5Ho7Tc4
_chemical_formula_sum   'Tb5 Ho7 Tc4'
_cell_volume   426.63368015
_cell_formula_units_Z   1
loop_
 _symmetry_equiv_pos_site_id
 _symmetry_equiv_pos_as_xyz
  1  'x, y, z'
loop_
 _atom_site_type_symbol
 _atom_site_label
 _atom_site_symmetry_multiplicity
 _atom_site_fract_x
 _atom_site_fract_y
 _atom_site_fract_z
 _atom_site_occupancy
  Tb  Tb0  1  0.160445  0.175838  0.062768  1
  Tb  Tb1  1  0.871521  0.542043  0.250295  1
  Tb  Tb2  1  0.627754  0.041128  0.250741  1
  Tb  Tb3  1  0.127382  0.458891  0.749633  1
  Tb  Tb4  1  0.372941  0.958369  0.749607  1
  Ho  Ho5  1  0.340579  0.674973  0.062539  1
  Ho  Ho6  1  0.159790  0.174856  0.438035  1
  Ho  Ho7  1  0.659131  0.324533  0.562580  1
  Ho  Ho8  1  0.839953  0.824753  0.937082  1
  Ho  Ho9  1  0.660550  0.324694  0.937052  1
  Ho  Ho10  1  0.840011  0.824745  0.562640  1
  Ho  Ho11  1  0.340197  0.675598  0.437291  1
  Tc  Tc12  1  0.042063  0.884666  0.250019  1
  Tc  Tc13  1  0.458651  0.385536  0.251001  1
  Tc  Tc14  1  0.956291  0.114763  0.748507  1
  Tc  Tc15  1  0.542742  0.614616  0.750207  1
