# generated using pymatgen
data_TbYb2Pa(FeB4)4
_symmetry_space_group_name_H-M   'P 1'
_cell_length_a   3.38162100
_cell_length_b   5.90148338
_cell_length_c   11.41392178
_cell_angle_alpha   90.04166999
_cell_angle_beta   90.00002698
_cell_angle_gamma   90.00000970
_symmetry_Int_Tables_number   1
_chemical_formula_structural   TbYb2Pa(FeB4)4
_chemical_formula_sum   'Tb1 Yb2 Pa1 Fe4 B16'
_cell_volume   227.78278424
_cell_formula_units_Z   1
loop_
 _symmetry_equiv_pos_site_id
 _symmetry_equiv_pos_as_xyz
  1  'x, y, z'
loop_
 _atom_site_type_symbol
 _atom_site_label
 _atom_site_symmetry_multiplicity
 _atom_site_fract_x
 _atom_site_fract_y
 _atom_site_fract_z
 _atom_site_occupancy
  Tb  Tb0  1  0.000000  0.872931  0.346697  1
  Yb  Yb1  1  0.000000  0.625370  0.852372  1
  Yb  Yb2  1  0.000000  0.374090  0.149572  1
  Pa  Pa3  1  0.000000  0.127022  0.651895  1
  Fe  Fe4  1  0.000000  0.129572  0.911493  1
  Fe  Fe5  1  0.000000  0.869670  0.086467  1
  Fe  Fe6  1  0.000000  0.634464  0.590648  1
  Fe  Fe7  1  0.000000  0.364535  0.414027  1
  B  B8  1  0.500000  0.360525  0.968473  1
  B  B9  1  0.500000  0.638665  0.031583  1
  B  B10  1  0.500000  0.861105  0.532543  1
  B  B11  1  0.500000  0.140252  0.466749  1
  B  B12  1  0.500000  0.476897  0.690153  1
  B  B13  1  0.500000  0.523890  0.309198  1
  B  B14  1  0.500000  0.975712  0.811993  1
  B  B15  1  0.500000  0.025031  0.188692  1
  B  B16  1  0.500000  0.280803  0.818179  1
  B  B17  1  0.500000  0.718298  0.181548  1
  B  B18  1  0.500000  0.780199  0.684002  1
  B  B19  1  0.500000  0.220872  0.314794  1
  B  B20  1  0.500000  0.390392  0.545644  1
  B  B21  1  0.500000  0.610594  0.452858  1
  B  B22  1  0.500000  0.886385  0.955070  1
  B  B23  1  0.500000  0.112728  0.045353  1
