# generated using pymatgen
data_Li2TbYSi3
_symmetry_space_group_name_H-M   'P 1'
_cell_length_a   9.30959166
_cell_length_b   9.30959086
_cell_length_c   6.71465400
_cell_angle_alpha   90.00000000
_cell_angle_beta   90.00000000
_cell_angle_gamma   153.57480664
_symmetry_Int_Tables_number   1
_chemical_formula_structural   Li2TbYSi3
_chemical_formula_sum   'Li4 Tb2 Y2 Si6'
_cell_volume   258.98413792
_cell_formula_units_Z   2
loop_
 _symmetry_equiv_pos_site_id
 _symmetry_equiv_pos_as_xyz
  1  'x, y, z'
loop_
 _atom_site_type_symbol
 _atom_site_label
 _atom_site_symmetry_multiplicity
 _atom_site_fract_x
 _atom_site_fract_y
 _atom_site_fract_z
 _atom_site_occupancy
  Li  Li0  1  0.190250  0.809750  0.059683  1
  Li  Li1  1  0.190250  0.809750  0.440317  1
  Li  Li2  1  0.809750  0.190250  0.940317  1
  Li  Li3  1  0.809750  0.190250  0.559683  1
  Tb  Tb4  1  0.552857  0.447143  0.250000  1
  Tb  Tb5  1  0.447143  0.552857  0.750000  1
  Y  Y6  1  0.345110  0.654890  0.250000  1
  Y  Y7  1  0.654890  0.345110  0.750000  1
  Si  Si8  1  0.720744  0.279256  0.250000  1
  Si  Si9  1  0.279256  0.720744  0.750000  1
  Si  Si10  1  0.059131  0.940869  0.927151  1
  Si  Si11  1  0.940869  0.059131  0.072849  1
  Si  Si12  1  0.940869  0.059131  0.427151  1
  Si  Si13  1  0.059131  0.940869  0.572849  1
