# generated using pymatgen
data_Ho7Er9(MgSn4)4
_symmetry_space_group_name_H-M   'P 1'
_cell_length_a   7.62697500
_cell_length_b   8.19300500
_cell_length_c   15.18974900
_cell_angle_alpha   90.00010176
_cell_angle_beta   89.99870893
_cell_angle_gamma   89.99925375
_symmetry_Int_Tables_number   1
_chemical_formula_structural   Ho7Er9(MgSn4)4
_chemical_formula_sum   'Ho7 Er9 Mg4 Sn16'
_cell_volume   949.17467046
_cell_formula_units_Z   1
loop_
 _symmetry_equiv_pos_site_id
 _symmetry_equiv_pos_as_xyz
  1  'x, y, z'
loop_
 _atom_site_type_symbol
 _atom_site_label
 _atom_site_symmetry_multiplicity
 _atom_site_fract_x
 _atom_site_fract_y
 _atom_site_fract_z
 _atom_site_occupancy
  Ho  Ho0  1  0.998995  0.184822  0.090666  1
  Ho  Ho1  1  0.001004  0.815178  0.909337  1
  Ho  Ho2  1  0.501006  0.684824  0.909347  1
  Ho  Ho3  1  0.001006  0.815173  0.590663  1
  Ho  Ho4  1  0.498990  0.315185  0.090665  1
  Ho  Ho5  1  0.998997  0.184820  0.409335  1
  Ho  Ho6  1  0.498983  0.315181  0.409337  1
  Er  Er7  1  0.501003  0.684831  0.590660  1
  Er  Er8  1  0.335093  0.169033  0.628763  1
  Er  Er9  1  0.664906  0.830958  0.371246  1
  Er  Er10  1  0.164911  0.669041  0.371232  1
  Er  Er11  1  0.664903  0.830961  0.128769  1
  Er  Er12  1  0.835072  0.330987  0.628765  1
  Er  Er13  1  0.335084  0.169028  0.871232  1
  Er  Er14  1  0.835089  0.330969  0.871234  1
  Er  Er15  1  0.164919  0.669026  0.128770  1
  Mg  Mg16  1  0.159327  0.505490  0.750001  1
  Mg  Mg17  1  0.840675  0.494501  0.249996  1
  Mg  Mg18  1  0.340682  0.005495  0.249999  1
  Mg  Mg19  1  0.659315  0.994504  0.749997  1
  Sn  Sn20  1  0.021318  0.091837  0.750000  1
  Sn  Sn21  1  0.978690  0.908164  0.250003  1
  Sn  Sn22  1  0.478694  0.591837  0.250002  1
  Sn  Sn23  1  0.521307  0.408200  0.749987  1
  Sn  Sn24  1  0.182628  0.463053  0.538482  1
  Sn  Sn25  1  0.817396  0.536994  0.461538  1
  Sn  Sn26  1  0.317440  0.962997  0.461537  1
  Sn  Sn27  1  0.817423  0.536980  0.038468  1
  Sn  Sn28  1  0.682554  0.036940  0.538475  1
  Sn  Sn29  1  0.182565  0.463021  0.961534  1
  Sn  Sn30  1  0.682576  0.036979  0.961533  1
  Sn  Sn31  1  0.317429  0.963023  0.038467  1
  Sn  Sn32  1  0.302659  0.846774  0.749976  1
  Sn  Sn33  1  0.697387  0.153193  0.250000  1
  Sn  Sn34  1  0.197384  0.346807  0.249999  1
  Sn  Sn35  1  0.802589  0.653197  0.749986  1
