# generated using pymatgen
data_Cs3Au2F11
_symmetry_space_group_name_H-M   'P 1'
_cell_length_a   6.49722735
_cell_length_b   6.49722673
_cell_length_c   10.03771600
_cell_angle_alpha   108.88324247
_cell_angle_beta   108.88324062
_cell_angle_gamma   89.99999202
_symmetry_Int_Tables_number   1
_chemical_formula_structural   Cs3Au2F11
_chemical_formula_sum   'Cs3 Au2 F11'
_cell_volume   376.74337163
_cell_formula_units_Z   1
loop_
 _symmetry_equiv_pos_site_id
 _symmetry_equiv_pos_as_xyz
  1  'x, y, z'
loop_
 _atom_site_type_symbol
 _atom_site_label
 _atom_site_symmetry_multiplicity
 _atom_site_fract_x
 _atom_site_fract_y
 _atom_site_fract_z
 _atom_site_occupancy
  Cs  Cs0  1  0.750297  0.250225  0.500545  1
  Cs  Cs1  1  0.250225  0.750297  0.500545  1
  Cs  Cs2  1  0.999882  0.999884  0.999682  1
  Au  Au3  1  0.619056  0.619053  0.238299  1
  Au  Au4  1  0.380634  0.380636  0.761115  1
  F  F5  1  0.499780  0.499781  0.999732  1
  F  F6  1  0.404235  0.404236  0.239101  1
  F  F7  1  0.834783  0.404262  0.239126  1
  F  F8  1  0.404261  0.834784  0.239126  1
  F  F9  1  0.834741  0.834741  0.239060  1
  F  F10  1  0.258937  0.258937  0.517581  1
  F  F11  1  0.740892  0.740892  0.481854  1
  F  F12  1  0.165159  0.165159  0.761056  1
  F  F13  1  0.595988  0.165183  0.761055  1
  F  F14  1  0.165183  0.595984  0.761053  1
  F  F15  1  0.595949  0.595950  0.761076  1
