# generated using pymatgen
data_ThNp3F15
_symmetry_space_group_name_H-M   'P 1'
_cell_length_a   8.78200945
_cell_length_b   8.78200872
_cell_length_c   8.82043984
_cell_angle_alpha   79.16958434
_cell_angle_beta   79.16957894
_cell_angle_gamma   99.99400126
_symmetry_Int_Tables_number   1
_chemical_formula_structural   ThNp3F15
_chemical_formula_sum   'Th2 Np6 F30'
_cell_volume   640.68245866
_cell_formula_units_Z   2
loop_
 _symmetry_equiv_pos_site_id
 _symmetry_equiv_pos_as_xyz
  1  'x, y, z'
loop_
 _atom_site_type_symbol
 _atom_site_label
 _atom_site_symmetry_multiplicity
 _atom_site_fract_x
 _atom_site_fract_y
 _atom_site_fract_z
 _atom_site_occupancy
  Th  Th0  1  0.176600  0.823400  0.250000  1
  Th  Th1  1  0.823400  0.176600  0.750000  1
  Np  Np2  1  0.752431  0.247569  0.250000  1
  Np  Np3  1  0.247569  0.752431  0.750000  1
  Np  Np4  1  0.745130  0.676237  0.680395  1
  Np  Np5  1  0.323763  0.254870  0.819605  1
  Np  Np6  1  0.254870  0.323763  0.319605  1
  Np  Np7  1  0.676237  0.745130  0.180395  1
  F  F8  1  0.320873  0.339954  0.052216  1
  F  F9  1  0.946474  0.817865  0.156765  1
  F  F10  1  0.847808  0.449156  0.679617  1
  F  F11  1  0.449156  0.847808  0.179617  1
  F  F12  1  0.817865  0.946474  0.656765  1
  F  F13  1  0.339954  0.320873  0.552215  1
  F  F14  1  0.679127  0.660046  0.947784  1
  F  F15  1  0.053526  0.182135  0.843235  1
  F  F16  1  0.152192  0.550844  0.320383  1
  F  F17  1  0.550844  0.152192  0.820383  1
  F  F18  1  0.182135  0.053526  0.343235  1
  F  F19  1  0.660046  0.679127  0.447784  1
  F  F20  1  0.778411  0.279758  0.989483  1
  F  F21  1  0.011526  0.278456  0.222247  1
  F  F22  1  0.778636  0.508314  0.220622  1
  F  F23  1  0.508314  0.778636  0.720622  1
  F  F24  1  0.278456  0.011526  0.722247  1
  F  F25  1  0.279758  0.778411  0.489483  1
  F  F26  1  0.221589  0.720242  0.010517  1
  F  F27  1  0.988474  0.721544  0.777753  1
  F  F28  1  0.221364  0.491686  0.779378  1
  F  F29  1  0.491686  0.221364  0.279378  1
  F  F30  1  0.721544  0.988474  0.277753  1
  F  F31  1  0.720242  0.221589  0.510517  1
  F  F32  1  0.463777  0.536223  0.250000  1
  F  F33  1  0.752410  0.963768  0.967129  1
  F  F34  1  0.036232  0.247590  0.532871  1
  F  F35  1  0.247590  0.036232  0.032871  1
  F  F36  1  0.963768  0.752410  0.467129  1
  F  F37  1  0.536223  0.463777  0.750000  1
