# generated using pymatgen
data_SrPrMn2O6
_symmetry_space_group_name_H-M   'P 1'
_cell_length_a   5.51994400
_cell_length_b   5.55920300
_cell_length_c   7.79330700
_cell_angle_alpha   90.00000000
_cell_angle_beta   90.00000000
_cell_angle_gamma   90.00000000
_symmetry_Int_Tables_number   1
_chemical_formula_structural   SrPrMn2O6
_chemical_formula_sum   'Sr2 Pr2 Mn4 O12'
_cell_volume   239.14923144
_cell_formula_units_Z   2
loop_
 _symmetry_equiv_pos_site_id
 _symmetry_equiv_pos_as_xyz
  1  'x, y, z'
loop_
 _atom_site_type_symbol
 _atom_site_label
 _atom_site_symmetry_multiplicity
 _atom_site_fract_x
 _atom_site_fract_y
 _atom_site_fract_z
 _atom_site_occupancy
  Sr  Sr0  1  0.011283  0.242812  0.500000  1
  Sr  Sr1  1  0.511283  0.757188  0.500000  1
  Pr  Pr2  1  0.978453  0.249215  0.000000  1
  Pr  Pr3  1  0.478453  0.750785  0.000000  1
  Mn  Mn4  1  0.499192  0.250000  0.748829  1
  Mn  Mn5  1  0.999192  0.750000  0.251171  1
  Mn  Mn6  1  0.499192  0.250000  0.251171  1
  Mn  Mn7  1  0.999192  0.750000  0.748829  1
  O  O8  1  0.233565  0.484104  0.791930  1
  O  O9  1  0.733565  0.515896  0.208070  1
  O  O10  1  0.771383  0.021082  0.264595  1
  O  O11  1  0.271383  0.978918  0.735405  1
  O  O12  1  0.771383  0.021082  0.735405  1
  O  O13  1  0.271383  0.978918  0.264595  1
  O  O14  1  0.233565  0.484104  0.208070  1
  O  O15  1  0.733565  0.515896  0.791930  1
  O  O16  1  0.506362  0.191415  0.000000  1
  O  O17  1  0.006362  0.808585  0.000000  1
  O  O18  1  0.495624  0.299829  0.500000  1
  O  O19  1  0.995624  0.700171  0.500000  1
