# generated using pymatgen
data_Tb3YCo12(Si3Ni2)4
_symmetry_space_group_name_H-M   'P 1'
_cell_length_a   3.73298400
_cell_length_b   6.79206379
_cell_length_c   18.56644098
_cell_angle_alpha   89.89746455
_cell_angle_beta   90.00000000
_cell_angle_gamma   90.00000000
_symmetry_Int_Tables_number   1
_chemical_formula_structural   Tb3YCo12(Si3Ni2)4
_chemical_formula_sum   'Tb3 Y1 Co12 Si12 Ni8'
_cell_volume   470.74514627
_cell_formula_units_Z   1
loop_
 _symmetry_equiv_pos_site_id
 _symmetry_equiv_pos_as_xyz
  1  'x, y, z'
loop_
 _atom_site_type_symbol
 _atom_site_label
 _atom_site_symmetry_multiplicity
 _atom_site_fract_x
 _atom_site_fract_y
 _atom_site_fract_z
 _atom_site_occupancy
  Tb  Tb0  1  0.250000  0.624336  0.643555  1
  Tb  Tb1  1  0.750000  0.372394  0.357938  1
  Tb  Tb2  1  0.750000  0.126720  0.859156  1
  Y  Y3  1  0.250000  0.874100  0.140472  1
  Co  Co4  1  0.250000  0.127979  0.994464  1
  Co  Co5  1  0.750000  0.382145  0.987750  1
  Co  Co6  1  0.750000  0.114513  0.488464  1
  Co  Co7  1  0.250000  0.622319  0.011894  1
  Co  Co8  1  0.250000  0.357764  0.113009  1
  Co  Co9  1  0.750000  0.642987  0.887497  1
  Co  Co10  1  0.750000  0.858824  0.382822  1
  Co  Co11  1  0.250000  0.143533  0.614365  1
  Co  Co12  1  0.250000  0.061965  0.293519  1
  Co  Co13  1  0.750000  0.937419  0.707315  1
  Co  Co14  1  0.750000  0.562235  0.204847  1
  Co  Co15  1  0.250000  0.437191  0.795635  1
  Si  Si16  1  0.250000  0.847567  0.926069  1
  Si  Si17  1  0.750000  0.154607  0.072420  1
  Si  Si18  1  0.750000  0.344539  0.573856  1
  Si  Si19  1  0.250000  0.661167  0.423569  1
  Si  Si20  1  0.750000  0.625975  0.765155  1
  Si  Si21  1  0.250000  0.372388  0.235771  1
  Si  Si22  1  0.250000  0.412262  0.918536  1
  Si  Si23  1  0.750000  0.582474  0.082738  1
  Si  Si24  1  0.750000  0.921504  0.586547  1
  Si  Si25  1  0.250000  0.077909  0.416176  1
  Si  Si26  1  0.250000  0.128415  0.737669  1
  Si  Si27  1  0.750000  0.873190  0.261150  1
  Ni  Ni28  1  0.750000  0.633675  0.505359  1
  Ni  Ni29  1  0.250000  0.372257  0.493226  1
  Ni  Ni30  1  0.250000  0.817363  0.799565  1
  Ni  Ni31  1  0.750000  0.182202  0.199828  1
  Ni  Ni32  1  0.750000  0.318801  0.701419  1
  Ni  Ni33  1  0.250000  0.681509  0.297195  1
  Ni  Ni34  1  0.250000  0.877106  0.515118  1
  Ni  Ni35  1  0.750000  0.868666  0.005936  1
