# generated using pymatgen
data_Sr12Ca4Nb5(RuO12)3
_symmetry_space_group_name_H-M   'P 1'
_cell_length_a   5.86537575
_cell_length_b   10.04629186
_cell_length_c   14.29751876
_cell_angle_alpha   89.70384784
_cell_angle_beta   90.05579584
_cell_angle_gamma   90.01481041
_symmetry_Int_Tables_number   1
_chemical_formula_structural   Sr12Ca4Nb5(RuO12)3
_chemical_formula_sum   'Sr12 Ca4 Nb5 Ru3 O36'
_cell_volume   842.47356672
_cell_formula_units_Z   1
loop_
 _symmetry_equiv_pos_site_id
 _symmetry_equiv_pos_as_xyz
  1  'x, y, z'
loop_
 _atom_site_type_symbol
 _atom_site_label
 _atom_site_symmetry_multiplicity
 _atom_site_fract_x
 _atom_site_fract_y
 _atom_site_fract_z
 _atom_site_occupancy
  Sr  Sr0  1  0.535434  0.838339  0.412350  1
  Sr  Sr1  1  0.536760  0.493933  0.753453  1
  Sr  Sr2  1  0.960970  0.330206  0.411512  1
  Sr  Sr3  1  0.466300  0.834711  0.913922  1
  Sr  Sr4  1  0.540572  0.165538  0.092676  1
  Sr  Sr5  1  0.044739  0.008047  0.246381  1
  Sr  Sr6  1  0.033539  0.334354  0.913987  1
  Sr  Sr7  1  0.963313  0.994321  0.752572  1
  Sr  Sr8  1  0.460279  0.165931  0.579623  1
  Sr  Sr9  1  0.038992  0.666176  0.584242  1
  Sr  Sr10  1  0.461269  0.507376  0.246134  1
  Sr  Sr11  1  0.960690  0.666636  0.092617  1
  Ca  Ca12  1  0.498962  0.499579  0.001791  1
  Ca  Ca13  1  0.999825  0.001206  0.498039  1
  Ca  Ca14  1  0.499848  0.500055  0.499991  1
  Ca  Ca15  1  0.001320  0.999996  0.001327  1
  Nb  Nb16  1  0.504741  0.830524  0.663186  1
  Nb  Nb17  1  0.994947  0.329838  0.663283  1
  Nb  Nb18  1  0.495542  0.163819  0.836071  1
  Nb  Nb19  1  0.004069  0.671691  0.335336  1
  Nb  Nb20  1  0.004361  0.663707  0.836720  1
  Ru  Ru21  1  0.498195  0.173659  0.329744  1
  Ru  Ru22  1  0.504430  0.837829  0.167585  1
  Ru  Ru23  1  0.996464  0.336339  0.169146  1
  O  O24  1  0.021791  0.792444  0.937262  1
  O  O25  1  0.811916  0.601424  0.434391  1
  O  O26  1  0.778886  0.866537  0.591008  1
  O  O27  1  0.781098  0.261463  0.775878  1
  O  O28  1  0.783511  0.215844  0.249751  1
  O  O29  1  0.192486  0.448683  0.095315  1
  O  O30  1  0.698216  0.046028  0.906232  1
  O  O31  1  0.516980  0.019922  0.724253  1
  O  O32  1  0.719326  0.762011  0.775116  1
  O  O33  1  0.232324  0.131330  0.404497  1
  O  O34  1  0.692081  0.106170  0.428963  1
  O  O35  1  0.025345  0.147814  0.618370  1
  O  O36  1  0.982672  0.204577  0.071453  1
  O  O37  1  0.731601  0.424587  0.120467  1
  O  O38  1  0.015519  0.481873  0.271613  1
  O  O39  1  0.477756  0.292384  0.937062  1
  O  O40  1  0.982523  0.519250  0.725295  1
  O  O41  1  0.712788  0.715571  0.248255  1
  O  O42  1  0.308384  0.950944  0.093850  1
  O  O43  1  0.275135  0.570579  0.880731  1
  O  O44  1  0.281798  0.241911  0.226249  1
  O  O45  1  0.519926  0.348946  0.381185  1
  O  O46  1  0.213316  0.785504  0.751196  1
  O  O47  1  0.220394  0.742158  0.224765  1
  O  O48  1  0.518876  0.705475  0.069957  1
  O  O49  1  0.770512  0.926363  0.120247  1
  O  O50  1  0.480115  0.980481  0.273427  1
  O  O51  1  0.185499  0.396962  0.562307  1
  O  O52  1  0.473823  0.647855  0.619909  1
  O  O53  1  0.717220  0.364662  0.593309  1
  O  O54  1  0.972806  0.852303  0.379582  1
  O  O55  1  0.279867  0.634734  0.406038  1
  O  O56  1  0.285023  0.285958  0.751181  1
  O  O57  1  0.224174  0.070730  0.879830  1
  O  O58  1  0.309787  0.896773  0.562879  1
  O  O59  1  0.800964  0.545939  0.906486  1
