# generated using pymatgen
data_YbPr15(SmSn4)4
_symmetry_space_group_name_H-M   'P 1'
_cell_length_a   8.25553289
_cell_length_b   8.50842532
_cell_length_c   16.10158545
_cell_angle_alpha   90.04675347
_cell_angle_beta   89.98706038
_cell_angle_gamma   90.00293825
_symmetry_Int_Tables_number   1
_chemical_formula_structural   YbPr15(SmSn4)4
_chemical_formula_sum   'Yb1 Pr15 Sm4 Sn16'
_cell_volume   1131.00047834
_cell_formula_units_Z   1
loop_
 _symmetry_equiv_pos_site_id
 _symmetry_equiv_pos_as_xyz
  1  'x, y, z'
loop_
 _atom_site_type_symbol
 _atom_site_label
 _atom_site_symmetry_multiplicity
 _atom_site_fract_x
 _atom_site_fract_y
 _atom_site_fract_z
 _atom_site_occupancy
  Yb  Yb0  1  0.681802  0.000970  0.250172  1
  Pr  Pr1  1  0.149080  0.333102  0.877041  1
  Pr  Pr2  1  0.354142  0.831585  0.122648  1
  Pr  Pr3  1  0.851090  0.669535  0.378029  1
  Pr  Pr4  1  0.353752  0.831227  0.377380  1
  Pr  Pr5  1  0.851291  0.669447  0.122916  1
  Pr  Pr6  1  0.648329  0.169521  0.876570  1
  Pr  Pr7  1  0.148393  0.333182  0.622301  1
  Pr  Pr8  1  0.495061  0.680973  0.597782  1
  Pr  Pr9  1  0.995073  0.819702  0.902024  1
  Pr  Pr10  1  0.505565  0.316013  0.097686  1
  Pr  Pr11  1  0.002481  0.180547  0.403385  1
  Pr  Pr12  1  0.505878  0.316015  0.402882  1
  Pr  Pr13  1  0.002556  0.180270  0.096737  1
  Pr  Pr14  1  0.494914  0.681040  0.901875  1
  Pr  Pr15  1  0.994912  0.819787  0.597813  1
  Sm  Sm16  1  0.648914  0.169228  0.623957  1
  Sm  Sm17  1  0.817200  0.501589  0.749576  1
  Sm  Sm18  1  0.318252  0.999841  0.749807  1
  Sm  Sm19  1  0.182425  0.495866  0.250071  1
  Sn  Sn20  1  0.690261  0.964344  0.462974  1
  Sn  Sn21  1  0.191166  0.534953  0.042534  1
  Sn  Sn22  1  0.309551  0.036895  0.958947  1
  Sn  Sn23  1  0.806064  0.462821  0.541863  1
  Sn  Sn24  1  0.313526  0.037837  0.541332  1
  Sn  Sn25  1  0.808461  0.465517  0.958612  1
  Sn  Sn26  1  0.691140  0.962329  0.038648  1
  Sn  Sn27  1  0.191315  0.534944  0.457381  1
  Sn  Sn28  1  0.452162  0.386514  0.749026  1
  Sn  Sn29  1  0.949898  0.113629  0.748914  1
  Sn  Sn30  1  0.550200  0.606597  0.250009  1
  Sn  Sn31  1  0.050484  0.888870  0.250160  1
  Sn  Sn32  1  0.689710  0.857475  0.749178  1
  Sn  Sn33  1  0.189577  0.645809  0.749813  1
  Sn  Sn34  1  0.304094  0.142869  0.249925  1
  Sn  Sn35  1  0.811279  0.359155  0.250032  1
