# generated using pymatgen
data_TbTm7(TcB6)4
_symmetry_space_group_name_H-M   'P 1'
_cell_length_a   3.64904400
_cell_length_b   9.10140701
_cell_length_c   11.46875402
_cell_angle_alpha   89.99368872
_cell_angle_beta   90.00000000
_cell_angle_gamma   90.00000000
_symmetry_Int_Tables_number   1
_chemical_formula_structural   TbTm7(TcB6)4
_chemical_formula_sum   'Tb1 Tm7 Tc4 B24'
_cell_volume   380.89377232
_cell_formula_units_Z   1
loop_
 _symmetry_equiv_pos_site_id
 _symmetry_equiv_pos_as_xyz
  1  'x, y, z'
loop_
 _atom_site_type_symbol
 _atom_site_label
 _atom_site_symmetry_multiplicity
 _atom_site_fract_x
 _atom_site_fract_y
 _atom_site_fract_z
 _atom_site_occupancy
  Tb  Tb0  1  0.000000  0.323331  0.414190  1
  Tm  Tm1  1  0.000000  0.676330  0.585918  1
  Tm  Tm2  1  0.000000  0.823684  0.085574  1
  Tm  Tm3  1  0.000000  0.176271  0.914251  1
  Tm  Tm4  1  0.000000  0.942638  0.369246  1
  Tm  Tm5  1  0.000000  0.056973  0.630917  1
  Tm  Tm6  1  0.000000  0.442957  0.130207  1
  Tm  Tm7  1  0.000000  0.557339  0.869751  1
  Tc  Tc8  1  0.000000  0.639631  0.320004  1
  Tc  Tc9  1  0.000000  0.361091  0.680513  1
  Tc  Tc10  1  0.000000  0.138466  0.178974  1
  Tc  Tc11  1  0.000000  0.861070  0.820360  1
  B  B12  1  0.500000  0.554150  0.433243  1
  B  B13  1  0.500000  0.447162  0.567592  1
  B  B14  1  0.500000  0.053016  0.066310  1
  B  B15  1  0.500000  0.946637  0.933305  1
  B  B16  1  0.500000  0.750094  0.419105  1
  B  B17  1  0.500000  0.250044  0.582207  1
  B  B18  1  0.500000  0.249680  0.080438  1
  B  B19  1  0.500000  0.750294  0.919088  1
  B  B20  1  0.500000  0.792725  0.264520  1
  B  B21  1  0.500000  0.207307  0.735895  1
  B  B22  1  0.500000  0.292134  0.234250  1
  B  B23  1  0.500000  0.707434  0.764878  1
  B  B24  1  0.500000  0.630942  0.184443  1
  B  B25  1  0.500000  0.369517  0.815632  1
  B  B26  1  0.500000  0.129823  0.314431  1
  B  B27  1  0.500000  0.869324  0.684851  1
  B  B28  1  0.500000  0.981106  0.211312  1
  B  B29  1  0.500000  0.018521  0.788497  1
  B  B30  1  0.500000  0.482390  0.287632  1
  B  B31  1  0.500000  0.518882  0.712166  1
  B  B32  1  0.500000  0.599888  0.027691  1
  B  B33  1  0.500000  0.400377  0.972205  1
  B  B34  1  0.500000  0.098310  0.472644  1
  B  B35  1  0.500000  0.900461  0.527757  1
