# generated using pymatgen
data_Rb6CaSe4
_symmetry_space_group_name_H-M   'P 1'
_cell_length_a   11.04831000
_cell_length_b   11.04830952
_cell_length_c   8.51260600
_cell_angle_alpha   90.00000000
_cell_angle_beta   90.00000000
_cell_angle_gamma   120.00000742
_symmetry_Int_Tables_number   1
_chemical_formula_structural   Rb6CaSe4
_chemical_formula_sum   'Rb12 Ca2 Se8'
_cell_volume   899.88044863
_cell_formula_units_Z   2
loop_
 _symmetry_equiv_pos_site_id
 _symmetry_equiv_pos_as_xyz
  1  'x, y, z'
loop_
 _atom_site_type_symbol
 _atom_site_label
 _atom_site_symmetry_multiplicity
 _atom_site_fract_x
 _atom_site_fract_y
 _atom_site_fract_z
 _atom_site_occupancy
  Rb  Rb0  1  0.145976  0.854024  0.542568  1
  Rb  Rb1  1  0.291953  0.145976  0.042568  1
  Rb  Rb2  1  0.854024  0.708047  0.042568  1
  Rb  Rb3  1  0.145976  0.291953  0.542568  1
  Rb  Rb4  1  0.708047  0.854024  0.542568  1
  Rb  Rb5  1  0.854024  0.145976  0.042568  1
  Rb  Rb6  1  0.530377  0.469623  0.366685  1
  Rb  Rb7  1  0.060754  0.530377  0.866685  1
  Rb  Rb8  1  0.469623  0.939246  0.866685  1
  Rb  Rb9  1  0.530377  0.060754  0.366685  1
  Rb  Rb10  1  0.939246  0.469623  0.366685  1
  Rb  Rb11  1  0.469623  0.530377  0.866685  1
  Ca  Ca12  1  0.333333  0.666667  0.251050  1
  Ca  Ca13  1  0.666667  0.333333  0.751050  1
  Se  Se14  1  0.333333  0.666667  0.586724  1
  Se  Se15  1  0.666667  0.333333  0.086724  1
  Se  Se16  1  0.190876  0.809124  0.149056  1
  Se  Se17  1  0.381751  0.190876  0.649056  1
  Se  Se18  1  0.809124  0.618249  0.649056  1
  Se  Se19  1  0.190876  0.381751  0.149056  1
  Se  Se20  1  0.618249  0.809124  0.149056  1
  Se  Se21  1  0.809124  0.190876  0.649056  1
