# generated using pymatgen
data_Tb13Lu3(C2Cl3)4
_symmetry_space_group_name_H-M   'P 1'
_cell_length_a   3.65029400
_cell_length_b   10.49168379
_cell_length_c   19.78975601
_cell_angle_alpha   90.09690570
_cell_angle_beta   90.00000000
_cell_angle_gamma   90.00000000
_symmetry_Int_Tables_number   1
_chemical_formula_structural   Tb13Lu3(C2Cl3)4
_chemical_formula_sum   'Tb13 Lu3 C8 Cl12'
_cell_volume   757.90165588
_cell_formula_units_Z   1
loop_
 _symmetry_equiv_pos_site_id
 _symmetry_equiv_pos_as_xyz
  1  'x, y, z'
loop_
 _atom_site_type_symbol
 _atom_site_label
 _atom_site_symmetry_multiplicity
 _atom_site_fract_x
 _atom_site_fract_y
 _atom_site_fract_z
 _atom_site_occupancy
  Tb  Tb0  1  0.250000  0.139801  0.574274  1
  Tb  Tb1  1  0.250000  0.640248  0.925978  1
  Tb  Tb2  1  0.750000  0.860222  0.426767  1
  Tb  Tb3  1  0.750000  0.362228  0.073358  1
  Tb  Tb4  1  0.250000  0.634354  0.754979  1
  Tb  Tb5  1  0.250000  0.135147  0.745169  1
  Tb  Tb6  1  0.750000  0.364156  0.244885  1
  Tb  Tb7  1  0.750000  0.865510  0.256121  1
  Tb  Tb8  1  0.250000  0.104073  0.333614  1
  Tb  Tb9  1  0.250000  0.602848  0.168313  1
  Tb  Tb10  1  0.750000  0.896487  0.667836  1
  Tb  Tb11  1  0.750000  0.396158  0.832303  1
  Tb  Tb12  1  0.250000  0.125195  0.165120  1
  Lu  Lu13  1  0.250000  0.629039  0.332926  1
  Lu  Lu14  1  0.750000  0.870947  0.832330  1
  Lu  Lu15  1  0.750000  0.370925  0.667756  1
  C  C16  1  0.250000  0.862044  0.347980  1
  C  C17  1  0.250000  0.366095  0.152440  1
  C  C18  1  0.750000  0.136847  0.653290  1
  C  C19  1  0.750000  0.637522  0.846906  1
  C  C20  1  0.250000  0.385319  0.749407  1
  C  C21  1  0.250000  0.884987  0.750715  1
  C  C22  1  0.750000  0.614717  0.251245  1
  C  C23  1  0.750000  0.113824  0.251389  1
  Cl  Cl24  1  0.250000  0.377619  0.951908  1
  Cl  Cl25  1  0.250000  0.876123  0.548029  1
  Cl  Cl26  1  0.750000  0.624767  0.047007  1
  Cl  Cl27  1  0.750000  0.123791  0.453647  1
  Cl  Cl28  1  0.250000  0.891478  0.937880  1
  Cl  Cl29  1  0.250000  0.391094  0.562216  1
  Cl  Cl30  1  0.750000  0.112130  0.055359  1
  Cl  Cl31  1  0.750000  0.608703  0.438725  1
  Cl  Cl32  1  0.250000  0.368234  0.354708  1
  Cl  Cl33  1  0.250000  0.862503  0.145465  1
  Cl  Cl34  1  0.750000  0.632340  0.645453  1
  Cl  Cl35  1  0.750000  0.132524  0.854503  1
