# generated using pymatgen
data_NaTbSm5RhBr12
_symmetry_space_group_name_H-M   'P 1'
_cell_length_a   9.35540698
_cell_length_b   9.35058251
_cell_length_c   9.47572315
_cell_angle_alpha   107.21955455
_cell_angle_beta   106.75817890
_cell_angle_gamma   106.69066664
_symmetry_Int_Tables_number   1
_chemical_formula_structural   NaTbSm5RhBr12
_chemical_formula_sum   'Na1 Tb1 Sm5 Rh1 Br12'
_cell_volume   692.39166010
_cell_formula_units_Z   1
loop_
 _symmetry_equiv_pos_site_id
 _symmetry_equiv_pos_as_xyz
  1  'x, y, z'
loop_
 _atom_site_type_symbol
 _atom_site_label
 _atom_site_symmetry_multiplicity
 _atom_site_fract_x
 _atom_site_fract_y
 _atom_site_fract_z
 _atom_site_occupancy
  Na  Na0  1  0.499948  0.500022  0.499881  1
  Tb  Tb1  1  0.887907  0.970070  0.676001  1
  Sm  Sm2  1  0.314763  0.107964  0.028188  1
  Sm  Sm3  1  0.028492  0.315932  0.107130  1
  Sm  Sm4  1  0.113149  0.029859  0.327535  1
  Sm  Sm5  1  0.685098  0.891994  0.971821  1
  Sm  Sm6  1  0.970910  0.683265  0.890922  1
  Rh  Rh7  1  0.999680  0.999393  0.999724  1
  Br  Br8  1  0.682154  0.220557  0.074282  1
  Br  Br9  1  0.073544  0.681319  0.218013  1
  Br  Br10  1  0.216036  0.073187  0.683139  1
  Br  Br11  1  0.317732  0.779153  0.925387  1
  Br  Br12  1  0.925151  0.313800  0.778562  1
  Br  Br13  1  0.780216  0.926447  0.320601  1
  Br  Br14  1  0.451694  0.149306  0.367761  1
  Br  Br15  1  0.371146  0.453187  0.150619  1
  Br  Br16  1  0.148636  0.370255  0.449379  1
  Br  Br17  1  0.553464  0.852990  0.631796  1
  Br  Br18  1  0.628753  0.546575  0.849099  1
  Br  Br19  1  0.851528  0.634722  0.550161  1
