# generated using pymatgen
data_Tb8YEr3In20
_symmetry_space_group_name_H-M   'P 1'
_cell_length_a   6.52954131
_cell_length_b   10.42457400
_cell_length_c   12.28956701
_cell_angle_alpha   90.00000000
_cell_angle_beta   90.01967399
_cell_angle_gamma   90.00000000
_symmetry_Int_Tables_number   1
_chemical_formula_structural   Tb8YEr3In20
_chemical_formula_sum   'Tb8 Y1 Er3 In20'
_cell_volume   836.52234615
_cell_formula_units_Z   1
loop_
 _symmetry_equiv_pos_site_id
 _symmetry_equiv_pos_as_xyz
  1  'x, y, z'
loop_
 _atom_site_type_symbol
 _atom_site_label
 _atom_site_symmetry_multiplicity
 _atom_site_fract_x
 _atom_site_fract_y
 _atom_site_fract_z
 _atom_site_occupancy
  Tb  Tb0  1  0.890101  0.492321  0.141947  1
  Tb  Tb1  1  0.609593  0.007186  0.642306  1
  Tb  Tb2  1  0.110056  0.992071  0.858358  1
  Tb  Tb3  1  0.389783  0.507205  0.358143  1
  Tb  Tb4  1  0.110056  0.507929  0.858358  1
  Tb  Tb5  1  0.389783  0.992795  0.358143  1
  Tb  Tb6  1  0.890101  0.007679  0.141947  1
  Tb  Tb7  1  0.609593  0.492814  0.642306  1
  Y  Y8  1  0.851030  0.250000  0.443757  1
  Er  Er9  1  0.350414  0.750000  0.055373  1
  Er  Er10  1  0.149733  0.750000  0.555672  1
  Er  Er11  1  0.649706  0.250000  0.944710  1
  In  In12  1  0.614687  0.750000  0.505030  1
  In  In13  1  0.885048  0.750000  0.005189  1
  In  In14  1  0.383516  0.250000  0.495640  1
  In  In15  1  0.115148  0.250000  0.994454  1
  In  In16  1  0.650957  0.750000  0.244399  1
  In  In17  1  0.848988  0.750000  0.744784  1
  In  In18  1  0.349098  0.250000  0.755756  1
  In  In19  1  0.152936  0.250000  0.254173  1
  In  In20  1  0.124392  0.750000  0.283121  1
  In  In21  1  0.376330  0.750000  0.783307  1
  In  In22  1  0.875979  0.250000  0.717245  1
  In  In23  1  0.623856  0.250000  0.215342  1
  In  In24  1  0.874966  0.544859  0.401218  1
  In  In25  1  0.624975  0.956253  0.901333  1
  In  In26  1  0.124606  0.043473  0.599290  1
  In  In27  1  0.375013  0.456421  0.098430  1
  In  In28  1  0.124606  0.456527  0.599290  1
  In  In29  1  0.375013  0.043579  0.098430  1
  In  In30  1  0.874966  0.955141  0.401218  1
  In  In31  1  0.624975  0.543747  0.901333  1
