# generated using pymatgen
data_Tb4Ho3Er3Pb8
_symmetry_space_group_name_H-M   'P 1'
_cell_length_a   8.19504900
_cell_length_b   8.27799501
_cell_length_c   15.62239401
_cell_angle_alpha   89.99562697
_cell_angle_beta   90.00000000
_cell_angle_gamma   90.00000000
_symmetry_Int_Tables_number   1
_chemical_formula_structural   Tb4Ho3Er3Pb8
_chemical_formula_sum   'Tb8 Ho6 Er6 Pb16'
_cell_volume   1059.80093999
_cell_formula_units_Z   2
loop_
 _symmetry_equiv_pos_site_id
 _symmetry_equiv_pos_as_xyz
  1  'x, y, z'
loop_
 _atom_site_type_symbol
 _atom_site_label
 _atom_site_symmetry_multiplicity
 _atom_site_fract_x
 _atom_site_fract_y
 _atom_site_fract_z
 _atom_site_occupancy
  Tb  Tb0  1  0.534321  0.322964  0.899958  1
  Tb  Tb1  1  0.034321  0.177036  0.600042  1
  Tb  Tb2  1  0.465710  0.677096  0.400047  1
  Tb  Tb3  1  0.965710  0.822904  0.099953  1
  Tb  Tb4  1  0.465715  0.677111  0.100013  1
  Tb  Tb5  1  0.965715  0.822889  0.399987  1
  Tb  Tb6  1  0.534289  0.322906  0.600025  1
  Tb  Tb7  1  0.034289  0.177094  0.899975  1
  Ho  Ho8  1  0.376642  0.840764  0.879285  1
  Ho  Ho9  1  0.876642  0.659236  0.620715  1
  Ho  Ho10  1  0.623389  0.159261  0.379322  1
  Ho  Ho11  1  0.123389  0.340739  0.120678  1
  Ho  Ho12  1  0.623395  0.159206  0.120635  1
  Ho  Ho13  1  0.123395  0.340794  0.379365  1
  Er  Er14  1  0.376617  0.840805  0.620838  1
  Er  Er15  1  0.876617  0.659195  0.879162  1
  Er  Er16  1  0.208099  0.504474  0.749994  1
  Er  Er17  1  0.708099  0.995526  0.750006  1
  Er  Er18  1  0.791723  0.495722  0.249994  1
  Er  Er19  1  0.291723  0.004278  0.250006  1
  Pb  Pb20  1  0.282210  0.033790  0.042787  1
  Pb  Pb21  1  0.782210  0.466210  0.457213  1
  Pb  Pb22  1  0.717587  0.966119  0.542841  1
  Pb  Pb23  1  0.217587  0.533881  0.957159  1
  Pb  Pb24  1  0.717921  0.966011  0.957161  1
  Pb  Pb25  1  0.217921  0.533989  0.542839  1
  Pb  Pb26  1  0.282285  0.033696  0.457323  1
  Pb  Pb27  1  0.782285  0.466304  0.042677  1
  Pb  Pb28  1  0.571425  0.627556  0.749992  1
  Pb  Pb29  1  0.071425  0.872444  0.750008  1
  Pb  Pb30  1  0.428543  0.372641  0.249998  1
  Pb  Pb31  1  0.928543  0.127359  0.250002  1
  Pb  Pb32  1  0.345338  0.151924  0.749963  1
  Pb  Pb33  1  0.845338  0.348076  0.750037  1
  Pb  Pb34  1  0.654791  0.848058  0.250004  1
  Pb  Pb35  1  0.154791  0.651942  0.249996  1
