# generated using pymatgen
data_YEr15(Tl3Ir)2
_symmetry_space_group_name_H-M   'P 1'
_cell_length_a   10.32242600
_cell_length_b   10.33568221
_cell_length_c   7.03961500
_cell_angle_alpha   90.03636531
_cell_angle_beta   90.00000000
_cell_angle_gamma   119.95757567
_symmetry_Int_Tables_number   1
_chemical_formula_structural   YEr15(Tl3Ir)2
_chemical_formula_sum   'Y1 Er15 Tl6 Ir2'
_cell_volume   650.70755526
_cell_formula_units_Z   1
loop_
 _symmetry_equiv_pos_site_id
 _symmetry_equiv_pos_as_xyz
  1  'x, y, z'
loop_
 _atom_site_type_symbol
 _atom_site_label
 _atom_site_symmetry_multiplicity
 _atom_site_fract_x
 _atom_site_fract_y
 _atom_site_fract_z
 _atom_site_occupancy
  Y  Y0  1  0.533119  0.066238  0.793348  1
  Er  Er1  1  0.931665  0.465688  0.793385  1
  Er  Er2  1  0.534023  0.465688  0.793385  1
  Er  Er3  1  0.465477  0.930954  0.293647  1
  Er  Er4  1  0.068373  0.534404  0.294080  1
  Er  Er5  1  0.466032  0.534404  0.294080  1
  Er  Er6  1  0.823934  0.647871  0.497949  1
  Er  Er7  1  0.353016  0.177125  0.496647  1
  Er  Er8  1  0.824110  0.177125  0.496647  1
  Er  Er9  1  0.176526  0.353052  0.998625  1
  Er  Er10  1  0.647397  0.822857  0.998824  1
  Er  Er11  1  0.175461  0.822857  0.998824  1
  Er  Er12  1  0.666953  0.333904  0.174264  1
  Er  Er13  1  0.332889  0.665778  0.674840  1
  Er  Er14  1  0.000179  0.000356  0.778064  1
  Er  Er15  1  0.999899  0.999797  0.278068  1
  Tl  Tl16  1  0.836806  0.673613  0.040834  1
  Tl  Tl17  1  0.325403  0.162618  0.040872  1
  Tl  Tl18  1  0.837213  0.162618  0.040872  1
  Tl  Tl19  1  0.163003  0.326008  0.541643  1
  Tl  Tl20  1  0.674110  0.837635  0.541569  1
  Tl  Tl21  1  0.163525  0.837635  0.541569  1
  Ir  Ir22  1  0.667590  0.335179  0.565954  1
  Ir  Ir23  1  0.333297  0.666596  0.067919  1
