# generated using pymatgen
data_CeScP7Ru12
_symmetry_space_group_name_H-M   'P 1'
_cell_length_a   9.42637400
_cell_length_b   9.42637406
_cell_length_c   3.92512600
_cell_angle_alpha   90.00000000
_cell_angle_beta   90.00000000
_cell_angle_gamma   119.99999884
_symmetry_Int_Tables_number   1
_chemical_formula_structural   CeScP7Ru12
_chemical_formula_sum   'Ce1 Sc1 P7 Ru12'
_cell_volume   302.04633877
_cell_formula_units_Z   1
loop_
 _symmetry_equiv_pos_site_id
 _symmetry_equiv_pos_as_xyz
  1  'x, y, z'
loop_
 _atom_site_type_symbol
 _atom_site_label
 _atom_site_symmetry_multiplicity
 _atom_site_fract_x
 _atom_site_fract_y
 _atom_site_fract_z
 _atom_site_occupancy
  Ce  Ce0  1  0.333333  0.666667  0.000000  1
  Sc  Sc1  1  0.666667  0.333333  0.500000  1
  P  P2  1  0.603796  0.717209  0.500000  1
  P  P3  1  0.000000  0.000000  0.000000  1
  P  P4  1  0.282791  0.886587  0.500000  1
  P  P5  1  0.113413  0.396204  0.500000  1
  P  P6  1  0.883565  0.571165  0.000000  1
  P  P7  1  0.428835  0.312399  0.000000  1
  P  P8  1  0.687601  0.116435  0.000000  1
  Ru  Ru9  1  0.556708  0.950468  0.500000  1
  Ru  Ru10  1  0.393761  0.443292  0.500000  1
  Ru  Ru11  1  0.912880  0.120090  0.500000  1
  Ru  Ru12  1  0.207210  0.087120  0.500000  1
  Ru  Ru13  1  0.879910  0.792790  0.500000  1
  Ru  Ru14  1  0.726413  0.890814  0.000000  1
  Ru  Ru15  1  0.109186  0.835598  0.000000  1
  Ru  Ru16  1  0.164402  0.273587  0.000000  1
  Ru  Ru17  1  0.426799  0.071672  0.000000  1
  Ru  Ru18  1  0.928328  0.355128  0.000000  1
  Ru  Ru19  1  0.644872  0.573201  0.000000  1
  Ru  Ru20  1  0.049532  0.606239  0.500000  1
