# generated using pymatgen
data_Li3Gd2YSi2As
_symmetry_space_group_name_H-M   'P 1'
_cell_length_a   7.13328309
_cell_length_b   7.13328362
_cell_length_c   4.21384600
_cell_angle_alpha   90.00000000
_cell_angle_beta   90.00000000
_cell_angle_gamma   119.98132913
_symmetry_Int_Tables_number   1
_chemical_formula_structural   Li3Gd2YSi2As
_chemical_formula_sum   'Li3 Gd2 Y1 Si2 As1'
_cell_volume   185.72480918
_cell_formula_units_Z   1
loop_
 _symmetry_equiv_pos_site_id
 _symmetry_equiv_pos_as_xyz
  1  'x, y, z'
loop_
 _atom_site_type_symbol
 _atom_site_label
 _atom_site_symmetry_multiplicity
 _atom_site_fract_x
 _atom_site_fract_y
 _atom_site_fract_z
 _atom_site_occupancy
  Li  Li0  1  0.234467  0.000290  0.500000  1
  Li  Li1  1  0.765640  0.765640  0.500000  1
  Li  Li2  1  0.000290  0.234467  0.500000  1
  Gd  Gd3  1  0.000349  0.579527  0.000000  1
  Gd  Gd4  1  0.579527  0.000349  0.000000  1
  Y  Y5  1  0.419397  0.419397  0.000000  1
  Si  Si6  1  0.333957  0.665263  0.500000  1
  Si  Si7  1  0.665263  0.333957  0.500000  1
  As  As8  1  0.001110  0.001110  0.000000  1
