# generated using pymatgen
data_Tb16Cd4Os2PtRh
_symmetry_space_group_name_H-M   'P 1'
_cell_length_a   9.70068283
_cell_length_b   9.69338541
_cell_length_c   9.76643500
_cell_angle_alpha   59.75039220
_cell_angle_beta   59.77552448
_cell_angle_gamma   59.56571079
_symmetry_Int_Tables_number   1
_chemical_formula_structural   Tb16Cd4Os2PtRh
_chemical_formula_sum   'Tb16 Cd4 Os2 Pt1 Rh1'
_cell_volume   644.90829405
_cell_formula_units_Z   1
loop_
 _symmetry_equiv_pos_site_id
 _symmetry_equiv_pos_as_xyz
  1  'x, y, z'
loop_
 _atom_site_type_symbol
 _atom_site_label
 _atom_site_symmetry_multiplicity
 _atom_site_fract_x
 _atom_site_fract_y
 _atom_site_fract_z
 _atom_site_occupancy
  Tb  Tb0  1  0.347694  0.351372  0.350094  1
  Tb  Tb1  1  0.347694  0.351372  0.950840  1
  Tb  Tb2  1  0.345840  0.955796  0.349182  1
  Tb  Tb3  1  0.958035  0.346346  0.347809  1
  Tb  Tb4  1  0.814157  0.187847  0.191520  1
  Tb  Tb5  1  0.187471  0.812007  0.810149  1
  Tb  Tb6  1  0.187471  0.812007  0.190373  1
  Tb  Tb7  1  0.814157  0.187847  0.806476  1
  Tb  Tb8  1  0.189031  0.188378  0.811295  1
  Tb  Tb9  1  0.812057  0.805859  0.191042  1
  Tb  Tb10  1  0.937841  0.557555  0.565142  1
  Tb  Tb11  1  0.555645  0.938476  0.939326  1
  Tb  Tb12  1  0.555645  0.938476  0.566553  1
  Tb  Tb13  1  0.937841  0.557555  0.939462  1
  Tb  Tb14  1  0.562064  0.564387  0.936774  1
  Tb  Tb15  1  0.939003  0.939168  0.560914  1
  Cd  Cd16  1  0.580557  0.580176  0.580813  1
  Cd  Cd17  1  0.580557  0.580176  0.258453  1
  Cd  Cd18  1  0.581158  0.256415  0.581214  1
  Cd  Cd19  1  0.256089  0.580993  0.581459  1
  Os  Os20  1  0.145048  0.142957  0.135933  1
  Os  Os21  1  0.145048  0.142957  0.576063  1
  Pt  Pt22  1  0.575375  0.145155  0.139736  1
  Rh  Rh23  1  0.144523  0.576722  0.139378  1
