# generated using pymatgen
data_PrCu2Pd2Au
_symmetry_space_group_name_H-M   'P 1'
_cell_length_a   5.15406336
_cell_length_b   5.25604983
_cell_length_c   5.25604902
_cell_angle_alpha   63.27553348
_cell_angle_beta   60.63978471
_cell_angle_gamma   60.63980751
_symmetry_Int_Tables_number   1
_chemical_formula_structural   PrCu2Pd2Au
_chemical_formula_sum   'Pr1 Cu2 Pd2 Au1'
_cell_volume   103.97073024
_cell_formula_units_Z   1
loop_
 _symmetry_equiv_pos_site_id
 _symmetry_equiv_pos_as_xyz
  1  'x, y, z'
loop_
 _atom_site_type_symbol
 _atom_site_label
 _atom_site_symmetry_multiplicity
 _atom_site_fract_x
 _atom_site_fract_y
 _atom_site_fract_z
 _atom_site_occupancy
  Pr  Pr0  1  0.998545  0.001455  0.001455  1
  Cu  Cu1  1  0.129020  0.619160  0.619160  1
  Cu  Cu2  1  0.632662  0.619160  0.619160  1
  Pd  Pd3  1  0.625819  0.623755  0.124607  1
  Pd  Pd4  1  0.625819  0.124607  0.623755  1
  Au  Au5  1  0.238137  0.261863  0.261863  1
