# generated using pymatgen
data_ErAl4(GaFe3)2
_symmetry_space_group_name_H-M   'P 1'
_cell_length_a   4.98094507
_cell_length_b   6.56945432
_cell_length_c   6.56945516
_cell_angle_alpha   80.66620451
_cell_angle_beta   67.72213883
_cell_angle_gamma   67.72213676
_symmetry_Int_Tables_number   1
_chemical_formula_structural   ErAl4(GaFe3)2
_chemical_formula_sum   'Er1 Al4 Ga2 Fe6'
_cell_volume   184.02943125
_cell_formula_units_Z   1
loop_
 _symmetry_equiv_pos_site_id
 _symmetry_equiv_pos_as_xyz
  1  'x, y, z'
loop_
 _atom_site_type_symbol
 _atom_site_label
 _atom_site_symmetry_multiplicity
 _atom_site_fract_x
 _atom_site_fract_y
 _atom_site_fract_z
 _atom_site_occupancy
  Er  Er0  1  0.000000  0.000000  0.000000  1
  Al  Al1  1  0.000000  0.663297  0.336703  1
  Al  Al2  1  0.000000  0.336703  0.663297  1
  Al  Al3  1  0.347004  0.652996  0.652996  1
  Al  Al4  1  0.652996  0.347004  0.347004  1
  Ga  Ga5  1  0.314386  0.185614  0.185614  1
  Ga  Ga6  1  0.685614  0.814386  0.814386  1
  Fe  Fe7  1  0.500000  0.243410  0.756590  1
  Fe  Fe8  1  0.500000  0.756590  0.243410  1
  Fe  Fe9  1  0.000000  0.500000  0.000000  1
  Fe  Fe10  1  0.500000  0.500000  0.000000  1
  Fe  Fe11  1  0.000000  0.000000  0.500000  1
  Fe  Fe12  1  0.500000  0.000000  0.500000  1
