# generated using pymatgen
data_SrTb(ThIr4)2
_symmetry_space_group_name_H-M   'P 1'
_cell_length_a   9.42166570
_cell_length_b   9.42166549
_cell_length_c   9.42166608
_cell_angle_alpha   33.58542674
_cell_angle_beta   33.58543234
_cell_angle_gamma   33.58542555
_symmetry_Int_Tables_number   1
_chemical_formula_structural   SrTb(ThIr4)2
_chemical_formula_sum   'Sr1 Tb1 Th2 Ir8'
_cell_volume   227.97045488
_cell_formula_units_Z   1
loop_
 _symmetry_equiv_pos_site_id
 _symmetry_equiv_pos_as_xyz
  1  'x, y, z'
loop_
 _atom_site_type_symbol
 _atom_site_label
 _atom_site_symmetry_multiplicity
 _atom_site_fract_x
 _atom_site_fract_y
 _atom_site_fract_z
 _atom_site_occupancy
  Sr  Sr0  1  0.125816  0.125816  0.125816  1
  Tb  Tb1  1  0.624041  0.624041  0.624041  1
  Th  Th2  1  0.001068  0.001068  0.001068  1
  Th  Th3  1  0.498813  0.498813  0.498813  1
  Ir  Ir4  1  0.562726  0.562726  0.057466  1
  Ir  Ir5  1  0.063485  0.063485  0.565746  1
  Ir  Ir6  1  0.562726  0.057466  0.562726  1
  Ir  Ir7  1  0.063485  0.565746  0.063485  1
  Ir  Ir8  1  0.812365  0.812365  0.812365  1
  Ir  Ir9  1  0.312263  0.312263  0.312263  1
  Ir  Ir10  1  0.057466  0.562726  0.562726  1
  Ir  Ir11  1  0.565746  0.063485  0.063485  1
