# generated using pymatgen
data_Dy5Y11(AgRh)4
_symmetry_space_group_name_H-M   'P 1'
_cell_length_a   9.52500272
_cell_length_b   9.55049610
_cell_length_c   9.55276457
_cell_angle_alpha   60.20164709
_cell_angle_beta   60.08165016
_cell_angle_gamma   60.10482015
_symmetry_Int_Tables_number   1
_chemical_formula_structural   Dy5Y11(AgRh)4
_chemical_formula_sum   'Dy5 Y11 Ag4 Rh4'
_cell_volume   616.27565905
_cell_formula_units_Z   1
loop_
 _symmetry_equiv_pos_site_id
 _symmetry_equiv_pos_as_xyz
  1  'x, y, z'
loop_
 _atom_site_type_symbol
 _atom_site_label
 _atom_site_symmetry_multiplicity
 _atom_site_fract_x
 _atom_site_fract_y
 _atom_site_fract_z
 _atom_site_occupancy
  Dy  Dy0  1  0.603096  0.603277  0.603297  1
  Dy  Dy1  1  0.603110  0.603530  0.190227  1
  Dy  Dy2  1  0.603150  0.190209  0.603532  1
  Dy  Dy3  1  0.190316  0.603306  0.603277  1
  Dy  Dy4  1  0.062533  0.437476  0.437477  1
  Y  Y5  1  0.437840  0.062157  0.062157  1
  Y  Y6  1  0.437350  0.062573  0.437041  1
  Y  Y7  1  0.063032  0.437045  0.062576  1
  Y  Y8  1  0.437564  0.437257  0.062361  1
  Y  Y9  1  0.062812  0.062353  0.437262  1
  Y  Y10  1  0.186172  0.813826  0.813830  1
  Y  Y11  1  0.814033  0.185974  0.185948  1
  Y  Y12  1  0.814289  0.185822  0.814143  1
  Y  Y13  1  0.185739  0.814156  0.185816  1
  Y  Y14  1  0.814119  0.813980  0.185978  1
  Y  Y15  1  0.185932  0.185983  0.813978  1
  Ag  Ag16  1  0.831891  0.832085  0.832097  1
  Ag  Ag17  1  0.831916  0.832066  0.504095  1
  Ag  Ag18  1  0.831897  0.504124  0.832066  1
  Ag  Ag19  1  0.503925  0.832085  0.832103  1
  Rh  Rh20  1  0.393023  0.394386  0.394608  1
  Rh  Rh21  1  0.394021  0.394841  0.816890  1
  Rh  Rh22  1  0.394217  0.816893  0.394847  1
  Rh  Rh23  1  0.818024  0.394595  0.394396  1
