# generated using pymatgen
data_Mg4Zn5GaRh2
_symmetry_space_group_name_H-M   'P 1'
_cell_length_a   5.19325936
_cell_length_b   5.26265880
_cell_length_c   8.34966976
_cell_angle_alpha   90.00000225
_cell_angle_beta   89.60067173
_cell_angle_gamma   120.44304076
_symmetry_Int_Tables_number   1
_chemical_formula_structural   Mg4Zn5GaRh2
_chemical_formula_sum   'Mg4 Zn5 Ga1 Rh2'
_cell_volume   196.73188324
_cell_formula_units_Z   1
loop_
 _symmetry_equiv_pos_site_id
 _symmetry_equiv_pos_as_xyz
  1  'x, y, z'
loop_
 _atom_site_type_symbol
 _atom_site_label
 _atom_site_symmetry_multiplicity
 _atom_site_fract_x
 _atom_site_fract_y
 _atom_site_fract_z
 _atom_site_occupancy
  Mg  Mg0  1  0.323853  0.657730  0.065944  1
  Mg  Mg1  1  0.675072  0.331432  0.565946  1
  Mg  Mg2  1  0.676147  0.333877  0.934056  1
  Mg  Mg3  1  0.324928  0.656360  0.434054  1
  Zn  Zn4  1  0.000000  0.016448  0.500000  1
  Zn  Zn5  1  0.342674  0.166036  0.252222  1
  Zn  Zn6  1  0.657326  0.823362  0.747778  1
  Zn  Zn7  1  0.168583  0.828043  0.747853  1
  Zn  Zn8  1  0.831417  0.659460  0.252147  1
  Ga  Ga9  1  0.000000  0.020591  0.000000  1
  Rh  Rh10  1  0.176825  0.341742  0.753553  1
  Rh  Rh11  1  0.823175  0.164917  0.246447  1
