# generated using pymatgen
data_Sm3U2O10
_symmetry_space_group_name_H-M   'P 1'
_cell_length_a   6.73397092
_cell_length_b   7.63158088
_cell_length_c   8.54603757
_cell_angle_alpha   101.26474036
_cell_angle_beta   97.70830042
_cell_angle_gamma   107.20702903
_symmetry_Int_Tables_number   1
_chemical_formula_structural   Sm3U2O10
_chemical_formula_sum   'Sm6 U4 O20'
_cell_volume   402.72275510
_cell_formula_units_Z   2
loop_
 _symmetry_equiv_pos_site_id
 _symmetry_equiv_pos_as_xyz
  1  'x, y, z'
loop_
 _atom_site_type_symbol
 _atom_site_label
 _atom_site_symmetry_multiplicity
 _atom_site_fract_x
 _atom_site_fract_y
 _atom_site_fract_z
 _atom_site_occupancy
  Sm  Sm0  1  0.612629  0.702913  0.700215  1
  Sm  Sm1  1  0.387371  0.297087  0.299785  1
  Sm  Sm2  1  0.199032  0.896770  0.893586  1
  Sm  Sm3  1  0.000000  0.500000  0.500000  1
  Sm  Sm4  1  0.800968  0.103230  0.106414  1
  Sm  Sm5  1  0.000000  0.000000  0.500000  1
  U  U6  1  0.401564  0.803599  0.301680  1
  U  U7  1  0.199159  0.401335  0.901093  1
  U  U8  1  0.800841  0.598665  0.098907  1
  U  U9  1  0.598436  0.196401  0.698320  1
  O  O10  1  0.438631  0.532537  0.134688  1
  O  O11  1  0.556775  0.991127  0.839015  1
  O  O12  1  0.273053  0.149380  0.745766  1
  O  O13  1  0.361215  0.597759  0.440095  1
  O  O14  1  0.055522  0.729155  0.328634  1
  O  O15  1  0.443225  0.008873  0.160985  1
  O  O16  1  0.149462  0.187022  0.029492  1
  O  O17  1  0.561369  0.467463  0.865312  1
  O  O18  1  0.854386  0.339946  0.949799  1
  O  O19  1  0.256736  0.603129  0.761887  1
  O  O20  1  0.953501  0.771971  0.652305  1
  O  O21  1  0.356483  0.060781  0.454330  1
  O  O22  1  0.643517  0.939219  0.545670  1
  O  O23  1  0.046499  0.228029  0.347695  1
  O  O24  1  0.743264  0.396871  0.238113  1
  O  O25  1  0.145614  0.660054  0.050201  1
  O  O26  1  0.850538  0.812978  0.970508  1
  O  O27  1  0.944478  0.270845  0.671366  1
  O  O28  1  0.638785  0.402241  0.559905  1
  O  O29  1  0.726947  0.850620  0.254234  1
