# generated using pymatgen
data_Dy5TlSb2
_symmetry_space_group_name_H-M   'P 1'
_cell_length_a   6.48942500
_cell_length_b   8.97038011
_cell_length_c   8.97115400
_cell_angle_alpha   120.00205734
_cell_angle_beta   90.00000883
_cell_angle_gamma   89.99997004
_symmetry_Int_Tables_number   1
_chemical_formula_structural   Dy5TlSb2
_chemical_formula_sum   'Dy10 Tl2 Sb4'
_cell_volume   452.25877650
_cell_formula_units_Z   2
loop_
 _symmetry_equiv_pos_site_id
 _symmetry_equiv_pos_as_xyz
  1  'x, y, z'
loop_
 _atom_site_type_symbol
 _atom_site_label
 _atom_site_symmetry_multiplicity
 _atom_site_fract_x
 _atom_site_fract_y
 _atom_site_fract_z
 _atom_site_occupancy
  Dy  Dy0  1  0.500133  0.336075  0.668022  1
  Dy  Dy1  1  0.500141  0.663923  0.331939  1
  Dy  Dy2  1  0.999859  0.663922  0.331938  1
  Dy  Dy3  1  0.999867  0.336077  0.668022  1
  Dy  Dy4  1  0.749999  0.241738  0.003854  1
  Dy  Dy5  1  0.750000  0.758221  0.762145  1
  Dy  Dy6  1  0.750000  0.000022  0.240004  1
  Dy  Dy7  1  0.249999  0.759576  0.997912  1
  Dy  Dy8  1  0.250000  0.240389  0.238376  1
  Dy  Dy9  1  0.250000  0.000029  0.757306  1
  Tl  Tl10  1  0.750000  0.605610  0.000989  1
  Tl  Tl11  1  0.749999  0.394391  0.395389  1
  Sb  Sb12  1  0.750008  0.000021  0.608169  1
  Sb  Sb13  1  0.249999  0.392343  0.998491  1
  Sb  Sb14  1  0.250000  0.607640  0.606200  1
  Sb  Sb15  1  0.250001  0.000026  0.391247  1
