# generated using pymatgen
data_Pr5Mg2IrRu2
_symmetry_space_group_name_H-M   'P 1'
_cell_length_a   8.74640860
_cell_length_b   8.74640773
_cell_length_c   8.74640718
_cell_angle_alpha   109.55922708
_cell_angle_beta   109.66621713
_cell_angle_gamma   109.18860252
_symmetry_Int_Tables_number   1
_chemical_formula_structural   Pr5Mg2IrRu2
_chemical_formula_sum   'Pr10 Mg4 Ir2 Ru4'
_cell_volume   515.06138623
_cell_formula_units_Z   2
loop_
 _symmetry_equiv_pos_site_id
 _symmetry_equiv_pos_as_xyz
  1  'x, y, z'
loop_
 _atom_site_type_symbol
 _atom_site_label
 _atom_site_symmetry_multiplicity
 _atom_site_fract_x
 _atom_site_fract_y
 _atom_site_fract_z
 _atom_site_occupancy
  Pr  Pr0  1  0.250000  0.677117  0.427117  1
  Pr  Pr1  1  0.750000  0.822883  0.072883  1
  Pr  Pr2  1  0.426202  0.250000  0.676202  1
  Pr  Pr3  1  0.676654  0.426654  0.250000  1
  Pr  Pr4  1  0.073798  0.750000  0.823798  1
  Pr  Pr5  1  0.823346  0.073346  0.750000  1
  Pr  Pr6  1  0.211166  0.213804  0.214051  1
  Pr  Pr7  1  0.499753  0.997115  0.285949  1
  Pr  Pr8  1  0.288834  0.502885  0.002637  1
  Pr  Pr9  1  0.000247  0.286196  0.497363  1
  Mg  Mg10  1  0.596206  0.596855  0.597569  1
  Mg  Mg11  1  0.499287  0.998637  0.902431  1
  Mg  Mg12  1  0.903794  0.501363  0.000650  1
  Mg  Mg13  1  0.000713  0.903145  0.499350  1
  Ir  Ir14  1  0.250000  0.130737  0.880737  1
  Ir  Ir15  1  0.750000  0.369263  0.619263  1
  Ru  Ru16  1  0.880635  0.250000  0.130636  1
  Ru  Ru17  1  0.134636  0.884635  0.250000  1
  Ru  Ru18  1  0.619364  0.750000  0.369364  1
  Ru  Ru19  1  0.365364  0.615364  0.750000  1
