# generated using pymatgen
data_Hf3BeRe2Ge2Ru
_symmetry_space_group_name_H-M   'P 1'
_cell_length_a   6.92217600
_cell_length_b   6.93260013
_cell_length_c   3.41163300
_cell_angle_alpha   90.00000000
_cell_angle_beta   90.00000000
_cell_angle_gamma   119.95027246
_symmetry_Int_Tables_number   1
_chemical_formula_structural   Hf3BeRe2Ge2Ru
_chemical_formula_sum   'Hf3 Be1 Re2 Ge2 Ru1'
_cell_volume   141.85646335
_cell_formula_units_Z   1
loop_
 _symmetry_equiv_pos_site_id
 _symmetry_equiv_pos_as_xyz
  1  'x, y, z'
loop_
 _atom_site_type_symbol
 _atom_site_label
 _atom_site_symmetry_multiplicity
 _atom_site_fract_x
 _atom_site_fract_y
 _atom_site_fract_z
 _atom_site_occupancy
  Hf  Hf0  1  0.002888  0.386027  0.500000  1
  Hf  Hf1  1  0.616861  0.613973  0.500000  1
  Hf  Hf2  1  0.384803  0.000000  0.500000  1
  Be  Be3  1  0.997386  0.000000  0.500000  1
  Re  Re4  1  0.000663  0.757017  0.000000  1
  Re  Re5  1  0.243646  0.242983  0.000000  1
  Ge  Ge6  1  0.333227  0.666121  0.000000  1
  Ge  Ge7  1  0.667106  0.333879  0.000000  1
  Ru  Ru8  1  0.753419  0.000000  0.000000  1
