# generated using pymatgen
data_U5Al5Fe6
_symmetry_space_group_name_H-M   'P 1'
_cell_length_a   7.35408989
_cell_length_b   7.17589717
_cell_length_c   5.39332700
_cell_angle_alpha   90.00000000
_cell_angle_beta   90.00000000
_cell_angle_gamma   119.20165671
_symmetry_Int_Tables_number   1
_chemical_formula_structural   U5Al5Fe6
_chemical_formula_sum   'U5 Al5 Fe6'
_cell_volume   248.44505206
_cell_formula_units_Z   1
loop_
 _symmetry_equiv_pos_site_id
 _symmetry_equiv_pos_as_xyz
  1  'x, y, z'
loop_
 _atom_site_type_symbol
 _atom_site_label
 _atom_site_symmetry_multiplicity
 _atom_site_fract_x
 _atom_site_fract_y
 _atom_site_fract_z
 _atom_site_occupancy
  U  U0  1  0.236696  0.998798  0.250001  1
  U  U1  1  0.000000  0.243528  0.250001  1
  U  U2  1  0.763304  0.762103  0.250001  1
  U  U3  1  0.746306  0.983942  0.749999  1
  U  U4  1  0.253693  0.237637  0.749999  1
  Al  Al5  1  0.674154  0.343189  0.998039  1
  Al  Al6  1  0.325845  0.669034  0.998039  1
  Al  Al7  1  0.674154  0.343189  0.501962  1
  Al  Al8  1  0.325845  0.669034  0.501962  1
  Al  Al9  1  0.000000  0.725074  0.749999  1
  Fe  Fe10  1  0.611516  0.003512  0.250001  1
  Fe  Fe11  1  0.388484  0.391995  0.250001  1
  Fe  Fe12  1  0.000000  0.611118  0.250001  1
  Fe  Fe13  1  0.397384  0.025777  0.749999  1
  Fe  Fe14  1  0.000000  0.363676  0.749999  1
  Fe  Fe15  1  0.602615  0.628392  0.749999  1
