# generated using pymatgen
data_Y8Cd2IrPd
_symmetry_space_group_name_H-M   'P 1'
_cell_length_a   9.70729796
_cell_length_b   9.70729777
_cell_length_c   9.67571100
_cell_angle_alpha   60.10757716
_cell_angle_beta   60.10757781
_cell_angle_gamma   60.32156684
_symmetry_Int_Tables_number   1
_chemical_formula_structural   Y8Cd2IrPd
_chemical_formula_sum   'Y16 Cd4 Ir2 Pd2'
_cell_volume   647.31645218
_cell_formula_units_Z   2
loop_
 _symmetry_equiv_pos_site_id
 _symmetry_equiv_pos_as_xyz
  1  'x, y, z'
loop_
 _atom_site_type_symbol
 _atom_site_label
 _atom_site_symmetry_multiplicity
 _atom_site_fract_x
 _atom_site_fract_y
 _atom_site_fract_z
 _atom_site_occupancy
  Y  Y0  1  0.351948  0.351948  0.345660  1
  Y  Y1  1  0.351948  0.351948  0.950445  1
  Y  Y2  1  0.359029  0.940492  0.350239  1
  Y  Y3  1  0.940492  0.359029  0.350239  1
  Y  Y4  1  0.805493  0.190446  0.190784  1
  Y  Y5  1  0.190446  0.805493  0.813277  1
  Y  Y6  1  0.190446  0.805493  0.190784  1
  Y  Y7  1  0.805493  0.190446  0.813277  1
  Y  Y8  1  0.192005  0.192005  0.807995  1
  Y  Y9  1  0.810688  0.810688  0.189312  1
  Y  Y10  1  0.937296  0.565223  0.561919  1
  Y  Y11  1  0.565223  0.937296  0.935563  1
  Y  Y12  1  0.565223  0.937296  0.561919  1
  Y  Y13  1  0.937296  0.565223  0.935563  1
  Y  Y14  1  0.563687  0.563687  0.936313  1
  Y  Y15  1  0.936548  0.936548  0.563452  1
  Cd  Cd16  1  0.581178  0.581178  0.581825  1
  Cd  Cd17  1  0.581178  0.581178  0.255819  1
  Cd  Cd18  1  0.580555  0.255834  0.581806  1
  Cd  Cd19  1  0.255834  0.580555  0.581806  1
  Ir  Ir20  1  0.140700  0.572341  0.143480  1
  Ir  Ir21  1  0.572341  0.140700  0.143480  1
  Pd  Pd22  1  0.142476  0.142476  0.145831  1
  Pd  Pd23  1  0.142476  0.142476  0.569216  1
