# generated using pymatgen
data_Tb3Tm2Sb3
_symmetry_space_group_name_H-M   'P 1'
_cell_length_a   8.98861300
_cell_length_b   8.98861257
_cell_length_c   6.27101100
_cell_angle_alpha   90.00000000
_cell_angle_beta   90.00000000
_cell_angle_gamma   119.99999789
_symmetry_Int_Tables_number   1
_chemical_formula_structural   Tb3Tm2Sb3
_chemical_formula_sum   'Tb6 Tm4 Sb6'
_cell_volume   438.78679367
_cell_formula_units_Z   2
loop_
 _symmetry_equiv_pos_site_id
 _symmetry_equiv_pos_as_xyz
  1  'x, y, z'
loop_
 _atom_site_type_symbol
 _atom_site_label
 _atom_site_symmetry_multiplicity
 _atom_site_fract_x
 _atom_site_fract_y
 _atom_site_fract_z
 _atom_site_occupancy
  Tb  Tb0  1  0.000000  0.752371  0.750000  1
  Tb  Tb1  1  0.000000  0.247629  0.250000  1
  Tb  Tb2  1  0.752371  0.752371  0.250000  1
  Tb  Tb3  1  0.752371  0.000000  0.750000  1
  Tb  Tb4  1  0.247629  0.247629  0.750000  1
  Tb  Tb5  1  0.247629  0.000000  0.250000  1
  Tm  Tm6  1  0.333333  0.666667  0.500000  1
  Tm  Tm7  1  0.666667  0.333333  0.000000  1
  Tm  Tm8  1  0.666667  0.333333  0.500000  1
  Tm  Tm9  1  0.333333  0.666667  0.000000  1
  Sb  Sb10  1  0.390158  0.000000  0.750000  1
  Sb  Sb11  1  0.390158  0.390158  0.250000  1
  Sb  Sb12  1  0.000000  0.609842  0.250000  1
  Sb  Sb13  1  0.000000  0.390158  0.750000  1
  Sb  Sb14  1  0.609842  0.609842  0.750000  1
  Sb  Sb15  1  0.609842  0.000000  0.250000  1
