# generated using pymatgen
data_Eu2Cu3Ir
_symmetry_space_group_name_H-M   'P 1'
_cell_length_a   5.42821230
_cell_length_b   5.26748436
_cell_length_c   5.26748400
_cell_angle_alpha   60.00000229
_cell_angle_beta   60.97474450
_cell_angle_gamma   60.97473964
_symmetry_Int_Tables_number   1
_chemical_formula_structural   Eu2Cu3Ir
_chemical_formula_sum   'Eu2 Cu3 Ir1'
_cell_volume   108.04188713
_cell_formula_units_Z   1
loop_
 _symmetry_equiv_pos_site_id
 _symmetry_equiv_pos_as_xyz
  1  'x, y, z'
loop_
 _atom_site_type_symbol
 _atom_site_label
 _atom_site_symmetry_multiplicity
 _atom_site_fract_x
 _atom_site_fract_y
 _atom_site_fract_z
 _atom_site_occupancy
  Eu  Eu0  1  0.244134  0.251955  0.251955  1
  Eu  Eu1  1  0.005866  0.998045  0.998045  1
  Cu  Cu2  1  0.625000  0.125000  0.625000  1
  Cu  Cu3  1  0.625000  0.625000  0.125000  1
  Cu  Cu4  1  0.625000  0.625000  0.625000  1
  Ir  Ir5  1  0.125000  0.625000  0.625000  1
