# generated using pymatgen
data_Dy3ZrAl17SiRh6
_symmetry_space_group_name_H-M   'P 1'
_cell_length_a   7.53089913
_cell_length_b   7.52055435
_cell_length_c   9.36685900
_cell_angle_alpha   90.00000000
_cell_angle_beta   90.00000000
_cell_angle_gamma   119.61547626
_symmetry_Int_Tables_number   1
_chemical_formula_structural   Dy3ZrAl17SiRh6
_chemical_formula_sum   'Dy3 Zr1 Al17 Si1 Rh6'
_cell_volume   461.20187033
_cell_formula_units_Z   1
loop_
 _symmetry_equiv_pos_site_id
 _symmetry_equiv_pos_as_xyz
  1  'x, y, z'
loop_
 _atom_site_type_symbol
 _atom_site_label
 _atom_site_symmetry_multiplicity
 _atom_site_fract_x
 _atom_site_fract_y
 _atom_site_fract_z
 _atom_site_occupancy
  Dy  Dy0  1  0.007090  0.323789  0.250000  1
  Dy  Dy1  1  0.671280  0.995269  0.750000  1
  Dy  Dy2  1  0.325358  0.007536  0.250000  1
  Zr  Zr3  1  0.994789  0.671157  0.750000  1
  Al  Al4  1  0.123281  0.120831  0.750000  1
  Al  Al5  1  0.000055  0.338249  0.578960  1
  Al  Al6  1  0.999824  0.663896  0.429310  1
  Al  Al7  1  0.999824  0.663896  0.070690  1
  Al  Al8  1  0.331512  0.997268  0.920910  1
  Al  Al9  1  0.000055  0.338249  0.921040  1
  Al  Al10  1  0.663234  0.998428  0.075937  1
  Al  Al11  1  0.663234  0.998428  0.424063  1
  Al  Al12  1  0.331512  0.997268  0.579090  1
  Al  Al13  1  0.335936  0.335997  0.048333  1
  Al  Al14  1  0.669898  0.667230  0.940389  1
  Al  Al15  1  0.669898  0.667230  0.559611  1
  Al  Al16  1  0.335936  0.335997  0.451667  1
  Al  Al17  1  0.334801  0.550332  0.750000  1
  Al  Al18  1  0.665262  0.452656  0.250000  1
  Al  Al19  1  0.555141  0.342878  0.750000  1
  Al  Al20  1  0.449759  0.662269  0.250000  1
  Si  Si21  1  0.868882  0.867155  0.250000  1
  Rh  Rh22  1  0.673465  0.329246  0.500344  1
  Rh  Rh23  1  0.329801  0.673878  0.500951  1
  Rh  Rh24  1  0.329801  0.673878  0.999049  1
  Rh  Rh25  1  0.673465  0.329246  0.999656  1
  Rh  Rh26  1  0.998456  0.998872  0.494461  1
  Rh  Rh27  1  0.998456  0.998872  0.005539  1
