# generated using pymatgen
data_Y2Tm2Ni2C5
_symmetry_space_group_name_H-M   'P 1'
_cell_length_a   3.61255600
_cell_length_b   3.68544800
_cell_length_c   11.58821000
_cell_angle_alpha   90.00000000
_cell_angle_beta   90.00000000
_cell_angle_gamma   90.00000000
_symmetry_Int_Tables_number   1
_chemical_formula_structural   Y2Tm2Ni2C5
_chemical_formula_sum   'Y2 Tm2 Ni2 C5'
_cell_volume   154.28412178
_cell_formula_units_Z   1
loop_
 _symmetry_equiv_pos_site_id
 _symmetry_equiv_pos_as_xyz
  1  'x, y, z'
loop_
 _atom_site_type_symbol
 _atom_site_label
 _atom_site_symmetry_multiplicity
 _atom_site_fract_x
 _atom_site_fract_y
 _atom_site_fract_z
 _atom_site_occupancy
  Y  Y0  1  0.500000  0.208069  0.500000  1
  Y  Y1  1  0.000000  0.998907  0.000000  1
  Tm  Tm2  1  0.500000  0.501705  0.202321  1
  Tm  Tm3  1  0.500000  0.501705  0.797679  1
  Ni  Ni4  1  0.000000  0.698851  0.381807  1
  Ni  Ni5  1  0.000000  0.698851  0.618193  1
  C  C6  1  0.000000  0.999579  0.228400  1
  C  C7  1  0.000000  0.999579  0.771600  1
  C  C8  1  0.000000  0.199885  0.330496  1
  C  C9  1  0.000000  0.199885  0.669504  1
  C  C10  1  0.500000  0.494483  0.000000  1
