# generated using pymatgen
data_Li(Eu3Cd16)2
_symmetry_space_group_name_H-M   'P 1'
_cell_length_a   9.88219700
_cell_length_b   9.88219700
_cell_length_c   9.88219700
_cell_angle_alpha   90.00000000
_cell_angle_beta   90.00000000
_cell_angle_gamma   90.00000000
_symmetry_Int_Tables_number   1
_chemical_formula_structural   Li(Eu3Cd16)2
_chemical_formula_sum   'Li1 Eu6 Cd32'
_cell_volume   965.07379159
_cell_formula_units_Z   1
loop_
 _symmetry_equiv_pos_site_id
 _symmetry_equiv_pos_as_xyz
  1  'x, y, z'
loop_
 _atom_site_type_symbol
 _atom_site_label
 _atom_site_symmetry_multiplicity
 _atom_site_fract_x
 _atom_site_fract_y
 _atom_site_fract_z
 _atom_site_occupancy
  Li  Li0  1  0.000000  0.000000  0.000000  1
  Eu  Eu1  1  0.206588  0.000000  0.500000  1
  Eu  Eu2  1  0.793412  0.000000  0.500000  1
  Eu  Eu3  1  0.500000  0.206588  0.000000  1
  Eu  Eu4  1  0.500000  0.793412  0.000000  1
  Eu  Eu5  1  0.000000  0.500000  0.206588  1
  Eu  Eu6  1  0.000000  0.500000  0.793412  1
  Cd  Cd7  1  0.320409  0.500000  0.000000  1
  Cd  Cd8  1  0.679591  0.500000  0.000000  1
  Cd  Cd9  1  0.000000  0.320409  0.500000  1
  Cd  Cd10  1  0.000000  0.679591  0.500000  1
  Cd  Cd11  1  0.500000  0.000000  0.320409  1
  Cd  Cd12  1  0.500000  0.000000  0.679591  1
  Cd  Cd13  1  0.281659  0.281659  0.281659  1
  Cd  Cd14  1  0.718341  0.718341  0.718341  1
  Cd  Cd15  1  0.718341  0.718341  0.281659  1
  Cd  Cd16  1  0.718341  0.281659  0.718341  1
  Cd  Cd17  1  0.281659  0.281659  0.718341  1
  Cd  Cd18  1  0.281659  0.718341  0.281659  1
  Cd  Cd19  1  0.281659  0.718341  0.718341  1
  Cd  Cd20  1  0.718341  0.281659  0.281659  1
  Cd  Cd21  1  0.259415  0.500000  0.500000  1
  Cd  Cd22  1  0.740585  0.500000  0.500000  1
  Cd  Cd23  1  0.500000  0.259415  0.500000  1
  Cd  Cd24  1  0.500000  0.740585  0.500000  1
  Cd  Cd25  1  0.500000  0.500000  0.259415  1
  Cd  Cd26  1  0.500000  0.500000  0.740585  1
  Cd  Cd27  1  0.000000  0.150816  0.257866  1
  Cd  Cd28  1  0.000000  0.849184  0.742134  1
  Cd  Cd29  1  0.000000  0.849184  0.257866  1
  Cd  Cd30  1  0.000000  0.150816  0.742134  1
  Cd  Cd31  1  0.257866  0.000000  0.150816  1
  Cd  Cd32  1  0.742134  0.000000  0.849184  1
  Cd  Cd33  1  0.257866  0.000000  0.849184  1
  Cd  Cd34  1  0.742134  0.000000  0.150816  1
  Cd  Cd35  1  0.150816  0.257866  0.000000  1
  Cd  Cd36  1  0.849184  0.742134  0.000000  1
  Cd  Cd37  1  0.150816  0.742134  0.000000  1
  Cd  Cd38  1  0.849184  0.257866  0.000000  1
