# generated using pymatgen
data_Ho2Lu2B12MoRu
_symmetry_space_group_name_H-M   'P 1'
_cell_length_a   3.61310100
_cell_length_b   9.12825783
_cell_length_c   11.52172101
_cell_angle_alpha   89.77862449
_cell_angle_beta   90.00000000
_cell_angle_gamma   90.00000000
_symmetry_Int_Tables_number   1
_chemical_formula_structural   Ho2Lu2B12MoRu
_chemical_formula_sum   'Ho4 Lu4 B24 Mo2 Ru2'
_cell_volume   379.99870224
_cell_formula_units_Z   2
loop_
 _symmetry_equiv_pos_site_id
 _symmetry_equiv_pos_as_xyz
  1  'x, y, z'
loop_
 _atom_site_type_symbol
 _atom_site_label
 _atom_site_symmetry_multiplicity
 _atom_site_fract_x
 _atom_site_fract_y
 _atom_site_fract_z
 _atom_site_occupancy
  Ho  Ho0  1  0.000000  0.321804  0.414393  1
  Ho  Ho1  1  0.000000  0.678196  0.585607  1
  Ho  Ho2  1  0.000000  0.821627  0.086001  1
  Ho  Ho3  1  0.000000  0.178373  0.913999  1
  Lu  Lu4  1  0.000000  0.944803  0.371149  1
  Lu  Lu5  1  0.000000  0.055197  0.628851  1
  Lu  Lu6  1  0.000000  0.442151  0.128265  1
  Lu  Lu7  1  0.000000  0.557849  0.871735  1
  B  B8  1  0.500000  0.551956  0.433977  1
  B  B9  1  0.500000  0.448044  0.566023  1
  B  B10  1  0.500000  0.054333  0.066968  1
  B  B11  1  0.500000  0.945667  0.933032  1
  B  B12  1  0.500000  0.752030  0.420765  1
  B  B13  1  0.500000  0.247970  0.579235  1
  B  B14  1  0.500000  0.249593  0.081128  1
  B  B15  1  0.500000  0.750407  0.918872  1
  B  B16  1  0.500000  0.795821  0.263801  1
  B  B17  1  0.500000  0.204179  0.736199  1
  B  B18  1  0.500000  0.291019  0.233756  1
  B  B19  1  0.500000  0.708981  0.766244  1
  B  B20  1  0.500000  0.630866  0.181974  1
  B  B21  1  0.500000  0.369134  0.818026  1
  B  B22  1  0.500000  0.129921  0.314031  1
  B  B23  1  0.500000  0.870079  0.685969  1
  B  B24  1  0.500000  0.983064  0.211953  1
  B  B25  1  0.500000  0.016936  0.788047  1
  B  B26  1  0.500000  0.477943  0.286300  1
  B  B27  1  0.500000  0.522057  0.713700  1
  B  B28  1  0.500000  0.601274  0.027343  1
  B  B29  1  0.500000  0.398726  0.972657  1
  B  B30  1  0.500000  0.101172  0.471252  1
  B  B31  1  0.500000  0.898828  0.528748  1
  Mo  Mo32  1  0.000000  0.639526  0.318641  1
  Mo  Mo33  1  0.000000  0.360474  0.681359  1
  Ru  Ru34  1  0.000000  0.138724  0.178983  1
  Ru  Ru35  1  0.000000  0.861276  0.821017  1
