# generated using pymatgen
data_LuGe2(AsRh3)2
_symmetry_space_group_name_H-M   'P 1'
_cell_length_a   7.30228200
_cell_length_b   7.24488309
_cell_length_c   3.79709100
_cell_angle_alpha   90.00000000
_cell_angle_beta   90.00000000
_cell_angle_gamma   120.26241897
_symmetry_Int_Tables_number   1
_chemical_formula_structural   LuGe2(AsRh3)2
_chemical_formula_sum   'Lu1 Ge2 As2 Rh6'
_cell_volume   173.50705044
_cell_formula_units_Z   1
loop_
 _symmetry_equiv_pos_site_id
 _symmetry_equiv_pos_as_xyz
  1  'x, y, z'
loop_
 _atom_site_type_symbol
 _atom_site_label
 _atom_site_symmetry_multiplicity
 _atom_site_fract_x
 _atom_site_fract_y
 _atom_site_fract_z
 _atom_site_occupancy
  Lu  Lu0  1  0.998309  0.996616  0.000000  1
  Ge  Ge1  1  0.807899  0.615798  0.500000  1
  Ge  Ge2  1  0.333164  0.666329  0.000000  1
  As  As3  1  0.382644  0.192578  0.500000  1
  As  As4  1  0.809934  0.192578  0.500000  1
  Rh  Rh5  1  0.535089  0.070177  0.000000  1
  Rh  Rh6  1  0.606872  0.804039  0.500000  1
  Rh  Rh7  1  0.196277  0.392555  0.500000  1
  Rh  Rh8  1  0.535609  0.465979  0.000000  1
  Rh  Rh9  1  0.197167  0.804039  0.500000  1
  Rh  Rh10  1  0.930369  0.465979  0.000000  1
