# generated using pymatgen
data_HfZrCoTc3
_symmetry_space_group_name_H-M   'P 1'
_cell_length_a   5.13466000
_cell_length_b   5.13465987
_cell_length_c   8.60601200
_cell_angle_alpha   90.00000000
_cell_angle_beta   90.00000000
_cell_angle_gamma   119.99997509
_symmetry_Int_Tables_number   1
_chemical_formula_structural   HfZrCoTc3
_chemical_formula_sum   'Hf2 Zr2 Co2 Tc6'
_cell_volume   196.49706117
_cell_formula_units_Z   2
loop_
 _symmetry_equiv_pos_site_id
 _symmetry_equiv_pos_as_xyz
  1  'x, y, z'
loop_
 _atom_site_type_symbol
 _atom_site_label
 _atom_site_symmetry_multiplicity
 _atom_site_fract_x
 _atom_site_fract_y
 _atom_site_fract_z
 _atom_site_occupancy
  Hf  Hf0  1  0.666667  0.333333  0.934676  1
  Hf  Hf1  1  0.333333  0.666667  0.065324  1
  Zr  Zr2  1  0.333333  0.666667  0.433092  1
  Zr  Zr3  1  0.666667  0.333333  0.566908  1
  Co  Co4  1  0.000000  0.000000  0.500000  1
  Co  Co5  1  0.000000  0.000000  0.000000  1
  Tc  Tc6  1  0.831720  0.168280  0.248130  1
  Tc  Tc7  1  0.831720  0.663440  0.248130  1
  Tc  Tc8  1  0.336560  0.168280  0.248130  1
  Tc  Tc9  1  0.168280  0.831720  0.751870  1
  Tc  Tc10  1  0.168280  0.336560  0.751870  1
  Tc  Tc11  1  0.663440  0.831720  0.751870  1
