# generated using pymatgen
data_Re(BrO)2
_symmetry_space_group_name_H-M   'P 1'
_cell_length_a   3.77575400
_cell_length_b   7.55289100
_cell_length_c   8.83507300
_cell_angle_alpha   90.00000000
_cell_angle_beta   90.00000000
_cell_angle_gamma   90.00000000
_symmetry_Int_Tables_number   1
_chemical_formula_structural   Re(BrO)2
_chemical_formula_sum   'Re2 Br4 O4'
_cell_volume   251.95736081
_cell_formula_units_Z   2
loop_
 _symmetry_equiv_pos_site_id
 _symmetry_equiv_pos_as_xyz
  1  'x, y, z'
loop_
 _atom_site_type_symbol
 _atom_site_label
 _atom_site_symmetry_multiplicity
 _atom_site_fract_x
 _atom_site_fract_y
 _atom_site_fract_z
 _atom_site_occupancy
  Re  Re0  1  0.002619  0.033545  0.000000  1
  Re  Re1  1  0.997381  0.533545  0.000000  1
  Br  Br2  1  0.999759  0.035899  0.283071  1
  Br  Br3  1  0.999759  0.035899  0.716929  1
  Br  Br4  1  0.000241  0.535899  0.283071  1
  Br  Br5  1  0.000241  0.535899  0.716929  1
  O  O6  1  0.501402  0.033515  0.000000  1
  O  O7  1  0.999849  0.284022  0.000000  1
  O  O8  1  0.498598  0.533515  0.000000  1
  O  O9  1  0.000151  0.784022  0.000000  1
