# generated using pymatgen
data_La4Nd2Sn7Hg3
_symmetry_space_group_name_H-M   'P 1'
_cell_length_a   6.67523448
_cell_length_b   6.67523396
_cell_length_c   10.53486251
_cell_angle_alpha   90.47653024
_cell_angle_beta   90.47653437
_cell_angle_gamma   102.70360422
_symmetry_Int_Tables_number   1
_chemical_formula_structural   La4Nd2Sn7Hg3
_chemical_formula_sum   'La4 Nd2 Sn7 Hg3'
_cell_volume   457.88864319
_cell_formula_units_Z   1
loop_
 _symmetry_equiv_pos_site_id
 _symmetry_equiv_pos_as_xyz
  1  'x, y, z'
loop_
 _atom_site_type_symbol
 _atom_site_label
 _atom_site_symmetry_multiplicity
 _atom_site_fract_x
 _atom_site_fract_y
 _atom_site_fract_z
 _atom_site_occupancy
  La  La0  1  0.206003  0.797330  0.499797  1
  La  La1  1  0.206589  0.792357  0.000628  1
  La  La2  1  0.797330  0.206003  0.499797  1
  La  La3  1  0.792357  0.206589  0.000628  1
  Nd  Nd4  1  0.629069  0.629069  0.251745  1
  Nd  Nd5  1  0.371001  0.371001  0.745322  1
  Sn  Sn6  1  0.017636  0.017636  0.245909  1
  Sn  Sn7  1  0.982219  0.982219  0.752492  1
  Sn  Sn8  1  0.690276  0.690276  0.547832  1
  Sn  Sn9  1  0.489547  0.071349  0.248332  1
  Sn  Sn10  1  0.930388  0.510493  0.752252  1
  Sn  Sn11  1  0.510493  0.930388  0.752252  1
  Sn  Sn12  1  0.071349  0.489547  0.248332  1
  Hg  Hg13  1  0.310715  0.310715  0.040119  1
  Hg  Hg14  1  0.688161  0.688161  0.959853  1
  Hg  Hg15  1  0.306868  0.306868  0.454712  1
