# generated using pymatgen
data_Na5Ac(MoO4)4
_symmetry_space_group_name_H-M   'P 1'
_cell_length_a   10.17572935
_cell_length_b   10.17573029
_cell_length_c   10.17573000
_cell_angle_alpha   109.34846039
_cell_angle_beta   109.71702123
_cell_angle_gamma   109.34845779
_symmetry_Int_Tables_number   1
_chemical_formula_structural   Na5Ac(MoO4)4
_chemical_formula_sum   'Na10 Ac2 Mo8 O32'
_cell_volume   811.08960291
_cell_formula_units_Z   2
loop_
 _symmetry_equiv_pos_site_id
 _symmetry_equiv_pos_as_xyz
  1  'x, y, z'
loop_
 _atom_site_type_symbol
 _atom_site_label
 _atom_site_symmetry_multiplicity
 _atom_site_fract_x
 _atom_site_fract_y
 _atom_site_fract_z
 _atom_site_occupancy
  Na  Na0  1  0.784077  0.668898  0.204870  1
  Na  Na1  1  0.115179  0.579199  0.284075  1
  Na  Na2  1  0.704879  0.920799  0.035977  1
  Na  Na3  1  0.535980  0.831102  0.615181  1
  Na  Na4  1  0.215923  0.331102  0.795130  1
  Na  Na5  1  0.884821  0.420800  0.715925  1
  Na  Na6  1  0.295121  0.079201  0.964023  1
  Na  Na7  1  0.464020  0.168898  0.384819  1
  Na  Na8  1  0.375002  0.750001  0.125002  1
  Na  Na9  1  0.624998  0.249999  0.874998  1
  Ac  Ac10  1  0.125003  0.250005  0.375015  1
  Ac  Ac11  1  0.874997  0.749995  0.624985  1
  Mo  Mo12  1  0.573716  0.526581  0.744882  1
  Mo  Mo13  1  0.047132  0.828830  0.073696  1
  Mo  Mo14  1  0.781690  0.026583  0.452872  1
  Mo  Mo15  1  0.755110  0.328820  0.281694  1
  Mo  Mo16  1  0.952868  0.171170  0.926304  1
  Mo  Mo17  1  0.426284  0.473419  0.255118  1
  Mo  Mo18  1  0.218310  0.973417  0.547128  1
  Mo  Mo19  1  0.244890  0.671180  0.718306  1
  O  O20  1  0.994419  0.150367  0.524050  1
  O  O21  1  0.844050  0.470368  0.494414  1
  O  O22  1  0.024034  0.029611  0.873661  1
  O  O23  1  0.373673  0.349635  0.344059  1
  O  O24  1  0.005581  0.849633  0.475950  1
  O  O25  1  0.155950  0.529632  0.505586  1
  O  O26  1  0.975966  0.970389  0.126339  1
  O  O27  1  0.626327  0.650365  0.655941  1
  O  O28  1  0.757812  0.925804  0.567028  1
  O  O29  1  0.832006  0.190782  0.257815  1
  O  O30  1  0.067033  0.309198  0.141236  1
  O  O31  1  0.641219  0.574185  0.331994  1
  O  O32  1  0.242188  0.074196  0.432972  1
  O  O33  1  0.167994  0.809218  0.742185  1
  O  O34  1  0.932967  0.690802  0.858764  1
  O  O35  1  0.358781  0.425815  0.668006  1
  O  O36  1  0.668693  0.872450  0.244665  1
  O  O37  1  0.796245  0.424029  0.168692  1
  O  O38  1  0.744663  0.075973  0.872219  1
  O  O39  1  0.372213  0.627551  0.296243  1
  O  O40  1  0.666067  0.646092  0.956888  1
  O  O41  1  0.019971  0.709174  0.166050  1
  O  O42  1  0.456885  0.790825  0.810800  1
  O  O43  1  0.310806  0.853919  0.519976  1
  O  O44  1  0.333933  0.353908  0.043112  1
  O  O45  1  0.980029  0.290826  0.833950  1
  O  O46  1  0.543115  0.209175  0.189200  1
  O  O47  1  0.689194  0.146081  0.480024  1
  O  O48  1  0.627787  0.372449  0.703757  1
  O  O49  1  0.255337  0.924027  0.127781  1
  O  O50  1  0.203755  0.575971  0.831308  1
  O  O51  1  0.331307  0.127550  0.755335  1
