# generated using pymatgen
data_Mn3Nb6Ga3N2
_symmetry_space_group_name_H-M   'P 1'
_cell_length_a   8.19500711
_cell_length_b   8.19555181
_cell_length_c   8.20295415
_cell_angle_alpha   59.98365632
_cell_angle_beta   59.98568864
_cell_angle_gamma   60.33143922
_symmetry_Int_Tables_number   1
_chemical_formula_structural   Mn3Nb6Ga3N2
_chemical_formula_sum   'Mn6 Nb12 Ga6 N4'
_cell_volume   390.44305851
_cell_formula_units_Z   2
loop_
 _symmetry_equiv_pos_site_id
 _symmetry_equiv_pos_as_xyz
  1  'x, y, z'
loop_
 _atom_site_type_symbol
 _atom_site_label
 _atom_site_symmetry_multiplicity
 _atom_site_fract_x
 _atom_site_fract_y
 _atom_site_fract_z
 _atom_site_occupancy
  Mn  Mn0  1  0.112795  0.637131  0.624391  1
  Mn  Mn1  1  0.637217  0.111662  0.624907  1
  Mn  Mn2  1  0.638419  0.639171  0.113060  1
  Mn  Mn3  1  0.637702  0.638445  0.608982  1
  Mn  Mn4  1  0.823778  0.822881  0.521799  1
  Mn  Mn5  1  0.825987  0.825196  0.824249  1
  Nb  Nb6  1  0.808569  0.808731  0.190364  1
  Nb  Nb7  1  0.196102  0.196177  0.803932  1
  Nb  Nb8  1  0.807271  0.186537  0.807469  1
  Nb  Nb9  1  0.187969  0.805381  0.201095  1
  Nb  Nb10  1  0.186369  0.807374  0.807493  1
  Nb  Nb11  1  0.805259  0.188130  0.201059  1
  Nb  Nb12  1  0.443639  0.443813  0.055231  1
  Nb  Nb13  1  0.057881  0.058081  0.442475  1
  Nb  Nb14  1  0.444299  0.056500  0.445997  1
  Nb  Nb15  1  0.059336  0.441768  0.055854  1
  Nb  Nb16  1  0.056453  0.444299  0.445986  1
  Nb  Nb17  1  0.441710  0.059449  0.055825  1
  Ga  Ga18  1  0.755836  0.414486  0.415621  1
  Ga  Ga19  1  0.414650  0.756209  0.415334  1
  Ga  Ga20  1  0.418390  0.418020  0.750249  1
  Ga  Ga21  1  0.418399  0.418016  0.411788  1
  Ga  Ga22  1  0.492030  0.834259  0.836020  1
  Ga  Ga23  1  0.834229  0.492205  0.835959  1
  N  N24  1  0.625094  0.123169  0.126311  1
  N  N25  1  0.123088  0.625302  0.126241  1
  N  N26  1  0.124495  0.124520  0.626205  1
  N  N27  1  0.123035  0.123087  0.126103  1
