# generated using pymatgen
data_Nd13Dy2Th(CdCo)4
_symmetry_space_group_name_H-M   'P 1'
_cell_length_a   9.75715247
_cell_length_b   9.79784621
_cell_length_c   9.75678939
_cell_angle_alpha   60.12515468
_cell_angle_beta   59.96896511
_cell_angle_gamma   60.24645379
_symmetry_Int_Tables_number   1
_chemical_formula_structural   Nd13Dy2Th(CdCo)4
_chemical_formula_sum   'Nd13 Dy2 Th1 Cd4 Co4'
_cell_volume   661.23545045
_cell_formula_units_Z   1
loop_
 _symmetry_equiv_pos_site_id
 _symmetry_equiv_pos_as_xyz
  1  'x, y, z'
loop_
 _atom_site_type_symbol
 _atom_site_label
 _atom_site_symmetry_multiplicity
 _atom_site_fract_x
 _atom_site_fract_y
 _atom_site_fract_z
 _atom_site_occupancy
  Nd  Nd0  1  0.688234  0.311803  0.690659  1
  Nd  Nd1  1  0.688745  0.311477  0.312990  1
  Nd  Nd2  1  0.943128  0.560332  0.560213  1
  Nd  Nd3  1  0.539113  0.151285  0.152533  1
  Nd  Nd4  1  0.153691  0.152012  0.540132  1
  Nd  Nd5  1  0.941312  0.939207  0.557572  1
  Nd  Nd6  1  0.310294  0.688738  0.312770  1
  Nd  Nd7  1  0.559004  0.939119  0.939057  1
  Nd  Nd8  1  0.560908  0.942757  0.561722  1
  Nd  Nd9  1  0.691109  0.691085  0.313132  1
  Nd  Nd10  1  0.559221  0.561588  0.941802  1
  Nd  Nd11  1  0.940042  0.560073  0.938408  1
  Nd  Nd12  1  0.312851  0.688336  0.691068  1
  Dy  Dy13  1  0.154844  0.155218  0.150805  1
  Dy  Dy14  1  0.308766  0.309978  0.693321  1
  Th  Th15  1  0.155792  0.524413  0.156859  1
  Cd  Cd16  1  0.923464  0.238669  0.920965  1
  Cd  Cd17  1  0.921369  0.918880  0.921591  1
  Cd  Cd18  1  0.921989  0.920251  0.239228  1
  Cd  Cd19  1  0.239741  0.921632  0.921390  1
  Co  Co20  1  0.348421  0.362207  0.928223  1
  Co  Co21  1  0.355304  0.922363  0.354886  1
  Co  Co22  1  0.931044  0.362875  0.347658  1
  Co  Co23  1  0.351621  0.365702  0.353023  1
