# generated using pymatgen
data_K2PaF6
_symmetry_space_group_name_H-M   'P 1'
_cell_length_a   7.31404028
_cell_length_b   7.31404033
_cell_length_c   7.31404048
_cell_angle_alpha   146.41563440
_cell_angle_beta   129.99124337
_cell_angle_gamma   61.59227377
_symmetry_Int_Tables_number   1
_chemical_formula_structural   K2PaF6
_chemical_formula_sum   'K2 Pa1 F6'
_cell_volume   164.16899214
_cell_formula_units_Z   1
loop_
 _symmetry_equiv_pos_site_id
 _symmetry_equiv_pos_as_xyz
  1  'x, y, z'
loop_
 _atom_site_type_symbol
 _atom_site_label
 _atom_site_symmetry_multiplicity
 _atom_site_fract_x
 _atom_site_fract_y
 _atom_site_fract_z
 _atom_site_occupancy
  K  K0  1  0.667411  0.667411  0.000000  1
  K  K1  1  0.332589  0.332589  0.000000  1
  Pa  Pa2  1  0.000000  0.000000  0.000000  1
  F  F3  1  0.635672  0.860486  0.775187  1
  F  F4  1  0.199055  0.500000  0.699055  1
  F  F5  1  0.914701  0.139514  0.775187  1
  F  F6  1  0.085299  0.860486  0.224813  1
  F  F7  1  0.800945  0.500000  0.300945  1
  F  F8  1  0.364328  0.139514  0.224813  1
