# generated using pymatgen
data_La6Cd4Pd5Pt8
_symmetry_space_group_name_H-M   'P 1'
_cell_length_a   8.61615073
_cell_length_b   8.60567000
_cell_length_c   8.61060400
_cell_angle_alpha   109.42743880
_cell_angle_beta   109.43291757
_cell_angle_gamma   109.50266983
_symmetry_Int_Tables_number   1
_chemical_formula_structural   La6Cd4Pd5Pt8
_chemical_formula_sum   'La6 Cd4 Pd5 Pt8'
_cell_volume   491.79105667
_cell_formula_units_Z   1
loop_
 _symmetry_equiv_pos_site_id
 _symmetry_equiv_pos_as_xyz
  1  'x, y, z'
loop_
 _atom_site_type_symbol
 _atom_site_label
 _atom_site_symmetry_multiplicity
 _atom_site_fract_x
 _atom_site_fract_y
 _atom_site_fract_z
 _atom_site_occupancy
  La  La0  1  0.698423  0.699637  0.001699  1
  La  La1  1  0.299428  0.997635  0.299713  1
  La  La2  1  0.000463  0.299638  0.300351  1
  La  La3  1  0.299591  0.303028  0.999040  1
  La  La4  1  0.699886  0.001571  0.698591  1
  La  La5  1  0.002097  0.698138  0.700048  1
  Cd  Cd6  1  0.000063  0.997276  0.500968  1
  Cd  Cd7  1  0.997411  0.499272  0.997753  1
  Cd  Cd8  1  0.499268  0.001204  0.998721  1
  Cd  Cd9  1  0.503013  0.501478  0.501513  1
  Pd  Pd10  1  0.341943  0.001022  0.659149  1
  Pd  Pd11  1  0.682997  0.341232  0.341300  1
  Pd  Pd12  1  0.659150  0.659507  0.319431  1
  Pd  Pd13  1  0.657480  0.317349  0.658449  1
  Pd  Pd14  1  0.319327  0.658999  0.659420  1
  Pt  Pt15  1  0.340164  0.340195  0.680138  1
  Pt  Pt16  1  0.660097  0.001576  0.341091  1
  Pt  Pt17  1  0.000128  0.656998  0.341027  1
  Pt  Pt18  1  0.658968  0.342415  0.001434  1
  Pt  Pt19  1  0.339765  0.681126  0.341349  1
  Pt  Pt20  1  0.000485  0.339678  0.658486  1
  Pt  Pt21  1  0.340370  0.662289  0.002028  1
  Pt  Pt22  1  0.999481  0.998738  0.998300  1
