# generated using pymatgen
data_Dy5Y3(NiAg)2
_symmetry_space_group_name_H-M   'P 1'
_cell_length_a   9.48132225
_cell_length_b   9.48132203
_cell_length_c   9.48132200
_cell_angle_alpha   60.00000011
_cell_angle_beta   60.00000087
_cell_angle_gamma   59.99999982
_symmetry_Int_Tables_number   1
_chemical_formula_structural   Dy5Y3(NiAg)2
_chemical_formula_sum   'Dy10 Y6 Ni4 Ag4'
_cell_volume   602.68683642
_cell_formula_units_Z   2
loop_
 _symmetry_equiv_pos_site_id
 _symmetry_equiv_pos_as_xyz
  1  'x, y, z'
loop_
 _atom_site_type_symbol
 _atom_site_label
 _atom_site_symmetry_multiplicity
 _atom_site_fract_x
 _atom_site_fract_y
 _atom_site_fract_z
 _atom_site_occupancy
  Dy  Dy0  1  0.599765  0.599765  0.599765  1
  Dy  Dy1  1  0.599765  0.599765  0.200706  1
  Dy  Dy2  1  0.599765  0.200706  0.599765  1
  Dy  Dy3  1  0.200706  0.599765  0.599765  1
  Dy  Dy4  1  0.061146  0.438854  0.438854  1
  Dy  Dy5  1  0.438854  0.061146  0.061146  1
  Dy  Dy6  1  0.438854  0.061146  0.438854  1
  Dy  Dy7  1  0.061146  0.438854  0.061146  1
  Dy  Dy8  1  0.438854  0.438854  0.061146  1
  Dy  Dy9  1  0.061146  0.061146  0.438854  1
  Y  Y10  1  0.185896  0.814104  0.814104  1
  Y  Y11  1  0.814104  0.185896  0.185896  1
  Y  Y12  1  0.814104  0.185896  0.814104  1
  Y  Y13  1  0.185896  0.814104  0.185896  1
  Y  Y14  1  0.814104  0.814104  0.185896  1
  Y  Y15  1  0.185896  0.185896  0.814104  1
  Ni  Ni16  1  0.392901  0.392901  0.392901  1
  Ni  Ni17  1  0.392901  0.392901  0.821298  1
  Ni  Ni18  1  0.392901  0.821298  0.392901  1
  Ni  Ni19  1  0.821298  0.392901  0.392901  1
  Ag  Ag20  1  0.831302  0.831302  0.831302  1
  Ag  Ag21  1  0.831302  0.831302  0.506093  1
  Ag  Ag22  1  0.831302  0.506093  0.831302  1
  Ag  Ag23  1  0.506093  0.831302  0.831302  1
