# generated using pymatgen
data_CaYb2Dy(ReB4)4
_symmetry_space_group_name_H-M   'P 1'
_cell_length_a   3.57885300
_cell_length_b   5.99384906
_cell_length_c   11.59000100
_cell_angle_alpha   90.00936470
_cell_angle_beta   90.00000000
_cell_angle_gamma   90.00000000
_symmetry_Int_Tables_number   1
_chemical_formula_structural   CaYb2Dy(ReB4)4
_chemical_formula_sum   'Ca1 Yb2 Dy1 Re4 B16'
_cell_volume   248.61832143
_cell_formula_units_Z   1
loop_
 _symmetry_equiv_pos_site_id
 _symmetry_equiv_pos_as_xyz
  1  'x, y, z'
loop_
 _atom_site_type_symbol
 _atom_site_label
 _atom_site_symmetry_multiplicity
 _atom_site_fract_x
 _atom_site_fract_y
 _atom_site_fract_z
 _atom_site_occupancy
  Ca  Ca0  1  0.500000  0.372432  0.151750  1
  Yb  Yb1  1  0.500000  0.127263  0.648573  1
  Yb  Yb2  1  0.500000  0.872352  0.350610  1
  Dy  Dy3  1  0.500000  0.628108  0.849052  1
  Re  Re4  1  0.500000  0.368838  0.416740  1
  Re  Re5  1  0.500000  0.630098  0.584218  1
  Re  Re6  1  0.500000  0.129605  0.914535  1
  Re  Re7  1  0.500000  0.868393  0.083503  1
  B  B8  1  0.000000  0.114458  0.047636  1
  B  B9  1  0.000000  0.887227  0.952500  1
  B  B10  1  0.000000  0.385434  0.547752  1
  B  B11  1  0.000000  0.615046  0.452834  1
  B  B12  1  0.000000  0.135047  0.468082  1
  B  B13  1  0.000000  0.865330  0.532010  1
  B  B14  1  0.000000  0.364180  0.967923  1
  B  B15  1  0.000000  0.636011  0.031938  1
  B  B16  1  0.000000  0.022945  0.192727  1
  B  B17  1  0.000000  0.976032  0.807056  1
  B  B18  1  0.000000  0.475000  0.692018  1
  B  B19  1  0.000000  0.524623  0.308167  1
  B  B20  1  0.000000  0.215018  0.315754  1
  B  B21  1  0.000000  0.785454  0.684386  1
  B  B22  1  0.000000  0.283844  0.814479  1
  B  B23  1  0.000000  0.717263  0.185759  1
