# generated using pymatgen
data_Sc4(Pd3Au)3
_symmetry_space_group_name_H-M   'P 1'
_cell_length_a   7.01180684
_cell_length_b   7.01180643
_cell_length_c   7.01180683
_cell_angle_alpha   108.61811702
_cell_angle_beta   108.61812876
_cell_angle_gamma   111.19123938
_symmetry_Int_Tables_number   1
_chemical_formula_structural   Sc4(Pd3Au)3
_chemical_formula_sum   'Sc4 Pd9 Au3'
_cell_volume   265.19982353
_cell_formula_units_Z   1
loop_
 _symmetry_equiv_pos_site_id
 _symmetry_equiv_pos_as_xyz
  1  'x, y, z'
loop_
 _atom_site_type_symbol
 _atom_site_label
 _atom_site_symmetry_multiplicity
 _atom_site_fract_x
 _atom_site_fract_y
 _atom_site_fract_z
 _atom_site_occupancy
  Sc  Sc0  1  0.245514  0.245514  0.491029  1
  Sc  Sc1  1  0.754486  0.754486  0.508971  1
  Sc  Sc2  1  0.245514  0.754486  0.000000  1
  Sc  Sc3  1  0.754486  0.245514  0.000000  1
  Pd  Pd4  1  0.499388  0.250372  0.249016  1
  Pd  Pd5  1  0.500612  0.749628  0.750984  1
  Pd  Pd6  1  0.001355  0.250372  0.750984  1
  Pd  Pd7  1  0.250372  0.001355  0.750984  1
  Pd  Pd8  1  0.998645  0.749628  0.249016  1
  Pd  Pd9  1  0.749628  0.998645  0.249016  1
  Pd  Pd10  1  0.250372  0.499388  0.249016  1
  Pd  Pd11  1  0.749628  0.500612  0.750984  1
  Pd  Pd12  1  0.000000  0.000000  0.000000  1
  Au  Au13  1  0.500000  0.000000  0.500000  1
  Au  Au14  1  0.000000  0.500000  0.500000  1
  Au  Au15  1  0.500000  0.500000  0.000000  1
