# generated using pymatgen
data_LaNd3(SeO3)6
_symmetry_space_group_name_H-M   'P 1'
_cell_length_a   7.37101312
_cell_length_b   8.41143552
_cell_length_c   9.38617632
_cell_angle_alpha   71.06845631
_cell_angle_beta   70.02504687
_cell_angle_gamma   66.08841638
_symmetry_Int_Tables_number   1
_chemical_formula_structural   LaNd3(SeO3)6
_chemical_formula_sum   'La1 Nd3 Se6 O18'
_cell_volume   488.14473480
_cell_formula_units_Z   1
loop_
 _symmetry_equiv_pos_site_id
 _symmetry_equiv_pos_as_xyz
  1  'x, y, z'
loop_
 _atom_site_type_symbol
 _atom_site_label
 _atom_site_symmetry_multiplicity
 _atom_site_fract_x
 _atom_site_fract_y
 _atom_site_fract_z
 _atom_site_occupancy
  La  La0  1  0.740475  0.734150  0.802425  1
  Nd  Nd1  1  0.259462  0.264218  0.197785  1
  Nd  Nd2  1  0.334650  0.731990  0.586669  1
  Nd  Nd3  1  0.664431  0.269778  0.413003  1
  Se  Se4  1  0.112846  0.240103  0.580176  1
  Se  Se5  1  0.425804  0.773306  0.203577  1
  Se  Se6  1  0.151429  0.751083  0.962621  1
  Se  Se7  1  0.848059  0.245371  0.040411  1
  Se  Se8  1  0.572156  0.229697  0.798253  1
  Se  Se9  1  0.888771  0.760806  0.415821  1
  O  O10  1  0.156840  0.019372  0.651525  1
  O  O11  1  0.170047  0.572546  0.114187  1
  O  O12  1  0.032053  0.709196  0.550187  1
  O  O13  1  0.339136  0.249304  0.439338  1
  O  O14  1  0.068333  0.698008  0.836595  1
  O  O15  1  0.596737  0.285799  0.152178  1
  O  O16  1  0.359461  0.209717  0.940519  1
  O  O17  1  0.358377  0.937401  0.306177  1
  O  O18  1  0.513123  0.595128  0.350840  1
  O  O19  1  0.483451  0.408109  0.651674  1
  O  O20  1  0.638332  0.067425  0.694332  1
  O  O21  1  0.639992  0.791297  0.063259  1
  O  O22  1  0.401958  0.713434  0.850222  1
  O  O23  1  0.932734  0.300822  0.164157  1
  O  O24  1  0.662757  0.749349  0.556114  1
  O  O25  1  0.972657  0.288836  0.444266  1
  O  O26  1  0.831680  0.421935  0.886653  1
  O  O27  1  0.844251  0.981822  0.347037  1
