# generated using pymatgen
data_Nd10SiHgPb6
_symmetry_space_group_name_H-M   'P 1'
_cell_length_a   9.60862100
_cell_length_b   9.60862272
_cell_length_c   7.03520500
_cell_angle_alpha   90.00000000
_cell_angle_beta   90.00000000
_cell_angle_gamma   120.00000441
_symmetry_Int_Tables_number   1
_chemical_formula_structural   Nd10SiHgPb6
_chemical_formula_sum   'Nd10 Si1 Hg1 Pb6'
_cell_volume   562.50912773
_cell_formula_units_Z   1
loop_
 _symmetry_equiv_pos_site_id
 _symmetry_equiv_pos_as_xyz
  1  'x, y, z'
loop_
 _atom_site_type_symbol
 _atom_site_label
 _atom_site_symmetry_multiplicity
 _atom_site_fract_x
 _atom_site_fract_y
 _atom_site_fract_z
 _atom_site_occupancy
  Nd  Nd0  1  0.666667  0.333333  0.500000  1
  Nd  Nd1  1  0.333333  0.666667  0.500000  1
  Nd  Nd2  1  0.333333  0.666667  0.000000  1
  Nd  Nd3  1  0.666667  0.333333  0.000000  1
  Nd  Nd4  1  0.742943  0.742943  0.225207  1
  Nd  Nd5  1  0.257057  0.000000  0.225207  1
  Nd  Nd6  1  0.000000  0.257057  0.225207  1
  Nd  Nd7  1  0.257057  0.257057  0.774793  1
  Nd  Nd8  1  0.742943  0.000000  0.774793  1
  Nd  Nd9  1  0.000000  0.742943  0.774793  1
  Si  Si10  1  0.000000  0.000000  0.000000  1
  Hg  Hg11  1  0.000000  0.000000  0.500000  1
  Pb  Pb12  1  0.389980  0.389980  0.249913  1
  Pb  Pb13  1  0.610020  0.000000  0.249913  1
  Pb  Pb14  1  0.000000  0.610020  0.249913  1
  Pb  Pb15  1  0.610020  0.610020  0.750087  1
  Pb  Pb16  1  0.389980  0.000000  0.750087  1
  Pb  Pb17  1  0.000000  0.389980  0.750087  1
