# generated using pymatgen
data_DyErTiGaIr2
_symmetry_space_group_name_H-M   'P 1'
_cell_length_a   4.27202700
_cell_length_b   6.85245300
_cell_length_c   7.99702600
_cell_angle_alpha   90.00000000
_cell_angle_beta   90.00000000
_cell_angle_gamma   90.00000000
_symmetry_Int_Tables_number   1
_chemical_formula_structural   DyErTiGaIr2
_chemical_formula_sum   'Dy2 Er2 Ti2 Ga2 Ir4'
_cell_volume   234.10385339
_cell_formula_units_Z   2
loop_
 _symmetry_equiv_pos_site_id
 _symmetry_equiv_pos_as_xyz
  1  'x, y, z'
loop_
 _atom_site_type_symbol
 _atom_site_label
 _atom_site_symmetry_multiplicity
 _atom_site_fract_x
 _atom_site_fract_y
 _atom_site_fract_z
 _atom_site_occupancy
  Dy  Dy0  1  0.250000  0.961459  0.327483  1
  Dy  Dy1  1  0.250000  0.461459  0.172517  1
  Er  Er2  1  0.750000  0.029268  0.677731  1
  Er  Er3  1  0.750000  0.529268  0.822269  1
  Ti  Ti4  1  0.250000  0.374547  0.556659  1
  Ti  Ti5  1  0.250000  0.874547  0.943341  1
  Ga  Ga6  1  0.750000  0.639549  0.440098  1
  Ga  Ga7  1  0.750000  0.139549  0.059902  1
  Ir  Ir8  1  0.250000  0.232446  0.862528  1
  Ir  Ir9  1  0.250000  0.732446  0.637472  1
  Ir  Ir10  1  0.750000  0.762730  0.116553  1
  Ir  Ir11  1  0.750000  0.262730  0.383447  1
