# generated using pymatgen
data_Ho4Ga18Ir5Pd
_symmetry_space_group_name_H-M   'P 1'
_cell_length_a   7.59097191
_cell_length_b   7.59099651
_cell_length_c   9.47748701
_cell_angle_alpha   89.99743311
_cell_angle_beta   89.99763003
_cell_angle_gamma   119.90546151
_symmetry_Int_Tables_number   1
_chemical_formula_structural   Ho4Ga18Ir5Pd
_chemical_formula_sum   'Ho4 Ga18 Ir5 Pd1'
_cell_volume   473.40510791
_cell_formula_units_Z   1
loop_
 _symmetry_equiv_pos_site_id
 _symmetry_equiv_pos_as_xyz
  1  'x, y, z'
loop_
 _atom_site_type_symbol
 _atom_site_label
 _atom_site_symmetry_multiplicity
 _atom_site_fract_x
 _atom_site_fract_y
 _atom_site_fract_z
 _atom_site_occupancy
  Ho  Ho0  1  0.997347  0.669025  0.250983  1
  Ho  Ho1  1  0.003419  0.331581  0.748949  1
  Ho  Ho2  1  0.668419  0.996581  0.251051  1
  Ho  Ho3  1  0.330979  0.002657  0.749017  1
  Ga  Ga4  1  0.126769  0.126125  0.250088  1
  Ga  Ga5  1  0.873877  0.873232  0.749912  1
  Ga  Ga6  1  0.001141  0.333841  0.081879  1
  Ga  Ga7  1  0.003668  0.668504  0.918145  1
  Ga  Ga8  1  0.000988  0.665636  0.580160  1
  Ga  Ga9  1  0.334365  0.999016  0.419841  1
  Ga  Ga10  1  0.998856  0.334424  0.419677  1
  Ga  Ga11  1  0.665578  0.001145  0.580322  1
  Ga  Ga12  1  0.666160  0.998858  0.918120  1
  Ga  Ga13  1  0.331495  0.996331  0.081856  1
  Ga  Ga14  1  0.331575  0.331575  0.564557  1
  Ga  Ga15  1  0.668424  0.668424  0.435444  1
  Ga  Ga16  1  0.667922  0.670598  0.066547  1
  Ga  Ga17  1  0.329402  0.332080  0.933455  1
  Ga  Ga18  1  0.339707  0.547075  0.250368  1
  Ga  Ga19  1  0.660607  0.453933  0.748250  1
  Ga  Ga20  1  0.546072  0.339396  0.251749  1
  Ga  Ga21  1  0.452921  0.660293  0.749633  1
  Ir  Ir22  1  0.329273  0.670725  0.000001  1
  Ir  Ir23  1  0.328110  0.671892  0.500001  1
  Ir  Ir24  1  0.671651  0.328349  0.500002  1
  Ir  Ir25  1  0.000606  0.999398  0.000000  1
  Ir  Ir26  1  0.999553  0.000448  0.500000  1
  Pd  Pd27  1  0.671117  0.328858  0.999994  1
