# generated using pymatgen
data_Nb4VCo6As
_symmetry_space_group_name_H-M   'P 1'
_cell_length_a   4.89388500
_cell_length_b   4.89388498
_cell_length_c   7.67676300
_cell_angle_alpha   90.00000000
_cell_angle_beta   90.00000000
_cell_angle_gamma   119.99999337
_symmetry_Int_Tables_number   1
_chemical_formula_structural   Nb4VCo6As
_chemical_formula_sum   'Nb4 V1 Co6 As1'
_cell_volume   159.22685300
_cell_formula_units_Z   1
loop_
 _symmetry_equiv_pos_site_id
 _symmetry_equiv_pos_as_xyz
  1  'x, y, z'
loop_
 _atom_site_type_symbol
 _atom_site_label
 _atom_site_symmetry_multiplicity
 _atom_site_fract_x
 _atom_site_fract_y
 _atom_site_fract_z
 _atom_site_occupancy
  Nb  Nb0  1  0.666667  0.333333  0.918332  1
  Nb  Nb1  1  0.333333  0.666667  0.454499  1
  Nb  Nb2  1  0.666667  0.333333  0.545501  1
  Nb  Nb3  1  0.333333  0.666667  0.081668  1
  V  V4  1  0.000000  0.000000  0.500000  1
  Co  Co5  1  0.171733  0.828267  0.750747  1
  Co  Co6  1  0.656534  0.828267  0.750747  1
  Co  Co7  1  0.828267  0.171733  0.249253  1
  Co  Co8  1  0.171733  0.343466  0.750747  1
  Co  Co9  1  0.828267  0.656534  0.249253  1
  Co  Co10  1  0.343466  0.171733  0.249253  1
  As  As11  1  0.000000  0.000000  0.000000  1
