# generated using pymatgen
data_Eu2NiIr3
_symmetry_space_group_name_H-M   'P 1'
_cell_length_a   5.40871870
_cell_length_b   5.31567620
_cell_length_c   5.40871900
_cell_angle_alpha   59.41928697
_cell_angle_beta   60.00000429
_cell_angle_gamma   59.41928189
_symmetry_Int_Tables_number   1
_chemical_formula_structural   Eu2NiIr3
_chemical_formula_sum   'Eu2 Ni1 Ir3'
_cell_volume   108.98432188
_cell_formula_units_Z   1
loop_
 _symmetry_equiv_pos_site_id
 _symmetry_equiv_pos_as_xyz
  1  'x, y, z'
loop_
 _atom_site_type_symbol
 _atom_site_label
 _atom_site_symmetry_multiplicity
 _atom_site_fract_x
 _atom_site_fract_y
 _atom_site_fract_z
 _atom_site_occupancy
  Eu  Eu0  1  0.249660  0.251021  0.249660  1
  Eu  Eu1  1  0.000340  0.998979  0.000340  1
  Ni  Ni2  1  0.625000  0.125000  0.625000  1
  Ir  Ir3  1  0.625000  0.625000  0.125000  1
  Ir  Ir4  1  0.125000  0.625000  0.625000  1
  Ir  Ir5  1  0.625000  0.625000  0.625000  1
