# generated using pymatgen
data_Ta6Al3PdN2
_symmetry_space_group_name_H-M   'P 1'
_cell_length_a   7.03451712
_cell_length_b   7.04825979
_cell_length_c   7.05463600
_cell_angle_alpha   90.00000000
_cell_angle_beta   90.00000000
_cell_angle_gamma   90.33315943
_symmetry_Int_Tables_number   1
_chemical_formula_structural   Ta6Al3PdN2
_chemical_formula_sum   'Ta12 Al6 Pd2 N4'
_cell_volume   349.77072881
_cell_formula_units_Z   2
loop_
 _symmetry_equiv_pos_site_id
 _symmetry_equiv_pos_as_xyz
  1  'x, y, z'
loop_
 _atom_site_type_symbol
 _atom_site_label
 _atom_site_symmetry_multiplicity
 _atom_site_fract_x
 _atom_site_fract_y
 _atom_site_fract_z
 _atom_site_occupancy
  Ta  Ta0  1  0.790021  0.957249  0.377276  1
  Ta  Ta1  1  0.709979  0.042751  0.877276  1
  Ta  Ta2  1  0.206058  0.453786  0.126014  1
  Ta  Ta3  1  0.293942  0.546214  0.626014  1
  Ta  Ta4  1  0.954868  0.380814  0.791046  1
  Ta  Ta5  1  0.040835  0.868871  0.708658  1
  Ta  Ta6  1  0.459165  0.131129  0.208658  1
  Ta  Ta7  1  0.545132  0.619186  0.291046  1
  Ta  Ta8  1  0.380231  0.788784  0.954351  1
  Ta  Ta9  1  0.871260  0.706770  0.042343  1
  Ta  Ta10  1  0.119769  0.211216  0.454351  1
  Ta  Ta11  1  0.628740  0.293230  0.542343  1
  Al  Al12  1  0.824144  0.320853  0.176422  1
  Al  Al13  1  0.675856  0.679147  0.676422  1
  Al  Al14  1  0.562773  0.420956  0.925959  1
  Al  Al15  1  0.419435  0.933876  0.570623  1
  Al  Al16  1  0.937227  0.579044  0.425959  1
  Al  Al17  1  0.080565  0.066124  0.070623  1
  Pd  Pd18  1  0.182730  0.823068  0.317611  1
  Pd  Pd19  1  0.317270  0.176932  0.817611  1
  N  N20  1  0.879248  0.122411  0.629208  1
  N  N21  1  0.620752  0.877589  0.129208  1
  N  N22  1  0.127731  0.624822  0.880491  1
  N  N23  1  0.372269  0.375178  0.380491  1
