# generated using pymatgen
data_Yb9Dy3(GaAu5)4
_symmetry_space_group_name_H-M   'P 1'
_cell_length_a   8.50115505
_cell_length_b   8.50115739
_cell_length_c   13.52193100
_cell_angle_alpha   90.00592425
_cell_angle_beta   89.99407575
_cell_angle_gamma   128.49852873
_symmetry_Int_Tables_number   1
_chemical_formula_structural   Yb9Dy3(GaAu5)4
_chemical_formula_sum   'Yb9 Dy3 Ga4 Au20'
_cell_volume   764.80011932
_cell_formula_units_Z   1
loop_
 _symmetry_equiv_pos_site_id
 _symmetry_equiv_pos_as_xyz
  1  'x, y, z'
loop_
 _atom_site_type_symbol
 _atom_site_label
 _atom_site_symmetry_multiplicity
 _atom_site_fract_x
 _atom_site_fract_y
 _atom_site_fract_z
 _atom_site_occupancy
  Yb  Yb0  1  0.926410  0.073590  0.249891  1
  Yb  Yb1  1  0.073918  0.926082  0.750292  1
  Yb  Yb2  1  0.322007  0.677993  0.249993  1
  Yb  Yb3  1  0.678628  0.321372  0.750367  1
  Yb  Yb4  1  0.368819  0.631181  0.962023  1
  Yb  Yb5  1  0.881653  0.118347  0.949369  1
  Yb  Yb6  1  0.118110  0.881890  0.050192  1
  Yb  Yb7  1  0.881664  0.118336  0.550870  1
  Yb  Yb8  1  0.118408  0.881592  0.449989  1
  Dy  Dy9  1  0.631647  0.368353  0.462686  1
  Dy  Dy10  1  0.368275  0.631725  0.537115  1
  Dy  Dy11  1  0.631047  0.368954  0.037403  1
  Ga  Ga12  1  0.719689  0.280311  0.251159  1
  Ga  Ga13  1  0.279644  0.720356  0.749845  1
  Ga  Ga14  1  0.532758  0.467242  0.249379  1
  Ga  Ga15  1  0.466804  0.533196  0.750251  1
  Au  Au16  1  0.313907  0.061737  0.250277  1
  Au  Au17  1  0.062679  0.313888  0.749883  1
  Au  Au18  1  0.686112  0.937321  0.749883  1
  Au  Au19  1  0.938263  0.686093  0.250277  1
  Au  Au20  1  0.569146  0.998284  0.398924  1
  Au  Au21  1  0.998285  0.568549  0.600962  1
  Au  Au22  1  0.569390  0.999810  0.102018  1
  Au  Au23  1  0.000456  0.567900  0.898867  1
  Au  Au24  1  0.431451  0.001715  0.600962  1
  Au  Au25  1  0.001716  0.430854  0.398924  1
  Au  Au26  1  0.432100  0.999544  0.898867  1
  Au  Au27  1  0.000190  0.430609  0.102018  1
  Au  Au28  1  0.687208  0.743455  0.395556  1
  Au  Au29  1  0.743211  0.686813  0.604218  1
  Au  Au30  1  0.687431  0.745008  0.103045  1
  Au  Au31  1  0.741886  0.687638  0.895836  1
  Au  Au32  1  0.313187  0.256788  0.604217  1
  Au  Au33  1  0.256545  0.312792  0.395556  1
  Au  Au34  1  0.312362  0.258113  0.895836  1
  Au  Au35  1  0.254992  0.312569  0.103045  1
