# generated using pymatgen
data_Sr2SmU3S10
_symmetry_space_group_name_H-M   'P 1'
_cell_length_a   7.48069100
_cell_length_b   8.17286844
_cell_length_c   11.79061300
_cell_angle_alpha   89.70896543
_cell_angle_beta   90.00000000
_cell_angle_gamma   90.00000000
_symmetry_Int_Tables_number   1
_chemical_formula_structural   Sr2SmU3S10
_chemical_formula_sum   'Sr4 Sm2 U6 S20'
_cell_volume   720.85349090
_cell_formula_units_Z   2
loop_
 _symmetry_equiv_pos_site_id
 _symmetry_equiv_pos_as_xyz
  1  'x, y, z'
loop_
 _atom_site_type_symbol
 _atom_site_label
 _atom_site_symmetry_multiplicity
 _atom_site_fract_x
 _atom_site_fract_y
 _atom_site_fract_z
 _atom_site_occupancy
  Sr  Sr0  1  0.044939  0.494148  0.328600  1
  Sr  Sr1  1  0.544939  0.505852  0.171400  1
  Sr  Sr2  1  0.951430  0.505788  0.671613  1
  Sr  Sr3  1  0.451430  0.494212  0.828387  1
  Sm  Sm4  1  0.031274  0.000157  0.320811  1
  Sm  Sm5  1  0.531274  0.999843  0.179189  1
  U  U6  1  0.972932  0.999456  0.677566  1
  U  U7  1  0.472932  0.000544  0.822434  1
  U  U8  1  0.063223  0.751318  0.006360  1
  U  U9  1  0.563223  0.248682  0.493640  1
  U  U10  1  0.932745  0.245003  0.991429  1
  U  U11  1  0.432745  0.754997  0.508571  1
  S  S12  1  0.664655  0.959717  0.409873  1
  S  S13  1  0.164655  0.040283  0.090127  1
  S  S14  1  0.334407  0.044323  0.599198  1
  S  S15  1  0.834407  0.955677  0.900802  1
  S  S16  1  0.449087  0.777308  0.996235  1
  S  S17  1  0.949087  0.222692  0.503765  1
  S  S18  1  0.550987  0.221374  0.991908  1
  S  S19  1  0.050987  0.778626  0.508092  1
  S  S20  1  0.842417  0.764583  0.187114  1
  S  S21  1  0.342417  0.235417  0.312886  1
  S  S22  1  0.155954  0.224737  0.808360  1
  S  S23  1  0.655954  0.775263  0.691640  1
  S  S24  1  0.317735  0.760248  0.289290  1
  S  S25  1  0.817735  0.239752  0.210710  1
  S  S26  1  0.683828  0.229995  0.714455  1
  S  S27  1  0.183828  0.770005  0.785545  1
  S  S28  1  0.176525  0.460093  0.073406  1
  S  S29  1  0.676525  0.539907  0.426594  1
  S  S30  1  0.827863  0.538294  0.917938  1
  S  S31  1  0.327863  0.461706  0.582062  1
