# generated using pymatgen
data_Nd16DyEr3Sn16
_symmetry_space_group_name_H-M   'P 1'
_cell_length_a   8.24047900
_cell_length_b   8.39299600
_cell_length_c   15.93645000
_cell_angle_alpha   90.00000000
_cell_angle_beta   90.00000000
_cell_angle_gamma   89.99798843
_symmetry_Int_Tables_number   1
_chemical_formula_structural   Nd16DyEr3Sn16
_chemical_formula_sum   'Nd16 Dy1 Er3 Sn16'
_cell_volume   1102.20165159
_cell_formula_units_Z   1
loop_
 _symmetry_equiv_pos_site_id
 _symmetry_equiv_pos_as_xyz
  1  'x, y, z'
loop_
 _atom_site_type_symbol
 _atom_site_label
 _atom_site_symmetry_multiplicity
 _atom_site_fract_x
 _atom_site_fract_y
 _atom_site_fract_z
 _atom_site_occupancy
  Nd  Nd0  1  0.017876  0.180940  0.401279  1
  Nd  Nd1  1  0.368221  0.837412  0.120747  1
  Nd  Nd2  1  0.131945  0.337318  0.620871  1
  Nd  Nd3  1  0.482070  0.681030  0.901274  1
  Nd  Nd4  1  0.867857  0.662859  0.120810  1
  Nd  Nd5  1  0.131945  0.337318  0.879129  1
  Nd  Nd6  1  0.482070  0.681030  0.598726  1
  Nd  Nd7  1  0.631898  0.162697  0.620783  1
  Nd  Nd8  1  0.867857  0.662859  0.379190  1
  Nd  Nd9  1  0.017876  0.180940  0.098721  1
  Nd  Nd10  1  0.982090  0.818962  0.901295  1
  Nd  Nd11  1  0.631898  0.162697  0.879217  1
  Nd  Nd12  1  0.518064  0.318877  0.098678  1
  Nd  Nd13  1  0.368221  0.837412  0.379253  1
  Nd  Nd14  1  0.982090  0.818962  0.598705  1
  Nd  Nd15  1  0.518064  0.318877  0.401322  1
  Dy  Dy16  1  0.198823  0.502110  0.250000  1
  Er  Er17  1  0.699252  0.997882  0.250000  1
  Er  Er18  1  0.300771  0.002049  0.750000  1
  Er  Er19  1  0.800800  0.497864  0.750000  1
  Sn  Sn20  1  0.791844  0.464842  0.543691  1
  Sn  Sn21  1  0.708141  0.964782  0.456341  1
  Sn  Sn22  1  0.675450  0.853773  0.750000  1
  Sn  Sn23  1  0.208161  0.535259  0.456522  1
  Sn  Sn24  1  0.291841  0.035207  0.956301  1
  Sn  Sn25  1  0.824559  0.353674  0.250000  1
  Sn  Sn26  1  0.791844  0.464842  0.956309  1
  Sn  Sn27  1  0.565000  0.616623  0.250000  1
  Sn  Sn28  1  0.208161  0.535259  0.043478  1
  Sn  Sn29  1  0.435495  0.383395  0.750000  1
  Sn  Sn30  1  0.175360  0.646269  0.750000  1
  Sn  Sn31  1  0.935461  0.116641  0.750000  1
  Sn  Sn32  1  0.291841  0.035207  0.543699  1
  Sn  Sn33  1  0.708141  0.964782  0.043659  1
  Sn  Sn34  1  0.324618  0.145808  0.250000  1
  Sn  Sn35  1  0.064397  0.883545  0.250000  1
