# generated using pymatgen
data_Ba2Pr4ScV3O14
_symmetry_space_group_name_H-M   'P 1'
_cell_length_a   5.73450922
_cell_length_b   5.73450922
_cell_length_c   20.55284000
_cell_angle_alpha   90.00000000
_cell_angle_beta   90.00000000
_cell_angle_gamma   89.65347771
_symmetry_Int_Tables_number   1
_chemical_formula_structural   Ba2Pr4ScV3O14
_chemical_formula_sum   'Ba4 Pr8 Sc2 V6 O28'
_cell_volume   675.85947890
_cell_formula_units_Z   2
loop_
 _symmetry_equiv_pos_site_id
 _symmetry_equiv_pos_as_xyz
  1  'x, y, z'
loop_
 _atom_site_type_symbol
 _atom_site_label
 _atom_site_symmetry_multiplicity
 _atom_site_fract_x
 _atom_site_fract_y
 _atom_site_fract_z
 _atom_site_occupancy
  Ba  Ba0  1  0.257310  0.257310  0.002588  1
  Ba  Ba1  1  0.742690  0.742690  0.002588  1
  Ba  Ba2  1  0.752391  0.247610  0.500229  1
  Ba  Ba3  1  0.247610  0.752391  0.500229  1
  Pr  Pr4  1  0.270526  0.270526  0.184373  1
  Pr  Pr5  1  0.729473  0.729473  0.184373  1
  Pr  Pr6  1  0.769456  0.230544  0.318531  1
  Pr  Pr7  1  0.230544  0.769456  0.318531  1
  Pr  Pr8  1  0.768660  0.231340  0.681378  1
  Pr  Pr9  1  0.231340  0.768660  0.681378  1
  Pr  Pr10  1  0.271673  0.271673  0.815025  1
  Pr  Pr11  1  0.728326  0.728326  0.815025  1
  Sc  Sc12  1  0.756459  0.243541  0.902071  1
  Sc  Sc13  1  0.243541  0.756459  0.902071  1
  V  V14  1  0.753741  0.246259  0.103426  1
  V  V15  1  0.246259  0.753741  0.103426  1
  V  V16  1  0.252395  0.252395  0.399393  1
  V  V17  1  0.747605  0.747605  0.399393  1
  V  V18  1  0.251594  0.251594  0.600337  1
  V  V19  1  0.748406  0.748406  0.600337  1
  O  O20  1  0.777784  0.222214  0.003022  1
  O  O21  1  0.222214  0.777784  0.003022  1
  O  O22  1  0.499999  0.499999  0.096944  1
  O  O23  1  0.499999  0.000000  0.110524  1
  O  O24  1  0.000000  0.499999  0.110524  1
  O  O25  1  0.000000  0.000000  0.125206  1
  O  O26  1  0.701740  0.298261  0.207325  1
  O  O27  1  0.298261  0.701740  0.207325  1
  O  O28  1  0.203004  0.203004  0.293842  1
  O  O29  1  0.796996  0.796996  0.293842  1
  O  O30  1  0.499999  0.499999  0.377539  1
  O  O31  1  0.499999  0.000000  0.390218  1
  O  O32  1  0.000000  0.499999  0.390218  1
  O  O33  1  0.000000  0.000000  0.403075  1
  O  O34  1  0.271993  0.271993  0.498986  1
  O  O35  1  0.728007  0.728007  0.498986  1
  O  O36  1  0.000000  0.000000  0.594482  1
  O  O37  1  0.499999  0.000000  0.608141  1
  O  O38  1  0.000000  0.499999  0.608141  1
  O  O39  1  0.499999  0.499999  0.620749  1
  O  O40  1  0.201281  0.201281  0.704600  1
  O  O41  1  0.798719  0.798719  0.704600  1
  O  O42  1  0.695113  0.304888  0.789934  1
  O  O43  1  0.304888  0.695113  0.789934  1
  O  O44  1  0.000000  0.000000  0.873113  1
  O  O45  1  0.499999  0.000000  0.888361  1
  O  O46  1  0.000000  0.499999  0.888361  1
  O  O47  1  0.499999  0.499999  0.904278  1
