# generated using pymatgen
data_CaPa(Al5Fe)4
_symmetry_space_group_name_H-M   'P 1'
_cell_length_a   6.77696745
_cell_length_b   6.77696768
_cell_length_c   8.98839100
_cell_angle_alpha   90.00000000
_cell_angle_beta   90.00000000
_cell_angle_gamma   97.45778026
_symmetry_Int_Tables_number   1
_chemical_formula_structural   CaPa(Al5Fe)4
_chemical_formula_sum   'Ca1 Pa1 Al20 Fe4'
_cell_volume   409.32036057
_cell_formula_units_Z   1
loop_
 _symmetry_equiv_pos_site_id
 _symmetry_equiv_pos_as_xyz
  1  'x, y, z'
loop_
 _atom_site_type_symbol
 _atom_site_label
 _atom_site_symmetry_multiplicity
 _atom_site_fract_x
 _atom_site_fract_y
 _atom_site_fract_z
 _atom_site_occupancy
  Ca  Ca0  1  0.875482  0.124518  0.750000  1
  Pa  Pa1  1  0.125900  0.874100  0.250000  1
  Al  Al2  1  0.625973  0.374027  0.547208  1
  Al  Al3  1  0.376183  0.623817  0.447788  1
  Al  Al4  1  0.376183  0.623817  0.052212  1
  Al  Al5  1  0.625973  0.374027  0.952792  1
  Al  Al6  1  0.226048  0.228487  0.500077  1
  Al  Al7  1  0.771513  0.773952  0.500077  1
  Al  Al8  1  0.771513  0.773952  0.999923  1
  Al  Al9  1  0.226048  0.228487  0.999923  1
  Al  Al10  1  0.842698  0.157302  0.097835  1
  Al  Al11  1  0.160720  0.839280  0.901483  1
  Al  Al12  1  0.160720  0.839280  0.598517  1
  Al  Al13  1  0.842698  0.157302  0.402165  1
  Al  Al14  1  0.865143  0.584744  0.750000  1
  Al  Al15  1  0.133992  0.412095  0.250000  1
  Al  Al16  1  0.415256  0.134857  0.750000  1
  Al  Al17  1  0.587905  0.866008  0.250000  1
  Al  Al18  1  0.220866  0.477481  0.750000  1
  Al  Al19  1  0.779187  0.520743  0.250000  1
  Al  Al20  1  0.522519  0.779134  0.750000  1
  Al  Al21  1  0.479257  0.220813  0.250000  1
  Fe  Fe22  1  0.001546  0.507435  0.495819  1
  Fe  Fe23  1  0.001546  0.507435  0.004181  1
  Fe  Fe24  1  0.492565  0.998454  0.004181  1
  Fe  Fe25  1  0.492565  0.998454  0.495819  1
