# generated using pymatgen
data_YTh2Ga3Ir2Rh
_symmetry_space_group_name_H-M   'P 1'
_cell_length_a   7.32677346
_cell_length_b   7.30616887
_cell_length_c   3.95845200
_cell_angle_alpha   90.00000000
_cell_angle_beta   90.00000000
_cell_angle_gamma   119.90701284
_symmetry_Int_Tables_number   1
_chemical_formula_structural   YTh2Ga3Ir2Rh
_chemical_formula_sum   'Y1 Th2 Ga3 Ir2 Rh1'
_cell_volume   183.68117821
_cell_formula_units_Z   1
loop_
 _symmetry_equiv_pos_site_id
 _symmetry_equiv_pos_as_xyz
  1  'x, y, z'
loop_
 _atom_site_type_symbol
 _atom_site_label
 _atom_site_symmetry_multiplicity
 _atom_site_fract_x
 _atom_site_fract_y
 _atom_site_fract_z
 _atom_site_occupancy
  Y  Y0  1  0.000000  0.409626  0.500000  1
  Th  Th1  1  0.586228  0.587444  0.500000  1
  Th  Th2  1  0.413772  0.001218  0.500000  1
  Ga  Ga3  1  0.000000  0.743298  0.000000  1
  Ga  Ga4  1  0.229742  0.242999  0.000000  1
  Ga  Ga5  1  0.770258  0.013257  0.000000  1
  Ir  Ir6  1  0.349404  0.681153  0.000000  1
  Ir  Ir7  1  0.650596  0.331749  0.000000  1
  Rh  Rh8  1  0.000000  0.989257  0.500000  1
