# generated using pymatgen
data_Er4Tm6Cd3Ru
_symmetry_space_group_name_H-M   'P 1'
_cell_length_a   9.46771601
_cell_length_b   9.46790679
_cell_length_c   9.74067802
_cell_angle_alpha   89.99984243
_cell_angle_beta   90.00607899
_cell_angle_gamma   120.00039698
_symmetry_Int_Tables_number   1
_chemical_formula_structural   Er4Tm6Cd3Ru
_chemical_formula_sum   'Er8 Tm12 Cd6 Ru2'
_cell_volume   756.16622552
_cell_formula_units_Z   2
loop_
 _symmetry_equiv_pos_site_id
 _symmetry_equiv_pos_as_xyz
  1  'x, y, z'
loop_
 _atom_site_type_symbol
 _atom_site_label
 _atom_site_symmetry_multiplicity
 _atom_site_fract_x
 _atom_site_fract_y
 _atom_site_fract_z
 _atom_site_occupancy
  Er  Er0  1  0.209842  0.790282  0.440865  1
  Er  Er1  1  0.209845  0.419568  0.440865  1
  Er  Er2  1  0.541044  0.459126  0.249926  1
  Er  Er3  1  0.541041  0.081919  0.249932  1
  Er  Er4  1  0.917897  0.458948  0.249881  1
  Er  Er5  1  0.459170  0.540926  0.750102  1
  Er  Er6  1  0.459163  0.918241  0.750104  1
  Er  Er7  1  0.081711  0.540858  0.750196  1
  Tm  Tm8  1  0.999852  0.999922  0.500043  1
  Tm  Tm9  1  0.000025  0.000010  0.000054  1
  Tm  Tm10  1  0.580468  0.790235  0.440803  1
  Tm  Tm11  1  0.789953  0.209913  0.559259  1
  Tm  Tm12  1  0.789951  0.580037  0.559257  1
  Tm  Tm13  1  0.419989  0.209993  0.559290  1
  Tm  Tm14  1  0.790036  0.209941  0.940769  1
  Tm  Tm15  1  0.790036  0.580100  0.940770  1
  Tm  Tm16  1  0.419903  0.209955  0.940774  1
  Tm  Tm17  1  0.209948  0.790102  0.059100  1
  Tm  Tm18  1  0.209947  0.419843  0.059098  1
  Tm  Tm19  1  0.580104  0.790050  0.059209  1
  Cd  Cd20  1  0.885562  0.114351  0.249962  1
  Cd  Cd21  1  0.885572  0.771215  0.249974  1
  Cd  Cd22  1  0.228833  0.114409  0.249948  1
  Cd  Cd23  1  0.114388  0.885606  0.750059  1
  Cd  Cd24  1  0.114383  0.228777  0.750058  1
  Cd  Cd25  1  0.771162  0.885579  0.750016  1
  Ru  Ru26  1  0.333500  0.666753  0.249700  1
  Ru  Ru27  1  0.666677  0.333342  0.749984  1
