# generated using pymatgen
data_HoTiFeB6
_symmetry_space_group_name_H-M   'P 1'
_cell_length_a   3.32969700
_cell_length_b   8.81699700
_cell_length_c   11.15538800
_cell_angle_alpha   90.00000000
_cell_angle_beta   90.00000000
_cell_angle_gamma   90.00000000
_symmetry_Int_Tables_number   1
_chemical_formula_structural   HoTiFeB6
_chemical_formula_sum   'Ho4 Ti4 Fe4 B24'
_cell_volume   327.49908285
_cell_formula_units_Z   4
loop_
 _symmetry_equiv_pos_site_id
 _symmetry_equiv_pos_as_xyz
  1  'x, y, z'
loop_
 _atom_site_type_symbol
 _atom_site_label
 _atom_site_symmetry_multiplicity
 _atom_site_fract_x
 _atom_site_fract_y
 _atom_site_fract_z
 _atom_site_occupancy
  Ho  Ho0  1  0.000000  0.821695  0.085379  1
  Ho  Ho1  1  0.000000  0.178305  0.914621  1
  Ho  Ho2  1  0.000000  0.321695  0.414621  1
  Ho  Ho3  1  0.000000  0.678305  0.585379  1
  Ti  Ti4  1  0.000000  0.444942  0.126694  1
  Ti  Ti5  1  0.000000  0.555058  0.873306  1
  Ti  Ti6  1  0.000000  0.944942  0.373306  1
  Ti  Ti7  1  0.000000  0.055058  0.626694  1
  Fe  Fe8  1  0.000000  0.144648  0.183959  1
  Fe  Fe9  1  0.000000  0.855352  0.816041  1
  Fe  Fe10  1  0.000000  0.644648  0.316041  1
  Fe  Fe11  1  0.000000  0.355352  0.683959  1
  B  B12  1  0.500000  0.056361  0.068296  1
  B  B13  1  0.500000  0.943639  0.931704  1
  B  B14  1  0.500000  0.556361  0.431704  1
  B  B15  1  0.500000  0.443639  0.568296  1
  B  B16  1  0.500000  0.254863  0.083685  1
  B  B17  1  0.500000  0.745137  0.916315  1
  B  B18  1  0.500000  0.754863  0.416315  1
  B  B19  1  0.500000  0.245137  0.583685  1
  B  B20  1  0.500000  0.296437  0.235590  1
  B  B21  1  0.500000  0.703563  0.764410  1
  B  B22  1  0.500000  0.796437  0.264410  1
  B  B23  1  0.500000  0.203563  0.735590  1
  B  B24  1  0.500000  0.128902  0.317843  1
  B  B25  1  0.500000  0.871098  0.682157  1
  B  B26  1  0.500000  0.628902  0.182157  1
  B  B27  1  0.500000  0.371098  0.817843  1
  B  B28  1  0.500000  0.484018  0.285777  1
  B  B29  1  0.500000  0.515982  0.714223  1
  B  B30  1  0.500000  0.984018  0.214223  1
  B  B31  1  0.500000  0.015982  0.785777  1
  B  B32  1  0.500000  0.097238  0.474287  1
  B  B33  1  0.500000  0.902762  0.525713  1
  B  B34  1  0.500000  0.597238  0.025713  1
  B  B35  1  0.500000  0.402762  0.974287  1
