# generated using pymatgen
data_PrNdB8(Ir3Rh)2
_symmetry_space_group_name_H-M   'P 1'
_cell_length_a   7.68241300
_cell_length_b   7.68365627
_cell_length_c   3.99606400
_cell_angle_alpha   90.00000000
_cell_angle_beta   90.00000000
_cell_angle_gamma   90.11984613
_symmetry_Int_Tables_number   1
_chemical_formula_structural   PrNdB8(Ir3Rh)2
_chemical_formula_sum   'Pr1 Nd1 B8 Ir6 Rh2'
_cell_volume   235.88322898
_cell_formula_units_Z   1
loop_
 _symmetry_equiv_pos_site_id
 _symmetry_equiv_pos_as_xyz
  1  'x, y, z'
loop_
 _atom_site_type_symbol
 _atom_site_label
 _atom_site_symmetry_multiplicity
 _atom_site_fract_x
 _atom_site_fract_y
 _atom_site_fract_z
 _atom_site_occupancy
  Pr  Pr0  1  0.000000  0.000000  0.494813  1
  Nd  Nd1  1  0.500000  0.500000  0.000525  1
  B  B2  1  0.656749  0.779601  0.607760  1
  B  B3  1  0.160307  0.281805  0.891836  1
  B  B4  1  0.284832  0.839064  0.109333  1
  B  B5  1  0.715168  0.160936  0.109333  1
  B  B6  1  0.343251  0.220399  0.607760  1
  B  B7  1  0.839693  0.718195  0.891836  1
  B  B8  1  0.220753  0.659063  0.392528  1
  B  B9  1  0.779247  0.340937  0.392528  1
  Ir  Ir10  1  0.609263  0.156599  0.611735  1
  Ir  Ir11  1  0.109337  0.658889  0.891153  1
  Ir  Ir12  1  0.159871  0.390034  0.391264  1
  Ir  Ir13  1  0.840129  0.609966  0.391264  1
  Ir  Ir14  1  0.890663  0.341111  0.891153  1
  Ir  Ir15  1  0.390737  0.843401  0.611735  1
  Rh  Rh16  1  0.342085  0.110590  0.106723  1
  Rh  Rh17  1  0.657915  0.889410  0.106723  1
