# generated using pymatgen
data_Tb2ErMg3Ge2Pd
_symmetry_space_group_name_H-M   'P 1'
_cell_length_a   7.26703662
_cell_length_b   7.29227080
_cell_length_c   4.30242400
_cell_angle_alpha   90.00000000
_cell_angle_beta   90.00000000
_cell_angle_gamma   120.11493432
_symmetry_Int_Tables_number   1
_chemical_formula_structural   Tb2ErMg3Ge2Pd
_chemical_formula_sum   'Tb2 Er1 Mg3 Ge2 Pd1'
_cell_volume   197.22403062
_cell_formula_units_Z   1
loop_
 _symmetry_equiv_pos_site_id
 _symmetry_equiv_pos_as_xyz
  1  'x, y, z'
loop_
 _atom_site_type_symbol
 _atom_site_label
 _atom_site_symmetry_multiplicity
 _atom_site_fract_x
 _atom_site_fract_y
 _atom_site_fract_z
 _atom_site_occupancy
  Tb  Tb0  1  0.417228  0.416759  0.500000  1
  Tb  Tb1  1  0.582772  0.999531  0.500000  1
  Er  Er2  1  0.000000  0.583539  0.500000  1
  Mg  Mg3  1  0.759177  0.758545  0.000000  1
  Mg  Mg4  1  0.240823  0.999368  0.000000  1
  Mg  Mg5  1  0.000000  0.242338  0.000000  1
  Ge  Ge6  1  0.668338  0.335210  0.000000  1
  Ge  Ge7  1  0.331662  0.666873  0.000000  1
  Pd  Pd8  1  0.000000  0.997837  0.500000  1
