# generated using pymatgen
data_Ca2Ho3Si12Rh19
_symmetry_space_group_name_H-M   'P 1'
_cell_length_a   12.80032300
_cell_length_b   12.80011409
_cell_length_c   3.98351300
_cell_angle_alpha   90.00000000
_cell_angle_beta   90.00000000
_cell_angle_gamma   119.99946263
_symmetry_Int_Tables_number   1
_chemical_formula_structural   Ca2Ho3Si12Rh19
_chemical_formula_sum   'Ca2 Ho3 Si12 Rh19'
_cell_volume   565.24143651
_cell_formula_units_Z   1
loop_
 _symmetry_equiv_pos_site_id
 _symmetry_equiv_pos_as_xyz
  1  'x, y, z'
loop_
 _atom_site_type_symbol
 _atom_site_label
 _atom_site_symmetry_multiplicity
 _atom_site_fract_x
 _atom_site_fract_y
 _atom_site_fract_z
 _atom_site_occupancy
  Ca  Ca0  1  0.815141  0.814891  0.500000  1
  Ca  Ca1  1  0.184859  0.999750  0.500000  1
  Ho  Ho2  1  0.000000  0.184339  0.500000  1
  Ho  Ho3  1  0.667076  0.333693  0.000000  1
  Ho  Ho4  1  0.332924  0.666617  0.000000  1
  Si  Si5  1  0.476745  0.312853  0.500000  1
  Si  Si6  1  0.817348  0.000508  0.000000  1
  Si  Si7  1  0.182652  0.183159  0.000000  1
  Si  Si8  1  0.000000  0.816812  0.000000  1
  Si  Si9  1  0.372109  0.000025  0.000000  1
  Si  Si10  1  0.686141  0.163803  0.500000  1
  Si  Si11  1  0.836523  0.523159  0.500000  1
  Si  Si12  1  0.523255  0.836108  0.500000  1
  Si  Si13  1  0.163477  0.686635  0.500000  1
  Si  Si14  1  0.313859  0.477663  0.500000  1
  Si  Si15  1  0.000000  0.371056  0.000000  1
  Si  Si16  1  0.627891  0.627916  0.000000  1
  Rh  Rh17  1  0.807081  0.183208  0.000000  1
  Rh  Rh18  1  0.377596  0.194069  0.000000  1
  Rh  Rh19  1  0.639113  0.511843  0.500000  1
  Rh  Rh20  1  0.872412  0.359723  0.500000  1
  Rh  Rh21  1  0.360887  0.872730  0.500000  1
  Rh  Rh22  1  0.512547  0.639750  0.500000  1
  Rh  Rh23  1  0.127588  0.487311  0.500000  1
  Rh  Rh24  1  0.815759  0.621783  0.000000  1
  Rh  Rh25  1  0.622404  0.816473  0.000000  1
  Rh  Rh26  1  0.184241  0.806024  0.000000  1
  Rh  Rh27  1  0.192919  0.376127  0.000000  1
  Rh  Rh28  1  0.000000  0.720799  0.500000  1
  Rh  Rh29  1  0.278434  0.279515  0.500000  1
  Rh  Rh30  1  0.721566  0.001081  0.500000  1
  Rh  Rh31  1  0.000000  0.553587  0.000000  1
  Rh  Rh32  1  0.444706  0.446141  0.000000  1
  Rh  Rh33  1  0.555294  0.001434  0.000000  1
  Rh  Rh34  1  0.000000  0.002215  0.000000  1
  Rh  Rh35  1  0.487453  0.127203  0.500000  1
