# generated using pymatgen
data_Ho2Fe4P7IrRu7
_symmetry_space_group_name_H-M   'P 1'
_cell_length_a   9.26187550
_cell_length_b   9.27777688
_cell_length_c   3.83679700
_cell_angle_alpha   90.00000000
_cell_angle_beta   90.00000000
_cell_angle_gamma   120.40449191
_symmetry_Int_Tables_number   1
_chemical_formula_structural   Ho2Fe4P7IrRu7
_chemical_formula_sum   'Ho2 Fe4 P7 Ir1 Ru7'
_cell_volume   284.35292071
_cell_formula_units_Z   1
loop_
 _symmetry_equiv_pos_site_id
 _symmetry_equiv_pos_as_xyz
  1  'x, y, z'
loop_
 _atom_site_type_symbol
 _atom_site_label
 _atom_site_symmetry_multiplicity
 _atom_site_fract_x
 _atom_site_fract_y
 _atom_site_fract_z
 _atom_site_occupancy
  Ho  Ho0  1  0.999996  0.000728  0.000000  1
  Ho  Ho1  1  0.328920  0.662665  0.500000  1
  Fe  Fe2  1  0.085350  0.389903  0.000000  1
  Fe  Fe3  1  0.781133  0.181413  0.000000  1
  Fe  Fe4  1  0.393202  0.220877  0.000000  1
  Fe  Fe5  1  0.827319  0.603125  0.000000  1
  P  P6  1  0.563522  0.920463  0.000000  1
  P  P7  1  0.353356  0.441609  0.000000  1
  P  P8  1  0.076112  0.624273  0.000000  1
  P  P9  1  0.950956  0.222286  0.500000  1
  P  P10  1  0.268257  0.057951  0.500000  1
  P  P11  1  0.784740  0.731468  0.500000  1
  P  P12  1  0.664473  0.333962  0.000000  1
  Ir  Ir13  1  0.307597  0.904786  0.000000  1
  Ru  Ru14  1  0.603268  0.691533  0.000000  1
  Ru  Ru15  1  0.720896  0.949067  0.500000  1
  Ru  Ru16  1  0.227041  0.286018  0.500000  1
  Ru  Ru17  1  0.056300  0.775035  0.500000  1
  Ru  Ru18  1  0.548124  0.127564  0.500000  1
  Ru  Ru19  1  0.580433  0.449434  0.500000  1
  Ru  Ru20  1  0.879005  0.425838  0.500000  1
