# generated using pymatgen
data_IrRu(RhO3)4
_symmetry_space_group_name_H-M   'P 1'
_cell_length_a   4.55622532
_cell_length_b   4.55622489
_cell_length_c   9.41533000
_cell_angle_alpha   90.00000000
_cell_angle_beta   90.00000000
_cell_angle_gamma   90.14529478
_symmetry_Int_Tables_number   1
_chemical_formula_structural   IrRu(RhO3)4
_chemical_formula_sum   'Ir1 Ru1 Rh4 O12'
_cell_volume   195.45396971
_cell_formula_units_Z   1
loop_
 _symmetry_equiv_pos_site_id
 _symmetry_equiv_pos_as_xyz
  1  'x, y, z'
loop_
 _atom_site_type_symbol
 _atom_site_label
 _atom_site_symmetry_multiplicity
 _atom_site_fract_x
 _atom_site_fract_y
 _atom_site_fract_z
 _atom_site_occupancy
  Ir  Ir0  1  0.000000  0.000000  0.000000  1
  Ru  Ru1  1  0.500000  0.500000  0.500000  1
  Rh  Rh2  1  0.500000  0.500000  0.832530  1
  Rh  Rh3  1  0.000000  0.000000  0.334026  1
  Rh  Rh4  1  0.500000  0.500000  0.167470  1
  Rh  Rh5  1  0.000000  0.000000  0.665974  1
  O  O6  1  0.691167  0.691167  0.664302  1
  O  O7  1  0.308833  0.308833  0.664302  1
  O  O8  1  0.691167  0.691167  0.335698  1
  O  O9  1  0.191032  0.808968  0.165698  1
  O  O10  1  0.808968  0.191032  0.165698  1
  O  O11  1  0.808968  0.191032  0.834302  1
  O  O12  1  0.302206  0.302206  0.000000  1
  O  O13  1  0.198584  0.801416  0.500000  1
  O  O14  1  0.801416  0.198584  0.500000  1
  O  O15  1  0.697794  0.697794  0.000000  1
  O  O16  1  0.308833  0.308833  0.335698  1
  O  O17  1  0.191032  0.808968  0.834302  1
