# generated using pymatgen
data_SmLu3(HfPt)4
_symmetry_space_group_name_H-M   'P 1'
_cell_length_a   4.63563100
_cell_length_b   6.97951492
_cell_length_c   8.17615800
_cell_angle_alpha   89.93928523
_cell_angle_beta   90.00000000
_cell_angle_gamma   90.00000000
_symmetry_Int_Tables_number   1
_chemical_formula_structural   SmLu3(HfPt)4
_chemical_formula_sum   'Sm1 Lu3 Hf4 Pt4'
_cell_volume   264.53499346
_cell_formula_units_Z   1
loop_
 _symmetry_equiv_pos_site_id
 _symmetry_equiv_pos_as_xyz
  1  'x, y, z'
loop_
 _atom_site_type_symbol
 _atom_site_label
 _atom_site_symmetry_multiplicity
 _atom_site_fract_x
 _atom_site_fract_y
 _atom_site_fract_z
 _atom_site_occupancy
  Sm  Sm0  1  0.250000  0.984734  0.321352  1
  Lu  Lu1  1  0.750000  0.517521  0.821380  1
  Lu  Lu2  1  0.250000  0.482891  0.176635  1
  Lu  Lu3  1  0.750000  0.017728  0.679902  1
  Hf  Hf4  1  0.750000  0.645627  0.423038  1
  Hf  Hf5  1  0.250000  0.354348  0.579209  1
  Hf  Hf6  1  0.750000  0.147513  0.074577  1
  Hf  Hf7  1  0.250000  0.852462  0.920743  1
  Pt  Pt8  1  0.750000  0.269610  0.405779  1
  Pt  Pt9  1  0.250000  0.730614  0.600823  1
  Pt  Pt10  1  0.750000  0.763581  0.092755  1
  Pt  Pt11  1  0.250000  0.233371  0.903805  1
