# generated using pymatgen
data_Ca4Cu3Ge2Pd25
_symmetry_space_group_name_H-M   'P 1'
_cell_length_a   8.86145023
_cell_length_b   8.86145023
_cell_length_c   7.15966606
_cell_angle_alpha   90.09660881
_cell_angle_beta   90.09660881
_cell_angle_gamma   90.61353360
_symmetry_Int_Tables_number   1
_chemical_formula_structural   Ca4Cu3Ge2Pd25
_chemical_formula_sum   'Ca4 Cu3 Ge2 Pd25'
_cell_volume   562.18107805
_cell_formula_units_Z   1
loop_
 _symmetry_equiv_pos_site_id
 _symmetry_equiv_pos_as_xyz
  1  'x, y, z'
loop_
 _atom_site_type_symbol
 _atom_site_label
 _atom_site_symmetry_multiplicity
 _atom_site_fract_x
 _atom_site_fract_y
 _atom_site_fract_z
 _atom_site_occupancy
  Ca  Ca0  1  0.502087  0.002087  0.939185  1
  Ca  Ca1  1  0.997913  0.497913  0.060815  1
  Ca  Ca2  1  0.000455  0.999545  0.500000  1
  Ca  Ca3  1  0.499545  0.500455  0.500000  1
  Cu  Cu4  1  0.250000  0.750000  0.000000  1
  Cu  Cu5  1  0.250000  0.250000  0.000000  1
  Cu  Cu6  1  0.750000  0.750000  0.000000  1
  Ge  Ge7  1  0.500674  0.000674  0.447816  1
  Ge  Ge8  1  0.999326  0.499326  0.552184  1
  Pd  Pd9  1  0.328842  0.828842  0.626960  1
  Pd  Pd10  1  0.328739  0.169683  0.623278  1
  Pd  Pd11  1  0.669683  0.828739  0.623278  1
  Pd  Pd12  1  0.671269  0.171269  0.626876  1
  Pd  Pd13  1  0.171158  0.671158  0.373040  1
  Pd  Pd14  1  0.171261  0.330317  0.376722  1
  Pd  Pd15  1  0.830317  0.671261  0.376722  1
  Pd  Pd16  1  0.828731  0.328731  0.373124  1
  Pd  Pd17  1  0.497081  0.765963  0.250392  1
  Pd  Pd18  1  0.497179  0.235880  0.251007  1
  Pd  Pd19  1  0.265963  0.997081  0.250392  1
  Pd  Pd20  1  0.735880  0.997179  0.251007  1
  Pd  Pd21  1  0.002919  0.734037  0.749608  1
  Pd  Pd22  1  0.002821  0.264120  0.748993  1
  Pd  Pd23  1  0.234037  0.502919  0.749608  1
  Pd  Pd24  1  0.764120  0.502821  0.748993  1
  Pd  Pd25  1  0.494927  0.348501  0.862106  1
  Pd  Pd26  1  0.499007  0.659276  0.866281  1
  Pd  Pd27  1  0.848501  0.994927  0.862106  1
  Pd  Pd28  1  0.159276  0.999007  0.866281  1
  Pd  Pd29  1  0.005073  0.151499  0.137894  1
  Pd  Pd30  1  0.000993  0.840724  0.133719  1
  Pd  Pd31  1  0.651499  0.505073  0.137894  1
  Pd  Pd32  1  0.340724  0.500993  0.133719  1
  Pd  Pd33  1  0.750000  0.250000  0.000000  1
