# generated using pymatgen
data_Tb2Y3Tm3(CdPt)2
_symmetry_space_group_name_H-M   'P 1'
_cell_length_a   9.65363822
_cell_length_b   9.65363869
_cell_length_c   9.65363800
_cell_angle_alpha   60.00000236
_cell_angle_beta   60.00000075
_cell_angle_gamma   59.99999816
_symmetry_Int_Tables_number   1
_chemical_formula_structural   Tb2Y3Tm3(CdPt)2
_chemical_formula_sum   'Tb4 Y6 Tm6 Cd4 Pt4'
_cell_volume   636.14786654
_cell_formula_units_Z   2
loop_
 _symmetry_equiv_pos_site_id
 _symmetry_equiv_pos_as_xyz
  1  'x, y, z'
loop_
 _atom_site_type_symbol
 _atom_site_label
 _atom_site_symmetry_multiplicity
 _atom_site_fract_x
 _atom_site_fract_y
 _atom_site_fract_z
 _atom_site_occupancy
  Tb  Tb0  1  0.352849  0.352849  0.352849  1
  Tb  Tb1  1  0.352849  0.352849  0.941452  1
  Tb  Tb2  1  0.352849  0.941452  0.352849  1
  Tb  Tb3  1  0.941452  0.352849  0.352849  1
  Y  Y4  1  0.936133  0.563867  0.563867  1
  Y  Y5  1  0.563867  0.936133  0.936133  1
  Y  Y6  1  0.563867  0.936133  0.563867  1
  Y  Y7  1  0.936133  0.563867  0.936133  1
  Y  Y8  1  0.563867  0.563867  0.936133  1
  Y  Y9  1  0.936133  0.936133  0.563867  1
  Tm  Tm10  1  0.812308  0.187692  0.187692  1
  Tm  Tm11  1  0.187692  0.812308  0.812308  1
  Tm  Tm12  1  0.187692  0.812308  0.187692  1
  Tm  Tm13  1  0.812308  0.187692  0.812308  1
  Tm  Tm14  1  0.187692  0.187692  0.812308  1
  Tm  Tm15  1  0.812308  0.812308  0.187692  1
  Cd  Cd16  1  0.581864  0.581864  0.581864  1
  Cd  Cd17  1  0.581864  0.581864  0.254408  1
  Cd  Cd18  1  0.581864  0.254408  0.581864  1
  Cd  Cd19  1  0.254408  0.581864  0.581864  1
  Pt  Pt20  1  0.142182  0.142182  0.142182  1
  Pt  Pt21  1  0.142182  0.142182  0.573456  1
  Pt  Pt22  1  0.142182  0.573456  0.142182  1
  Pt  Pt23  1  0.573456  0.142182  0.142182  1
