# generated using pymatgen
data_Sm2B2Ir5
_symmetry_space_group_name_H-M   'P 1'
_cell_length_a   11.09320635
_cell_length_b   11.09320601
_cell_length_c   11.09320692
_cell_angle_alpha   28.78413028
_cell_angle_beta   28.78413237
_cell_angle_gamma   28.78413594
_symmetry_Int_Tables_number   1
_chemical_formula_structural   Sm2B2Ir5
_chemical_formula_sum   'Sm4 B4 Ir10'
_cell_volume   279.86115427
_cell_formula_units_Z   2
loop_
 _symmetry_equiv_pos_site_id
 _symmetry_equiv_pos_as_xyz
  1  'x, y, z'
loop_
 _atom_site_type_symbol
 _atom_site_label
 _atom_site_symmetry_multiplicity
 _atom_site_fract_x
 _atom_site_fract_y
 _atom_site_fract_z
 _atom_site_occupancy
  Sm  Sm0  1  0.151879  0.151879  0.151879  1
  Sm  Sm1  1  0.950195  0.950195  0.950195  1
  Sm  Sm2  1  0.848121  0.848121  0.848121  1
  Sm  Sm3  1  0.049805  0.049805  0.049805  1
  B  B4  1  0.617890  0.617890  0.617890  1
  B  B5  1  0.716296  0.716296  0.716296  1
  B  B6  1  0.382110  0.382110  0.382110  1
  B  B7  1  0.283704  0.283704  0.283704  1
  Ir  Ir8  1  0.407379  0.898661  0.407379  1
  Ir  Ir9  1  0.898661  0.407379  0.407379  1
  Ir  Ir10  1  0.500000  0.500000  0.000000  1
  Ir  Ir11  1  0.500000  0.000000  0.500000  1
  Ir  Ir12  1  0.000000  0.500000  0.500000  1
  Ir  Ir13  1  0.500000  0.500000  0.500000  1
  Ir  Ir14  1  0.592621  0.101339  0.592621  1
  Ir  Ir15  1  0.592621  0.592621  0.101339  1
  Ir  Ir16  1  0.101339  0.592621  0.592621  1
  Ir  Ir17  1  0.407379  0.407379  0.898661  1
