# generated using pymatgen
data_SrThNi12P5
_symmetry_space_group_name_H-M   'P 1'
_cell_length_a   3.68429900
_cell_length_b   10.86092955
_cell_length_c   13.20565431
_cell_angle_alpha   71.87148062
_cell_angle_beta   90.00000000
_cell_angle_gamma   90.00000000
_symmetry_Int_Tables_number   1
_chemical_formula_structural   SrThNi12P5
_chemical_formula_sum   'Sr2 Th2 Ni24 P10'
_cell_volume   502.19268504
_cell_formula_units_Z   2
loop_
 _symmetry_equiv_pos_site_id
 _symmetry_equiv_pos_as_xyz
  1  'x, y, z'
loop_
 _atom_site_type_symbol
 _atom_site_label
 _atom_site_symmetry_multiplicity
 _atom_site_fract_x
 _atom_site_fract_y
 _atom_site_fract_z
 _atom_site_occupancy
  Sr  Sr0  1  0.250000  0.748884  0.187483  1
  Sr  Sr1  1  0.750000  0.251116  0.812517  1
  Th  Th2  1  0.250000  0.779266  0.682381  1
  Th  Th3  1  0.750000  0.220734  0.317619  1
  Ni  Ni4  1  0.250000  0.569632  0.015428  1
  Ni  Ni5  1  0.250000  0.564684  0.448005  1
  Ni  Ni6  1  0.750000  0.504646  0.341685  1
  Ni  Ni7  1  0.250000  0.495354  0.658315  1
  Ni  Ni8  1  0.750000  0.509719  0.150851  1
  Ni  Ni9  1  0.250000  0.490281  0.849149  1
  Ni  Ni10  1  0.750000  0.435316  0.551995  1
  Ni  Ni11  1  0.250000  0.337931  0.139712  1
  Ni  Ni12  1  0.750000  0.660114  0.563399  1
  Ni  Ni13  1  0.250000  0.339886  0.436601  1
  Ni  Ni14  1  0.750000  0.906146  0.305214  1
  Ni  Ni15  1  0.250000  0.093854  0.694786  1
  Ni  Ni16  1  0.750000  0.918373  0.989355  1
  Ni  Ni17  1  0.250000  0.081627  0.010645  1
  Ni  Ni18  1  0.750000  0.919826  0.492560  1
  Ni  Ni19  1  0.250000  0.080174  0.507440  1
  Ni  Ni20  1  0.750000  0.934238  0.795587  1
  Ni  Ni21  1  0.250000  0.065762  0.204413  1
  Ni  Ni22  1  0.250000  0.786887  0.440284  1
  Ni  Ni23  1  0.750000  0.213113  0.559716  1
  Ni  Ni24  1  0.250000  0.796847  0.915569  1
  Ni  Ni25  1  0.750000  0.203153  0.084431  1
  Ni  Ni26  1  0.750000  0.662069  0.860288  1
  Ni  Ni27  1  0.750000  0.430368  0.984572  1
  P  P28  1  0.250000  0.006909  0.872180  1
  P  P29  1  0.750000  0.993091  0.127820  1
  P  P30  1  0.250000  0.301192  0.985805  1
  P  P31  1  0.750000  0.698808  0.014195  1
  P  P32  1  0.250000  0.450795  0.258893  1
  P  P33  1  0.750000  0.549205  0.741107  1
  P  P34  1  0.250000  0.993607  0.377902  1
  P  P35  1  0.750000  0.006393  0.622098  1
  P  P36  1  0.250000  0.311813  0.609188  1
  P  P37  1  0.750000  0.688187  0.390812  1
