# generated using pymatgen
data_Zr6Al2Ga5Cu16
_symmetry_space_group_name_H-M   'P 1'
_cell_length_a   8.43705517
_cell_length_b   8.43705430
_cell_length_c   8.43822200
_cell_angle_alpha   59.99542160
_cell_angle_beta   59.99542501
_cell_angle_gamma   60.02088197
_symmetry_Int_Tables_number   1
_chemical_formula_structural   Zr6Al2Ga5Cu16
_chemical_formula_sum   'Zr6 Al2 Ga5 Cu16'
_cell_volume   424.77223080
_cell_formula_units_Z   1
loop_
 _symmetry_equiv_pos_site_id
 _symmetry_equiv_pos_as_xyz
  1  'x, y, z'
loop_
 _atom_site_type_symbol
 _atom_site_label
 _atom_site_symmetry_multiplicity
 _atom_site_fract_x
 _atom_site_fract_y
 _atom_site_fract_z
 _atom_site_occupancy
  Zr  Zr0  1  0.705381  0.705381  0.294619  1
  Zr  Zr1  1  0.295380  0.704620  0.294216  1
  Zr  Zr2  1  0.704620  0.295380  0.294216  1
  Zr  Zr3  1  0.294619  0.294619  0.705381  1
  Zr  Zr4  1  0.704620  0.295380  0.705784  1
  Zr  Zr5  1  0.295380  0.704620  0.705784  1
  Al  Al6  1  0.000000  0.000000  0.000000  1
  Al  Al7  1  0.000000  0.000000  0.500000  1
  Ga  Ga8  1  0.500000  0.000000  0.500000  1
  Ga  Ga9  1  0.000000  0.500000  0.500000  1
  Ga  Ga10  1  0.500000  0.500000  0.000000  1
  Ga  Ga11  1  0.000000  0.500000  0.000000  1
  Ga  Ga12  1  0.500000  0.000000  0.000000  1
  Cu  Cu13  1  0.881773  0.881773  0.357768  1
  Cu  Cu14  1  0.881024  0.357309  0.880834  1
  Cu  Cu15  1  0.357309  0.881024  0.880834  1
  Cu  Cu16  1  0.881773  0.881773  0.878686  1
  Cu  Cu17  1  0.118227  0.118227  0.642232  1
  Cu  Cu18  1  0.118976  0.642691  0.119166  1
  Cu  Cu19  1  0.642691  0.118976  0.119166  1
  Cu  Cu20  1  0.118227  0.118227  0.121314  1
  Cu  Cu21  1  0.670696  0.670696  0.988114  1
  Cu  Cu22  1  0.671374  0.988233  0.670196  1
  Cu  Cu23  1  0.988233  0.671374  0.670196  1
  Cu  Cu24  1  0.670696  0.670696  0.670494  1
  Cu  Cu25  1  0.329304  0.329304  0.011886  1
  Cu  Cu26  1  0.328626  0.011767  0.329804  1
  Cu  Cu27  1  0.011767  0.328626  0.329804  1
  Cu  Cu28  1  0.329304  0.329304  0.329506  1
