# generated using pymatgen
data_K4ThNpI12
_symmetry_space_group_name_H-M   'P 1'
_cell_length_a   8.69521375
_cell_length_b   8.23785339
_cell_length_c   14.25995600
_cell_angle_alpha   55.02846092
_cell_angle_beta   89.94010942
_cell_angle_gamma   89.91019800
_symmetry_Int_Tables_number   1
_chemical_formula_structural   K4ThNpI12
_chemical_formula_sum   'K4 Th1 Np1 I12'
_cell_volume   837.00386116
_cell_formula_units_Z   1
loop_
 _symmetry_equiv_pos_site_id
 _symmetry_equiv_pos_as_xyz
  1  'x, y, z'
loop_
 _atom_site_type_symbol
 _atom_site_label
 _atom_site_symmetry_multiplicity
 _atom_site_fract_x
 _atom_site_fract_y
 _atom_site_fract_z
 _atom_site_occupancy
  K  K0  1  0.582669  0.724709  0.252658  1
  K  K1  1  0.082797  0.273283  0.248909  1
  K  K2  1  0.417331  0.275291  0.747342  1
  K  K3  1  0.917203  0.726717  0.751091  1
  Th  Th4  1  0.000000  0.000000  0.000000  1
  Np  Np5  1  0.500000  0.000000  0.500000  1
  I  I6  1  0.981086  0.843544  0.253994  1
  I  I7  1  0.481627  0.150924  0.252027  1
  I  I8  1  0.018914  0.156456  0.746006  1
  I  I9  1  0.518373  0.849076  0.747973  1
  I  I10  1  0.686253  0.646717  0.553530  1
  I  I11  1  0.189825  0.360463  0.945879  1
  I  I12  1  0.313747  0.353283  0.446470  1
  I  I13  1  0.810175  0.639537  0.054121  1
  I  I14  1  0.698521  0.232483  0.952126  1
  I  I15  1  0.205994  0.771597  0.547243  1
  I  I16  1  0.301479  0.767517  0.047874  1
  I  I17  1  0.794006  0.228403  0.452757  1
