# generated using pymatgen
data_Er7TmRe2(OsC4)2
_symmetry_space_group_name_H-M   'P 1'
_cell_length_a   5.05455900
_cell_length_b   6.49644839
_cell_length_c   9.74235020
_cell_angle_alpha   89.77903771
_cell_angle_beta   90.00000000
_cell_angle_gamma   90.00000000
_symmetry_Int_Tables_number   1
_chemical_formula_structural   Er7TmRe2(OsC4)2
_chemical_formula_sum   'Er7 Tm1 Re2 Os2 C8'
_cell_volume   319.90407347
_cell_formula_units_Z   1
loop_
 _symmetry_equiv_pos_site_id
 _symmetry_equiv_pos_as_xyz
  1  'x, y, z'
loop_
 _atom_site_type_symbol
 _atom_site_label
 _atom_site_symmetry_multiplicity
 _atom_site_fract_x
 _atom_site_fract_y
 _atom_site_fract_z
 _atom_site_occupancy
  Er  Er0  1  0.250000  0.677580  0.555517  1
  Er  Er1  1  0.750000  0.322623  0.444382  1
  Er  Er2  1  0.750000  0.821248  0.056219  1
  Er  Er3  1  0.250000  0.178509  0.943937  1
  Er  Er4  1  0.250000  0.532723  0.216615  1
  Er  Er5  1  0.750000  0.467373  0.783629  1
  Er  Er6  1  0.750000  0.969092  0.714487  1
  Tm  Tm7  1  0.250000  0.031168  0.285306  1
  Re  Re8  1  0.250000  0.720766  0.867105  1
  Re  Re9  1  0.750000  0.279026  0.132990  1
  Os  Os10  1  0.750000  0.777933  0.366260  1
  Os  Os11  1  0.250000  0.222242  0.633557  1
  C  C12  1  0.250000  0.455004  0.759865  1
  C  C13  1  0.750000  0.544904  0.240117  1
  C  C14  1  0.750000  0.044688  0.258615  1
  C  C15  1  0.250000  0.955247  0.741458  1
  C  C16  1  0.250000  0.824825  0.053985  1
  C  C17  1  0.750000  0.175136  0.946228  1
  C  C18  1  0.750000  0.674095  0.552897  1
  C  C19  1  0.250000  0.325820  0.446833  1
