# generated using pymatgen
data_Ca4Si6HgPd
_symmetry_space_group_name_H-M   'P 1'
_cell_length_a   8.41538570
_cell_length_b   8.31129088
_cell_length_c   6.02782137
_cell_angle_alpha   69.80285828
_cell_angle_beta   67.95682677
_cell_angle_gamma   42.24032217
_symmetry_Int_Tables_number   1
_chemical_formula_structural   Ca4Si6HgPd
_chemical_formula_sum   'Ca4 Si6 Hg1 Pd1'
_cell_volume   261.15965979
_cell_formula_units_Z   1
loop_
 _symmetry_equiv_pos_site_id
 _symmetry_equiv_pos_as_xyz
  1  'x, y, z'
loop_
 _atom_site_type_symbol
 _atom_site_label
 _atom_site_symmetry_multiplicity
 _atom_site_fract_x
 _atom_site_fract_y
 _atom_site_fract_z
 _atom_site_occupancy
  Ca  Ca0  1  0.747150  0.747150  0.752850  1
  Ca  Ca1  1  0.753793  0.251829  0.748171  1
  Ca  Ca2  1  0.247150  0.247150  0.252850  1
  Ca  Ca3  1  0.251829  0.753793  0.246207  1
  Si  Si4  1  0.831364  0.337068  0.168636  1
  Si  Si5  1  0.686980  0.156550  0.313020  1
  Si  Si6  1  0.156550  0.686980  0.843450  1
  Si  Si7  1  0.337068  0.831364  0.662932  1
  Si  Si8  1  0.156323  0.156323  0.843677  1
  Si  Si9  1  0.831639  0.831639  0.168361  1
  Hg  Hg10  1  0.333675  0.333675  0.666325  1
  Pd  Pd11  1  0.666482  0.666482  0.333518  1
