# generated using pymatgen
data_TeOs2F14
_symmetry_space_group_name_H-M   'P 1'
_cell_length_a   7.42207500
_cell_length_b   9.76053267
_cell_length_c   14.20558600
_cell_angle_alpha   90.00000000
_cell_angle_beta   90.00000000
_cell_angle_gamma   91.52335982
_symmetry_Int_Tables_number   1
_chemical_formula_structural   TeOs2F14
_chemical_formula_sum   'Te4 Os8 F56'
_cell_volume   1028.73731150
_cell_formula_units_Z   4
loop_
 _symmetry_equiv_pos_site_id
 _symmetry_equiv_pos_as_xyz
  1  'x, y, z'
loop_
 _atom_site_type_symbol
 _atom_site_label
 _atom_site_symmetry_multiplicity
 _atom_site_fract_x
 _atom_site_fract_y
 _atom_site_fract_z
 _atom_site_occupancy
  Te  Te0  1  0.211944  0.021337  0.729636  1
  Te  Te1  1  0.788056  0.478663  0.229636  1
  Te  Te2  1  0.788056  0.978663  0.270364  1
  Te  Te3  1  0.211944  0.521337  0.770364  1
  Os  Os4  1  0.332113  0.267036  0.108527  1
  Os  Os5  1  0.667887  0.232964  0.608527  1
  Os  Os6  1  0.667887  0.732964  0.891473  1
  Os  Os7  1  0.332113  0.767036  0.391473  1
  Os  Os8  1  0.905027  0.242166  0.944321  1
  Os  Os9  1  0.094973  0.257834  0.444321  1
  Os  Os10  1  0.094973  0.757834  0.055679  1
  Os  Os11  1  0.905027  0.742166  0.555679  1
  F  F12  1  0.479703  0.174140  0.023121  1
  F  F13  1  0.520297  0.325860  0.523121  1
  F  F14  1  0.520297  0.825860  0.976879  1
  F  F15  1  0.479703  0.674140  0.476879  1
  F  F16  1  0.167129  0.360994  0.187266  1
  F  F17  1  0.832871  0.139006  0.687266  1
  F  F18  1  0.832871  0.639006  0.812734  1
  F  F19  1  0.167129  0.860994  0.312734  1
  F  F20  1  0.356977  0.429984  0.037182  1
  F  F21  1  0.643023  0.070016  0.537182  1
  F  F22  1  0.643023  0.570016  0.962818  1
  F  F23  1  0.356977  0.929984  0.462818  1
  F  F24  1  0.371042  0.402262  0.828664  1
  F  F25  1  0.628958  0.097738  0.328664  1
  F  F26  1  0.628958  0.597738  0.171336  1
  F  F27  1  0.371042  0.902262  0.671336  1
  F  F28  1  0.098567  0.370733  0.710157  1
  F  F29  1  0.901433  0.129267  0.210157  1
  F  F30  1  0.901433  0.629267  0.289843  1
  F  F31  1  0.098567  0.870733  0.789843  1
  F  F32  1  0.364720  0.539607  0.666345  1
  F  F33  1  0.635280  0.960393  0.166345  1
  F  F34  1  0.635280  0.460393  0.333655  1
  F  F35  1  0.364720  0.039607  0.833655  1
  F  F36  1  0.031450  0.646699  0.654064  1
  F  F37  1  0.968550  0.853301  0.154064  1
  F  F38  1  0.968550  0.353301  0.345936  1
  F  F39  1  0.031450  0.146699  0.845936  1
  F  F40  1  0.018711  0.911973  0.600180  1
  F  F41  1  0.981289  0.588027  0.100180  1
  F  F42  1  0.981289  0.088027  0.399820  1
  F  F43  1  0.018711  0.411973  0.899820  1
  F  F44  1  0.535019  0.813299  0.313724  1
  F  F45  1  0.464981  0.686701  0.813724  1
  F  F46  1  0.464981  0.186701  0.686276  1
  F  F47  1  0.535019  0.313299  0.186276  1
  F  F48  1  0.815741  0.574690  0.508716  1
  F  F49  1  0.184259  0.925310  0.008716  1
  F  F50  1  0.184259  0.425310  0.491284  1
  F  F51  1  0.815741  0.074690  0.991284  1
  F  F52  1  0.807195  0.838185  0.452840  1
  F  F53  1  0.192805  0.661815  0.952840  1
  F  F54  1  0.192805  0.161815  0.547160  1
  F  F55  1  0.807195  0.338185  0.047160  1
  F  F56  1  0.707116  0.767658  0.632325  1
  F  F57  1  0.292884  0.732342  0.132325  1
  F  F58  1  0.292884  0.232342  0.367675  1
  F  F59  1  0.707116  0.267658  0.867675  1
  F  F60  1  0.123816  0.706127  0.474521  1
  F  F61  1  0.876184  0.793873  0.974521  1
  F  F62  1  0.876184  0.293873  0.525479  1
  F  F63  1  0.123816  0.206127  0.025479  1
  F  F64  1  0.291578  0.603609  0.321844  1
  F  F65  1  0.708422  0.896391  0.821844  1
  F  F66  1  0.708422  0.396391  0.678156  1
  F  F67  1  0.291578  0.103609  0.178156  1
