# generated using pymatgen
data_Er7Co6Sn22Hg
_symmetry_space_group_name_H-M   'P 1'
_cell_length_a   9.64892100
_cell_length_b   9.64892064
_cell_length_c   9.97471200
_cell_angle_alpha   90.00000000
_cell_angle_beta   90.00000000
_cell_angle_gamma   120.00000466
_symmetry_Int_Tables_number   1
_chemical_formula_structural   Er7Co6Sn22Hg
_chemical_formula_sum   'Er7 Co6 Sn22 Hg1'
_cell_volume   804.24517026
_cell_formula_units_Z   1
loop_
 _symmetry_equiv_pos_site_id
 _symmetry_equiv_pos_as_xyz
  1  'x, y, z'
loop_
 _atom_site_type_symbol
 _atom_site_label
 _atom_site_symmetry_multiplicity
 _atom_site_fract_x
 _atom_site_fract_y
 _atom_site_fract_z
 _atom_site_occupancy
  Er  Er0  1  0.479514  0.520486  0.305900  1
  Er  Er1  1  0.520486  0.479514  0.694100  1
  Er  Er2  1  0.479514  0.959029  0.305900  1
  Er  Er3  1  0.520486  0.040971  0.694100  1
  Er  Er4  1  0.040971  0.520486  0.305900  1
  Er  Er5  1  0.959029  0.479514  0.694100  1
  Er  Er6  1  0.000000  0.000000  0.000000  1
  Co  Co7  1  0.832116  0.167884  0.197544  1
  Co  Co8  1  0.167884  0.832116  0.802456  1
  Co  Co9  1  0.832116  0.664234  0.197544  1
  Co  Co10  1  0.167884  0.335766  0.802456  1
  Co  Co11  1  0.335766  0.167884  0.197544  1
  Co  Co12  1  0.664234  0.832116  0.802456  1
  Sn  Sn13  1  0.116117  0.883883  0.273628  1
  Sn  Sn14  1  0.883883  0.116117  0.726372  1
  Sn  Sn15  1  0.116117  0.232235  0.273628  1
  Sn  Sn16  1  0.883883  0.767765  0.726372  1
  Sn  Sn17  1  0.767765  0.883883  0.273628  1
  Sn  Sn18  1  0.232235  0.116117  0.726372  1
  Sn  Sn19  1  0.781912  0.218088  0.453707  1
  Sn  Sn20  1  0.218088  0.781912  0.546293  1
  Sn  Sn21  1  0.781912  0.563824  0.453707  1
  Sn  Sn22  1  0.218088  0.436176  0.546293  1
  Sn  Sn23  1  0.436176  0.218088  0.453707  1
  Sn  Sn24  1  0.563824  0.781912  0.546293  1
  Sn  Sn25  1  0.345998  0.000000  0.000000  1
  Sn  Sn26  1  0.654002  0.000000  0.000000  1
  Sn  Sn27  1  0.000000  0.345998  0.000000  1
  Sn  Sn28  1  0.000000  0.654002  0.000000  1
  Sn  Sn29  1  0.654002  0.654002  0.000000  1
  Sn  Sn30  1  0.345998  0.345998  0.000000  1
  Sn  Sn31  1  0.333333  0.666667  0.120741  1
  Sn  Sn32  1  0.666667  0.333333  0.879259  1
  Sn  Sn33  1  0.333333  0.666667  0.818740  1
  Sn  Sn34  1  0.666667  0.333333  0.181260  1
  Hg  Hg35  1  0.000000  0.000000  0.500000  1
