# generated using pymatgen
data_CeTh2(GaPt)3
_symmetry_space_group_name_H-M   'P 1'
_cell_length_a   7.35121119
_cell_length_b   7.35121084
_cell_length_c   4.09624100
_cell_angle_alpha   90.00000000
_cell_angle_beta   90.00000000
_cell_angle_gamma   120.02625301
_symmetry_Int_Tables_number   1
_chemical_formula_structural   CeTh2(GaPt)3
_chemical_formula_sum   'Ce1 Th2 Ga3 Pt3'
_cell_volume   191.65447327
_cell_formula_units_Z   1
loop_
 _symmetry_equiv_pos_site_id
 _symmetry_equiv_pos_as_xyz
  1  'x, y, z'
loop_
 _atom_site_type_symbol
 _atom_site_label
 _atom_site_symmetry_multiplicity
 _atom_site_fract_x
 _atom_site_fract_y
 _atom_site_fract_z
 _atom_site_occupancy
  Ce  Ce0  1  0.413404  0.413404  0.500000  1
  Th  Th1  1  0.585590  0.999871  0.500000  1
  Th  Th2  1  0.999871  0.585590  0.500000  1
  Ga  Ga3  1  0.754512  0.754512  0.000000  1
  Ga  Ga4  1  0.242789  0.003609  0.000000  1
  Ga  Ga5  1  0.003609  0.242789  0.000000  1
  Pt  Pt6  1  0.667297  0.333500  0.000000  1
  Pt  Pt7  1  0.333500  0.667297  0.000000  1
  Pt  Pt8  1  0.999428  0.999428  0.500000  1
