# generated using pymatgen
data_Tb5Y11(AlRh)4
_symmetry_space_group_name_H-M   'P 1'
_cell_length_a   9.56664849
_cell_length_b   9.56681849
_cell_length_c   9.56708552
_cell_angle_alpha   60.15595402
_cell_angle_beta   60.20981842
_cell_angle_gamma   60.21004825
_symmetry_Int_Tables_number   1
_chemical_formula_structural   Tb5Y11(AlRh)4
_chemical_formula_sum   'Tb5 Y11 Al4 Rh4'
_cell_volume   621.83521150
_cell_formula_units_Z   1
loop_
 _symmetry_equiv_pos_site_id
 _symmetry_equiv_pos_as_xyz
  1  'x, y, z'
loop_
 _atom_site_type_symbol
 _atom_site_label
 _atom_site_symmetry_multiplicity
 _atom_site_fract_x
 _atom_site_fract_y
 _atom_site_fract_z
 _atom_site_occupancy
  Tb  Tb0  1  0.599861  0.599938  0.599969  1
  Tb  Tb1  1  0.605005  0.604382  0.190140  1
  Tb  Tb2  1  0.604998  0.190148  0.604394  1
  Tb  Tb3  1  0.188712  0.605196  0.605229  1
  Tb  Tb4  1  0.057736  0.442031  0.442022  1
  Y  Y5  1  0.442624  0.057750  0.057775  1
  Y  Y6  1  0.443318  0.056442  0.442661  1
  Y  Y7  1  0.058101  0.442321  0.057536  1
  Y  Y8  1  0.443328  0.442677  0.056435  1
  Y  Y9  1  0.058120  0.057537  0.442309  1
  Y  Y10  1  0.187215  0.814275  0.814262  1
  Y  Y11  1  0.813484  0.187812  0.187799  1
  Y  Y12  1  0.814346  0.187366  0.813602  1
  Y  Y13  1  0.188412  0.812749  0.188276  1
  Y  Y14  1  0.814352  0.813614  0.187349  1
  Y  Y15  1  0.188413  0.188294  0.812738  1
  Al  Al16  1  0.828141  0.828696  0.828723  1
  Al  Al17  1  0.825576  0.826787  0.517200  1
  Al  Al18  1  0.825559  0.517203  0.826803  1
  Al  Al19  1  0.516731  0.826226  0.826228  1
  Rh  Rh20  1  0.392222  0.395392  0.395396  1
  Rh  Rh21  1  0.391105  0.391470  0.819860  1
  Rh  Rh22  1  0.391105  0.819874  0.391473  1
  Rh  Rh23  1  0.821536  0.391822  0.391821  1
