# generated using pymatgen
data_Ho3TmLu(In2Pt)2
_symmetry_space_group_name_H-M   'P 1'
_cell_length_a   3.59380700
_cell_length_b   8.13393602
_cell_length_c   18.13976261
_cell_angle_alpha   89.98088115
_cell_angle_beta   90.00000000
_cell_angle_gamma   90.00000000
_symmetry_Int_Tables_number   1
_chemical_formula_structural   Ho3TmLu(In2Pt)2
_chemical_formula_sum   'Ho6 Tm2 Lu2 In8 Pt4'
_cell_volume   530.25781449
_cell_formula_units_Z   2
loop_
 _symmetry_equiv_pos_site_id
 _symmetry_equiv_pos_as_xyz
  1  'x, y, z'
loop_
 _atom_site_type_symbol
 _atom_site_label
 _atom_site_symmetry_multiplicity
 _atom_site_fract_x
 _atom_site_fract_y
 _atom_site_fract_z
 _atom_site_occupancy
  Ho  Ho0  1  0.000000  0.242885  0.220216  1
  Ho  Ho1  1  0.000000  0.757115  0.779784  1
  Ho  Ho2  1  0.000000  0.257105  0.719914  1
  Ho  Ho3  1  0.000000  0.742895  0.280086  1
  Ho  Ho4  1  0.000000  0.000000  0.000000  1
  Ho  Ho5  1  0.000000  0.500000  0.500000  1
  Tm  Tm6  1  0.000000  0.383004  0.914559  1
  Tm  Tm7  1  0.000000  0.616996  0.085441  1
  Lu  Lu8  1  0.000000  0.116715  0.414045  1
  Lu  Lu9  1  0.000000  0.883285  0.585955  1
  In  In10  1  0.500000  0.421983  0.351244  1
  In  In11  1  0.500000  0.578017  0.648756  1
  In  In12  1  0.500000  0.076550  0.850692  1
  In  In13  1  0.500000  0.923450  0.149308  1
  In  In14  1  0.500000  0.292770  0.066454  1
  In  In15  1  0.500000  0.707230  0.933546  1
  In  In16  1  0.500000  0.205526  0.565726  1
  In  In17  1  0.500000  0.794474  0.434274  1
  Pt  Pt18  1  0.500000  0.025740  0.304780  1
  Pt  Pt19  1  0.500000  0.974260  0.695220  1
  Pt  Pt20  1  0.500000  0.474794  0.803644  1
  Pt  Pt21  1  0.500000  0.525206  0.196356  1
