# generated using pymatgen
data_Tb2Y6Tc(B8Ru)3
_symmetry_space_group_name_H-M   'P 1'
_cell_length_a   3.67798600
_cell_length_b   9.16695397
_cell_length_c   11.55543901
_cell_angle_alpha   89.91769201
_cell_angle_beta   90.00000000
_cell_angle_gamma   90.00000000
_symmetry_Int_Tables_number   1
_chemical_formula_structural   Tb2Y6Tc(B8Ru)3
_chemical_formula_sum   'Tb2 Y6 Tc1 B24 Ru3'
_cell_volume   389.60195163
_cell_formula_units_Z   1
loop_
 _symmetry_equiv_pos_site_id
 _symmetry_equiv_pos_as_xyz
  1  'x, y, z'
loop_
 _atom_site_type_symbol
 _atom_site_label
 _atom_site_symmetry_multiplicity
 _atom_site_fract_x
 _atom_site_fract_y
 _atom_site_fract_z
 _atom_site_occupancy
  Tb  Tb0  1  0.000000  0.324633  0.413097  1
  Tb  Tb1  1  0.000000  0.676341  0.583815  1
  Y  Y2  1  0.000000  0.821077  0.088066  1
  Y  Y3  1  0.000000  0.176624  0.914833  1
  Y  Y4  1  0.000000  0.943318  0.372521  1
  Y  Y5  1  0.000000  0.057149  0.628099  1
  Y  Y6  1  0.000000  0.444118  0.127893  1
  Y  Y7  1  0.000000  0.556811  0.871627  1
  Tc  Tc8  1  0.000000  0.637744  0.321161  1
  B  B9  1  0.500000  0.552977  0.432789  1
  B  B10  1  0.500000  0.446324  0.567759  1
  B  B11  1  0.500000  0.053645  0.067358  1
  B  B12  1  0.500000  0.946185  0.932917  1
  B  B13  1  0.500000  0.747631  0.419434  1
  B  B14  1  0.500000  0.252672  0.580596  1
  B  B15  1  0.500000  0.247395  0.080337  1
  B  B16  1  0.500000  0.752447  0.919550  1
  B  B17  1  0.500000  0.791189  0.266382  1
  B  B18  1  0.500000  0.209478  0.733608  1
  B  B19  1  0.500000  0.290516  0.232838  1
  B  B20  1  0.500000  0.709953  0.766425  1
  B  B21  1  0.500000  0.631827  0.185878  1
  B  B22  1  0.500000  0.367885  0.814445  1
  B  B23  1  0.500000  0.131919  0.313870  1
  B  B24  1  0.500000  0.868511  0.685741  1
  B  B25  1  0.500000  0.983527  0.212649  1
  B  B26  1  0.500000  0.016434  0.787804  1
  B  B27  1  0.500000  0.482824  0.287295  1
  B  B28  1  0.500000  0.516062  0.712626  1
  B  B29  1  0.500000  0.608894  0.029581  1
  B  B30  1  0.500000  0.390621  0.969378  1
  B  B31  1  0.500000  0.109371  0.470061  1
  B  B32  1  0.500000  0.892052  0.530577  1
  Ru  Ru33  1  0.000000  0.361827  0.679373  1
  Ru  Ru34  1  0.000000  0.137644  0.178319  1
  Ru  Ru35  1  0.000000  0.862377  0.821296  1
