# generated using pymatgen
data_Re2MoAs7
_symmetry_space_group_name_H-M   'P 1'
_cell_length_a   7.67292941
_cell_length_b   7.67293010
_cell_length_c   7.67394484
_cell_angle_alpha   109.56574172
_cell_angle_beta   109.56574648
_cell_angle_gamma   109.27694577
_symmetry_Int_Tables_number   1
_chemical_formula_structural   Re2MoAs7
_chemical_formula_sum   'Re4 Mo2 As14'
_cell_volume   347.81194120
_cell_formula_units_Z   2
loop_
 _symmetry_equiv_pos_site_id
 _symmetry_equiv_pos_as_xyz
  1  'x, y, z'
loop_
 _atom_site_type_symbol
 _atom_site_label
 _atom_site_symmetry_multiplicity
 _atom_site_fract_x
 _atom_site_fract_y
 _atom_site_fract_z
 _atom_site_occupancy
  Re  Re0  1  0.999965  0.662201  0.662166  1
  Re  Re1  1  0.340503  0.340503  0.000068  1
  Re  Re2  1  0.659565  0.659565  0.000068  1
  Re  Re3  1  0.662201  0.999965  0.662166  1
  Mo  Mo4  1  0.341272  0.000079  0.341350  1
  Mo  Mo5  1  0.000079  0.341272  0.341350  1
  As  As6  1  0.749909  0.499374  0.249283  1
  As  As7  1  0.499374  0.749909  0.249283  1
  As  As8  1  0.499436  0.250840  0.750277  1
  As  As9  1  0.749485  0.249485  0.498971  1
  As  As10  1  0.249485  0.749485  0.498971  1
  As  As11  1  0.250840  0.499436  0.750277  1
  As  As12  1  0.999562  0.999562  0.330975  1
  As  As13  1  0.668091  0.999673  0.999546  1
  As  As14  1  0.999673  0.668091  0.999546  1
  As  As15  1  0.331413  0.331413  0.330975  1
  As  As16  1  0.999873  0.331455  0.999546  1
  As  As17  1  0.667965  0.667965  0.667818  1
  As  As18  1  0.331455  0.999873  0.999546  1
  As  As19  1  0.999853  0.999853  0.667818  1
