# generated using pymatgen
data_Gd6YBCl12
_symmetry_space_group_name_H-M   'P 1'
_cell_length_a   8.75727484
_cell_length_b   8.75727351
_cell_length_c   8.75727400
_cell_angle_alpha   107.29670317
_cell_angle_beta   107.29669359
_cell_angle_gamma   107.29668878
_symmetry_Int_Tables_number   1
_chemical_formula_structural   Gd6YBCl12
_chemical_formula_sum   'Gd6 Y1 B1 Cl12'
_cell_volume   554.72090965
_cell_formula_units_Z   1
loop_
 _symmetry_equiv_pos_site_id
 _symmetry_equiv_pos_as_xyz
  1  'x, y, z'
loop_
 _atom_site_type_symbol
 _atom_site_label
 _atom_site_symmetry_multiplicity
 _atom_site_fract_x
 _atom_site_fract_y
 _atom_site_fract_z
 _atom_site_occupancy
  Gd  Gd0  1  0.109146  0.315594  0.028954  1
  Gd  Gd1  1  0.315594  0.028955  0.109145  1
  Gd  Gd2  1  0.028955  0.109145  0.315595  1
  Gd  Gd3  1  0.971046  0.890855  0.684406  1
  Gd  Gd4  1  0.684406  0.971046  0.890855  1
  Gd  Gd5  1  0.890854  0.684406  0.971046  1
  Y  Y6  1  0.500000  0.500000  0.500000  1
  B  B7  1  0.000000  0.000000  0.000000  1
  Cl  Cl8  1  0.221295  0.683624  0.074403  1
  Cl  Cl9  1  0.469147  0.387328  0.166278  1
  Cl  Cl10  1  0.683625  0.074403  0.221295  1
  Cl  Cl11  1  0.925598  0.778705  0.316376  1
  Cl  Cl12  1  0.166278  0.469147  0.387328  1
  Cl  Cl13  1  0.387328  0.166278  0.469147  1
  Cl  Cl14  1  0.612672  0.833722  0.530854  1
  Cl  Cl15  1  0.833723  0.530853  0.612672  1
  Cl  Cl16  1  0.074403  0.221295  0.683625  1
  Cl  Cl17  1  0.316376  0.925598  0.778705  1
  Cl  Cl18  1  0.530853  0.612672  0.833723  1
  Cl  Cl19  1  0.778705  0.316376  0.925597  1
