# generated using pymatgen
data_HoGa3Cu
_symmetry_space_group_name_H-M   'P 1'
_cell_length_a   4.07540615
_cell_length_b   4.07508382
_cell_length_c   6.12461363
_cell_angle_alpha   70.56842139
_cell_angle_beta   70.56683306
_cell_angle_gamma   90.00000478
_symmetry_Int_Tables_number   1
_chemical_formula_structural   HoGa3Cu
_chemical_formula_sum   'Ho1 Ga3 Cu1'
_cell_volume   89.75352819
_cell_formula_units_Z   1
loop_
 _symmetry_equiv_pos_site_id
 _symmetry_equiv_pos_as_xyz
  1  'x, y, z'
loop_
 _atom_site_type_symbol
 _atom_site_label
 _atom_site_symmetry_multiplicity
 _atom_site_fract_x
 _atom_site_fract_y
 _atom_site_fract_z
 _atom_site_occupancy
  Ho  Ho0  1  0.993634  0.993634  0.012732  1
  Ga  Ga1  1  0.400232  0.400232  0.199537  1
  Ga  Ga2  1  0.744356  0.244356  0.511289  1
  Ga  Ga3  1  0.244368  0.744368  0.511265  1
  Cu  Cu4  1  0.617411  0.617411  0.765178  1
