# generated using pymatgen
data_Li8Y8BiPb7
_symmetry_space_group_name_H-M   'P 1'
_cell_length_a   9.54283669
_cell_length_b   9.54283753
_cell_length_c   7.37218882
_cell_angle_alpha   90.08217656
_cell_angle_beta   89.91781978
_cell_angle_gamma   119.97685163
_symmetry_Int_Tables_number   1
_chemical_formula_structural   Li8Y8BiPb7
_chemical_formula_sum   'Li8 Y8 Bi1 Pb7'
_cell_volume   581.54424581
_cell_formula_units_Z   1
loop_
 _symmetry_equiv_pos_site_id
 _symmetry_equiv_pos_as_xyz
  1  'x, y, z'
loop_
 _atom_site_type_symbol
 _atom_site_label
 _atom_site_symmetry_multiplicity
 _atom_site_fract_x
 _atom_site_fract_y
 _atom_site_fract_z
 _atom_site_occupancy
  Li  Li0  1  0.166714  0.833286  0.196349  1
  Li  Li1  1  0.335174  0.169998  0.690999  1
  Li  Li2  1  0.830002  0.664826  0.690999  1
  Li  Li3  1  0.168021  0.334434  0.193820  1
  Li  Li4  1  0.665566  0.831979  0.193820  1
  Li  Li5  1  0.833272  0.166728  0.694753  1
  Li  Li6  1  0.334819  0.665181  0.814759  1
  Li  Li7  1  0.666176  0.333824  0.312960  1
  Y  Y8  1  0.513188  0.486812  0.991608  1
  Y  Y9  1  0.022783  0.508522  0.489622  1
  Y  Y10  1  0.491478  0.977217  0.489622  1
  Y  Y11  1  0.516487  0.026835  0.993561  1
  Y  Y12  1  0.973165  0.483513  0.993561  1
  Y  Y13  1  0.486730  0.513270  0.490667  1
  Y  Y14  1  0.998107  0.001893  0.986895  1
  Y  Y15  1  0.998441  0.001559  0.483392  1
  Bi  Bi16  1  0.166654  0.833346  0.753881  1
  Pb  Pb17  1  0.333247  0.165957  0.255992  1
  Pb  Pb18  1  0.834043  0.666753  0.255992  1
  Pb  Pb19  1  0.166391  0.333496  0.756425  1
  Pb  Pb20  1  0.666504  0.833609  0.756425  1
  Pb  Pb21  1  0.833388  0.166612  0.255672  1
  Pb  Pb22  1  0.332651  0.667349  0.224422  1
  Pb  Pb23  1  0.666998  0.333002  0.723807  1
