# generated using pymatgen
data_TbY7(HgIr)2
_symmetry_space_group_name_H-M   'P 1'
_cell_length_a   9.63592405
_cell_length_b   9.63592264
_cell_length_c   9.64538000
_cell_angle_alpha   59.96752796
_cell_angle_beta   59.96753280
_cell_angle_gamma   59.94488859
_symmetry_Int_Tables_number   1
_chemical_formula_structural   TbY7(HgIr)2
_chemical_formula_sum   'Tb2 Y14 Hg4 Ir4'
_cell_volume   632.69829834
_cell_formula_units_Z   2
loop_
 _symmetry_equiv_pos_site_id
 _symmetry_equiv_pos_as_xyz
  1  'x, y, z'
loop_
 _atom_site_type_symbol
 _atom_site_label
 _atom_site_symmetry_multiplicity
 _atom_site_fract_x
 _atom_site_fract_y
 _atom_site_fract_z
 _atom_site_occupancy
  Tb  Tb0  1  0.350677  0.350677  0.349848  1
  Tb  Tb1  1  0.350677  0.350677  0.948798  1
  Y  Y2  1  0.351987  0.946159  0.350927  1
  Y  Y3  1  0.946159  0.351987  0.350927  1
  Y  Y4  1  0.809274  0.189439  0.191353  1
  Y  Y5  1  0.189439  0.809274  0.809934  1
  Y  Y6  1  0.189439  0.809274  0.191353  1
  Y  Y7  1  0.809274  0.189439  0.809934  1
  Y  Y8  1  0.190363  0.190363  0.809637  1
  Y  Y9  1  0.809533  0.809533  0.190467  1
  Y  Y10  1  0.939207  0.561314  0.561715  1
  Y  Y11  1  0.561314  0.939207  0.937764  1
  Y  Y12  1  0.561314  0.939207  0.561715  1
  Y  Y13  1  0.939207  0.561314  0.937764  1
  Y  Y14  1  0.561383  0.561383  0.938617  1
  Y  Y15  1  0.938341  0.938341  0.561659  1
  Hg  Hg16  1  0.584680  0.584680  0.584417  1
  Hg  Hg17  1  0.584680  0.584680  0.246225  1
  Hg  Hg18  1  0.584945  0.245534  0.584761  1
  Hg  Hg19  1  0.245534  0.584945  0.584761  1
  Ir  Ir20  1  0.142511  0.142511  0.140639  1
  Ir  Ir21  1  0.142511  0.142511  0.574340  1
  Ir  Ir22  1  0.143359  0.574192  0.141225  1
  Ir  Ir23  1  0.574192  0.143359  0.141225  1
