# generated using pymatgen
data_Tb2Co9P7Ru3
_symmetry_space_group_name_H-M   'P 1'
_cell_length_a   3.68081200
_cell_length_b   9.03953694
_cell_length_c   9.03974802
_cell_angle_alpha   120.00107892
_cell_angle_beta   90.00000000
_cell_angle_gamma   90.00000000
_symmetry_Int_Tables_number   1
_chemical_formula_structural   Tb2Co9P7Ru3
_chemical_formula_sum   'Tb2 Co9 P7 Ru3'
_cell_volume   260.47860362
_cell_formula_units_Z   1
loop_
 _symmetry_equiv_pos_site_id
 _symmetry_equiv_pos_as_xyz
  1  'x, y, z'
loop_
 _atom_site_type_symbol
 _atom_site_label
 _atom_site_symmetry_multiplicity
 _atom_site_fract_x
 _atom_site_fract_y
 _atom_site_fract_z
 _atom_site_occupancy
  Tb  Tb0  1  0.000000  0.666655  0.333238  1
  Tb  Tb1  1  0.500000  0.333328  0.666745  1
  Co  Co2  1  0.000000  0.372825  0.938742  1
  Co  Co3  1  0.000000  0.061236  0.434062  1
  Co  Co4  1  0.000000  0.565928  0.627160  1
  Co  Co5  1  0.000000  0.877320  0.718674  1
  Co  Co6  1  0.000000  0.281356  0.158628  1
  Co  Co7  1  0.000000  0.841286  0.122703  1
  Co  Co8  1  0.500000  0.944871  0.560859  1
  Co  Co9  1  0.500000  0.439120  0.383975  1
  Co  Co10  1  0.500000  0.616020  0.055153  1
  P  P11  1  0.000000  0.110516  0.700495  1
  P  P12  1  0.000000  0.299558  0.409976  1
  P  P13  1  0.000000  0.590049  0.889605  1
  P  P14  1  0.500000  0.708723  0.593610  1
  P  P15  1  0.500000  0.406375  0.115110  1
  P  P16  1  0.500000  0.884821  0.291240  1
  P  P17  1  0.000000  0.000001  0.000012  1
  Ru  Ru18  1  0.500000  0.124380  0.899110  1
  Ru  Ru19  1  0.500000  0.100904  0.225200  1
  Ru  Ru20  1  0.500000  0.774728  0.875702  1
