# generated using pymatgen
data_Y2Si14Ir5Os
_symmetry_space_group_name_H-M   'P 1'
_cell_length_a   8.02957964
_cell_length_b   8.02958066
_cell_length_c   8.05036476
_cell_angle_alpha   56.72283659
_cell_angle_beta   56.72283312
_cell_angle_gamma   56.77527258
_symmetry_Int_Tables_number   1
_chemical_formula_structural   Y2Si14Ir5Os
_chemical_formula_sum   'Y2 Si14 Ir5 Os1'
_cell_volume   339.39645031
_cell_formula_units_Z   1
loop_
 _symmetry_equiv_pos_site_id
 _symmetry_equiv_pos_as_xyz
  1  'x, y, z'
loop_
 _atom_site_type_symbol
 _atom_site_label
 _atom_site_symmetry_multiplicity
 _atom_site_fract_x
 _atom_site_fract_y
 _atom_site_fract_z
 _atom_site_occupancy
  Y  Y0  1  0.000892  0.002734  0.997410  1
  Y  Y1  1  0.497266  0.499108  0.502590  1
  Si  Si2  1  0.752657  0.747343  0.750000  1
  Si  Si3  1  0.249342  0.250658  0.250000  1
  Si  Si4  1  0.850578  0.064549  0.672286  1
  Si  Si5  1  0.672098  0.851664  0.064059  1
  Si  Si6  1  0.064935  0.669882  0.850906  1
  Si  Si7  1  0.648336  0.827902  0.435941  1
  Si  Si8  1  0.435451  0.649422  0.827714  1
  Si  Si9  1  0.830118  0.435065  0.649094  1
  Si  Si10  1  0.170703  0.564397  0.354479  1
  Si  Si11  1  0.564603  0.351407  0.171847  1
  Si  Si12  1  0.350288  0.173222  0.564527  1
  Si  Si13  1  0.935603  0.329297  0.145521  1
  Si  Si14  1  0.326778  0.149712  0.935473  1
  Si  Si15  1  0.148593  0.935397  0.328153  1
  Ir  Ir16  1  0.250392  0.928356  0.570835  1
  Ir  Ir17  1  0.571644  0.249608  0.929165  1
  Ir  Ir18  1  0.927562  0.572438  0.250000  1
  Ir  Ir19  1  0.428557  0.750360  0.071266  1
  Ir  Ir20  1  0.749640  0.071443  0.428734  1
  Os  Os21  1  0.073964  0.426036  0.750000  1
