# generated using pymatgen
data_La6Ga8Si3Ge
_symmetry_space_group_name_H-M   'P 1'
_cell_length_a   4.31041176
_cell_length_b   4.41563958
_cell_length_c   22.15823727
_cell_angle_alpha   84.28162027
_cell_angle_beta   84.41832971
_cell_angle_gamma   89.99999415
_symmetry_Int_Tables_number   1
_chemical_formula_structural   La6Ga8Si3Ge
_chemical_formula_sum   'La6 Ga8 Si3 Ge1'
_cell_volume   417.63426194
_cell_formula_units_Z   1
loop_
 _symmetry_equiv_pos_site_id
 _symmetry_equiv_pos_as_xyz
  1  'x, y, z'
loop_
 _atom_site_type_symbol
 _atom_site_label
 _atom_site_symmetry_multiplicity
 _atom_site_fract_x
 _atom_site_fract_y
 _atom_site_fract_z
 _atom_site_occupancy
  La  La0  1  0.958514  0.708514  0.082970  1
  La  La1  1  0.290466  0.040466  0.419071  1
  La  La2  1  0.623788  0.373788  0.752423  1
  La  La3  1  0.376305  0.626305  0.247391  1
  La  La4  1  0.709062  0.959062  0.581875  1
  La  La5  1  0.041344  0.291344  0.917313  1
  Ga  Ga6  1  0.819858  0.569858  0.360285  1
  Ga  Ga7  1  0.152957  0.902957  0.694087  1
  Ga  Ga8  1  0.432401  0.182401  0.135198  1
  Ga  Ga9  1  0.763889  0.513889  0.472220  1
  Ga  Ga10  1  0.096773  0.846773  0.806454  1
  Ga  Ga11  1  0.846543  0.096543  0.306914  1
  Ga  Ga12  1  0.180405  0.430405  0.639189  1
  Ga  Ga13  1  0.513371  0.763371  0.973257  1
  Si  Si14  1  0.235624  0.485624  0.528752  1
  Si  Si15  1  0.568677  0.818677  0.862645  1
  Si  Si16  1  0.487334  0.237334  0.025331  1
  Ge  Ge17  1  0.902689  0.152689  0.194624  1
