# generated using pymatgen
data_Pa4Co3Hg2Pt
_symmetry_space_group_name_H-M   'P 1'
_cell_length_a   7.58298117
_cell_length_b   7.58298117
_cell_length_c   3.46099500
_cell_angle_alpha   90.00000000
_cell_angle_beta   90.00000000
_cell_angle_gamma   89.41689833
_symmetry_Int_Tables_number   1
_chemical_formula_structural   Pa4Co3Hg2Pt
_chemical_formula_sum   'Pa4 Co3 Hg2 Pt1'
_cell_volume   199.00245610
_cell_formula_units_Z   1
loop_
 _symmetry_equiv_pos_site_id
 _symmetry_equiv_pos_as_xyz
  1  'x, y, z'
loop_
 _atom_site_type_symbol
 _atom_site_label
 _atom_site_symmetry_multiplicity
 _atom_site_fract_x
 _atom_site_fract_y
 _atom_site_fract_z
 _atom_site_occupancy
  Pa  Pa0  1  0.331575  0.183380  0.500000  1
  Pa  Pa1  1  0.826807  0.326807  0.500000  1
  Pa  Pa2  1  0.151672  0.651672  0.500000  1
  Pa  Pa3  1  0.683380  0.831575  0.500000  1
  Co  Co4  1  0.634034  0.134034  0.000000  1
  Co  Co5  1  0.128606  0.369336  0.000000  1
  Co  Co6  1  0.869336  0.628606  0.000000  1
  Hg  Hg7  1  0.998977  0.003672  0.000000  1
  Hg  Hg8  1  0.503672  0.498977  0.000000  1
  Pt  Pt9  1  0.371941  0.871941  0.000000  1
