# generated using pymatgen
data_TbEr7SbPd24
_symmetry_space_group_name_H-M   'P 1'
_cell_length_a   8.36951256
_cell_length_b   8.36951256
_cell_length_c   8.36951256
_cell_angle_alpha   89.95061156
_cell_angle_beta   89.95061156
_cell_angle_gamma   90.04938844
_symmetry_Int_Tables_number   1
_chemical_formula_structural   TbEr7SbPd24
_chemical_formula_sum   'Tb1 Er7 Sb1 Pd24'
_cell_volume   586.27315858
_cell_formula_units_Z   1
loop_
 _symmetry_equiv_pos_site_id
 _symmetry_equiv_pos_as_xyz
  1  'x, y, z'
loop_
 _atom_site_type_symbol
 _atom_site_label
 _atom_site_symmetry_multiplicity
 _atom_site_fract_x
 _atom_site_fract_y
 _atom_site_fract_z
 _atom_site_occupancy
  Tb  Tb0  1  0.745751  0.745751  0.254249  1
  Er  Er1  1  0.745400  0.254664  0.745336  1
  Er  Er2  1  0.254664  0.745400  0.745336  1
  Er  Er3  1  0.745379  0.745379  0.745444  1
  Er  Er4  1  0.745379  0.254556  0.254621  1
  Er  Er5  1  0.254601  0.254601  0.745399  1
  Er  Er6  1  0.254556  0.745379  0.254621  1
  Er  Er7  1  0.254664  0.254664  0.254600  1
  Sb  Sb8  1  0.999851  0.999851  0.000149  1
  Pd  Pd9  1  0.000514  0.000514  0.304522  1
  Pd  Pd10  1  0.736006  0.000590  0.500490  1
  Pd  Pd11  1  0.736006  0.499510  0.999410  1
  Pd  Pd12  1  0.499954  0.000003  0.735994  1
  Pd  Pd13  1  0.000590  0.736006  0.500490  1
  Pd  Pd14  1  0.499510  0.000590  0.263994  1
  Pd  Pd15  1  0.000003  0.264006  0.500046  1
  Pd  Pd16  1  0.499510  0.736006  0.999410  1
  Pd  Pd17  1  0.254460  0.499984  0.500016  1
  Pd  Pd18  1  0.499984  0.499984  0.745540  1
  Pd  Pd19  1  0.499376  0.499376  0.254486  1
  Pd  Pd20  1  0.499984  0.254460  0.500016  1
  Pd  Pd21  1  0.499376  0.745514  0.500624  1
  Pd  Pd22  1  0.745514  0.499376  0.500624  1
  Pd  Pd23  1  0.304312  0.000052  0.999948  1
  Pd  Pd24  1  0.000052  0.000052  0.695688  1
  Pd  Pd25  1  0.000590  0.499510  0.263994  1
  Pd  Pd26  1  0.000052  0.304312  0.999948  1
  Pd  Pd27  1  0.000514  0.695478  0.999486  1
  Pd  Pd28  1  0.695478  0.000514  0.999486  1
  Pd  Pd29  1  0.264006  0.499954  0.999997  1
  Pd  Pd30  1  0.264006  0.000003  0.500046  1
  Pd  Pd31  1  0.000003  0.499954  0.735994  1
  Pd  Pd32  1  0.499954  0.264006  0.999997  1
