# generated using pymatgen
data_TbDy2Pa(Al8Pt3)3
_symmetry_space_group_name_H-M   'P 1'
_cell_length_a   7.55274683
_cell_length_b   7.56335210
_cell_length_c   13.14597522
_cell_angle_alpha   84.51235376
_cell_angle_beta   78.95830234
_cell_angle_gamma   59.91585683
_symmetry_Int_Tables_number   1
_chemical_formula_structural   TbDy2Pa(Al8Pt3)3
_chemical_formula_sum   'Tb1 Dy2 Pa1 Al24 Pt9'
_cell_volume   637.76225142
_cell_formula_units_Z   1
loop_
 _symmetry_equiv_pos_site_id
 _symmetry_equiv_pos_as_xyz
  1  'x, y, z'
loop_
 _atom_site_type_symbol
 _atom_site_label
 _atom_site_symmetry_multiplicity
 _atom_site_fract_x
 _atom_site_fract_y
 _atom_site_fract_z
 _atom_site_occupancy
  Tb  Tb0  1  0.266502  0.501336  0.192077  1
  Dy  Dy1  1  0.606249  0.831578  0.192130  1
  Dy  Dy2  1  0.733739  0.498692  0.807923  1
  Pa  Pa3  1  0.395346  0.168271  0.804498  1
  Al  Al4  1  0.684287  0.833413  0.944432  1
  Al  Al5  1  0.315373  0.166126  0.055071  1
  Al  Al6  1  0.146677  0.832793  0.560997  1
  Al  Al7  1  0.854360  0.167251  0.438058  1
  Al  Al8  1  0.480772  0.166635  0.558105  1
  Al  Al9  1  0.519837  0.832227  0.440911  1
  Al  Al10  1  0.217350  0.165243  0.331135  1
  Al  Al11  1  0.785223  0.832312  0.669269  1
  Al  Al12  1  0.437883  0.508892  0.669550  1
  Al  Al13  1  0.561996  0.493751  0.330428  1
  Al  Al14  1  0.107861  0.159823  0.668083  1
  Al  Al15  1  0.889668  0.839807  0.331629  1
  Al  Al16  1  0.352758  0.499754  0.944289  1
  Al  Al17  1  0.647435  0.500495  0.055790  1
  Al  Al18  1  0.014969  0.167775  0.953492  1
  Al  Al19  1  0.984252  0.832803  0.047140  1
  Al  Al20  1  0.185720  0.500367  0.441063  1
  Al  Al21  1  0.813571  0.500476  0.558597  1
  Al  Al22  1  0.734635  0.163663  0.183734  1
  Al  Al23  1  0.263552  0.838210  0.817126  1
  Al  Al24  1  0.063290  0.631088  0.815854  1
  Al  Al25  1  0.938439  0.368867  0.184886  1
  Al  Al26  1  0.855479  0.039777  0.816632  1
  Al  Al27  1  0.144593  0.958669  0.184111  1
  Pt  Pt28  1  0.120452  0.491036  0.640000  1
  Pt  Pt29  1  0.879368  0.507959  0.361663  1
  Pt  Pt30  1  0.656867  0.171816  0.999229  1
  Pt  Pt31  1  0.343476  0.828025  0.999361  1
  Pt  Pt32  1  0.537521  0.166500  0.362064  1
  Pt  Pt33  1  0.462228  0.833730  0.639755  1
  Pt  Pt34  1  0.778090  0.175270  0.638723  1
  Pt  Pt35  1  0.220601  0.825237  0.362928  1
  Pt  Pt36  1  0.999580  0.500336  0.999273  1
