# generated using pymatgen
data_Ho4Er4B24OsRu3
_symmetry_space_group_name_H-M   'P 1'
_cell_length_a   3.63849300
_cell_length_b   9.10780511
_cell_length_c   11.48435400
_cell_angle_alpha   90.03859175
_cell_angle_beta   90.00000000
_cell_angle_gamma   90.00000000
_symmetry_Int_Tables_number   1
_chemical_formula_structural   Ho4Er4B24OsRu3
_chemical_formula_sum   'Ho4 Er4 B24 Os1 Ru3'
_cell_volume   380.57630497
_cell_formula_units_Z   1
loop_
 _symmetry_equiv_pos_site_id
 _symmetry_equiv_pos_as_xyz
  1  'x, y, z'
loop_
 _atom_site_type_symbol
 _atom_site_label
 _atom_site_symmetry_multiplicity
 _atom_site_fract_x
 _atom_site_fract_y
 _atom_site_fract_z
 _atom_site_occupancy
  Ho  Ho0  1  0.000000  0.322524  0.414114  1
  Ho  Ho1  1  0.000000  0.678092  0.586278  1
  Ho  Ho2  1  0.000000  0.822126  0.085787  1
  Ho  Ho3  1  0.000000  0.177610  0.914069  1
  Er  Er4  1  0.000000  0.943752  0.372255  1
  Er  Er5  1  0.000000  0.056522  0.626954  1
  Er  Er6  1  0.000000  0.443626  0.127750  1
  Er  Er7  1  0.000000  0.555600  0.872776  1
  B  B8  1  0.500000  0.554173  0.433223  1
  B  B9  1  0.500000  0.446062  0.566827  1
  B  B10  1  0.500000  0.054072  0.066917  1
  B  B11  1  0.500000  0.946112  0.933243  1
  B  B12  1  0.500000  0.748462  0.419942  1
  B  B13  1  0.500000  0.251859  0.579933  1
  B  B14  1  0.500000  0.248401  0.080139  1
  B  B15  1  0.500000  0.751430  0.919892  1
  B  B16  1  0.500000  0.791300  0.266130  1
  B  B17  1  0.500000  0.208651  0.733699  1
  B  B18  1  0.500000  0.291346  0.233903  1
  B  B19  1  0.500000  0.708364  0.766186  1
  B  B20  1  0.500000  0.631598  0.184990  1
  B  B21  1  0.500000  0.368167  0.815078  1
  B  B22  1  0.500000  0.131682  0.315019  1
  B  B23  1  0.500000  0.868485  0.685023  1
  B  B24  1  0.500000  0.983130  0.213011  1
  B  B25  1  0.500000  0.017141  0.786882  1
  B  B26  1  0.500000  0.483159  0.287066  1
  B  B27  1  0.500000  0.516800  0.713061  1
  B  B28  1  0.500000  0.606904  0.029726  1
  B  B29  1  0.500000  0.392572  0.970514  1
  B  B30  1  0.500000  0.107470  0.470140  1
  B  B31  1  0.500000  0.892986  0.529441  1
  Os  Os32  1  0.000000  0.862198  0.821156  1
  Ru  Ru33  1  0.000000  0.637721  0.321048  1
  Ru  Ru34  1  0.000000  0.362267  0.679018  1
  Ru  Ru35  1  0.000000  0.137639  0.178813  1
