# generated using pymatgen
data_Ta12Fe7Co(ReN)4
_symmetry_space_group_name_H-M   'P 1'
_cell_length_a   8.10970741
_cell_length_b   8.11330668
_cell_length_c   8.11251000
_cell_angle_alpha   60.00324819
_cell_angle_beta   59.98856748
_cell_angle_gamma   59.97422348
_symmetry_Int_Tables_number   1
_chemical_formula_structural   Ta12Fe7Co(ReN)4
_chemical_formula_sum   'Ta12 Fe7 Co1 Re4 N4'
_cell_volume   377.33907602
_cell_formula_units_Z   1
loop_
 _symmetry_equiv_pos_site_id
 _symmetry_equiv_pos_as_xyz
  1  'x, y, z'
loop_
 _atom_site_type_symbol
 _atom_site_label
 _atom_site_symmetry_multiplicity
 _atom_site_fract_x
 _atom_site_fract_y
 _atom_site_fract_z
 _atom_site_occupancy
  Ta  Ta0  1  0.805330  0.806400  0.194134  1
  Ta  Ta1  1  0.193907  0.193986  0.806054  1
  Ta  Ta2  1  0.805436  0.194253  0.806188  1
  Ta  Ta3  1  0.193946  0.805862  0.194365  1
  Ta  Ta4  1  0.193946  0.805862  0.805827  1
  Ta  Ta5  1  0.805436  0.194253  0.194121  1
  Ta  Ta6  1  0.443966  0.444318  0.055858  1
  Ta  Ta7  1  0.055339  0.055519  0.444571  1
  Ta  Ta8  1  0.444044  0.055642  0.444534  1
  Ta  Ta9  1  0.055152  0.444754  0.055356  1
  Ta  Ta10  1  0.055152  0.444754  0.444737  1
  Ta  Ta11  1  0.444044  0.055642  0.055782  1
  Fe  Fe12  1  0.423364  0.731468  0.422583  1
  Fe  Fe13  1  0.423151  0.422868  0.731316  1
  Fe  Fe14  1  0.423151  0.422868  0.422666  1
  Fe  Fe15  1  0.517912  0.827350  0.827369  1
  Fe  Fe16  1  0.827014  0.517617  0.827685  1
  Fe  Fe17  1  0.827030  0.827582  0.517827  1
  Fe  Fe18  1  0.827030  0.827582  0.827560  1
  Co  Co19  1  0.737099  0.420984  0.420958  1
  Re  Re20  1  0.125163  0.624920  0.624959  1
  Re  Re21  1  0.624960  0.124936  0.625052  1
  Re  Re22  1  0.624958  0.625061  0.124932  1
  Re  Re23  1  0.624958  0.625061  0.625049  1
  N  N24  1  0.624960  0.125000  0.125020  1
  N  N25  1  0.124529  0.625070  0.125200  1
  N  N26  1  0.124509  0.125193  0.625088  1
  N  N27  1  0.124509  0.125193  0.125210  1
