# generated using pymatgen
data_CrFe4SbO8
_symmetry_space_group_name_H-M   'P 1'
_cell_length_a   6.18762069
_cell_length_b   6.18647030
_cell_length_c   6.14775460
_cell_angle_alpha   61.64016432
_cell_angle_beta   61.64079764
_cell_angle_gamma   58.72197486
_symmetry_Int_Tables_number   1
_chemical_formula_structural   CrFe4SbO8
_chemical_formula_sum   'Cr1 Fe4 Sb1 O8'
_cell_volume   168.63276882
_cell_formula_units_Z   1
loop_
 _symmetry_equiv_pos_site_id
 _symmetry_equiv_pos_as_xyz
  1  'x, y, z'
loop_
 _atom_site_type_symbol
 _atom_site_label
 _atom_site_symmetry_multiplicity
 _atom_site_fract_x
 _atom_site_fract_y
 _atom_site_fract_z
 _atom_site_occupancy
  Cr  Cr0  1  0.000000  0.000000  0.500000  1
  Fe  Fe1  1  0.361825  0.361735  0.905677  1
  Fe  Fe2  1  0.638175  0.638265  0.094323  1
  Fe  Fe3  1  0.000000  0.500000  0.500000  1
  Fe  Fe4  1  0.500000  0.000000  0.500000  1
  Sb  Sb5  1  0.000000  0.000000  0.000000  1
  O  O6  1  0.224057  0.224024  0.298481  1
  O  O7  1  0.220705  0.220736  0.777053  1
  O  O8  1  0.228200  0.776244  0.750865  1
  O  O9  1  0.776257  0.228204  0.750880  1
  O  O10  1  0.775943  0.775976  0.701519  1
  O  O11  1  0.779295  0.779264  0.222947  1
  O  O12  1  0.771800  0.223756  0.249135  1
  O  O13  1  0.223743  0.771796  0.249120  1
