# generated using pymatgen
data_SmHo3GeBr6
_symmetry_space_group_name_H-M   'P 1'
_cell_length_a   4.08834300
_cell_length_b   13.31460754
_cell_length_c   14.08968973
_cell_angle_alpha   90.45399679
_cell_angle_beta   90.00000000
_cell_angle_gamma   90.00000000
_symmetry_Int_Tables_number   1
_chemical_formula_structural   SmHo3GeBr6
_chemical_formula_sum   'Sm2 Ho6 Ge2 Br12'
_cell_volume   766.94370989
_cell_formula_units_Z   2
loop_
 _symmetry_equiv_pos_site_id
 _symmetry_equiv_pos_as_xyz
  1  'x, y, z'
loop_
 _atom_site_type_symbol
 _atom_site_label
 _atom_site_symmetry_multiplicity
 _atom_site_fract_x
 _atom_site_fract_y
 _atom_site_fract_z
 _atom_site_occupancy
  Sm  Sm0  1  0.000000  0.621312  0.919354  1
  Sm  Sm1  1  0.000000  0.378688  0.080646  1
  Ho  Ho2  1  0.500000  0.117725  0.341484  1
  Ho  Ho3  1  0.500000  0.882275  0.658516  1
  Ho  Ho4  1  0.500000  0.618833  0.159607  1
  Ho  Ho5  1  0.500000  0.381167  0.840393  1
  Ho  Ho6  1  0.000000  0.117578  0.578297  1
  Ho  Ho7  1  0.000000  0.882422  0.421703  1
  Ge  Ge8  1  0.500000  0.000000  0.500000  1
  Ge  Ge9  1  0.500000  0.500000  0.000000  1
  Br  Br10  1  0.500000  0.238610  0.167439  1
  Br  Br11  1  0.500000  0.761390  0.832561  1
  Br  Br12  1  0.500000  0.746792  0.337550  1
  Br  Br13  1  0.500000  0.253208  0.662450  1
  Br  Br14  1  0.000000  0.252485  0.411992  1
  Br  Br15  1  0.000000  0.747515  0.588008  1
  Br  Br16  1  0.000000  0.754889  0.093505  1
  Br  Br17  1  0.000000  0.245111  0.906495  1
  Br  Br18  1  0.000000  0.002033  0.245711  1
  Br  Br19  1  0.000000  0.997967  0.754289  1
  Br  Br20  1  0.000000  0.507188  0.258272  1
  Br  Br21  1  0.000000  0.492812  0.741728  1
