# generated using pymatgen
data_AcAs2
_symmetry_space_group_name_H-M   'P 1'
_cell_length_a   10.06663324
_cell_length_b   10.06662280
_cell_length_c   9.41590218
_cell_angle_alpha   62.09893173
_cell_angle_beta   62.09882229
_cell_angle_gamma   96.82335078
_symmetry_Int_Tables_number   1
_chemical_formula_structural   AcAs2
_chemical_formula_sum   'Ac8 As16'
_cell_volume   671.93690291
_cell_formula_units_Z   8
loop_
 _symmetry_equiv_pos_site_id
 _symmetry_equiv_pos_as_xyz
  1  'x, y, z'
loop_
 _atom_site_type_symbol
 _atom_site_label
 _atom_site_symmetry_multiplicity
 _atom_site_fract_x
 _atom_site_fract_y
 _atom_site_fract_z
 _atom_site_occupancy
  Ac  Ac0  1  0.704235  0.098251  0.782595  1
  Ac  Ac1  1  0.098249  0.704233  0.282600  1
  Ac  Ac2  1  0.884554  0.328255  0.180589  1
  Ac  Ac3  1  0.328252  0.884553  0.680586  1
  Ac  Ac4  1  0.727468  0.643565  0.880284  1
  Ac  Ac5  1  0.643565  0.727464  0.380287  1
  Ac  Ac6  1  0.249863  0.331190  0.577786  1
  Ac  Ac7  1  0.331186  0.249863  0.077789  1
  As  As8  1  0.595481  0.343565  0.545639  1
  As  As9  1  0.343567  0.595483  0.045637  1
  As  As10  1  0.710276  0.463333  0.672355  1
  As  As11  1  0.463334  0.710276  0.172354  1
  As  As12  1  0.339143  0.082848  0.862708  1
  As  As13  1  0.082848  0.339144  0.362708  1
  As  As14  1  0.053641  0.557883  0.705745  1
  As  As15  1  0.557884  0.053641  0.205744  1
  As  As16  1  0.868423  0.124406  0.006091  1
  As  As17  1  0.124407  0.868423  0.506090  1
  As  As18  1  0.951474  0.003801  0.250647  1
  As  As19  1  0.003801  0.951474  0.750647  1
  As  As20  1  0.523477  0.265707  0.272640  1
  As  As21  1  0.265706  0.523477  0.772640  1
  As  As22  1  0.694513  0.929533  0.562059  1
  As  As23  1  0.929533  0.694514  0.062058  1
