# generated using pymatgen
data_Pr8MgHgOs2
_symmetry_space_group_name_H-M   'P 1'
_cell_length_a   10.03297161
_cell_length_b   10.03297225
_cell_length_c   10.07410200
_cell_angle_alpha   59.86430470
_cell_angle_beta   59.86430259
_cell_angle_gamma   60.11748206
_symmetry_Int_Tables_number   1
_chemical_formula_structural   Pr8MgHgOs2
_chemical_formula_sum   'Pr16 Mg2 Hg2 Os4'
_cell_volume   716.20813386
_cell_formula_units_Z   2
loop_
 _symmetry_equiv_pos_site_id
 _symmetry_equiv_pos_as_xyz
  1  'x, y, z'
loop_
 _atom_site_type_symbol
 _atom_site_label
 _atom_site_symmetry_multiplicity
 _atom_site_fract_x
 _atom_site_fract_y
 _atom_site_fract_z
 _atom_site_occupancy
  Pr  Pr0  1  0.343453  0.343453  0.345169  1
  Pr  Pr1  1  0.343453  0.343453  0.967925  1
  Pr  Pr2  1  0.344952  0.963001  0.346024  1
  Pr  Pr3  1  0.963001  0.344952  0.346024  1
  Pr  Pr4  1  0.809120  0.191368  0.188733  1
  Pr  Pr5  1  0.191368  0.809120  0.810779  1
  Pr  Pr6  1  0.191368  0.809120  0.188733  1
  Pr  Pr7  1  0.809120  0.191368  0.810779  1
  Pr  Pr8  1  0.189519  0.189519  0.810481  1
  Pr  Pr9  1  0.806367  0.806367  0.193633  1
  Pr  Pr10  1  0.938035  0.560525  0.558963  1
  Pr  Pr11  1  0.560525  0.938035  0.942477  1
  Pr  Pr12  1  0.560525  0.938035  0.558963  1
  Pr  Pr13  1  0.938035  0.560525  0.942477  1
  Pr  Pr14  1  0.559661  0.559661  0.940339  1
  Pr  Pr15  1  0.941235  0.941235  0.558765  1
  Mg  Mg16  1  0.579760  0.277574  0.571333  1
  Mg  Mg17  1  0.277574  0.579760  0.571333  1
  Hg  Hg18  1  0.579812  0.579812  0.588908  1
  Hg  Hg19  1  0.579812  0.579812  0.251470  1
  Os  Os20  1  0.136205  0.136205  0.140375  1
  Os  Os21  1  0.136205  0.136205  0.587214  1
  Os  Os22  1  0.135777  0.585120  0.139551  1
  Os  Os23  1  0.585120  0.135777  0.139551  1
