# generated using pymatgen
data_Ca2Dy2Al15(SiIr2)3
_symmetry_space_group_name_H-M   'P 1'
_cell_length_a   7.53476648
_cell_length_b   7.53271170
_cell_length_c   9.37760703
_cell_angle_alpha   89.94698189
_cell_angle_beta   89.93934439
_cell_angle_gamma   119.75042324
_symmetry_Int_Tables_number   1
_chemical_formula_structural   Ca2Dy2Al15(SiIr2)3
_chemical_formula_sum   'Ca2 Dy2 Al15 Si3 Ir6'
_cell_volume   462.09330660
_cell_formula_units_Z   1
loop_
 _symmetry_equiv_pos_site_id
 _symmetry_equiv_pos_as_xyz
  1  'x, y, z'
loop_
 _atom_site_type_symbol
 _atom_site_label
 _atom_site_symmetry_multiplicity
 _atom_site_fract_x
 _atom_site_fract_y
 _atom_site_fract_z
 _atom_site_occupancy
  Ca  Ca0  1  0.994338  0.668511  0.748151  1
  Ca  Ca1  1  0.004919  0.326076  0.253237  1
  Dy  Dy2  1  0.680562  0.002639  0.747467  1
  Dy  Dy3  1  0.324376  0.003972  0.249841  1
  Al  Al4  1  0.997307  0.667204  0.423399  1
  Al  Al5  1  0.998741  0.663630  0.074210  1
  Al  Al6  1  0.334839  0.999210  0.923737  1
  Al  Al7  1  0.002090  0.337245  0.929318  1
  Al  Al8  1  0.664508  0.999482  0.075912  1
  Al  Al9  1  0.660379  0.994784  0.421966  1
  Al  Al10  1  0.334700  0.999505  0.576459  1
  Al  Al11  1  0.335772  0.335769  0.056681  1
  Al  Al12  1  0.665371  0.665306  0.943610  1
  Al  Al13  1  0.664849  0.665009  0.557728  1
  Al  Al14  1  0.338077  0.335617  0.443248  1
  Al  Al15  1  0.334595  0.546813  0.750183  1
  Al  Al16  1  0.664566  0.451226  0.250446  1
  Al  Al17  1  0.545497  0.334708  0.750028  1
  Al  Al18  1  0.451128  0.663891  0.249616  1
  Si  Si19  1  0.131631  0.129136  0.750611  1
  Si  Si20  1  0.871082  0.871083  0.249942  1
  Si  Si21  1  0.002203  0.338321  0.572868  1
  Ir  Ir22  1  0.676779  0.327265  0.501914  1
  Ir  Ir23  1  0.322518  0.664857  0.500024  1
  Ir  Ir24  1  0.330445  0.672212  0.999354  1
  Ir  Ir25  1  0.669581  0.327520  0.999133  1
  Ir  Ir26  1  0.999352  0.008247  0.501776  1
  Ir  Ir27  1  0.999797  0.000763  0.999139  1
