# generated using pymatgen
data_LaCu3NiRh
_symmetry_space_group_name_H-M   'P 1'
_cell_length_a   5.25493148
_cell_length_b   5.25493176
_cell_length_c   4.08626500
_cell_angle_alpha   90.00000000
_cell_angle_beta   90.00000000
_cell_angle_gamma   123.48684964
_symmetry_Int_Tables_number   1
_chemical_formula_structural   LaCu3NiRh
_chemical_formula_sum   'La1 Cu3 Ni1 Rh1'
_cell_volume   94.10944548
_cell_formula_units_Z   1
loop_
 _symmetry_equiv_pos_site_id
 _symmetry_equiv_pos_as_xyz
  1  'x, y, z'
loop_
 _atom_site_type_symbol
 _atom_site_label
 _atom_site_symmetry_multiplicity
 _atom_site_fract_x
 _atom_site_fract_y
 _atom_site_fract_z
 _atom_site_occupancy
  La  La0  1  0.501538  0.498462  0.000000  1
  Cu  Cu1  1  0.177344  0.822656  0.000000  1
  Cu  Cu2  1  0.997818  0.499820  0.500000  1
  Cu  Cu3  1  0.500180  0.002182  0.500000  1
  Ni  Ni4  1  0.825748  0.174252  0.000000  1
  Rh  Rh5  1  0.997370  0.002630  0.500000  1
