# generated using pymatgen
data_Ba3YbNbSbO9
_symmetry_space_group_name_H-M   'P 1'
_cell_length_a   5.97109600
_cell_length_b   5.97109665
_cell_length_c   7.38027900
_cell_angle_alpha   90.00000000
_cell_angle_beta   90.00000000
_cell_angle_gamma   120.00000747
_symmetry_Int_Tables_number   1
_chemical_formula_structural   Ba3YbNbSbO9
_chemical_formula_sum   'Ba3 Yb1 Nb1 Sb1 O9'
_cell_volume   227.88279295
_cell_formula_units_Z   1
loop_
 _symmetry_equiv_pos_site_id
 _symmetry_equiv_pos_as_xyz
  1  'x, y, z'
loop_
 _atom_site_type_symbol
 _atom_site_label
 _atom_site_symmetry_multiplicity
 _atom_site_fract_x
 _atom_site_fract_y
 _atom_site_fract_z
 _atom_site_occupancy
  Ba  Ba0  1  0.000000  0.000000  0.007087  1
  Ba  Ba1  1  0.333333  0.666667  0.657501  1
  Ba  Ba2  1  0.666667  0.333333  0.327334  1
  Yb  Yb3  1  0.000000  0.000000  0.494598  1
  Nb  Nb4  1  0.666667  0.333333  0.825665  1
  Sb  Sb5  1  0.333333  0.666667  0.164499  1
  O  O6  1  0.175432  0.824568  0.318198  1
  O  O7  1  0.823779  0.176221  0.686601  1
  O  O8  1  0.175432  0.350863  0.318198  1
  O  O9  1  0.823779  0.647557  0.686601  1
  O  O10  1  0.649137  0.824568  0.318198  1
  O  O11  1  0.352443  0.176221  0.686601  1
  O  O12  1  0.497480  0.994959  0.002973  1
  O  O13  1  0.005041  0.502520  0.002973  1
  O  O14  1  0.497480  0.502520  0.002973  1
