# generated using pymatgen
data_Dy3Ho5Hg4
_symmetry_space_group_name_H-M   'P 1'
_cell_length_a   7.03530211
_cell_length_b   5.09872400
_cell_length_c   9.24904614
_cell_angle_alpha   90.00000000
_cell_angle_beta   90.01982064
_cell_angle_gamma   90.00000000
_symmetry_Int_Tables_number   1
_chemical_formula_structural   Dy3Ho5Hg4
_chemical_formula_sum   'Dy3 Ho5 Hg4'
_cell_volume   331.77310326
_cell_formula_units_Z   1
loop_
 _symmetry_equiv_pos_site_id
 _symmetry_equiv_pos_as_xyz
  1  'x, y, z'
loop_
 _atom_site_type_symbol
 _atom_site_label
 _atom_site_symmetry_multiplicity
 _atom_site_fract_x
 _atom_site_fract_y
 _atom_site_fract_z
 _atom_site_occupancy
  Dy  Dy0  1  0.830411  0.750000  0.074280  1
  Dy  Dy1  1  0.516419  0.250000  0.194743  1
  Dy  Dy2  1  0.016692  0.250000  0.305385  1
  Ho  Ho3  1  0.330581  0.750000  0.425740  1
  Ho  Ho4  1  0.669394  0.250000  0.574661  1
  Ho  Ho5  1  0.983434  0.750000  0.694644  1
  Ho  Ho6  1  0.483272  0.750000  0.805244  1
  Ho  Ho7  1  0.169702  0.250000  0.925233  1
  Hg  Hg8  1  0.263777  0.750000  0.101576  1
  Hg  Hg9  1  0.763400  0.750000  0.398696  1
  Hg  Hg10  1  0.236506  0.250000  0.601753  1
  Hg  Hg11  1  0.736417  0.250000  0.898046  1
