# generated using pymatgen
data_HoEr(SbO4)2
_symmetry_space_group_name_H-M   'P 1'
_cell_length_a   5.36851099
_cell_length_b   7.65299592
_cell_length_c   7.52391589
_cell_angle_alpha   81.19088188
_cell_angle_beta   90.45192370
_cell_angle_gamma   92.00724968
_symmetry_Int_Tables_number   1
_chemical_formula_structural   HoEr(SbO4)2
_chemical_formula_sum   'Ho2 Er2 Sb4 O16'
_cell_volume   305.28670828
_cell_formula_units_Z   2
loop_
 _symmetry_equiv_pos_site_id
 _symmetry_equiv_pos_as_xyz
  1  'x, y, z'
loop_
 _atom_site_type_symbol
 _atom_site_label
 _atom_site_symmetry_multiplicity
 _atom_site_fract_x
 _atom_site_fract_y
 _atom_site_fract_z
 _atom_site_occupancy
  Ho  Ho0  1  0.262272  0.134734  0.616649  1
  Ho  Ho1  1  0.737728  0.865266  0.383351  1
  Er  Er2  1  0.213589  0.158003  0.110846  1
  Er  Er3  1  0.786411  0.841997  0.889154  1
  Sb  Sb4  1  0.239781  0.663038  0.193756  1
  Sb  Sb5  1  0.760219  0.336962  0.806244  1
  Sb  Sb6  1  0.726744  0.335196  0.308368  1
  Sb  Sb7  1  0.273256  0.664804  0.691632  1
  O  O8  1  0.087592  0.433756  0.688959  1
  O  O9  1  0.912408  0.566244  0.311041  1
  O  O10  1  0.608017  0.324050  0.560791  1
  O  O11  1  0.391983  0.675950  0.439209  1
  O  O12  1  0.876936  0.331870  0.061543  1
  O  O13  1  0.123064  0.668130  0.938457  1
  O  O14  1  0.400032  0.429148  0.196552  1
  O  O15  1  0.599968  0.570852  0.803448  1
  O  O16  1  0.043314  0.887153  0.173099  1
  O  O17  1  0.956686  0.112847  0.826901  1
  O  O18  1  0.514246  0.109608  0.318514  1
  O  O19  1  0.485754  0.890392  0.681486  1
  O  O20  1  0.462131  0.191086  0.880267  1
  O  O21  1  0.537869  0.808914  0.119733  1
  O  O22  1  0.998630  0.170960  0.381740  1
  O  O23  1  0.001370  0.829040  0.618260  1
