# generated using pymatgen
data_Nb6CdInS12
_symmetry_space_group_name_H-M   'P 1'
_cell_length_a   5.78507200
_cell_length_b   5.78507173
_cell_length_c   14.62773400
_cell_angle_alpha   90.00000000
_cell_angle_beta   90.00000000
_cell_angle_gamma   120.00000156
_symmetry_Int_Tables_number   1
_chemical_formula_structural   Nb6CdInS12
_chemical_formula_sum   'Nb6 Cd1 In1 S12'
_cell_volume   423.96030471
_cell_formula_units_Z   1
loop_
 _symmetry_equiv_pos_site_id
 _symmetry_equiv_pos_as_xyz
  1  'x, y, z'
loop_
 _atom_site_type_symbol
 _atom_site_label
 _atom_site_symmetry_multiplicity
 _atom_site_fract_x
 _atom_site_fract_y
 _atom_site_fract_z
 _atom_site_occupancy
  Nb  Nb0  1  0.333333  0.666667  0.512322  1
  Nb  Nb1  1  0.666667  0.333333  0.991885  1
  Nb  Nb2  1  0.666667  0.333333  0.508115  1
  Nb  Nb3  1  0.333333  0.666667  0.987678  1
  Nb  Nb4  1  0.000000  0.000000  0.510354  1
  Nb  Nb5  1  0.000000  0.000000  0.989646  1
  Cd  Cd6  1  0.666667  0.333333  0.750000  1
  In  In7  1  0.333333  0.666667  0.250000  1
  S  S8  1  0.332293  0.334892  0.096620  1
  S  S9  1  0.665108  0.997401  0.096620  1
  S  S10  1  0.002599  0.667707  0.096620  1
  S  S11  1  0.000327  0.332127  0.618394  1
  S  S12  1  0.667873  0.999673  0.881606  1
  S  S13  1  0.667873  0.668199  0.618394  1
  S  S14  1  0.331801  0.999673  0.618394  1
  S  S15  1  0.665108  0.667707  0.403380  1
  S  S16  1  0.332293  0.997401  0.403380  1
  S  S17  1  0.331801  0.332127  0.881606  1
  S  S18  1  0.000327  0.668199  0.881606  1
  S  S19  1  0.002599  0.334892  0.403380  1
