# generated using pymatgen
data_Tb5Ho3(Sc3Ge4)4
_symmetry_space_group_name_H-M   'P 1'
_cell_length_a   7.23152133
_cell_length_b   7.49926033
_cell_length_c   14.09290711
_cell_angle_alpha   89.99122533
_cell_angle_beta   89.98865686
_cell_angle_gamma   90.03271041
_symmetry_Int_Tables_number   1
_chemical_formula_structural   Tb5Ho3(Sc3Ge4)4
_chemical_formula_sum   'Tb5 Ho3 Sc12 Ge16'
_cell_volume   764.27315692
_cell_formula_units_Z   1
loop_
 _symmetry_equiv_pos_site_id
 _symmetry_equiv_pos_as_xyz
  1  'x, y, z'
loop_
 _atom_site_type_symbol
 _atom_site_label
 _atom_site_symmetry_multiplicity
 _atom_site_fract_x
 _atom_site_fract_y
 _atom_site_fract_z
 _atom_site_occupancy
  Tb  Tb0  1  0.004507  0.175991  0.096677  1
  Tb  Tb1  1  0.995502  0.824000  0.903193  1
  Tb  Tb2  1  0.495401  0.675971  0.903518  1
  Tb  Tb3  1  0.995391  0.823890  0.596328  1
  Tb  Tb4  1  0.504605  0.323975  0.096667  1
  Ho  Ho5  1  0.004771  0.176627  0.403240  1
  Ho  Ho6  1  0.504486  0.323452  0.403281  1
  Ho  Ho7  1  0.495417  0.676317  0.596577  1
  Sc  Sc8  1  0.165740  0.500420  0.749798  1
  Sc  Sc9  1  0.834350  0.499444  0.250307  1
  Sc  Sc10  1  0.334389  0.000562  0.250333  1
  Sc  Sc11  1  0.665490  0.999675  0.749818  1
  Sc  Sc12  1  0.333789  0.169824  0.625180  1
  Sc  Sc13  1  0.666265  0.830461  0.374779  1
  Sc  Sc14  1  0.166625  0.669241  0.374842  1
  Sc  Sc15  1  0.666462  0.830529  0.125529  1
  Sc  Sc16  1  0.833528  0.330546  0.625077  1
  Sc  Sc17  1  0.333561  0.169478  0.874562  1
  Sc  Sc18  1  0.833530  0.330467  0.874600  1
  Sc  Sc19  1  0.166486  0.669546  0.125513  1
  Ge  Ge20  1  0.030422  0.125900  0.749884  1
  Ge  Ge21  1  0.969537  0.874531  0.250198  1
  Ge  Ge22  1  0.469510  0.625406  0.250153  1
  Ge  Ge23  1  0.530559  0.374625  0.749835  1
  Ge  Ge24  1  0.300051  0.861094  0.749607  1
  Ge  Ge25  1  0.700554  0.138935  0.250699  1
  Ge  Ge26  1  0.200559  0.361068  0.250701  1
  Ge  Ge27  1  0.798864  0.638347  0.749686  1
  Ge  Ge28  1  0.172761  0.460286  0.541303  1
  Ge  Ge29  1  0.827277  0.538678  0.458362  1
  Ge  Ge30  1  0.328346  0.961054  0.458365  1
  Ge  Ge31  1  0.828951  0.539609  0.041554  1
  Ge  Ge32  1  0.671156  0.039661  0.541294  1
  Ge  Ge33  1  0.171017  0.460429  0.958487  1
  Ge  Ge34  1  0.671178  0.039465  0.958490  1
  Ge  Ge35  1  0.328964  0.960497  0.041562  1
