# generated using pymatgen
data_Er4MnGa(Co2B)6
_symmetry_space_group_name_H-M   'P 1'
_cell_length_a   5.08056600
_cell_length_b   5.08056581
_cell_length_c   12.57827500
_cell_angle_alpha   90.00000000
_cell_angle_beta   90.00000000
_cell_angle_gamma   120.00000125
_symmetry_Int_Tables_number   1
_chemical_formula_structural   Er4MnGa(Co2B)6
_chemical_formula_sum   'Er4 Mn1 Ga1 Co12 B6'
_cell_volume   281.17447336
_cell_formula_units_Z   1
loop_
 _symmetry_equiv_pos_site_id
 _symmetry_equiv_pos_as_xyz
  1  'x, y, z'
loop_
 _atom_site_type_symbol
 _atom_site_label
 _atom_site_symmetry_multiplicity
 _atom_site_fract_x
 _atom_site_fract_y
 _atom_site_fract_z
 _atom_site_occupancy
  Er  Er0  1  0.000000  0.000000  0.000000  1
  Er  Er1  1  0.000000  0.000000  0.500000  1
  Er  Er2  1  0.000000  0.000000  0.740337  1
  Er  Er3  1  0.000000  0.000000  0.259663  1
  Mn  Mn4  1  0.666667  0.333333  0.000000  1
  Ga  Ga5  1  0.333333  0.666667  0.000000  1
  Co  Co6  1  0.500327  0.499673  0.840838  1
  Co  Co7  1  0.500327  0.000654  0.840838  1
  Co  Co8  1  0.999346  0.499673  0.840838  1
  Co  Co9  1  0.500327  0.499673  0.159162  1
  Co  Co10  1  0.500327  0.000654  0.159162  1
  Co  Co11  1  0.999346  0.499673  0.159162  1
  Co  Co12  1  0.500143  0.499857  0.614463  1
  Co  Co13  1  0.500143  0.000285  0.614463  1
  Co  Co14  1  0.999715  0.499857  0.614463  1
  Co  Co15  1  0.500143  0.499857  0.385537  1
  Co  Co16  1  0.500143  0.000285  0.385537  1
  Co  Co17  1  0.999715  0.499857  0.385537  1
  B  B18  1  0.666667  0.333333  0.500000  1
  B  B19  1  0.333333  0.666667  0.500000  1
  B  B20  1  0.666667  0.333333  0.731116  1
  B  B21  1  0.333333  0.666667  0.730419  1
  B  B22  1  0.333333  0.666667  0.269581  1
  B  B23  1  0.666667  0.333333  0.268884  1
