# generated using pymatgen
data_Tb3Dy5Ta10(TiSi8)2
_symmetry_space_group_name_H-M   'P 1'
_cell_length_a   7.05605203
_cell_length_b   7.05615169
_cell_length_c   12.99989905
_cell_angle_alpha   89.93953821
_cell_angle_beta   90.06489100
_cell_angle_gamma   89.99637475
_symmetry_Int_Tables_number   1
_chemical_formula_structural   Tb3Dy5Ta10(TiSi8)2
_chemical_formula_sum   'Tb3 Dy5 Ta10 Ti2 Si16'
_cell_volume   647.24565187
_cell_formula_units_Z   1
loop_
 _symmetry_equiv_pos_site_id
 _symmetry_equiv_pos_as_xyz
  1  'x, y, z'
loop_
 _atom_site_type_symbol
 _atom_site_label
 _atom_site_symmetry_multiplicity
 _atom_site_fract_x
 _atom_site_fract_y
 _atom_site_fract_z
 _atom_site_occupancy
  Tb  Tb0  1  0.998285  0.658174  0.032529  1
  Tb  Tb1  1  0.002206  0.341101  0.531990  1
  Tb  Tb2  1  0.658173  0.998285  0.967474  1
  Dy  Dy3  1  0.159586  0.503100  0.782283  1
  Dy  Dy4  1  0.841300  0.497791  0.281976  1
  Dy  Dy5  1  0.503085  0.159579  0.217744  1
  Dy  Dy6  1  0.497754  0.841340  0.717972  1
  Dy  Dy7  1  0.341227  0.002016  0.467984  1
  Ta  Ta8  1  0.346335  0.508555  0.375927  1
  Ta  Ta9  1  0.847195  0.992357  0.374674  1
  Ta  Ta10  1  0.008205  0.153090  0.126344  1
  Ta  Ta11  1  0.992410  0.847183  0.625300  1
  Ta  Ta12  1  0.508501  0.346266  0.624044  1
  Ta  Ta13  1  0.153098  0.008176  0.873655  1
  Ta  Ta14  1  0.672150  0.672276  0.499994  1
  Ta  Ta15  1  0.829340  0.170399  0.750067  1
  Ta  Ta16  1  0.170421  0.829376  0.249996  1
  Ta  Ta17  1  0.326175  0.326174  0.000000  1
  Ti  Ti18  1  0.492614  0.652939  0.124220  1
  Ti  Ti19  1  0.652938  0.492610  0.875785  1
  Si  Si20  1  0.045601  0.705728  0.435852  1
  Si  Si21  1  0.952712  0.295087  0.935706  1
  Si  Si22  1  0.705409  0.045480  0.564095  1
  Si  Si23  1  0.208094  0.455154  0.185364  1
  Si  Si24  1  0.793620  0.545392  0.687383  1
  Si  Si25  1  0.455169  0.208085  0.814636  1
  Si  Si26  1  0.545277  0.793711  0.312711  1
  Si  Si27  1  0.295083  0.952725  0.064295  1
  Si  Si28  1  0.795055  0.865332  0.181965  1
  Si  Si29  1  0.296959  0.633608  0.568388  1
  Si  Si30  1  0.700878  0.368569  0.066322  1
  Si  Si31  1  0.633324  0.296836  0.431577  1
  Si  Si32  1  0.368577  0.700876  0.933673  1
  Si  Si33  1  0.133756  0.203997  0.317712  1
  Si  Si34  1  0.204172  0.133599  0.682328  1
  Si  Si35  1  0.865317  0.795035  0.818032  1
