# generated using pymatgen
data_Pm2Al5Ge
_symmetry_space_group_name_H-M   'P 1'
_cell_length_a   6.41708300
_cell_length_b   6.37869673
_cell_length_c   4.66509600
_cell_angle_alpha   90.00000000
_cell_angle_beta   90.00000000
_cell_angle_gamma   120.19926531
_symmetry_Int_Tables_number   1
_chemical_formula_structural   Pm2Al5Ge
_chemical_formula_sum   'Pm2 Al5 Ge1'
_cell_volume   165.03850806
_cell_formula_units_Z   1
loop_
 _symmetry_equiv_pos_site_id
 _symmetry_equiv_pos_as_xyz
  1  'x, y, z'
loop_
 _atom_site_type_symbol
 _atom_site_label
 _atom_site_symmetry_multiplicity
 _atom_site_fract_x
 _atom_site_fract_y
 _atom_site_fract_z
 _atom_site_occupancy
  Pm  Pm0  1  0.333691  0.667384  0.750000  1
  Pm  Pm1  1  0.666758  0.333515  0.250000  1
  Al  Al2  1  0.718888  0.861747  0.250000  1
  Al  Al3  1  0.142860  0.861747  0.250000  1
  Al  Al4  1  0.856450  0.712901  0.750000  1
  Al  Al5  1  0.284299  0.140614  0.750000  1
  Al  Al6  1  0.856314  0.140614  0.750000  1
  Ge  Ge7  1  0.140739  0.281478  0.250000  1
