# generated using pymatgen
data_Zr10Tl2Sb5
_symmetry_space_group_name_H-M   'P 1'
_cell_length_a   5.91911686
_cell_length_b   8.66985598
_cell_length_c   8.68991700
_cell_angle_alpha   120.07731675
_cell_angle_beta   90.21802801
_cell_angle_gamma   89.89174922
_symmetry_Int_Tables_number   1
_chemical_formula_structural   Zr10Tl2Sb5
_chemical_formula_sum   'Zr10 Tl2 Sb5'
_cell_volume   385.89844509
_cell_formula_units_Z   1
loop_
 _symmetry_equiv_pos_site_id
 _symmetry_equiv_pos_as_xyz
  1  'x, y, z'
loop_
 _atom_site_type_symbol
 _atom_site_label
 _atom_site_symmetry_multiplicity
 _atom_site_fract_x
 _atom_site_fract_y
 _atom_site_fract_z
 _atom_site_occupancy
  Zr  Zr0  1  0.499162  0.330008  0.666500  1
  Zr  Zr1  1  0.499157  0.670000  0.336511  1
  Zr  Zr2  1  0.999265  0.668986  0.335195  1
  Zr  Zr3  1  0.999252  0.331013  0.666194  1
  Zr  Zr4  1  0.772684  0.266722  0.998567  1
  Zr  Zr5  1  0.772683  0.733261  0.731837  1
  Zr  Zr6  1  0.774955  0.000011  0.270033  1
  Zr  Zr7  1  0.223265  0.735313  0.999447  1
  Zr  Zr8  1  0.223308  0.264701  0.264129  1
  Zr  Zr9  1  0.230784  0.000008  0.731981  1
  Tl  Tl10  1  0.742366  0.614550  0.999885  1
  Tl  Tl11  1  0.742399  0.385452  0.385312  1
  Sb  Sb12  1  0.747910  0.999992  0.613552  1
  Sb  Sb13  1  0.255726  0.391155  0.002216  1
  Sb  Sb14  1  0.255749  0.608864  0.611133  1
  Sb  Sb15  1  0.257476  0.999995  0.385967  1
  Sb  Sb16  1  0.503856  0.999970  0.001543  1
