# generated using pymatgen
data_Sc12Cu2Si12PtAu
_symmetry_space_group_name_H-M   'P 1'
_cell_length_a   4.03069200
_cell_length_b   10.27720563
_cell_length_c   11.74402050
_cell_angle_alpha   90.06488838
_cell_angle_beta   90.00000000
_cell_angle_gamma   90.00000000
_symmetry_Int_Tables_number   1
_chemical_formula_structural   Sc12Cu2Si12PtAu
_chemical_formula_sum   'Sc12 Cu2 Si12 Pt1 Au1'
_cell_volume   486.48693520
_cell_formula_units_Z   1
loop_
 _symmetry_equiv_pos_site_id
 _symmetry_equiv_pos_as_xyz
  1  'x, y, z'
loop_
 _atom_site_type_symbol
 _atom_site_label
 _atom_site_symmetry_multiplicity
 _atom_site_fract_x
 _atom_site_fract_y
 _atom_site_fract_z
 _atom_site_occupancy
  Sc  Sc0  1  0.250000  0.877227  0.022797  1
  Sc  Sc1  1  0.250000  0.623740  0.524674  1
  Sc  Sc2  1  0.750000  0.125687  0.976112  1
  Sc  Sc3  1  0.750000  0.371744  0.477585  1
  Sc  Sc4  1  0.250000  0.920456  0.601080  1
  Sc  Sc5  1  0.250000  0.579908  0.098438  1
  Sc  Sc6  1  0.750000  0.078195  0.402961  1
  Sc  Sc7  1  0.750000  0.421462  0.901882  1
  Sc  Sc8  1  0.250000  0.660741  0.800067  1
  Sc  Sc9  1  0.250000  0.843136  0.300870  1
  Sc  Sc10  1  0.750000  0.335554  0.197569  1
  Sc  Sc11  1  0.750000  0.158807  0.698832  1
  Cu  Cu12  1  0.250000  0.387164  0.678607  1
  Cu  Cu13  1  0.250000  0.112200  0.177266  1
  Si  Si14  1  0.250000  0.018254  0.827231  1
  Si  Si15  1  0.250000  0.473897  0.327737  1
  Si  Si16  1  0.750000  0.987132  0.174842  1
  Si  Si17  1  0.750000  0.514814  0.673481  1
  Si  Si18  1  0.250000  0.249729  0.843209  1
  Si  Si19  1  0.250000  0.245356  0.343938  1
  Si  Si20  1  0.750000  0.756636  0.151004  1
  Si  Si21  1  0.750000  0.747475  0.655883  1
  Si  Si22  1  0.250000  0.185600  0.542926  1
  Si  Si23  1  0.250000  0.314799  0.040940  1
  Si  Si24  1  0.750000  0.819038  0.461445  1
  Si  Si25  1  0.750000  0.689159  0.955836  1
  Pt  Pt26  1  0.750000  0.886773  0.821167  1
  Au  Au27  1  0.750000  0.615318  0.321624  1
