# generated using pymatgen
data_Na2Mn5(MoO4)6
_symmetry_space_group_name_H-M   'P 1'
_cell_length_a   7.17103507
_cell_length_b   8.89883501
_cell_length_c   10.61345226
_cell_angle_alpha   106.28187967
_cell_angle_beta   105.18973606
_cell_angle_gamma   102.47843922
_symmetry_Int_Tables_number   1
_chemical_formula_structural   Na2Mn5(MoO4)6
_chemical_formula_sum   'Na2 Mn5 Mo6 O24'
_cell_volume   595.97705887
_cell_formula_units_Z   1
loop_
 _symmetry_equiv_pos_site_id
 _symmetry_equiv_pos_as_xyz
  1  'x, y, z'
loop_
 _atom_site_type_symbol
 _atom_site_label
 _atom_site_symmetry_multiplicity
 _atom_site_fract_x
 _atom_site_fract_y
 _atom_site_fract_z
 _atom_site_occupancy
  Na  Na0  1  0.024762  0.502571  0.019630  1
  Na  Na1  1  0.280956  0.288876  0.294865  1
  Mn  Mn2  1  0.382102  0.954789  0.107788  1
  Mn  Mn3  1  0.629302  0.053231  0.898639  1
  Mn  Mn4  1  0.954378  0.792653  0.477266  1
  Mn  Mn5  1  0.037309  0.201244  0.516173  1
  Mn  Mn6  1  0.715940  0.718295  0.697736  1
  Mo  Mo7  1  0.404477  0.737777  0.373541  1
  Mo  Mo8  1  0.593752  0.274684  0.631960  1
  Mo  Mo9  1  0.888500  0.900584  0.164339  1
  Mo  Mo10  1  0.108068  0.084715  0.828585  1
  Mo  Mo11  1  0.783371  0.336714  0.237074  1
  Mo  Mo12  1  0.220859  0.665555  0.763753  1
  O  O13  1  0.250123  0.808460  0.468671  1
  O  O14  1  0.750109  0.201638  0.539485  1
  O  O15  1  0.673987  0.958916  0.074446  1
  O  O16  1  0.324760  0.027064  0.914815  1
  O  O17  1  0.847455  0.690883  0.081975  1
  O  O18  1  0.147270  0.292208  0.915594  1
  O  O19  1  0.119739  0.007843  0.147746  1
  O  O20  1  0.869358  0.970079  0.838636  1
  O  O21  1  0.443343  0.855113  0.265582  1
  O  O22  1  0.580400  0.175681  0.756408  1
  O  O23  1  0.266649  0.531579  0.259741  1
  O  O24  1  0.707082  0.495908  0.722223  1
  O  O25  1  0.795287  0.294989  0.063108  1
  O  O26  1  0.224824  0.702604  0.939791  1
  O  O27  1  0.827223  0.550562  0.323883  1
  O  O28  1  0.164825  0.452209  0.676321  1
  O  O29  1  0.919430  0.940419  0.348500  1
  O  O30  1  0.075628  0.053665  0.646875  1
  O  O31  1  0.974337  0.271224  0.337248  1
  O  O32  1  0.019021  0.733714  0.671167  1
  O  O33  1  0.645850  0.747522  0.500371  1
  O  O34  1  0.344849  0.234771  0.509398  1
  O  O35  1  0.536174  0.221160  0.225249  1
  O  O36  1  0.468500  0.770097  0.761421  1
