# generated using pymatgen
data_NdTm3Sb10
_symmetry_space_group_name_H-M   'P 1'
_cell_length_a   4.27333400
_cell_length_b   13.19603833
_cell_length_c   14.55500972
_cell_angle_alpha   78.21514155
_cell_angle_beta   90.00000000
_cell_angle_gamma   90.00000000
_symmetry_Int_Tables_number   1
_chemical_formula_structural   NdTm3Sb10
_chemical_formula_sum   'Nd2 Tm6 Sb20'
_cell_volume   803.47196462
_cell_formula_units_Z   2
loop_
 _symmetry_equiv_pos_site_id
 _symmetry_equiv_pos_as_xyz
  1  'x, y, z'
loop_
 _atom_site_type_symbol
 _atom_site_label
 _atom_site_symmetry_multiplicity
 _atom_site_fract_x
 _atom_site_fract_y
 _atom_site_fract_z
 _atom_site_occupancy
  Nd  Nd0  1  0.250000  0.953383  0.358027  1
  Nd  Nd1  1  0.750000  0.046617  0.641973  1
  Tm  Tm2  1  0.250000  0.398497  0.772322  1
  Tm  Tm3  1  0.750000  0.601503  0.227678  1
  Tm  Tm4  1  0.250000  0.660921  0.856814  1
  Tm  Tm5  1  0.750000  0.339079  0.143186  1
  Tm  Tm6  1  0.250000  0.666417  0.577024  1
  Tm  Tm7  1  0.750000  0.333583  0.422976  1
  Sb  Sb8  1  0.250000  0.147597  0.784913  1
  Sb  Sb9  1  0.750000  0.852403  0.215087  1
  Sb  Sb10  1  0.250000  0.150419  0.478794  1
  Sb  Sb11  1  0.750000  0.849581  0.521206  1
  Sb  Sb12  1  0.250000  0.156895  0.168175  1
  Sb  Sb13  1  0.750000  0.843105  0.831825  1
  Sb  Sb14  1  0.250000  0.421309  0.976764  1
  Sb  Sb15  1  0.750000  0.578691  0.023236  1
  Sb  Sb16  1  0.750000  0.031881  0.906389  1
  Sb  Sb17  1  0.250000  0.968119  0.093611  1
  Sb  Sb18  1  0.750000  0.144732  0.319393  1
  Sb  Sb19  1  0.250000  0.855268  0.680607  1
  Sb  Sb20  1  0.750000  0.282604  0.937808  1
  Sb  Sb21  1  0.250000  0.717396  0.062192  1
  Sb  Sb22  1  0.750000  0.292419  0.654000  1
  Sb  Sb23  1  0.250000  0.707581  0.346000  1
  Sb  Sb24  1  0.750000  0.577355  0.735292  1
  Sb  Sb25  1  0.250000  0.422645  0.264708  1
  Sb  Sb26  1  0.750000  0.573679  0.445693  1
  Sb  Sb27  1  0.250000  0.426321  0.554307  1
