# generated using pymatgen
data_Er4Sc16Bi11Sb
_symmetry_space_group_name_H-M   'P 1'
_cell_length_a   7.84053740
_cell_length_b   9.03973300
_cell_length_c   11.50207559
_cell_angle_alpha   90.00000000
_cell_angle_beta   90.03677182
_cell_angle_gamma   90.00000000
_symmetry_Int_Tables_number   1
_chemical_formula_structural   Er4Sc16Bi11Sb
_chemical_formula_sum   'Er4 Sc16 Bi11 Sb1'
_cell_volume   815.22513665
_cell_formula_units_Z   1
loop_
 _symmetry_equiv_pos_site_id
 _symmetry_equiv_pos_as_xyz
  1  'x, y, z'
loop_
 _atom_site_type_symbol
 _atom_site_label
 _atom_site_symmetry_multiplicity
 _atom_site_fract_x
 _atom_site_fract_y
 _atom_site_fract_z
 _atom_site_occupancy
  Er  Er0  1  0.315357  0.250000  0.218331  1
  Er  Er1  1  0.815410  0.250000  0.281932  1
  Er  Er2  1  0.680517  0.750000  0.784224  1
  Er  Er3  1  0.186061  0.750000  0.720183  1
  Sc  Sc4  1  0.349612  0.750000  0.216610  1
  Sc  Sc5  1  0.848971  0.750000  0.279762  1
  Sc  Sc6  1  0.651310  0.250000  0.779697  1
  Sc  Sc7  1  0.151189  0.250000  0.720196  1
  Sc  Sc8  1  0.689392  0.569678  0.060595  1
  Sc  Sc9  1  0.192685  0.932471  0.438321  1
  Sc  Sc10  1  0.308558  0.063257  0.938684  1
  Sc  Sc11  1  0.807314  0.432532  0.561611  1
  Sc  Sc12  1  0.308558  0.436743  0.938684  1
  Sc  Sc13  1  0.807314  0.067468  0.561611  1
  Sc  Sc14  1  0.689392  0.930322  0.060595  1
  Sc  Sc15  1  0.192685  0.567529  0.438321  1
  Sc  Sc16  1  0.482105  0.250000  0.488898  1
  Sc  Sc17  1  0.982316  0.250000  0.011097  1
  Sc  Sc18  1  0.517977  0.750000  0.511140  1
  Sc  Sc19  1  0.022299  0.750000  0.988613  1
  Bi  Bi20  1  0.901401  0.750000  0.534455  1
  Bi  Bi21  1  0.598762  0.250000  0.034337  1
  Bi  Bi22  1  0.098821  0.250000  0.465691  1
  Bi  Bi23  1  0.563813  0.990850  0.327780  1
  Bi  Bi24  1  0.063838  0.509022  0.172121  1
  Bi  Bi25  1  0.436184  0.490860  0.672188  1
  Bi  Bi26  1  0.936046  0.009071  0.827769  1
  Bi  Bi27  1  0.436184  0.009140  0.672188  1
  Bi  Bi28  1  0.936046  0.490929  0.827769  1
  Bi  Bi29  1  0.563813  0.509150  0.327780  1
  Bi  Bi30  1  0.063838  0.990978  0.172121  1
  Sb  Sb31  1  0.402232  0.750000  0.966695  1
