# generated using pymatgen
data_Ti5Nb7Al8(PtN)4
_symmetry_space_group_name_H-M   'P 1'
_cell_length_a   8.28533323
_cell_length_b   8.29699501
_cell_length_c   8.28707213
_cell_angle_alpha   59.96483473
_cell_angle_beta   60.03012250
_cell_angle_gamma   59.94743096
_symmetry_Int_Tables_number   1
_chemical_formula_structural   Ti5Nb7Al8(PtN)4
_chemical_formula_sum   'Ti5 Nb7 Al8 Pt4 N4'
_cell_volume   402.64959832
_cell_formula_units_Z   1
loop_
 _symmetry_equiv_pos_site_id
 _symmetry_equiv_pos_as_xyz
  1  'x, y, z'
loop_
 _atom_site_type_symbol
 _atom_site_label
 _atom_site_symmetry_multiplicity
 _atom_site_fract_x
 _atom_site_fract_y
 _atom_site_fract_z
 _atom_site_occupancy
  Ti  Ti0  1  0.181133  0.821018  0.817290  1
  Ti  Ti1  1  0.818798  0.178653  0.182295  1
  Ti  Ti2  1  0.819567  0.180538  0.818426  1
  Ti  Ti3  1  0.431132  0.429184  0.069383  1
  Ti  Ti4  1  0.181440  0.180275  0.817631  1
  Nb  Nb5  1  0.816511  0.818680  0.183376  1
  Nb  Nb6  1  0.066748  0.431394  0.432181  1
  Nb  Nb7  1  0.433345  0.067197  0.068873  1
  Nb  Nb8  1  0.069050  0.069428  0.431957  1
  Nb  Nb9  1  0.066808  0.432744  0.069273  1
  Nb  Nb10  1  0.432321  0.066775  0.431581  1
  Nb  Nb11  1  0.181025  0.818590  0.183045  1
  Al  Al12  1  0.416448  0.751574  0.415952  1
  Al  Al13  1  0.833152  0.835099  0.497514  1
  Al  Al14  1  0.495758  0.835959  0.833381  1
  Al  Al15  1  0.834863  0.835585  0.834502  1
  Al  Al16  1  0.750977  0.416325  0.416813  1
  Al  Al17  1  0.415574  0.415730  0.415003  1
  Al  Al18  1  0.416630  0.415482  0.752872  1
  Al  Al19  1  0.835969  0.493663  0.834888  1
  Pt  Pt20  1  0.624481  0.125884  0.624891  1
  Pt  Pt21  1  0.625374  0.621173  0.123137  1
  Pt  Pt22  1  0.125117  0.623485  0.627843  1
  Pt  Pt23  1  0.622485  0.622247  0.631288  1
  N  N24  1  0.133675  0.626718  0.115526  1
  N  N25  1  0.120763  0.122099  0.638117  1
  N  N26  1  0.630204  0.135462  0.116476  1
  N  N27  1  0.120653  0.129037  0.116488  1
