# generated using pymatgen
data_BaYTi4N7
_symmetry_space_group_name_H-M   'P 1'
_cell_length_a   6.47608700
_cell_length_b   6.47608637
_cell_length_c   10.51558600
_cell_angle_alpha   90.00000000
_cell_angle_beta   90.00000000
_cell_angle_gamma   119.99998788
_symmetry_Int_Tables_number   1
_chemical_formula_structural   BaYTi4N7
_chemical_formula_sum   'Ba2 Y2 Ti8 N14'
_cell_volume   381.93501116
_cell_formula_units_Z   2
loop_
 _symmetry_equiv_pos_site_id
 _symmetry_equiv_pos_as_xyz
  1  'x, y, z'
loop_
 _atom_site_type_symbol
 _atom_site_label
 _atom_site_symmetry_multiplicity
 _atom_site_fract_x
 _atom_site_fract_y
 _atom_site_fract_z
 _atom_site_occupancy
  Ba  Ba0  1  0.666667  0.333333  0.582026  1
  Ba  Ba1  1  0.333333  0.666667  0.082026  1
  Y  Y2  1  0.666667  0.333333  0.948889  1
  Y  Y3  1  0.333333  0.666667  0.448889  1
  Ti  Ti4  1  0.169257  0.338513  0.763584  1
  Ti  Ti5  1  0.830743  0.169257  0.263584  1
  Ti  Ti6  1  0.338513  0.169257  0.263584  1
  Ti  Ti7  1  0.661487  0.830743  0.763584  1
  Ti  Ti8  1  0.169257  0.830743  0.763584  1
  Ti  Ti9  1  0.830743  0.661487  0.263584  1
  Ti  Ti10  1  0.000000  0.000000  0.023396  1
  Ti  Ti11  1  0.000000  0.000000  0.523396  1
  N  N12  1  0.000000  0.000000  0.830825  1
  N  N13  1  0.000000  0.000000  0.330825  1
  N  N14  1  0.840608  0.681216  0.083582  1
  N  N15  1  0.159392  0.840608  0.583582  1
  N  N16  1  0.681216  0.840608  0.583582  1
  N  N17  1  0.318784  0.159392  0.083582  1
  N  N18  1  0.840608  0.159392  0.083582  1
  N  N19  1  0.159392  0.318784  0.583582  1
  N  N20  1  0.494157  0.505843  0.815396  1
  N  N21  1  0.988314  0.494157  0.315396  1
  N  N22  1  0.505843  0.011686  0.315396  1
  N  N23  1  0.494157  0.988314  0.815396  1
  N  N24  1  0.505843  0.494157  0.315396  1
  N  N25  1  0.011686  0.505843  0.815396  1
