# generated using pymatgen
data_TaInI6
_symmetry_space_group_name_H-M   'P 1'
_cell_length_a   7.84988608
_cell_length_b   7.87475808
_cell_length_c   8.25115327
_cell_angle_alpha   89.99150366
_cell_angle_beta   118.10824237
_cell_angle_gamma   119.71048732
_symmetry_Int_Tables_number   1
_chemical_formula_structural   TaInI6
_chemical_formula_sum   'Ta1 In1 I6'
_cell_volume   372.18509679
_cell_formula_units_Z   1
loop_
 _symmetry_equiv_pos_site_id
 _symmetry_equiv_pos_as_xyz
  1  'x, y, z'
loop_
 _atom_site_type_symbol
 _atom_site_label
 _atom_site_symmetry_multiplicity
 _atom_site_fract_x
 _atom_site_fract_y
 _atom_site_fract_z
 _atom_site_occupancy
  Ta  Ta0  1  0.579933  0.289211  0.869916  1
  In  In1  1  0.239244  0.621478  0.858039  1
  I  I2  1  0.450116  0.075055  0.102987  1
  I  I3  1  0.134020  0.202714  0.640117  1
  I  I4  1  0.706814  0.506489  0.636909  1
  I  I5  1  0.440881  0.933239  0.638384  1
  I  I6  1  0.723839  0.648206  0.100925  1
  I  I7  1  0.024150  0.373108  0.101222  1
