# generated using pymatgen
data_Dy4Tm7In(NiHg2)4
_symmetry_space_group_name_H-M   'P 1'
_cell_length_a   3.60083500
_cell_length_b   12.79324877
_cell_length_c   12.79324874
_cell_angle_alpha   112.13571381
_cell_angle_beta   90.00000000
_cell_angle_gamma   90.00000000
_symmetry_Int_Tables_number   1
_chemical_formula_structural   Dy4Tm7In(NiHg2)4
_chemical_formula_sum   'Dy4 Tm7 In1 Ni4 Hg8'
_cell_volume   545.90080372
_cell_formula_units_Z   1
loop_
 _symmetry_equiv_pos_site_id
 _symmetry_equiv_pos_as_xyz
  1  'x, y, z'
loop_
 _atom_site_type_symbol
 _atom_site_label
 _atom_site_symmetry_multiplicity
 _atom_site_fract_x
 _atom_site_fract_y
 _atom_site_fract_z
 _atom_site_occupancy
  Dy  Dy0  1  0.000000  0.629762  0.370238  1
  Dy  Dy1  1  0.000000  0.693099  0.693599  1
  Dy  Dy2  1  0.000000  0.306401  0.306901  1
  Dy  Dy3  1  0.000000  0.999932  0.000068  1
  Tm  Tm4  1  0.000000  0.918773  0.582802  1
  Tm  Tm5  1  0.000000  0.082253  0.417993  1
  Tm  Tm6  1  0.000000  0.582007  0.917747  1
  Tm  Tm7  1  0.000000  0.417198  0.081227  1
  Tm  Tm8  1  0.000000  0.165889  0.834111  1
  Tm  Tm9  1  0.000000  0.834304  0.165696  1
  Tm  Tm10  1  0.000000  0.370130  0.629870  1
  In  In11  1  0.500000  0.499121  0.500879  1
  Ni  Ni12  1  0.500000  0.748931  0.549266  1
  Ni  Ni13  1  0.500000  0.251997  0.452152  1
  Ni  Ni14  1  0.500000  0.547848  0.748003  1
  Ni  Ni15  1  0.500000  0.450734  0.251069  1
  Hg  Hg16  1  0.500000  0.152913  0.629712  1
  Hg  Hg17  1  0.500000  0.848940  0.370405  1
  Hg  Hg18  1  0.500000  0.629595  0.151060  1
  Hg  Hg19  1  0.500000  0.370288  0.847087  1
  Hg  Hg20  1  0.500000  0.930925  0.780928  1
  Hg  Hg21  1  0.500000  0.069582  0.219694  1
  Hg  Hg22  1  0.500000  0.780306  0.930418  1
  Hg  Hg23  1  0.500000  0.219072  0.069075  1
