# generated using pymatgen
data_Y2ZnSiNi2
_symmetry_space_group_name_H-M   'P 1'
_cell_length_a   4.20395000
_cell_length_b   6.83183829
_cell_length_c   7.33446213
_cell_angle_alpha   92.21816892
_cell_angle_beta   90.00000000
_cell_angle_gamma   90.00000000
_symmetry_Int_Tables_number   1
_chemical_formula_structural   Y2ZnSiNi2
_chemical_formula_sum   'Y4 Zn2 Si2 Ni4'
_cell_volume   210.49309237
_cell_formula_units_Z   2
loop_
 _symmetry_equiv_pos_site_id
 _symmetry_equiv_pos_as_xyz
  1  'x, y, z'
loop_
 _atom_site_type_symbol
 _atom_site_label
 _atom_site_symmetry_multiplicity
 _atom_site_fract_x
 _atom_site_fract_y
 _atom_site_fract_z
 _atom_site_occupancy
  Y  Y0  1  0.250000  0.480649  0.199492  1
  Y  Y1  1  0.750000  0.519351  0.800508  1
  Y  Y2  1  0.250000  0.985364  0.304445  1
  Y  Y3  1  0.750000  0.014636  0.695555  1
  Zn  Zn4  1  0.250000  0.824026  0.920668  1
  Zn  Zn5  1  0.750000  0.175974  0.079332  1
  Si  Si6  1  0.250000  0.314901  0.581302  1
  Si  Si7  1  0.750000  0.685099  0.418698  1
  Ni  Ni8  1  0.750000  0.782714  0.109091  1
  Ni  Ni9  1  0.250000  0.217286  0.890909  1
  Ni  Ni10  1  0.750000  0.318166  0.427656  1
  Ni  Ni11  1  0.250000  0.681834  0.572344  1
