# generated using pymatgen
data_Hf8Nb11Si16Os
_symmetry_space_group_name_H-M   'P 1'
_cell_length_a   6.84682052
_cell_length_b   6.84538327
_cell_length_c   12.66584607
_cell_angle_alpha   89.72595398
_cell_angle_beta   89.99823676
_cell_angle_gamma   89.82161591
_symmetry_Int_Tables_number   1
_chemical_formula_structural   Hf8Nb11Si16Os
_chemical_formula_sum   'Hf8 Nb11 Si16 Os1'
_cell_volume   593.62727313
_cell_formula_units_Z   1
loop_
 _symmetry_equiv_pos_site_id
 _symmetry_equiv_pos_as_xyz
  1  'x, y, z'
loop_
 _atom_site_type_symbol
 _atom_site_label
 _atom_site_symmetry_multiplicity
 _atom_site_fract_x
 _atom_site_fract_y
 _atom_site_fract_z
 _atom_site_occupancy
  Hf  Hf0  1  0.999780  0.344637  0.218334  1
  Hf  Hf1  1  0.999042  0.661087  0.718455  1
  Hf  Hf2  1  0.159048  0.505756  0.468680  1
  Hf  Hf3  1  0.498499  0.837999  0.032291  1
  Hf  Hf4  1  0.838391  0.499108  0.969561  1
  Hf  Hf5  1  0.503866  0.159709  0.530424  1
  Hf  Hf6  1  0.338301  0.999442  0.779816  1
  Hf  Hf7  1  0.665327  0.996883  0.277500  1
  Nb  Nb8  1  0.167753  0.166009  0.001644  1
  Nb  Nb9  1  0.828520  0.832576  0.499438  1
  Nb  Nb10  1  0.327867  0.666678  0.250666  1
  Nb  Nb11  1  0.668444  0.330234  0.749180  1
  Nb  Nb12  1  0.845668  0.002457  0.875213  1
  Nb  Nb13  1  0.497759  0.654549  0.625338  1
  Nb  Nb14  1  0.346784  0.496374  0.873467  1
  Nb  Nb15  1  0.494547  0.339232  0.127529  1
  Nb  Nb16  1  0.654977  0.499622  0.372372  1
  Nb  Nb17  1  0.997273  0.152265  0.623829  1
  Nb  Nb18  1  0.999911  0.841601  0.121031  1
  Si  Si19  1  0.292419  0.037379  0.192794  1
  Si  Si20  1  0.700509  0.955374  0.685652  1
  Si  Si21  1  0.454225  0.801104  0.434227  1
  Si  Si22  1  0.201708  0.540679  0.063470  1
  Si  Si23  1  0.541725  0.199055  0.936819  1
  Si  Si24  1  0.798362  0.457591  0.562483  1
  Si  Si25  1  0.042823  0.299570  0.813928  1
  Si  Si26  1  0.963683  0.717763  0.315544  1
  Si  Si27  1  0.365488  0.291609  0.323920  1
  Si  Si28  1  0.633775  0.708227  0.822855  1
  Si  Si29  1  0.204122  0.865632  0.569908  1
  Si  Si30  1  0.135778  0.791311  0.927209  1
  Si  Si31  1  0.791063  0.133516  0.073669  1
  Si  Si32  1  0.872808  0.203318  0.425405  1
  Si  Si33  1  0.290976  0.363584  0.676434  1
  Si  Si34  1  0.707773  0.629210  0.176949  1
  Os  Os35  1  0.171003  0.018861  0.383962  1
