# generated using pymatgen
data_Sc6Sn6IrPtRh4
_symmetry_space_group_name_H-M   'P 1'
_cell_length_a   7.54693200
_cell_length_b   7.54693178
_cell_length_c   7.01546000
_cell_angle_alpha   90.00000000
_cell_angle_beta   90.00000000
_cell_angle_gamma   120.00000974
_symmetry_Int_Tables_number   1
_chemical_formula_structural   Sc6Sn6IrPtRh4
_chemical_formula_sum   'Sc6 Sn6 Ir1 Pt1 Rh4'
_cell_volume   346.04103548
_cell_formula_units_Z   1
loop_
 _symmetry_equiv_pos_site_id
 _symmetry_equiv_pos_as_xyz
  1  'x, y, z'
loop_
 _atom_site_type_symbol
 _atom_site_label
 _atom_site_symmetry_multiplicity
 _atom_site_fract_x
 _atom_site_fract_y
 _atom_site_fract_z
 _atom_site_occupancy
  Sc  Sc0  1  0.394773  0.996974  0.249828  1
  Sc  Sc1  1  0.602201  0.605227  0.249828  1
  Sc  Sc2  1  0.003026  0.397799  0.249828  1
  Sc  Sc3  1  0.394270  0.995981  0.750076  1
  Sc  Sc4  1  0.601711  0.605730  0.750076  1
  Sc  Sc5  1  0.004019  0.398289  0.750076  1
  Sn  Sn6  1  0.281236  0.280207  0.999946  1
  Sn  Sn7  1  0.998972  0.718764  0.999946  1
  Sn  Sn8  1  0.002618  0.734178  0.499903  1
  Sn  Sn9  1  0.731559  0.997382  0.499903  1
  Sn  Sn10  1  0.265822  0.268441  0.499903  1
  Sn  Sn11  1  0.719793  0.001028  0.999946  1
  Ir  Ir12  1  0.333333  0.666667  0.498979  1
  Pt  Pt13  1  0.666667  0.333333  0.501283  1
  Rh  Rh14  1  0.000000  0.000000  0.764892  1
  Rh  Rh15  1  0.000000  0.000000  0.234883  1
  Rh  Rh16  1  0.666667  0.333333  0.999332  1
  Rh  Rh17  1  0.333333  0.666667  0.001368  1
