# generated using pymatgen
data_Tb2CeNd(ReB6)2
_symmetry_space_group_name_H-M   'P 1'
_cell_length_a   3.74168800
_cell_length_b   9.26140501
_cell_length_c   11.66561793
_cell_angle_alpha   90.18047152
_cell_angle_beta   90.00000000
_cell_angle_gamma   90.00000000
_symmetry_Int_Tables_number   1
_chemical_formula_structural   Tb2CeNd(ReB6)2
_chemical_formula_sum   'Tb4 Ce2 Nd2 Re4 B24'
_cell_volume   404.25001244
_cell_formula_units_Z   2
loop_
 _symmetry_equiv_pos_site_id
 _symmetry_equiv_pos_as_xyz
  1  'x, y, z'
loop_
 _atom_site_type_symbol
 _atom_site_label
 _atom_site_symmetry_multiplicity
 _atom_site_fract_x
 _atom_site_fract_y
 _atom_site_fract_z
 _atom_site_occupancy
  Tb  Tb0  1  0.000000  0.943428  0.371170  1
  Tb  Tb1  1  0.000000  0.056572  0.628830  1
  Tb  Tb2  1  0.000000  0.443083  0.129861  1
  Tb  Tb3  1  0.000000  0.556917  0.870139  1
  Ce  Ce4  1  0.000000  0.323007  0.413945  1
  Ce  Ce5  1  0.000000  0.676993  0.586055  1
  Nd  Nd6  1  0.000000  0.823796  0.086086  1
  Nd  Nd7  1  0.000000  0.176204  0.913914  1
  Re  Re8  1  0.000000  0.636760  0.323232  1
  Re  Re9  1  0.000000  0.363240  0.676768  1
  Re  Re10  1  0.000000  0.140807  0.181895  1
  Re  Re11  1  0.000000  0.859193  0.818105  1
  B  B12  1  0.500000  0.553948  0.431893  1
  B  B13  1  0.500000  0.446052  0.568107  1
  B  B14  1  0.500000  0.055040  0.069234  1
  B  B15  1  0.500000  0.944960  0.930766  1
  B  B16  1  0.500000  0.748051  0.418153  1
  B  B17  1  0.500000  0.251949  0.581847  1
  B  B18  1  0.500000  0.248764  0.083560  1
  B  B19  1  0.500000  0.751236  0.916440  1
  B  B20  1  0.500000  0.790375  0.267572  1
  B  B21  1  0.500000  0.209625  0.732428  1
  B  B22  1  0.500000  0.291381  0.234634  1
  B  B23  1  0.500000  0.708619  0.765366  1
  B  B24  1  0.500000  0.630233  0.187533  1
  B  B25  1  0.500000  0.369767  0.812467  1
  B  B26  1  0.500000  0.132346  0.314171  1
  B  B27  1  0.500000  0.867654  0.685829  1
  B  B28  1  0.500000  0.985258  0.213339  1
  B  B29  1  0.500000  0.014742  0.786661  1
  B  B30  1  0.500000  0.483928  0.288101  1
  B  B31  1  0.500000  0.516072  0.711899  1
  B  B32  1  0.500000  0.598909  0.027743  1
  B  B33  1  0.500000  0.401091  0.972257  1
  B  B34  1  0.500000  0.105539  0.470833  1
  B  B35  1  0.500000  0.894461  0.529167  1
