# generated using pymatgen
data_Ti6ReSi6Tc5
_symmetry_space_group_name_H-M   'P 1'
_cell_length_a   7.52905382
_cell_length_b   7.53799159
_cell_length_c   7.52984565
_cell_angle_alpha   126.25224570
_cell_angle_beta   128.99261820
_cell_angle_gamma   77.23236680
_symmetry_Int_Tables_number   1
_chemical_formula_structural   Ti6ReSi6Tc5
_chemical_formula_sum   'Ti6 Re1 Si6 Tc5'
_cell_volume   259.95178842
_cell_formula_units_Z   1
loop_
 _symmetry_equiv_pos_site_id
 _symmetry_equiv_pos_as_xyz
  1  'x, y, z'
loop_
 _atom_site_type_symbol
 _atom_site_label
 _atom_site_symmetry_multiplicity
 _atom_site_fract_x
 _atom_site_fract_y
 _atom_site_fract_z
 _atom_site_occupancy
  Ti  Ti0  1  0.451315  0.406135  0.454623  1
  Ti  Ti1  1  0.547792  0.003743  0.955721  1
  Ti  Ti2  1  0.047886  0.003792  0.456126  1
  Ti  Ti3  1  0.951647  0.406402  0.954959  1
  Ti  Ti4  1  0.249871  0.600664  0.850071  1
  Ti  Ti5  1  0.750731  0.600849  0.350865  1
  Re  Re6  1  0.131448  0.003100  0.871759  1
  Si  Si7  1  0.250163  0.002843  0.254744  1
  Si  Si8  1  0.748182  0.002935  0.752685  1
  Si  Si9  1  0.166773  0.669213  0.502616  1
  Si  Si10  1  0.833568  0.336946  0.503175  1
  Si  Si11  1  0.666711  0.669540  0.002646  1
  Si  Si12  1  0.333885  0.337410  0.003751  1
  Tc  Tc13  1  0.000315  0.264604  0.264241  1
  Tc  Tc14  1  0.500107  0.264827  0.764671  1
  Tc  Tc15  1  0.369092  0.740753  0.371779  1
  Tc  Tc16  1  0.631197  0.003075  0.371791  1
  Tc  Tc17  1  0.869317  0.741171  0.871783  1
