# generated using pymatgen
data_Hf4TaTi(B2Ru5)2
_symmetry_space_group_name_H-M   'P 1'
_cell_length_a   9.42432000
_cell_length_b   9.42432000
_cell_length_c   3.10167200
_cell_angle_alpha   90.00000000
_cell_angle_beta   90.00000000
_cell_angle_gamma   90.00000000
_symmetry_Int_Tables_number   1
_chemical_formula_structural   Hf4TaTi(B2Ru5)2
_chemical_formula_sum   'Hf4 Ta1 Ti1 B4 Ru10'
_cell_volume   275.48370651
_cell_formula_units_Z   1
loop_
 _symmetry_equiv_pos_site_id
 _symmetry_equiv_pos_as_xyz
  1  'x, y, z'
loop_
 _atom_site_type_symbol
 _atom_site_label
 _atom_site_symmetry_multiplicity
 _atom_site_fract_x
 _atom_site_fract_y
 _atom_site_fract_z
 _atom_site_occupancy
  Hf  Hf0  1  0.822149  0.674384  0.000000  1
  Hf  Hf1  1  0.177851  0.325616  0.000000  1
  Hf  Hf2  1  0.325616  0.822149  0.000000  1
  Hf  Hf3  1  0.674384  0.177851  0.000000  1
  Ta  Ta4  1  0.000000  0.000000  0.000000  1
  Ti  Ti5  1  0.500000  0.500000  0.000000  1
  B  B6  1  0.619513  0.875042  0.000000  1
  B  B7  1  0.380487  0.124958  0.000000  1
  B  B8  1  0.124958  0.619513  0.000000  1
  B  B9  1  0.875042  0.380487  0.000000  1
  Ru  Ru10  1  0.570275  0.715959  0.500000  1
  Ru  Ru11  1  0.429725  0.284041  0.500000  1
  Ru  Ru12  1  0.070947  0.781755  0.500000  1
  Ru  Ru13  1  0.929053  0.218245  0.500000  1
  Ru  Ru14  1  0.284041  0.570275  0.500000  1
  Ru  Ru15  1  0.715959  0.429725  0.500000  1
  Ru  Ru16  1  0.218245  0.070947  0.500000  1
  Ru  Ru17  1  0.781755  0.929053  0.500000  1
  Ru  Ru18  1  0.500000  0.000000  0.500000  1
  Ru  Ru19  1  0.000000  0.500000  0.500000  1
