# generated using pymatgen
data_Cs(Ti3Se4)4
_symmetry_space_group_name_H-M   'P 1'
_cell_length_a   7.13733422
_cell_length_b   10.04303005
_cell_length_c   10.64275163
_cell_angle_alpha   118.09324018
_cell_angle_beta   109.55215375
_cell_angle_gamma   90.03101079
_symmetry_Int_Tables_number   1
_chemical_formula_structural   Cs(Ti3Se4)4
_chemical_formula_sum   'Cs1 Ti12 Se16'
_cell_volume   622.61002660
_cell_formula_units_Z   1
loop_
 _symmetry_equiv_pos_site_id
 _symmetry_equiv_pos_as_xyz
  1  'x, y, z'
loop_
 _atom_site_type_symbol
 _atom_site_label
 _atom_site_symmetry_multiplicity
 _atom_site_fract_x
 _atom_site_fract_y
 _atom_site_fract_z
 _atom_site_occupancy
  Cs  Cs0  1  0.000000  0.000000  0.000000  1
  Ti  Ti1  1  0.557691  0.359848  0.867792  1
  Ti  Ti2  1  0.060052  0.358453  0.867661  1
  Ti  Ti3  1  0.372243  0.131804  0.492266  1
  Ti  Ti4  1  0.867445  0.133138  0.489647  1
  Ti  Ti5  1  0.444845  0.510356  0.643341  1
  Ti  Ti6  1  0.946066  0.507720  0.639518  1
  Ti  Ti7  1  0.939948  0.641547  0.132339  1
  Ti  Ti8  1  0.442309  0.640152  0.132208  1
  Ti  Ti9  1  0.132555  0.866862  0.510353  1
  Ti  Ti10  1  0.627757  0.868196  0.507734  1
  Ti  Ti11  1  0.053934  0.492280  0.360482  1
  Ti  Ti12  1  0.555155  0.489644  0.356659  1
  Se  Se13  1  0.972299  0.051325  0.693109  1
  Se  Se14  1  0.473986  0.050548  0.697231  1
  Se  Se15  1  0.802084  0.302810  0.352996  1
  Se  Se16  1  0.305534  0.306588  0.358471  1
  Se  Se17  1  0.101184  0.642435  0.948470  1
  Se  Se18  1  0.600057  0.646864  0.949992  1
  Se  Se19  1  0.526014  0.949452  0.302769  1
  Se  Se20  1  0.027701  0.948675  0.306891  1
  Se  Se21  1  0.694466  0.693412  0.641529  1
  Se  Se22  1  0.197916  0.697190  0.647004  1
  Se  Se23  1  0.399943  0.353136  0.050008  1
  Se  Se24  1  0.898816  0.357565  0.051530  1
  Se  Se25  1  0.792023  0.667400  0.333902  1
  Se  Se26  1  0.291520  0.665907  0.332631  1
  Se  Se27  1  0.708480  0.334093  0.667369  1
  Se  Se28  1  0.207977  0.332600  0.666098  1
