# generated using pymatgen
data_Li4Tb4Sn3Sb
_symmetry_space_group_name_H-M   'P 1'
_cell_length_a   9.40455601
_cell_length_b   9.39717521
_cell_length_c   7.29986410
_cell_angle_alpha   90.06568325
_cell_angle_beta   89.99958269
_cell_angle_gamma   120.03185503
_symmetry_Int_Tables_number   1
_chemical_formula_structural   Li4Tb4Sn3Sb
_chemical_formula_sum   'Li8 Tb8 Sn6 Sb2'
_cell_volume   558.52311982
_cell_formula_units_Z   2
loop_
 _symmetry_equiv_pos_site_id
 _symmetry_equiv_pos_as_xyz
  1  'x, y, z'
loop_
 _atom_site_type_symbol
 _atom_site_label
 _atom_site_symmetry_multiplicity
 _atom_site_fract_x
 _atom_site_fract_y
 _atom_site_fract_z
 _atom_site_occupancy
  Li  Li0  1  0.166350  0.332685  0.214775  1
  Li  Li1  1  0.167157  0.833993  0.213683  1
  Li  Li2  1  0.666854  0.833987  0.213692  1
  Li  Li3  1  0.666361  0.332690  0.324196  1
  Li  Li4  1  0.833282  0.666579  0.714405  1
  Li  Li5  1  0.333589  0.166769  0.714330  1
  Li  Li6  1  0.833171  0.166773  0.714321  1
  Li  Li7  1  0.333321  0.666662  0.825159  1
  Tb  Tb8  1  0.000954  0.001905  0.998529  1
  Tb  Tb9  1  0.512234  0.024488  0.004793  1
  Tb  Tb10  1  0.510324  0.487474  0.004117  1
  Tb  Tb11  1  0.977167  0.487494  0.004112  1
  Tb  Tb12  1  0.000905  0.001805  0.501665  1
  Tb  Tb13  1  0.489937  0.979893  0.508017  1
  Tb  Tb14  1  0.020615  0.508278  0.509483  1
  Tb  Tb15  1  0.487661  0.508287  0.509476  1
  Sn  Sn16  1  0.334206  0.167574  0.267934  1
  Sn  Sn17  1  0.833358  0.167576  0.267917  1
  Sn  Sn18  1  0.667044  0.334075  0.738996  1
  Sn  Sn19  1  0.167057  0.334097  0.766771  1
  Sn  Sn20  1  0.166662  0.832415  0.767428  1
  Sn  Sn21  1  0.665775  0.832421  0.767402  1
  Sb  Sb22  1  0.333042  0.666121  0.240514  1
  Sb  Sb23  1  0.832975  0.665956  0.266264  1
