# generated using pymatgen
data_Hf16Pd5Rh3C4
_symmetry_space_group_name_H-M   'P 1'
_cell_length_a   8.78140242
_cell_length_b   8.79798142
_cell_length_c   8.79798000
_cell_angle_alpha   60.00000535
_cell_angle_beta   59.93753223
_cell_angle_gamma   59.93753125
_symmetry_Int_Tables_number   1
_chemical_formula_structural   Hf16Pd5Rh3C4
_chemical_formula_sum   'Hf16 Pd5 Rh3 C4'
_cell_volume   480.18014729
_cell_formula_units_Z   1
loop_
 _symmetry_equiv_pos_site_id
 _symmetry_equiv_pos_as_xyz
  1  'x, y, z'
loop_
 _atom_site_type_symbol
 _atom_site_label
 _atom_site_symmetry_multiplicity
 _atom_site_fract_x
 _atom_site_fract_y
 _atom_site_fract_z
 _atom_site_occupancy
  Hf  Hf0  1  0.116324  0.627892  0.627892  1
  Hf  Hf1  1  0.629082  0.119416  0.625751  1
  Hf  Hf2  1  0.629082  0.625751  0.119416  1
  Hf  Hf3  1  0.629082  0.625751  0.625751  1
  Hf  Hf4  1  0.817352  0.817827  0.182410  1
  Hf  Hf5  1  0.178113  0.185455  0.818216  1
  Hf  Hf6  1  0.817352  0.182410  0.817827  1
  Hf  Hf7  1  0.178113  0.818216  0.185455  1
  Hf  Hf8  1  0.178113  0.818216  0.818216  1
  Hf  Hf9  1  0.817352  0.182410  0.182410  1
  Hf  Hf10  1  0.433834  0.432567  0.066800  1
  Hf  Hf11  1  0.066198  0.066304  0.433749  1
  Hf  Hf12  1  0.433834  0.066800  0.432567  1
  Hf  Hf13  1  0.066198  0.433749  0.066304  1
  Hf  Hf14  1  0.066198  0.433749  0.433749  1
  Hf  Hf15  1  0.433834  0.066800  0.066800  1
  Pd  Pd16  1  0.765350  0.411549  0.411549  1
  Pd  Pd17  1  0.412374  0.764149  0.411738  1
  Pd  Pd18  1  0.412374  0.411738  0.764149  1
  Pd  Pd19  1  0.412374  0.411738  0.411738  1
  Pd  Pd20  1  0.484144  0.838619  0.838619  1
  Rh  Rh21  1  0.840270  0.481178  0.839277  1
  Rh  Rh22  1  0.840270  0.839277  0.481178  1
  Rh  Rh23  1  0.840270  0.839277  0.839277  1
  C  C24  1  0.625119  0.124960  0.124960  1
  C  C25  1  0.125798  0.625094  0.124554  1
  C  C26  1  0.125798  0.124554  0.625094  1
  C  C27  1  0.125798  0.124554  0.124554  1
