# generated using pymatgen
data_Th5SnBi2P
_symmetry_space_group_name_H-M   'P 1'
_cell_length_a   9.53047029
_cell_length_b   9.53047004
_cell_length_c   6.69020500
_cell_angle_alpha   90.00000000
_cell_angle_beta   90.00000000
_cell_angle_gamma   120.02842896
_symmetry_Int_Tables_number   1
_chemical_formula_structural   Th5SnBi2P
_chemical_formula_sum   'Th10 Sn2 Bi4 P2'
_cell_volume   526.10717702
_cell_formula_units_Z   2
loop_
 _symmetry_equiv_pos_site_id
 _symmetry_equiv_pos_as_xyz
  1  'x, y, z'
loop_
 _atom_site_type_symbol
 _atom_site_label
 _atom_site_symmetry_multiplicity
 _atom_site_fract_x
 _atom_site_fract_y
 _atom_site_fract_z
 _atom_site_occupancy
  Th  Th0  1  0.667609  0.331245  0.004044  1
  Th  Th1  1  0.331245  0.667609  0.004044  1
  Th  Th2  1  0.331245  0.667609  0.495956  1
  Th  Th3  1  0.667609  0.331245  0.495956  1
  Th  Th4  1  0.754907  0.754907  0.750000  1
  Th  Th5  1  0.246722  0.000120  0.750000  1
  Th  Th6  1  0.000120  0.246722  0.750000  1
  Th  Th7  1  0.243528  0.243528  0.250000  1
  Th  Th8  1  0.754384  0.003266  0.250000  1
  Th  Th9  1  0.003266  0.754384  0.250000  1
  Sn  Sn10  1  0.393385  0.000765  0.250000  1
  Sn  Sn11  1  0.000765  0.393385  0.250000  1
  Bi  Bi12  1  0.395159  0.395159  0.750000  1
  Bi  Bi13  1  0.604898  0.999717  0.750000  1
  Bi  Bi14  1  0.999717  0.604898  0.750000  1
  Bi  Bi15  1  0.606881  0.606881  0.250000  1
  P  P16  1  0.999279  0.999279  0.999609  1
  P  P17  1  0.999279  0.999279  0.500391  1
