# generated using pymatgen
data_Ta5Ti5(Si3C)2
_symmetry_space_group_name_H-M   'P 1'
_cell_length_a   7.51766917
_cell_length_b   7.51766895
_cell_length_c   5.20859900
_cell_angle_alpha   90.00000000
_cell_angle_beta   90.00000000
_cell_angle_gamma   120.02442895
_symmetry_Int_Tables_number   1
_chemical_formula_structural   Ta5Ti5(Si3C)2
_chemical_formula_sum   'Ta5 Ti5 Si6 C2'
_cell_volume   254.86547136
_cell_formula_units_Z   1
loop_
 _symmetry_equiv_pos_site_id
 _symmetry_equiv_pos_as_xyz
  1  'x, y, z'
loop_
 _atom_site_type_symbol
 _atom_site_label
 _atom_site_symmetry_multiplicity
 _atom_site_fract_x
 _atom_site_fract_y
 _atom_site_fract_z
 _atom_site_occupancy
  Ta  Ta0  1  0.238692  0.000722  0.250000  1
  Ta  Ta1  1  0.762394  0.000383  0.750000  1
  Ta  Ta2  1  0.000722  0.238692  0.250000  1
  Ta  Ta3  1  0.000383  0.762394  0.750000  1
  Ta  Ta4  1  0.759951  0.759951  0.250000  1
  Ti  Ti5  1  0.333549  0.667231  0.999516  1
  Ti  Ti6  1  0.667231  0.333549  0.999516  1
  Ti  Ti7  1  0.667231  0.333549  0.500484  1
  Ti  Ti8  1  0.333549  0.667231  0.500484  1
  Ti  Ti9  1  0.236528  0.236528  0.750000  1
  Si  Si10  1  0.591082  0.999901  0.250000  1
  Si  Si11  1  0.408933  0.002281  0.750000  1
  Si  Si12  1  0.999901  0.591082  0.250000  1
  Si  Si13  1  0.002281  0.408933  0.750000  1
  Si  Si14  1  0.408038  0.408038  0.250000  1
  Si  Si15  1  0.587627  0.587627  0.750000  1
  C  C16  1  0.000955  0.000955  0.999152  1
  C  C17  1  0.000955  0.000955  0.500848  1
