# generated using pymatgen
data_Tb2Lu10In2FeTc2
_symmetry_space_group_name_H-M   'P 1'
_cell_length_a   8.26839318
_cell_length_b   8.26839422
_cell_length_c   8.29091732
_cell_angle_alpha   108.68595467
_cell_angle_beta   108.68595639
_cell_angle_gamma   110.94629851
_symmetry_Int_Tables_number   1
_chemical_formula_structural   Tb2Lu10In2FeTc2
_chemical_formula_sum   'Tb2 Lu10 In2 Fe1 Tc2'
_cell_volume   436.68010845
_cell_formula_units_Z   1
loop_
 _symmetry_equiv_pos_site_id
 _symmetry_equiv_pos_as_xyz
  1  'x, y, z'
loop_
 _atom_site_type_symbol
 _atom_site_label
 _atom_site_symmetry_multiplicity
 _atom_site_fract_x
 _atom_site_fract_y
 _atom_site_fract_z
 _atom_site_occupancy
  Tb  Tb0  1  0.303500  0.303500  0.609105  1
  Tb  Tb1  1  0.694395  0.694395  0.390895  1
  Lu  Lu2  1  0.693858  0.304351  0.000000  1
  Lu  Lu3  1  0.304351  0.693858  0.000000  1
  Lu  Lu4  1  0.188465  0.429938  0.238928  1
  Lu  Lu5  1  0.809028  0.570967  0.764212  1
  Lu  Lu6  1  0.191010  0.949537  0.761072  1
  Lu  Lu7  1  0.949537  0.191010  0.761072  1
  Lu  Lu8  1  0.806755  0.044818  0.235788  1
  Lu  Lu9  1  0.044818  0.806755  0.235788  1
  Lu  Lu10  1  0.429938  0.188465  0.238928  1
  Lu  Lu11  1  0.570967  0.809028  0.764212  1
  In  In12  1  0.998027  0.498027  0.500000  1
  In  In13  1  0.498027  0.998027  0.500000  1
  Fe  Fe14  1  0.631488  0.631488  0.000000  1
  Tc  Tc15  1  0.385072  0.385072  0.000000  1
  Tc  Tc16  1  0.000765  0.000765  0.000000  1
