# generated using pymatgen
data_Ho4Co3Ni(SnH)4
_symmetry_space_group_name_H-M   'P 1'
_cell_length_a   4.26023200
_cell_length_b   7.07460078
_cell_length_c   8.17102545
_cell_angle_alpha   90.31952270
_cell_angle_beta   90.00000000
_cell_angle_gamma   90.00000000
_symmetry_Int_Tables_number   1
_chemical_formula_structural   Ho4Co3Ni(SnH)4
_chemical_formula_sum   'Ho4 Co3 Ni1 Sn4 H4'
_cell_volume   246.26630683
_cell_formula_units_Z   1
loop_
 _symmetry_equiv_pos_site_id
 _symmetry_equiv_pos_as_xyz
  1  'x, y, z'
loop_
 _atom_site_type_symbol
 _atom_site_label
 _atom_site_symmetry_multiplicity
 _atom_site_fract_x
 _atom_site_fract_y
 _atom_site_fract_z
 _atom_site_occupancy
  Ho  Ho0  1  0.750000  0.014574  0.686093  1
  Ho  Ho1  1  0.250000  0.987779  0.315155  1
  Ho  Ho2  1  0.250000  0.483792  0.187400  1
  Ho  Ho3  1  0.750000  0.510939  0.811720  1
  Co  Co4  1  0.250000  0.228629  0.897706  1
  Co  Co5  1  0.250000  0.728299  0.604198  1
  Co  Co6  1  0.750000  0.270639  0.394093  1
  Ni  Ni7  1  0.750000  0.773016  0.104327  1
  Sn  Sn8  1  0.750000  0.654706  0.428958  1
  Sn  Sn9  1  0.250000  0.343450  0.573121  1
  Sn  Sn10  1  0.250000  0.845971  0.925699  1
  Sn  Sn11  1  0.750000  0.158550  0.072859  1
  H  H12  1  0.250000  0.450520  0.919575  1
  H  H13  1  0.750000  0.549729  0.078715  1
  H  H14  1  0.750000  0.049198  0.419097  1
  H  H15  1  0.250000  0.950210  0.581284  1
