# generated using pymatgen
data_PrNd3(IrBr)2
_symmetry_space_group_name_H-M   'P 1'
_cell_length_a   4.16165100
_cell_length_b   4.16164946
_cell_length_c   15.71425200
_cell_angle_alpha   90.00000000
_cell_angle_beta   90.00000000
_cell_angle_gamma   120.00000428
_symmetry_Int_Tables_number   1
_chemical_formula_structural   PrNd3(IrBr)2
_chemical_formula_sum   'Pr1 Nd3 Ir2 Br2'
_cell_volume   235.69777345
_cell_formula_units_Z   1
loop_
 _symmetry_equiv_pos_site_id
 _symmetry_equiv_pos_as_xyz
  1  'x, y, z'
loop_
 _atom_site_type_symbol
 _atom_site_label
 _atom_site_symmetry_multiplicity
 _atom_site_fract_x
 _atom_site_fract_y
 _atom_site_fract_z
 _atom_site_occupancy
  Pr  Pr0  1  0.333333  0.666667  0.402619  1
  Nd  Nd1  1  0.333333  0.666667  0.096609  1
  Nd  Nd2  1  0.666667  0.333333  0.598419  1
  Nd  Nd3  1  0.666667  0.333333  0.902675  1
  Ir  Ir4  1  0.000000  0.000000  0.999515  1
  Ir  Ir5  1  0.000000  0.000000  0.501385  1
  Br  Br6  1  0.666667  0.333333  0.248312  1
  Br  Br7  1  0.333333  0.666667  0.750466  1
