# generated using pymatgen
data_Cs8Rb4Na4Si15Sn
_symmetry_space_group_name_H-M   'P 1'
_cell_length_a   8.09233392
_cell_length_b   11.09456900
_cell_length_c   13.26408400
_cell_angle_alpha   90.00000000
_cell_angle_beta   89.70921786
_cell_angle_gamma   90.00000000
_symmetry_Int_Tables_number   1
_chemical_formula_structural   Cs8Rb4Na4Si15Sn
_chemical_formula_sum   'Cs8 Rb4 Na4 Si15 Sn1'
_cell_volume   1190.84681874
_cell_formula_units_Z   1
loop_
 _symmetry_equiv_pos_site_id
 _symmetry_equiv_pos_as_xyz
  1  'x, y, z'
loop_
 _atom_site_type_symbol
 _atom_site_label
 _atom_site_symmetry_multiplicity
 _atom_site_fract_x
 _atom_site_fract_y
 _atom_site_fract_z
 _atom_site_occupancy
  Cs  Cs0  1  0.654665  0.444084  0.694487  1
  Cs  Cs1  1  0.157602  0.069084  0.807734  1
  Cs  Cs2  1  0.339965  0.941876  0.309785  1
  Cs  Cs3  1  0.839152  0.560623  0.192010  1
  Cs  Cs4  1  0.339965  0.558124  0.309785  1
  Cs  Cs5  1  0.839152  0.939377  0.192010  1
  Cs  Cs6  1  0.654665  0.055916  0.694487  1
  Cs  Cs7  1  0.157602  0.430916  0.807734  1
  Rb  Rb8  1  0.649059  0.250000  0.399420  1
  Rb  Rb9  1  0.146394  0.250000  0.105270  1
  Rb  Rb10  1  0.347623  0.750000  0.595201  1
  Rb  Rb11  1  0.860960  0.750000  0.895665  1
  Na  Na12  1  0.500802  0.497858  0.001886  1
  Na  Na13  1  0.997244  0.999598  0.501544  1
  Na  Na14  1  0.500802  0.002142  0.001886  1
  Na  Na15  1  0.997244  0.500402  0.501544  1
  Si  Si16  1  0.848695  0.750000  0.593952  1
  Si  Si17  1  0.649686  0.250000  0.097525  1
  Si  Si18  1  0.150176  0.250000  0.403623  1
  Si  Si19  1  0.712669  0.642514  0.454811  1
  Si  Si20  1  0.214468  0.857346  0.046904  1
  Si  Si21  1  0.285014  0.142523  0.543215  1
  Si  Si22  1  0.789002  0.357481  0.958613  1
  Si  Si23  1  0.024899  0.250000  0.574434  1
  Si  Si24  1  0.531045  0.250000  0.925163  1
  Si  Si25  1  0.972188  0.750000  0.422355  1
  Si  Si26  1  0.472793  0.750000  0.081062  1
  Si  Si27  1  0.214468  0.642654  0.046904  1
  Si  Si28  1  0.712669  0.857486  0.454811  1
  Si  Si29  1  0.789002  0.142519  0.958613  1
  Si  Si30  1  0.285014  0.357477  0.543215  1
  Sn  Sn31  1  0.365309  0.750000  0.884352  1
