# generated using pymatgen
data_NaLi2Ta2Ni9P7
_symmetry_space_group_name_H-M   'P 1'
_cell_length_a   9.17678785
_cell_length_b   9.21897339
_cell_length_c   3.66502600
_cell_angle_alpha   90.00000000
_cell_angle_beta   90.00000000
_cell_angle_gamma   119.94668773
_symmetry_Int_Tables_number   1
_chemical_formula_structural   NaLi2Ta2Ni9P7
_chemical_formula_sum   'Na1 Li2 Ta2 Ni9 P7'
_cell_volume   268.66679949
_cell_formula_units_Z   1
loop_
 _symmetry_equiv_pos_site_id
 _symmetry_equiv_pos_as_xyz
  1  'x, y, z'
loop_
 _atom_site_type_symbol
 _atom_site_label
 _atom_site_symmetry_multiplicity
 _atom_site_fract_x
 _atom_site_fract_y
 _atom_site_fract_z
 _atom_site_occupancy
  Na  Na0  1  0.330254  0.666204  0.000000  1
  Li  Li1  1  0.232343  0.108205  0.500000  1
  Li  Li2  1  0.665454  0.333502  0.500000  1
  Ta  Ta3  1  0.877007  0.778747  0.500000  1
  Ta  Ta4  1  0.897871  0.120793  0.500000  1
  Ni  Ni5  1  0.709506  0.873468  0.000000  1
  Ni  Ni6  1  0.168020  0.283632  0.000000  1
  Ni  Ni7  1  0.126745  0.845439  0.000000  1
  Ni  Ni8  1  0.629583  0.566614  0.000000  1
  Ni  Ni9  1  0.936012  0.368272  0.000000  1
  Ni  Ni10  1  0.432263  0.065035  0.000000  1
  Ni  Ni11  1  0.556621  0.948528  0.500000  1
  Ni  Ni12  1  0.390794  0.431126  0.500000  1
  Ni  Ni13  1  0.050040  0.610492  0.500000  1
  P  P14  1  0.581412  0.707682  0.500000  1
  P  P15  1  0.124757  0.413275  0.500000  1
  P  P16  1  0.286401  0.876450  0.500000  1
  P  P17  1  0.001437  0.002197  0.000000  1
  P  P18  1  0.883431  0.579005  0.000000  1
  P  P19  1  0.694265  0.117914  0.000000  1
  P  P20  1  0.425785  0.303420  0.000000  1
