# generated using pymatgen
data_Yb2LuPaPt4
_symmetry_space_group_name_H-M   'P 1'
_cell_length_a   4.39872200
_cell_length_b   5.62891933
_cell_length_c   7.16487254
_cell_angle_alpha   89.02389765
_cell_angle_beta   90.00000000
_cell_angle_gamma   90.00000000
_symmetry_Int_Tables_number   1
_chemical_formula_structural   Yb2LuPaPt4
_chemical_formula_sum   'Yb2 Lu1 Pa1 Pt4'
_cell_volume   177.37686836
_cell_formula_units_Z   1
loop_
 _symmetry_equiv_pos_site_id
 _symmetry_equiv_pos_as_xyz
  1  'x, y, z'
loop_
 _atom_site_type_symbol
 _atom_site_label
 _atom_site_symmetry_multiplicity
 _atom_site_fract_x
 _atom_site_fract_y
 _atom_site_fract_z
 _atom_site_occupancy
  Yb  Yb0  1  0.750000  0.855352  0.814474  1
  Yb  Yb1  1  0.250000  0.357851  0.682654  1
  Lu  Lu2  1  0.750000  0.642243  0.322143  1
  Pa  Pa3  1  0.250000  0.141598  0.183636  1
  Pt  Pt4  1  0.750000  0.157723  0.436293  1
  Pt  Pt5  1  0.250000  0.845276  0.524621  1
  Pt  Pt6  1  0.250000  0.663341  0.062015  1
  Pt  Pt7  1  0.750000  0.336615  0.974164  1
