# generated using pymatgen
data_Tb5Dy14Y(Cd3Os)2
_symmetry_space_group_name_H-M   'P 1'
_cell_length_a   9.60928106
_cell_length_b   9.61121581
_cell_length_c   9.93237500
_cell_angle_alpha   90.00000000
_cell_angle_beta   90.00000000
_cell_angle_gamma   120.00666081
_symmetry_Int_Tables_number   1
_chemical_formula_structural   Tb5Dy14Y(Cd3Os)2
_chemical_formula_sum   'Tb5 Dy14 Y1 Cd6 Os2'
_cell_volume   794.37178839
_cell_formula_units_Z   1
loop_
 _symmetry_equiv_pos_site_id
 _symmetry_equiv_pos_as_xyz
  1  'x, y, z'
loop_
 _atom_site_type_symbol
 _atom_site_label
 _atom_site_symmetry_multiplicity
 _atom_site_fract_x
 _atom_site_fract_y
 _atom_site_fract_z
 _atom_site_occupancy
  Tb  Tb0  1  0.539410  0.460594  0.250000  1
  Tb  Tb1  1  0.539410  0.078817  0.250000  1
  Tb  Tb2  1  0.921129  0.460565  0.250000  1
  Tb  Tb3  1  0.460551  0.539261  0.750000  1
  Tb  Tb4  1  0.460551  0.921289  0.750000  1
  Dy  Dy5  1  0.999841  0.999921  0.500123  1
  Dy  Dy6  1  0.999841  0.999921  0.999877  1
  Dy  Dy7  1  0.210028  0.790157  0.440315  1
  Dy  Dy8  1  0.210028  0.419872  0.440315  1
  Dy  Dy9  1  0.579866  0.789934  0.440579  1
  Dy  Dy10  1  0.790018  0.210002  0.559579  1
  Dy  Dy11  1  0.790018  0.580015  0.559579  1
  Dy  Dy12  1  0.419874  0.209936  0.559727  1
  Dy  Dy13  1  0.790018  0.210002  0.940421  1
  Dy  Dy14  1  0.790018  0.580015  0.940421  1
  Dy  Dy15  1  0.419874  0.209936  0.940273  1
  Dy  Dy16  1  0.210028  0.790157  0.059685  1
  Dy  Dy17  1  0.210028  0.419872  0.059685  1
  Dy  Dy18  1  0.579866  0.789934  0.059421  1
  Y  Y19  1  0.079226  0.539612  0.750000  1
  Cd  Cd20  1  0.886389  0.113651  0.250000  1
  Cd  Cd21  1  0.886389  0.772739  0.250000  1
  Cd  Cd22  1  0.227354  0.113677  0.250000  1
  Cd  Cd23  1  0.113886  0.886443  0.750000  1
  Cd  Cd24  1  0.113886  0.227442  0.750000  1
  Cd  Cd25  1  0.772563  0.886281  0.750000  1
  Os  Os26  1  0.333662  0.666832  0.250000  1
  Os  Os27  1  0.666255  0.333127  0.750000  1
