# generated using pymatgen
data_Ho12In2Si3Pt
_symmetry_space_group_name_H-M   'P 1'
_cell_length_a   8.51269099
_cell_length_b   8.51269190
_cell_length_c   8.51269274
_cell_angle_alpha   113.01616034
_cell_angle_beta   111.55045256
_cell_angle_gamma   103.98624810
_symmetry_Int_Tables_number   1
_chemical_formula_structural   Ho12In2Si3Pt
_chemical_formula_sum   'Ho12 In2 Si3 Pt1'
_cell_volume   471.56687269
_cell_formula_units_Z   1
loop_
 _symmetry_equiv_pos_site_id
 _symmetry_equiv_pos_as_xyz
  1  'x, y, z'
loop_
 _atom_site_type_symbol
 _atom_site_label
 _atom_site_symmetry_multiplicity
 _atom_site_fract_x
 _atom_site_fract_y
 _atom_site_fract_z
 _atom_site_occupancy
  Ho  Ho0  1  0.318658  0.621723  0.303064  1
  Ho  Ho1  1  0.678073  0.382711  0.704640  1
  Ho  Ho2  1  0.318658  0.015594  0.696936  1
  Ho  Ho3  1  0.678073  0.973434  0.295360  1
  Ho  Ho4  1  0.183935  0.284304  0.467566  1
  Ho  Ho5  1  0.816737  0.716369  0.532434  1
  Ho  Ho6  1  0.183935  0.716369  0.899632  1
  Ho  Ho7  1  0.816737  0.284304  0.100368  1
  Ho  Ho8  1  0.446069  0.241059  0.205010  1
  Ho  Ho9  1  0.554282  0.761850  0.792431  1
  Ho  Ho10  1  0.036049  0.241059  0.794990  1
  Ho  Ho11  1  0.969419  0.761850  0.207569  1
  In  In12  1  0.500948  0.500948  0.000000  1
  In  In13  1  0.999830  0.999830  0.000000  1
  Si  Si14  1  0.874232  0.374232  0.500000  1
  Si  Si15  1  0.363738  0.003159  0.360579  1
  Si  Si16  1  0.642580  0.003159  0.639421  1
  Pt  Pt17  1  0.118045  0.618045  0.500000  1
