# generated using pymatgen
data_Tb3ErGa20Pd11
_symmetry_space_group_name_H-M   'P 1'
_cell_length_a   4.28542574
_cell_length_b   10.91560361
_cell_length_c   13.58999258
_cell_angle_alpha   81.15593402
_cell_angle_beta   80.92840741
_cell_angle_gamma   78.67943047
_symmetry_Int_Tables_number   1
_chemical_formula_structural   Tb3ErGa20Pd11
_chemical_formula_sum   'Tb3 Er1 Ga20 Pd11'
_cell_volume   610.57781791
_cell_formula_units_Z   1
loop_
 _symmetry_equiv_pos_site_id
 _symmetry_equiv_pos_as_xyz
  1  'x, y, z'
loop_
 _atom_site_type_symbol
 _atom_site_label
 _atom_site_symmetry_multiplicity
 _atom_site_fract_x
 _atom_site_fract_y
 _atom_site_fract_z
 _atom_site_occupancy
  Tb  Tb0  1  0.122023  0.091560  0.664396  1
  Tb  Tb1  1  0.227289  0.365907  0.179512  1
  Tb  Tb2  1  0.772792  0.633941  0.820478  1
  Er  Er3  1  0.878174  0.908339  0.335310  1
  Ga  Ga4  1  0.994467  0.923133  0.087932  1
  Ga  Ga5  1  0.005319  0.076891  0.912472  1
  Ga  Ga6  1  0.933731  0.326328  0.806209  1
  Ga  Ga7  1  0.066082  0.674098  0.193739  1
  Ga  Ga8  1  0.896698  0.661924  0.544678  1
  Ga  Ga9  1  0.103526  0.337778  0.455172  1
  Ga  Ga10  1  0.798474  0.395558  0.007495  1
  Ga  Ga11  1  0.201434  0.604488  0.992643  1
  Ga  Ga12  1  0.744340  0.211883  0.299437  1
  Ga  Ga13  1  0.256167  0.787498  0.700166  1
  Ga  Ga14  1  0.699015  0.100116  0.501853  1
  Ga  Ga15  1  0.301882  0.899202  0.497037  1
  Ga  Ga16  1  0.613800  0.470564  0.301839  1
  Ga  Ga17  1  0.386136  0.529505  0.698220  1
  Ga  Ga18  1  0.603113  0.795530  0.998242  1
  Ga  Ga19  1  0.396637  0.204589  0.002138  1
  Ga  Ga20  1  0.456587  0.713470  0.373355  1
  Ga  Ga21  1  0.542741  0.287745  0.626773  1
  Ga  Ga22  1  0.365052  0.063848  0.206049  1
  Ga  Ga23  1  0.634859  0.935643  0.794638  1
  Pd  Pd24  1  0.499870  0.500415  0.499845  1
  Pd  Pd25  1  0.971774  0.428914  0.627538  1
  Pd  Pd26  1  0.028214  0.571312  0.372261  1
  Pd  Pd27  1  0.863601  0.162070  0.110727  1
  Pd  Pd28  1  0.136493  0.837946  0.889067  1
  Pd  Pd29  1  0.758736  0.874151  0.608380  1
  Pd  Pd30  1  0.241893  0.124972  0.391240  1
  Pd  Pd31  1  0.654585  0.579755  0.111075  1
  Pd  Pd32  1  0.345229  0.420503  0.889038  1
  Pd  Pd33  1  0.493747  0.827058  0.185449  1
  Pd  Pd34  1  0.505519  0.173366  0.815597  1
