# generated using pymatgen
data_K3RbHf6FeI18
_symmetry_space_group_name_H-M   'P 1'
_cell_length_a   11.31954181
_cell_length_b   11.43976625
_cell_length_c   11.55554991
_cell_angle_alpha   118.58593230
_cell_angle_beta   100.24823738
_cell_angle_gamma   103.57882542
_symmetry_Int_Tables_number   1
_chemical_formula_structural   K3RbHf6FeI18
_chemical_formula_sum   'K3 Rb1 Hf6 Fe1 I18'
_cell_volume   1201.11486835
_cell_formula_units_Z   1
loop_
 _symmetry_equiv_pos_site_id
 _symmetry_equiv_pos_as_xyz
  1  'x, y, z'
loop_
 _atom_site_type_symbol
 _atom_site_label
 _atom_site_symmetry_multiplicity
 _atom_site_fract_x
 _atom_site_fract_y
 _atom_site_fract_z
 _atom_site_occupancy
  K  K0  1  0.353379  0.463971  0.774811  1
  K  K1  1  0.680069  0.224168  0.562908  1
  K  K2  1  0.319571  0.775993  0.437606  1
  Rb  Rb3  1  0.652048  0.537118  0.227365  1
  Hf  Hf4  1  0.144062  0.052860  0.219768  1
  Hf  Hf5  1  0.855924  0.947954  0.780716  1
  Hf  Hf6  1  0.868883  0.121322  0.128651  1
  Hf  Hf7  1  0.131363  0.877961  0.872034  1
  Hf  Hf8  1  0.138794  0.228191  0.042978  1
  Hf  Hf9  1  0.860802  0.771419  0.955836  1
  Fe  Fe10  1  0.000368  0.999964  0.999968  1
  I  I11  1  0.008260  0.409698  0.198014  1
  I  I12  1  0.991559  0.590274  0.802277  1
  I  I13  1  0.329204  0.332749  0.310639  1
  I  I14  1  0.670877  0.668758  0.688169  1
  I  I15  1  0.314665  0.519719  0.096682  1
  I  I16  1  0.679284  0.478644  0.892967  1
  I  I17  1  0.004223  0.794807  0.208213  1
  I  I18  1  0.995530  0.204460  0.791265  1
  I  I19  1  0.706627  0.270422  0.291656  1
  I  I20  1  0.294097  0.722446  0.710544  1
  I  I21  1  0.315560  0.125839  0.901748  1
  I  I22  1  0.684430  0.872360  0.097275  1
  I  I23  1  0.017202  0.204464  0.408549  1
  I  I24  1  0.983879  0.795726  0.591734  1
  I  I25  1  0.320205  0.921526  0.108574  1
  I  I26  1  0.680068  0.079487  0.893589  1
  I  I27  1  0.331589  0.119831  0.499935  1
  I  I28  1  0.667478  0.887869  0.505529  1
