# generated using pymatgen
data_Dy2YCd3Ga2Cu
_symmetry_space_group_name_H-M   'P 1'
_cell_length_a   7.32897928
_cell_length_b   7.32485137
_cell_length_c   4.24354610
_cell_angle_alpha   89.99167627
_cell_angle_beta   90.00505598
_cell_angle_gamma   119.97585582
_symmetry_Int_Tables_number   1
_chemical_formula_structural   Dy2YCd3Ga2Cu
_chemical_formula_sum   'Dy2 Y1 Cd3 Ga2 Cu1'
_cell_volume   197.33652294
_cell_formula_units_Z   1
loop_
 _symmetry_equiv_pos_site_id
 _symmetry_equiv_pos_as_xyz
  1  'x, y, z'
loop_
 _atom_site_type_symbol
 _atom_site_label
 _atom_site_symmetry_multiplicity
 _atom_site_fract_x
 _atom_site_fract_y
 _atom_site_fract_z
 _atom_site_occupancy
  Dy  Dy0  1  0.587992  0.588024  0.499935  1
  Dy  Dy1  1  0.412000  0.000117  0.499940  1
  Y  Y2  1  0.000088  0.412121  0.499940  1
  Cd  Cd3  1  0.000073  0.754944  0.000120  1
  Cd  Cd4  1  0.245310  0.245149  0.000089  1
  Cd  Cd5  1  0.754629  0.999920  0.000032  1
  Ga  Ga6  1  0.333947  0.667177  0.999904  1
  Ga  Ga7  1  0.666218  0.333323  0.999910  1
  Cu  Cu8  1  0.999743  0.999227  0.500129  1
