# generated using pymatgen
data_Ba3Cr3(Ga2O5)4
_symmetry_space_group_name_H-M   'P 1'
_cell_length_a   10.00163133
_cell_length_b   10.00162379
_cell_length_c   5.22300909
_cell_angle_alpha   75.48885020
_cell_angle_beta   75.48920610
_cell_angle_gamma   72.73396649
_symmetry_Int_Tables_number   1
_chemical_formula_structural   Ba3Cr3(Ga2O5)4
_chemical_formula_sum   'Ba3 Cr3 Ga8 O20'
_cell_volume   474.15715761
_cell_formula_units_Z   1
loop_
 _symmetry_equiv_pos_site_id
 _symmetry_equiv_pos_as_xyz
  1  'x, y, z'
loop_
 _atom_site_type_symbol
 _atom_site_label
 _atom_site_symmetry_multiplicity
 _atom_site_fract_x
 _atom_site_fract_y
 _atom_site_fract_z
 _atom_site_occupancy
  Ba  Ba0  1  0.221367  0.221368  0.264914  1
  Ba  Ba1  1  0.778633  0.778632  0.735086  1
  Ba  Ba2  1  0.500000  0.500000  0.000000  1
  Cr  Cr3  1  0.129483  0.870516  0.500000  1
  Cr  Cr4  1  0.870517  0.129484  0.500000  1
  Cr  Cr5  1  0.000000  0.000000  0.000000  1
  Ga  Ga6  1  0.351338  0.924389  0.834537  1
  Ga  Ga7  1  0.648662  0.075611  0.165463  1
  Ga  Ga8  1  0.075609  0.648658  0.165465  1
  Ga  Ga9  1  0.924391  0.351342  0.834535  1
  Ga  Ga10  1  0.493370  0.216176  0.656130  1
  Ga  Ga11  1  0.506630  0.783824  0.343870  1
  Ga  Ga12  1  0.783822  0.506627  0.343872  1
  Ga  Ga13  1  0.216178  0.493373  0.656128  1
  O  O14  1  0.494071  0.787592  0.991806  1
  O  O15  1  0.505929  0.212408  0.008194  1
  O  O16  1  0.212410  0.505929  0.008193  1
  O  O17  1  0.787590  0.494071  0.991807  1
  O  O18  1  0.375679  0.102374  0.667515  1
  O  O19  1  0.624321  0.897626  0.332485  1
  O  O20  1  0.897624  0.624318  0.332486  1
  O  O21  1  0.102376  0.375682  0.667514  1
  O  O22  1  0.063842  0.063842  0.610457  1
  O  O23  1  0.936158  0.936158  0.389543  1
  O  O24  1  0.670616  0.164178  0.426996  1
  O  O25  1  0.329384  0.835822  0.573004  1
  O  O26  1  0.835822  0.329383  0.573007  1
  O  O27  1  0.164178  0.670617  0.426993  1
  O  O28  1  0.184836  0.955080  0.101968  1
  O  O29  1  0.815164  0.044920  0.898032  1
  O  O30  1  0.044920  0.815163  0.898032  1
  O  O31  1  0.955080  0.184837  0.101968  1
  O  O32  1  0.400897  0.400897  0.518732  1
  O  O33  1  0.599103  0.599103  0.481268  1
