# generated using pymatgen
data_Yb4IrOsRu6
_symmetry_space_group_name_H-M   'P 1'
_cell_length_a   5.18074340
_cell_length_b   5.30946791
_cell_length_c   8.91811929
_cell_angle_alpha   89.99999997
_cell_angle_beta   90.13615857
_cell_angle_gamma   120.82538955
_symmetry_Int_Tables_number   1
_chemical_formula_structural   Yb4IrOsRu6
_chemical_formula_sum   'Yb4 Ir1 Os1 Ru6'
_cell_volume   210.65550080
_cell_formula_units_Z   1
loop_
 _symmetry_equiv_pos_site_id
 _symmetry_equiv_pos_as_xyz
  1  'x, y, z'
loop_
 _atom_site_type_symbol
 _atom_site_label
 _atom_site_symmetry_multiplicity
 _atom_site_fract_x
 _atom_site_fract_y
 _atom_site_fract_z
 _atom_site_occupancy
  Yb  Yb0  1  0.329396  0.664698  0.435110  1
  Yb  Yb1  1  0.665551  0.332775  0.563721  1
  Yb  Yb2  1  0.658550  0.329275  0.934850  1
  Yb  Yb3  1  0.324299  0.662150  0.066573  1
  Ir  Ir4  1  0.988094  0.994047  0.499908  1
  Os  Os5  1  0.672411  0.836206  0.752425  1
  Ru  Ru6  1  0.973600  0.986800  0.999884  1
  Ru  Ru7  1  0.831784  0.165535  0.248898  1
  Ru  Ru8  1  0.831784  0.666248  0.248898  1
  Ru  Ru9  1  0.359250  0.179624  0.250148  1
  Ru  Ru10  1  0.182640  0.832602  0.749792  1
  Ru  Ru11  1  0.182640  0.350040  0.749792  1
