# generated using pymatgen
data_Er4Sc4Cr(B8Os)3
_symmetry_space_group_name_H-M   'P 1'
_cell_length_a   3.53219400
_cell_length_b   8.96639719
_cell_length_c   11.34409602
_cell_angle_alpha   90.00820602
_cell_angle_beta   90.00000000
_cell_angle_gamma   90.00000000
_symmetry_Int_Tables_number   1
_chemical_formula_structural   Er4Sc4Cr(B8Os)3
_chemical_formula_sum   'Er4 Sc4 Cr1 B24 Os3'
_cell_volume   359.27947803
_cell_formula_units_Z   1
loop_
 _symmetry_equiv_pos_site_id
 _symmetry_equiv_pos_as_xyz
  1  'x, y, z'
loop_
 _atom_site_type_symbol
 _atom_site_label
 _atom_site_symmetry_multiplicity
 _atom_site_fract_x
 _atom_site_fract_y
 _atom_site_fract_z
 _atom_site_occupancy
  Er  Er0  1  0.000000  0.819713  0.085042  1
  Er  Er1  1  0.000000  0.181696  0.911708  1
  Er  Er2  1  0.000000  0.320504  0.416534  1
  Er  Er3  1  0.000000  0.677568  0.587458  1
  Sc  Sc4  1  0.000000  0.444504  0.127050  1
  Sc  Sc5  1  0.000000  0.553644  0.871370  1
  Sc  Sc6  1  0.000000  0.943929  0.373237  1
  Sc  Sc7  1  0.000000  0.057634  0.627442  1
  Cr  Cr8  1  0.000000  0.360317  0.681365  1
  B  B9  1  0.500000  0.054249  0.066350  1
  B  B10  1  0.500000  0.945918  0.932949  1
  B  B11  1  0.500000  0.553985  0.433728  1
  B  B12  1  0.500000  0.446035  0.567528  1
  B  B13  1  0.500000  0.252712  0.080442  1
  B  B14  1  0.500000  0.746643  0.918713  1
  B  B15  1  0.500000  0.752163  0.419710  1
  B  B16  1  0.500000  0.248094  0.581458  1
  B  B17  1  0.500000  0.293612  0.235048  1
  B  B18  1  0.500000  0.705816  0.765137  1
  B  B19  1  0.500000  0.793727  0.265400  1
  B  B20  1  0.500000  0.206748  0.734359  1
  B  B21  1  0.500000  0.129089  0.317311  1
  B  B22  1  0.500000  0.871308  0.683450  1
  B  B23  1  0.500000  0.628801  0.182841  1
  B  B24  1  0.500000  0.371266  0.815932  1
  B  B25  1  0.500000  0.480904  0.286308  1
  B  B26  1  0.500000  0.518803  0.713600  1
  B  B27  1  0.500000  0.980875  0.213840  1
  B  B28  1  0.500000  0.019773  0.785789  1
  B  B29  1  0.500000  0.099107  0.472996  1
  B  B30  1  0.500000  0.900851  0.527372  1
  B  B31  1  0.500000  0.598857  0.026914  1
  B  B32  1  0.500000  0.400863  0.972787  1
  Os  Os33  1  0.000000  0.139467  0.181231  1
  Os  Os34  1  0.000000  0.860514  0.819456  1
  Os  Os35  1  0.000000  0.640310  0.318145  1
