# generated using pymatgen
data_Pr20(Ir3Rh)3
_symmetry_space_group_name_H-M   'P 1'
_cell_length_a   11.29372100
_cell_length_b   11.29372100
_cell_length_c   6.68501900
_cell_angle_alpha   90.00000000
_cell_angle_beta   90.00000000
_cell_angle_gamma   90.00000000
_symmetry_Int_Tables_number   1
_chemical_formula_structural   Pr20(Ir3Rh)3
_chemical_formula_sum   'Pr20 Ir9 Rh3'
_cell_volume   852.66169938
_cell_formula_units_Z   1
loop_
 _symmetry_equiv_pos_site_id
 _symmetry_equiv_pos_as_xyz
  1  'x, y, z'
loop_
 _atom_site_type_symbol
 _atom_site_label
 _atom_site_symmetry_multiplicity
 _atom_site_fract_x
 _atom_site_fract_y
 _atom_site_fract_z
 _atom_site_occupancy
  Pr  Pr0  1  0.291504  0.091121  0.383348  1
  Pr  Pr1  1  0.291909  0.909215  0.885910  1
  Pr  Pr2  1  0.708091  0.090785  0.885910  1
  Pr  Pr3  1  0.708496  0.908879  0.383348  1
  Pr  Pr4  1  0.590785  0.791909  0.885910  1
  Pr  Pr5  1  0.591121  0.208496  0.383348  1
  Pr  Pr6  1  0.408879  0.791504  0.383348  1
  Pr  Pr7  1  0.409215  0.208091  0.885910  1
  Pr  Pr8  1  0.208806  0.408744  0.614901  1
  Pr  Pr9  1  0.208681  0.590801  0.114840  1
  Pr  Pr10  1  0.791319  0.409199  0.114840  1
  Pr  Pr11  1  0.791194  0.591256  0.614901  1
  Pr  Pr12  1  0.909199  0.708681  0.114840  1
  Pr  Pr13  1  0.908744  0.291194  0.614901  1
  Pr  Pr14  1  0.091256  0.708806  0.614901  1
  Pr  Pr15  1  0.090801  0.291319  0.114840  1
  Pr  Pr16  1  0.000000  0.000000  0.500329  1
  Pr  Pr17  1  0.000000  0.000000  0.000100  1
  Pr  Pr18  1  0.500000  0.500000  0.000100  1
  Pr  Pr19  1  0.500000  0.500000  0.500329  1
  Ir  Ir20  1  0.846987  0.154459  0.250044  1
  Ir  Ir21  1  0.846282  0.845995  0.750526  1
  Ir  Ir22  1  0.153718  0.154005  0.750526  1
  Ir  Ir23  1  0.153013  0.845541  0.250044  1
  Ir  Ir24  1  0.654005  0.346282  0.750526  1
  Ir  Ir25  1  0.654459  0.653013  0.250044  1
  Ir  Ir26  1  0.345541  0.346987  0.250044  1
  Ir  Ir27  1  0.345995  0.653718  0.750526  1
  Ir  Ir28  1  0.500000  0.000000  0.120715  1
  Rh  Rh29  1  0.500000  0.000000  0.616776  1
  Rh  Rh30  1  0.000000  0.500000  0.881548  1
  Rh  Rh31  1  0.000000  0.500000  0.381823  1
