# generated using pymatgen
data_Mo4As4W
_symmetry_space_group_name_H-M   'P 1'
_cell_length_a   7.04925328
_cell_length_b   7.04925330
_cell_length_c   7.06679960
_cell_angle_alpha   93.13604920
_cell_angle_beta   93.11949064
_cell_angle_gamma   152.94910597
_symmetry_Int_Tables_number   1
_chemical_formula_structural   Mo4As4W
_chemical_formula_sum   'Mo4 As4 W1'
_cell_volume   155.29572731
_cell_formula_units_Z   1
loop_
 _symmetry_equiv_pos_site_id
 _symmetry_equiv_pos_as_xyz
  1  'x, y, z'
loop_
 _atom_site_type_symbol
 _atom_site_label
 _atom_site_symmetry_multiplicity
 _atom_site_fract_x
 _atom_site_fract_y
 _atom_site_fract_z
 _atom_site_occupancy
  Mo  Mo0  1  0.379351  0.298589  0.677941  1
  Mo  Mo1  1  0.298545  0.620692  0.919237  1
  Mo  Mo2  1  0.701455  0.379308  0.080763  1
  Mo  Mo3  1  0.620649  0.701411  0.322059  1
  As  As4  1  0.286088  0.057161  0.343249  1
  As  As5  1  0.057308  0.713884  0.771192  1
  As  As6  1  0.942692  0.286116  0.228808  1
  As  As7  1  0.713912  0.942839  0.656751  1
  W  W8  1  0.000000  0.000000  0.000000  1
