# generated using pymatgen
data_CaCeAl20Ir3Ru
_symmetry_space_group_name_H-M   'P 1'
_cell_length_a   6.88200262
_cell_length_b   6.87440261
_cell_length_c   9.16728524
_cell_angle_alpha   89.97976878
_cell_angle_beta   89.90906010
_cell_angle_gamma   97.23180432
_symmetry_Int_Tables_number   1
_chemical_formula_structural   CaCeAl20Ir3Ru
_chemical_formula_sum   'Ca1 Ce1 Al20 Ir3 Ru1'
_cell_volume   430.25040711
_cell_formula_units_Z   1
loop_
 _symmetry_equiv_pos_site_id
 _symmetry_equiv_pos_as_xyz
  1  'x, y, z'
loop_
 _atom_site_type_symbol
 _atom_site_label
 _atom_site_symmetry_multiplicity
 _atom_site_fract_x
 _atom_site_fract_y
 _atom_site_fract_z
 _atom_site_occupancy
  Ca  Ca0  1  0.872839  0.128479  0.750155  1
  Ce  Ce1  1  0.120574  0.877086  0.250102  1
  Al  Al2  1  0.593263  0.858359  0.250390  1
  Al  Al3  1  0.776246  0.518505  0.252502  1
  Al  Al4  1  0.159266  0.841461  0.894766  1
  Al  Al5  1  0.415752  0.146607  0.749879  1
  Al  Al6  1  0.622569  0.378379  0.950272  1
  Al  Al7  1  0.844080  0.157908  0.399073  1
  Al  Al8  1  0.779170  0.779595  0.998225  1
  Al  Al9  1  0.854758  0.583618  0.748404  1
  Al  Al10  1  0.842515  0.156989  0.102498  1
  Al  Al11  1  0.222030  0.480647  0.747569  1
  Al  Al12  1  0.157720  0.839749  0.603857  1
  Al  Al13  1  0.780297  0.778962  0.500035  1
  Al  Al14  1  0.480536  0.224824  0.249881  1
  Al  Al15  1  0.624657  0.378627  0.548632  1
  Al  Al16  1  0.218597  0.222378  0.502804  1
  Al  Al17  1  0.377084  0.619974  0.448456  1
  Al  Al18  1  0.141084  0.407999  0.251284  1
  Al  Al19  1  0.519594  0.776270  0.750102  1
  Al  Al20  1  0.378701  0.620749  0.052915  1
  Al  Al21  1  0.220022  0.221556  0.998992  1
  Ir  Ir22  1  0.498742  0.999066  0.000707  1
  Ir  Ir23  1  0.498267  0.999245  0.499414  1
  Ir  Ir24  1  0.000684  0.501141  0.000477  1
  Ru  Ru25  1  0.000951  0.501828  0.498612  1
