# generated using pymatgen
data_Y24Al14SiGe
_symmetry_space_group_name_H-M   'P 1'
_cell_length_a   11.24251851
_cell_length_b   11.24251785
_cell_length_c   11.24251800
_cell_angle_alpha   117.25707613
_cell_angle_beta   117.25707441
_cell_angle_gamma   94.82039992
_symmetry_Int_Tables_number   1
_chemical_formula_structural   Y24Al14SiGe
_chemical_formula_sum   'Y24 Al14 Si1 Ge1'
_cell_volume   1042.45697395
_cell_formula_units_Z   1
loop_
 _symmetry_equiv_pos_site_id
 _symmetry_equiv_pos_as_xyz
  1  'x, y, z'
loop_
 _atom_site_type_symbol
 _atom_site_label
 _atom_site_symmetry_multiplicity
 _atom_site_fract_x
 _atom_site_fract_y
 _atom_site_fract_z
 _atom_site_occupancy
  Y  Y0  1  0.147529  0.647529  0.500000  1
  Y  Y1  1  0.852471  0.352471  0.500000  1
  Y  Y2  1  0.647529  0.147529  0.500000  1
  Y  Y3  1  0.352471  0.852471  0.500000  1
  Y  Y4  1  0.837462  0.700814  0.265058  1
  Y  Y5  1  0.162726  0.298798  0.736114  1
  Y  Y6  1  0.435757  0.572405  0.734942  1
  Y  Y7  1  0.700814  0.435757  0.863352  1
  Y  Y8  1  0.064242  0.799191  0.136647  1
  Y  Y9  1  0.562683  0.426611  0.263886  1
  Y  Y10  1  0.298798  0.562683  0.136072  1
  Y  Y11  1  0.937316  0.201196  0.863928  1
  Y  Y12  1  0.572405  0.837462  0.136648  1
  Y  Y13  1  0.662544  0.927595  0.863353  1
  Y  Y14  1  0.426611  0.162726  0.863928  1
  Y  Y15  1  0.337267  0.073388  0.136072  1
  Y  Y16  1  0.927595  0.064242  0.265052  1
  Y  Y17  1  0.073388  0.937316  0.736119  1
  Y  Y18  1  0.799191  0.662544  0.734948  1
  Y  Y19  1  0.201196  0.337267  0.263881  1
  Y  Y20  1  0.170242  0.670253  0.840496  1
  Y  Y21  1  0.829757  0.329746  0.159504  1
  Y  Y22  1  0.670253  0.829757  0.500011  1
  Y  Y23  1  0.329746  0.170242  0.499989  1
  Al  Al24  1  0.617961  0.117960  0.735921  1
  Al  Al25  1  0.382039  0.882040  0.264079  1
  Al  Al26  1  0.117960  0.382039  0.499999  1
  Al  Al27  1  0.882040  0.617961  0.500001  1
  Al  Al28  1  0.500184  0.500184  0.000000  1
  Al  Al29  1  0.999816  0.999816  0.000000  1
  Al  Al30  1  0.380697  0.880699  0.856325  1
  Al  Al31  1  0.619299  0.119304  0.143676  1
  Al  Al32  1  0.024375  0.524373  0.143675  1
  Al  Al33  1  0.880699  0.024375  0.500002  1
  Al  Al34  1  0.475623  0.619299  0.499995  1
  Al  Al35  1  0.975628  0.475623  0.856324  1
  Al  Al36  1  0.119304  0.975628  0.500005  1
  Al  Al37  1  0.524373  0.380697  0.499998  1
  Si  Si38  1  0.249993  0.249993  0.000000  1
  Ge  Ge39  1  0.750013  0.750013  0.000000  1
