# generated using pymatgen
data_Cs4Mg2Mn3HgTe8
_symmetry_space_group_name_H-M   'P 1'
_cell_length_a   10.75706694
_cell_length_b   10.79530665
_cell_length_c   10.75478644
_cell_angle_alpha   143.60427285
_cell_angle_beta   105.40750307
_cell_angle_gamma   85.78111984
_symmetry_Int_Tables_number   1
_chemical_formula_structural   Cs4Mg2Mn3HgTe8
_chemical_formula_sum   'Cs4 Mg2 Mn3 Hg1 Te8'
_cell_volume   692.59972606
_cell_formula_units_Z   1
loop_
 _symmetry_equiv_pos_site_id
 _symmetry_equiv_pos_as_xyz
  1  'x, y, z'
loop_
 _atom_site_type_symbol
 _atom_site_label
 _atom_site_symmetry_multiplicity
 _atom_site_fract_x
 _atom_site_fract_y
 _atom_site_fract_z
 _atom_site_occupancy
  Cs  Cs0  1  0.125629  0.234154  0.358235  1
  Cs  Cs1  1  0.374981  0.736596  0.113058  1
  Cs  Cs2  1  0.624099  0.265775  0.891386  1
  Cs  Cs3  1  0.876471  0.763332  0.638319  1
  Mg  Mg4  1  0.516078  0.750089  0.766179  1
  Mg  Mg5  1  0.985895  0.750122  0.235977  1
  Mn  Mn6  1  0.748449  0.249838  0.498279  1
  Mn  Mn7  1  0.248043  0.750109  0.498177  1
  Mn  Mn8  1  0.013478  0.250304  0.763796  1
  Hg  Hg9  1  0.478821  0.249973  0.228793  1
  Te  Te10  1  0.220999  0.081557  0.604326  1
  Te  Te11  1  0.270876  0.862781  0.842464  1
  Te  Te12  1  0.022810  0.418465  0.139516  1
  Te  Te13  1  0.479654  0.637203  0.408064  1
  Te  Te14  1  0.779547  0.929768  0.410859  1
  Te  Te15  1  0.729412  0.119543  0.143216  1
  Te  Te16  1  0.981024  0.570038  0.849604  1
  Te  Te17  1  0.523736  0.380354  0.609754  1
