# generated using pymatgen
data_Ho2Er10Co4CuBi
_symmetry_space_group_name_H-M   'P 1'
_cell_length_a   8.29094033
_cell_length_b   8.29093965
_cell_length_c   8.28508836
_cell_angle_alpha   110.01663813
_cell_angle_beta   111.22835040
_cell_angle_gamma   107.22460030
_symmetry_Int_Tables_number   1
_chemical_formula_structural   Ho2Er10Co4CuBi
_chemical_formula_sum   'Ho2 Er10 Co4 Cu1 Bi1'
_cell_volume   437.69019524
_cell_formula_units_Z   1
loop_
 _symmetry_equiv_pos_site_id
 _symmetry_equiv_pos_as_xyz
  1  'x, y, z'
loop_
 _atom_site_type_symbol
 _atom_site_label
 _atom_site_symmetry_multiplicity
 _atom_site_fract_x
 _atom_site_fract_y
 _atom_site_fract_z
 _atom_site_occupancy
  Ho  Ho0  1  0.287733  0.183001  0.470733  1
  Ho  Ho1  1  0.712267  0.816999  0.529267  1
  Er  Er2  1  0.287454  0.817003  0.104455  1
  Er  Er3  1  0.712546  0.182997  0.895545  1
  Er  Er4  1  0.621658  0.312986  0.307945  1
  Er  Er5  1  0.378342  0.687014  0.692055  1
  Er  Er6  1  0.005043  0.313713  0.692055  1
  Er  Er7  1  0.994957  0.686287  0.307945  1
  Er  Er8  1  0.212758  0.414600  0.201151  1
  Er  Er9  1  0.787242  0.585400  0.798849  1
  Er  Er10  1  0.213450  0.011607  0.798849  1
  Er  Er11  1  0.786550  0.988393  0.201151  1
  Co  Co12  1  0.999687  0.376049  0.375736  1
  Co  Co13  1  0.000313  0.623951  0.624264  1
  Co  Co14  1  0.386905  0.886905  0.500000  1
  Co  Co15  1  0.613095  0.113095  0.500000  1
  Cu  Cu16  1  0.000000  0.000000  0.000000  1
  Bi  Bi17  1  0.500000  0.500000  0.000000  1
