# generated using pymatgen
data_YTm3Lu4In3Ag
_symmetry_space_group_name_H-M   'P 1'
_cell_length_a   10.47985600
_cell_length_b   10.47985741
_cell_length_c   6.83456400
_cell_angle_alpha   90.00000000
_cell_angle_beta   90.00000000
_cell_angle_gamma   120.00000817
_symmetry_Int_Tables_number   1
_chemical_formula_structural   YTm3Lu4In3Ag
_chemical_formula_sum   'Y2 Tm6 Lu8 In6 Ag2'
_cell_volume   650.05798833
_cell_formula_units_Z   2
loop_
 _symmetry_equiv_pos_site_id
 _symmetry_equiv_pos_as_xyz
  1  'x, y, z'
loop_
 _atom_site_type_symbol
 _atom_site_label
 _atom_site_symmetry_multiplicity
 _atom_site_fract_x
 _atom_site_fract_y
 _atom_site_fract_z
 _atom_site_occupancy
  Y  Y0  1  0.000000  0.000000  0.497579  1
  Y  Y1  1  0.000000  0.000000  0.997579  1
  Tm  Tm2  1  0.478693  0.521307  0.475845  1
  Tm  Tm3  1  0.042616  0.521307  0.475845  1
  Tm  Tm4  1  0.478693  0.957384  0.475845  1
  Tm  Tm5  1  0.521307  0.478693  0.975845  1
  Tm  Tm6  1  0.957384  0.478693  0.975845  1
  Tm  Tm7  1  0.521307  0.042616  0.975845  1
  Lu  Lu8  1  0.826716  0.173284  0.264149  1
  Lu  Lu9  1  0.346568  0.173284  0.264149  1
  Lu  Lu10  1  0.826716  0.653432  0.264149  1
  Lu  Lu11  1  0.173284  0.826716  0.764149  1
  Lu  Lu12  1  0.653432  0.826716  0.764149  1
  Lu  Lu13  1  0.173284  0.346568  0.764149  1
  Lu  Lu14  1  0.333333  0.666667  0.124150  1
  Lu  Lu15  1  0.666667  0.333333  0.624150  1
  In  In16  1  0.164323  0.835677  0.240827  1
  In  In17  1  0.671353  0.835677  0.240827  1
  In  In18  1  0.164323  0.328647  0.240827  1
  In  In19  1  0.835677  0.164323  0.740827  1
  In  In20  1  0.328647  0.164323  0.740827  1
  In  In21  1  0.835677  0.671353  0.740827  1
  Ag  Ag22  1  0.333333  0.666667  0.708086  1
  Ag  Ag23  1  0.666667  0.333333  0.208086  1
