# generated using pymatgen
data_YZr11(Si3Ru)4
_symmetry_space_group_name_H-M   'P 1'
_cell_length_a   3.96305300
_cell_length_b   10.37091751
_cell_length_c   11.87771245
_cell_angle_alpha   90.19447097
_cell_angle_beta   90.00000000
_cell_angle_gamma   90.00000000
_symmetry_Int_Tables_number   1
_chemical_formula_structural   YZr11(Si3Ru)4
_chemical_formula_sum   'Y1 Zr11 Si12 Ru4'
_cell_volume   488.17705802
_cell_formula_units_Z   1
loop_
 _symmetry_equiv_pos_site_id
 _symmetry_equiv_pos_as_xyz
  1  'x, y, z'
loop_
 _atom_site_type_symbol
 _atom_site_label
 _atom_site_symmetry_multiplicity
 _atom_site_fract_x
 _atom_site_fract_y
 _atom_site_fract_z
 _atom_site_occupancy
  Y  Y0  1  0.750000  0.157398  0.697498  1
  Zr  Zr1  1  0.250000  0.874438  0.023091  1
  Zr  Zr2  1  0.250000  0.625766  0.521314  1
  Zr  Zr3  1  0.750000  0.123219  0.981964  1
  Zr  Zr4  1  0.750000  0.378332  0.476017  1
  Zr  Zr5  1  0.250000  0.921871  0.595114  1
  Zr  Zr6  1  0.250000  0.575376  0.098318  1
  Zr  Zr7  1  0.750000  0.074645  0.397970  1
  Zr  Zr8  1  0.750000  0.424343  0.905235  1
  Zr  Zr9  1  0.250000  0.658032  0.801196  1
  Zr  Zr10  1  0.250000  0.840861  0.300813  1
  Zr  Zr11  1  0.750000  0.343056  0.198755  1
  Si  Si12  1  0.250000  0.010742  0.828929  1
  Si  Si13  1  0.250000  0.487504  0.325229  1
  Si  Si14  1  0.750000  0.984034  0.174441  1
  Si  Si15  1  0.750000  0.513636  0.674330  1
  Si  Si16  1  0.250000  0.252633  0.845317  1
  Si  Si17  1  0.250000  0.251324  0.338669  1
  Si  Si18  1  0.750000  0.748842  0.159008  1
  Si  Si19  1  0.750000  0.751015  0.659547  1
  Si  Si20  1  0.250000  0.197801  0.536713  1
  Si  Si21  1  0.250000  0.305741  0.045198  1
  Si  Si22  1  0.750000  0.806023  0.455758  1
  Si  Si23  1  0.750000  0.694169  0.957004  1
  Ru  Ru24  1  0.250000  0.388734  0.679748  1
  Ru  Ru25  1  0.250000  0.112803  0.178971  1
  Ru  Ru26  1  0.750000  0.613461  0.320062  1
  Ru  Ru27  1  0.750000  0.884202  0.823792  1
