# generated using pymatgen
data_Cs9K3Ga3FeSe12
_symmetry_space_group_name_H-M   'P 1'
_cell_length_a   11.03130586
_cell_length_b   11.03090799
_cell_length_c   13.99158065
_cell_angle_alpha   89.86025107
_cell_angle_beta   89.72014704
_cell_angle_gamma   140.40333598
_symmetry_Int_Tables_number   1
_chemical_formula_structural   Cs9K3Ga3FeSe12
_chemical_formula_sum   'Cs9 K3 Ga3 Fe1 Se12'
_cell_volume   1085.11822733
_cell_formula_units_Z   1
loop_
 _symmetry_equiv_pos_site_id
 _symmetry_equiv_pos_as_xyz
  1  'x, y, z'
loop_
 _atom_site_type_symbol
 _atom_site_label
 _atom_site_symmetry_multiplicity
 _atom_site_fract_x
 _atom_site_fract_y
 _atom_site_fract_z
 _atom_site_occupancy
  Cs  Cs0  1  0.361584  0.361430  0.821179  1
  Cs  Cs1  1  0.162951  0.520065  0.129439  1
  Cs  Cs2  1  0.488715  0.837368  0.876554  1
  Cs  Cs3  1  0.979320  0.334840  0.629674  1
  Cs  Cs4  1  0.664548  0.014170  0.374554  1
  Cs  Cs5  1  0.838068  0.488900  0.875725  1
  Cs  Cs6  1  0.519537  0.162283  0.130226  1
  Cs  Cs7  1  0.015504  0.665721  0.375067  1
  Cs  Cs8  1  0.334261  0.978813  0.629861  1
  K  K9  1  0.845331  0.845004  0.654846  1
  K  K10  1  0.155906  0.156281  0.330199  1
  K  K11  1  0.655672  0.656223  0.163747  1
  Ga  Ga12  1  0.926952  0.088991  0.002654  1
  Ga  Ga13  1  0.414554  0.571424  0.497593  1
  Ga  Ga14  1  0.089043  0.926742  0.002840  1
  Fe  Fe15  1  0.569242  0.414631  0.497426  1
  Se  Se16  1  0.273017  0.272164  0.565695  1
  Se  Se17  1  0.700334  0.699454  0.417522  1
  Se  Se18  1  0.211087  0.211037  0.080530  1
  Se  Se19  1  0.818573  0.818227  0.918337  1
  Se  Se20  1  0.698757  0.982001  0.121300  1
  Se  Se21  1  0.010415  0.310330  0.888690  1
  Se  Se22  1  0.508615  0.786582  0.620242  1
  Se  Se23  1  0.195048  0.484437  0.382740  1
  Se  Se24  1  0.310862  0.010418  0.888899  1
  Se  Se25  1  0.981588  0.698764  0.121705  1
  Se  Se26  1  0.488554  0.199412  0.385519  1
  Se  Se27  1  0.781965  0.504291  0.617234  1
