# generated using pymatgen
data_Y4Ho2Al24Ir5Os3
_symmetry_space_group_name_H-M   'P 1'
_cell_length_a   8.82847019
_cell_length_b   8.78226289
_cell_length_c   9.55407714
_cell_angle_alpha   89.99636767
_cell_angle_beta   89.82706032
_cell_angle_gamma   119.85501818
_symmetry_Int_Tables_number   1
_chemical_formula_structural   Y4Ho2Al24Ir5Os3
_chemical_formula_sum   'Y4 Ho2 Al24 Ir5 Os3'
_cell_volume   642.45276125
_cell_formula_units_Z   1
loop_
 _symmetry_equiv_pos_site_id
 _symmetry_equiv_pos_as_xyz
  1  'x, y, z'
loop_
 _atom_site_type_symbol
 _atom_site_label
 _atom_site_symmetry_multiplicity
 _atom_site_fract_x
 _atom_site_fract_y
 _atom_site_fract_z
 _atom_site_occupancy
  Y  Y0  1  0.190089  0.385594  0.250995  1
  Y  Y1  1  0.809911  0.614406  0.749005  1
  Y  Y2  1  0.615517  0.807851  0.250057  1
  Y  Y3  1  0.384483  0.192149  0.749943  1
  Ho  Ho4  1  0.190479  0.803829  0.251187  1
  Ho  Ho5  1  0.809521  0.196171  0.748813  1
  Al  Al6  1  0.333014  0.666559  0.029358  1
  Al  Al7  1  0.666986  0.333441  0.970642  1
  Al  Al8  1  0.668377  0.334172  0.527956  1
  Al  Al9  1  0.331623  0.665828  0.472044  1
  Al  Al10  1  0.163206  0.328372  0.576013  1
  Al  Al11  1  0.836794  0.671628  0.423987  1
  Al  Al12  1  0.672894  0.836627  0.575945  1
  Al  Al13  1  0.834954  0.671817  0.076176  1
  Al  Al14  1  0.327106  0.163373  0.424055  1
  Al  Al15  1  0.165046  0.328183  0.923824  1
  Al  Al16  1  0.163439  0.834956  0.575519  1
  Al  Al17  1  0.326749  0.163172  0.076508  1
  Al  Al18  1  0.836561  0.165044  0.424481  1
  Al  Al19  1  0.673251  0.836828  0.923492  1
  Al  Al20  1  0.834729  0.163023  0.075632  1
  Al  Al21  1  0.165271  0.836977  0.924368  1
  Al  Al22  1  0.561159  0.124193  0.249651  1
  Al  Al23  1  0.438841  0.875807  0.750349  1
  Al  Al24  1  0.874336  0.437324  0.250604  1
  Al  Al25  1  0.125664  0.562676  0.749396  1
  Al  Al26  1  0.561463  0.437017  0.249657  1
  Al  Al27  1  0.438537  0.562983  0.750343  1
  Al  Al28  1  0.998807  0.998383  0.249997  1
  Al  Al29  1  0.001193  0.001617  0.750003  1
  Ir  Ir30  1  0.500000  0.000000  0.000000  1
  Ir  Ir31  1  0.000000  0.500000  0.000000  1
  Ir  Ir32  1  0.500000  0.000000  0.500000  1
  Ir  Ir33  1  0.500000  0.500000  0.000000  1
  Ir  Ir34  1  0.500000  0.500000  0.500000  1
  Os  Os35  1  0.000000  0.500000  0.500000  1
  Os  Os36  1  0.000000  0.000000  0.000000  1
  Os  Os37  1  0.000000  0.000000  0.500000  1
