# generated using pymatgen
data_Ho7ZrGaPd24
_symmetry_space_group_name_H-M   'P 1'
_cell_length_a   8.31562950
_cell_length_b   8.31562950
_cell_length_c   8.31562950
_cell_angle_alpha   90.27420950
_cell_angle_beta   90.27420950
_cell_angle_gamma   89.72579050
_symmetry_Int_Tables_number   1
_chemical_formula_structural   Ho7ZrGaPd24
_chemical_formula_sum   'Ho7 Zr1 Ga1 Pd24'
_cell_volume   575.00354276
_cell_formula_units_Z   1
loop_
 _symmetry_equiv_pos_site_id
 _symmetry_equiv_pos_as_xyz
  1  'x, y, z'
loop_
 _atom_site_type_symbol
 _atom_site_label
 _atom_site_symmetry_multiplicity
 _atom_site_fract_x
 _atom_site_fract_y
 _atom_site_fract_z
 _atom_site_occupancy
  Ho  Ho0  1  0.251827  0.748145  0.251855  1
  Ho  Ho1  1  0.748145  0.251827  0.251855  1
  Ho  Ho2  1  0.748145  0.748145  0.748173  1
  Ho  Ho3  1  0.747242  0.747242  0.252758  1
  Ho  Ho4  1  0.748749  0.252264  0.747736  1
  Ho  Ho5  1  0.252264  0.748749  0.747736  1
  Ho  Ho6  1  0.252264  0.252264  0.251251  1
  Zr  Zr7  1  0.254827  0.254827  0.745173  1
  Ga  Ga8  1  0.997859  0.997859  0.002141  1
  Pd  Pd9  1  0.496882  0.496882  0.746699  1
  Pd  Pd10  1  0.496882  0.253301  0.503118  1
  Pd  Pd11  1  0.253301  0.496882  0.503118  1
  Pd  Pd12  1  0.499050  0.499050  0.252658  1
  Pd  Pd13  1  0.499050  0.747342  0.500950  1
  Pd  Pd14  1  0.747342  0.499050  0.500950  1
  Pd  Pd15  1  0.003993  0.003993  0.711099  1
  Pd  Pd16  1  0.003993  0.288901  0.996007  1
  Pd  Pd17  1  0.288901  0.003993  0.996007  1
  Pd  Pd18  1  0.999753  0.999753  0.292830  1
  Pd  Pd19  1  0.999753  0.707170  0.000247  1
  Pd  Pd20  1  0.707170  0.999753  0.000247  1
  Pd  Pd21  1  0.005213  0.497161  0.740037  1
  Pd  Pd22  1  0.497161  0.259963  0.994787  1
  Pd  Pd23  1  0.259963  0.005213  0.502839  1
  Pd  Pd24  1  0.005213  0.259963  0.502839  1
  Pd  Pd25  1  0.497161  0.005213  0.740037  1
  Pd  Pd26  1  0.259963  0.497161  0.994787  1
  Pd  Pd27  1  0.000382  0.498484  0.259897  1
  Pd  Pd28  1  0.498484  0.740103  0.999618  1
  Pd  Pd29  1  0.000382  0.740103  0.501516  1
  Pd  Pd30  1  0.498484  0.000382  0.259897  1
  Pd  Pd31  1  0.740103  0.000382  0.501516  1
  Pd  Pd32  1  0.740103  0.498484  0.999618  1
