# generated using pymatgen
data_ErSc3Ga2(B2Ru5)2
_symmetry_space_group_name_H-M   'P 1'
_cell_length_a   9.42544500
_cell_length_b   9.42544500
_cell_length_c   3.05739100
_cell_angle_alpha   90.00000000
_cell_angle_beta   90.00000000
_cell_angle_gamma   89.34281292
_symmetry_Int_Tables_number   1
_chemical_formula_structural   ErSc3Ga2(B2Ru5)2
_chemical_formula_sum   'Er1 Sc3 Ga2 B4 Ru10'
_cell_volume   271.59773336
_cell_formula_units_Z   1
loop_
 _symmetry_equiv_pos_site_id
 _symmetry_equiv_pos_as_xyz
  1  'x, y, z'
loop_
 _atom_site_type_symbol
 _atom_site_label
 _atom_site_symmetry_multiplicity
 _atom_site_fract_x
 _atom_site_fract_y
 _atom_site_fract_z
 _atom_site_occupancy
  Er  Er0  1  0.675265  0.175265  0.000000  1
  Sc  Sc1  1  0.324581  0.824581  0.000000  1
  Sc  Sc2  1  0.173898  0.326531  0.000000  1
  Sc  Sc3  1  0.826531  0.673898  0.000000  1
  Ga  Ga4  1  0.996605  0.000700  0.000000  1
  Ga  Ga5  1  0.500700  0.496605  0.000000  1
  B  B6  1  0.126255  0.626255  0.000000  1
  B  B7  1  0.879864  0.379864  0.000000  1
  B  B8  1  0.622990  0.872246  0.000000  1
  B  B9  1  0.372246  0.122990  0.000000  1
  Ru  Ru10  1  0.212989  0.070548  0.500000  1
  Ru  Ru11  1  0.783803  0.921819  0.500000  1
  Ru  Ru12  1  0.071425  0.786280  0.500000  1
  Ru  Ru13  1  0.719704  0.436180  0.500000  1
  Ru  Ru14  1  0.936180  0.219704  0.500000  1
  Ru  Ru15  1  0.286280  0.571425  0.500000  1
  Ru  Ru16  1  0.570548  0.712989  0.500000  1
  Ru  Ru17  1  0.421819  0.283803  0.500000  1
  Ru  Ru18  1  0.495388  0.995388  0.500000  1
  Ru  Ru19  1  0.002930  0.502930  0.500000  1
