# generated using pymatgen
data_Nd15Dy(CdCo)4
_symmetry_space_group_name_H-M   'P 1'
_cell_length_a   9.79574138
_cell_length_b   9.79574126
_cell_length_c   9.81325500
_cell_angle_alpha   59.94083593
_cell_angle_beta   59.94083633
_cell_angle_gamma   60.12303058
_symmetry_Int_Tables_number   1
_chemical_formula_structural   Nd15Dy(CdCo)4
_chemical_formula_sum   'Nd15 Dy1 Cd4 Co4'
_cell_volume   665.86349522
_cell_formula_units_Z   1
loop_
 _symmetry_equiv_pos_site_id
 _symmetry_equiv_pos_as_xyz
  1  'x, y, z'
loop_
 _atom_site_type_symbol
 _atom_site_label
 _atom_site_symmetry_multiplicity
 _atom_site_fract_x
 _atom_site_fract_y
 _atom_site_fract_z
 _atom_site_occupancy
  Nd  Nd0  1  0.152055  0.540043  0.153951  1
  Nd  Nd1  1  0.686786  0.311387  0.688878  1
  Nd  Nd2  1  0.686786  0.311387  0.312949  1
  Nd  Nd3  1  0.940575  0.559950  0.562240  1
  Nd  Nd4  1  0.540043  0.152055  0.153951  1
  Nd  Nd5  1  0.154826  0.154826  0.539607  1
  Nd  Nd6  1  0.940672  0.940672  0.559328  1
  Nd  Nd7  1  0.311387  0.686786  0.312949  1
  Nd  Nd8  1  0.559950  0.940575  0.937235  1
  Nd  Nd9  1  0.559950  0.940575  0.562240  1
  Nd  Nd10  1  0.690032  0.690032  0.309968  1
  Nd  Nd11  1  0.560055  0.560055  0.939945  1
  Nd  Nd12  1  0.940575  0.559950  0.937235  1
  Nd  Nd13  1  0.311387  0.686786  0.688878  1
  Nd  Nd14  1  0.154826  0.154826  0.150741  1
  Dy  Dy15  1  0.310017  0.310017  0.689983  1
  Cd  Cd16  1  0.922016  0.239466  0.919259  1
  Cd  Cd17  1  0.920623  0.920623  0.920104  1
  Cd  Cd18  1  0.920623  0.920623  0.238650  1
  Cd  Cd19  1  0.239466  0.922016  0.919259  1
  Co  Co20  1  0.358375  0.358375  0.920958  1
  Co  Co21  1  0.358282  0.922320  0.359699  1
  Co  Co22  1  0.922320  0.358282  0.359699  1
  Co  Co23  1  0.358375  0.358375  0.362293  1
