# generated using pymatgen
data_Ho5Tm3Sc11Si16Au
_symmetry_space_group_name_H-M   'P 1'
_cell_length_a   6.98605322
_cell_length_b   7.36656139
_cell_length_c   13.97973843
_cell_angle_alpha   90.00065241
_cell_angle_beta   90.02852505
_cell_angle_gamma   89.82944779
_symmetry_Int_Tables_number   1
_chemical_formula_structural   Ho5Tm3Sc11Si16Au
_chemical_formula_sum   'Ho5 Tm3 Sc11 Si16 Au1'
_cell_volume   719.43865759
_cell_formula_units_Z   1
loop_
 _symmetry_equiv_pos_site_id
 _symmetry_equiv_pos_as_xyz
  1  'x, y, z'
loop_
 _atom_site_type_symbol
 _atom_site_label
 _atom_site_symmetry_multiplicity
 _atom_site_fract_x
 _atom_site_fract_y
 _atom_site_fract_z
 _atom_site_occupancy
  Ho  Ho0  1  0.010519  0.175382  0.096358  1
  Ho  Ho1  1  0.990624  0.813993  0.901731  1
  Ho  Ho2  1  0.486162  0.672559  0.901994  1
  Ho  Ho3  1  0.990552  0.813713  0.597226  1
  Ho  Ho4  1  0.510195  0.323106  0.096523  1
  Tm  Tm5  1  0.011027  0.175986  0.403726  1
  Tm  Tm6  1  0.509809  0.322533  0.403747  1
  Tm  Tm7  1  0.486044  0.672785  0.597595  1
  Sc  Sc8  1  0.838060  0.497047  0.250623  1
  Sc  Sc9  1  0.340396  0.003733  0.250622  1
  Sc  Sc10  1  0.655341  0.997101  0.749706  1
  Sc  Sc11  1  0.322890  0.183137  0.627293  1
  Sc  Sc12  1  0.671458  0.823993  0.375557  1
  Sc  Sc13  1  0.170429  0.678790  0.374038  1
  Sc  Sc14  1  0.671603  0.824109  0.125453  1
  Sc  Sc15  1  0.838737  0.327750  0.626982  1
  Sc  Sc16  1  0.322493  0.182856  0.872244  1
  Sc  Sc17  1  0.839057  0.328099  0.872091  1
  Sc  Sc18  1  0.170806  0.678773  0.126708  1
  Si  Si19  1  0.024988  0.091470  0.749381  1
  Si  Si20  1  0.969475  0.889836  0.250596  1
  Si  Si21  1  0.467877  0.616192  0.250591  1
  Si  Si22  1  0.535608  0.385384  0.749581  1
  Si  Si23  1  0.288443  0.878528  0.749370  1
  Si  Si24  1  0.713585  0.130120  0.251065  1
  Si  Si25  1  0.212676  0.370424  0.250929  1
  Si  Si26  1  0.777562  0.630101  0.749239  1
  Si  Si27  1  0.164691  0.458849  0.529828  1
  Si  Si28  1  0.841351  0.533376  0.461488  1
  Si  Si29  1  0.343465  0.965912  0.463083  1
  Si  Si30  1  0.842097  0.535001  0.038073  1
  Si  Si31  1  0.657103  0.033943  0.540421  1
  Si  Si32  1  0.163191  0.459303  0.970201  1
  Si  Si33  1  0.657782  0.034141  0.959565  1
  Si  Si34  1  0.344093  0.965205  0.036783  1
  Au  Au35  1  0.159809  0.526768  0.749590  1
