# generated using pymatgen
data_Tb4UP12Ru17Pt2
_symmetry_space_group_name_H-M   'P 1'
_cell_length_a   3.96804600
_cell_length_b   12.58195344
_cell_length_c   12.52530911
_cell_angle_alpha   119.13197680
_cell_angle_beta   90.00000000
_cell_angle_gamma   90.00000000
_symmetry_Int_Tables_number   1
_chemical_formula_structural   Tb4UP12Ru17Pt2
_chemical_formula_sum   'Tb4 U1 P12 Ru17 Pt2'
_cell_volume   546.23115050
_cell_formula_units_Z   1
loop_
 _symmetry_equiv_pos_site_id
 _symmetry_equiv_pos_as_xyz
  1  'x, y, z'
loop_
 _atom_site_type_symbol
 _atom_site_label
 _atom_site_symmetry_multiplicity
 _atom_site_fract_x
 _atom_site_fract_y
 _atom_site_fract_z
 _atom_site_occupancy
  Tb  Tb0  1  0.500000  0.186709  0.998505  1
  Tb  Tb1  1  0.500000  0.811819  0.811591  1
  Tb  Tb2  1  0.000000  0.333556  0.661825  1
  Tb  Tb3  1  0.000000  0.666775  0.336812  1
  U  U4  1  0.500000  0.999768  0.175254  1
  P  P5  1  0.000000  0.000451  0.816709  1
  P  P6  1  0.000000  0.809106  0.995122  1
  P  P7  1  0.000000  0.186175  0.179929  1
  P  P8  1  0.500000  0.308192  0.477772  1
  P  P9  1  0.500000  0.183651  0.700869  1
  P  P10  1  0.500000  0.519938  0.822665  1
  P  P11  1  0.500000  0.821935  0.522490  1
  P  P12  1  0.500000  0.479045  0.310324  1
  P  P13  1  0.500000  0.701289  0.184889  1
  P  P14  1  0.000000  0.998219  0.363231  1
  P  P15  1  0.000000  0.365273  0.999241  1
  P  P16  1  0.000000  0.624948  0.625303  1
  Ru  Ru17  1  0.000000  0.441086  0.444841  1
  Ru  Ru18  1  0.500000  0.001968  0.713389  1
  Ru  Ru19  1  0.500000  0.711785  0.003138  1
  Ru  Ru20  1  0.500000  0.280823  0.282196  1
  Ru  Ru21  1  0.000000  0.184723  0.367745  1
  Ru  Ru22  1  0.000000  0.185468  0.804373  1
  Ru  Ru23  1  0.000000  0.620369  0.815234  1
  Ru  Ru24  1  0.000000  0.817005  0.623071  1
  Ru  Ru25  1  0.000000  0.378068  0.192554  1
  Ru  Ru26  1  0.000000  0.809279  0.183709  1
  Ru  Ru27  1  0.500000  0.131105  0.494798  1
  Ru  Ru28  1  0.500000  0.370988  0.881374  1
  Ru  Ru29  1  0.500000  0.506527  0.633439  1
  Ru  Ru30  1  0.500000  0.632398  0.511149  1
  Ru  Ru31  1  0.500000  0.498909  0.134175  1
  Ru  Ru32  1  0.500000  0.879574  0.370354  1
  Ru  Ru33  1  0.000000  0.997215  0.005325  1
  Pt  Pt34  1  0.000000  0.002058  0.551771  1
  Pt  Pt35  1  0.000000  0.553703  0.004835  1
