# generated using pymatgen
data_Tb3Dy9Co4OsPb
_symmetry_space_group_name_H-M   'P 1'
_cell_length_a   8.34259835
_cell_length_b   8.34159962
_cell_length_c   8.34159942
_cell_angle_alpha   106.54009859
_cell_angle_beta   110.41991872
_cell_angle_gamma   111.48946343
_symmetry_Int_Tables_number   1
_chemical_formula_structural   Tb3Dy9Co4OsPb
_chemical_formula_sum   'Tb3 Dy9 Co4 Os1 Pb1'
_cell_volume   445.98408536
_cell_formula_units_Z   1
loop_
 _symmetry_equiv_pos_site_id
 _symmetry_equiv_pos_as_xyz
  1  'x, y, z'
loop_
 _atom_site_type_symbol
 _atom_site_label
 _atom_site_symmetry_multiplicity
 _atom_site_fract_x
 _atom_site_fract_y
 _atom_site_fract_z
 _atom_site_occupancy
  Tb  Tb0  1  0.466583  0.284148  0.182434  1
  Tb  Tb1  1  0.102005  0.284316  0.817689  1
  Tb  Tb2  1  0.897857  0.715863  0.181994  1
  Dy  Dy3  1  0.534247  0.716255  0.817992  1
  Dy  Dy4  1  0.307957  0.620961  0.313348  1
  Dy  Dy5  1  0.307957  0.994610  0.686996  1
  Dy  Dy6  1  0.692009  0.379230  0.686974  1
  Dy  Dy7  1  0.692009  0.005035  0.312780  1
  Dy  Dy8  1  0.194532  0.214416  0.408705  1
  Dy  Dy9  1  0.805469  0.785770  0.591637  1
  Dy  Dy10  1  0.194532  0.785827  0.980115  1
  Dy  Dy11  1  0.805469  0.213832  0.019701  1
  Co  Co12  1  0.499929  0.610902  0.110384  1
  Co  Co13  1  0.499929  0.389546  0.889028  1
  Co  Co14  1  0.379510  0.000133  0.379378  1
  Co  Co15  1  0.620463  0.999671  0.620792  1
  Os  Os16  1  0.999391  0.999432  0.999959  1
  Pb  Pb17  1  0.000151  0.500055  0.500096  1
