# generated using pymatgen
data_La2Nd6MnPd24
_symmetry_space_group_name_H-M   'P 1'
_cell_length_a   8.50894500
_cell_length_b   8.51195138
_cell_length_c   8.51195100
_cell_angle_alpha   90.03257909
_cell_angle_beta   90.00000000
_cell_angle_gamma   90.00000000
_symmetry_Int_Tables_number   1
_chemical_formula_structural   La2Nd6MnPd24
_chemical_formula_sum   'La2 Nd6 Mn1 Pd24'
_cell_volume   616.50115595
_cell_formula_units_Z   1
loop_
 _symmetry_equiv_pos_site_id
 _symmetry_equiv_pos_as_xyz
  1  'x, y, z'
loop_
 _atom_site_type_symbol
 _atom_site_label
 _atom_site_symmetry_multiplicity
 _atom_site_fract_x
 _atom_site_fract_y
 _atom_site_fract_z
 _atom_site_occupancy
  La  La0  1  0.251745  0.251602  0.748398  1
  La  La1  1  0.251745  0.748398  0.251602  1
  Nd  Nd2  1  0.749380  0.250812  0.250812  1
  Nd  Nd3  1  0.749380  0.749188  0.749188  1
  Nd  Nd4  1  0.749158  0.749162  0.250838  1
  Nd  Nd5  1  0.749158  0.250838  0.749162  1
  Nd  Nd6  1  0.250659  0.749312  0.749312  1
  Nd  Nd7  1  0.250659  0.250688  0.250688  1
  Mn  Mn8  1  0.998547  0.000000  0.000000  1
  Pd  Pd9  1  0.500737  0.500648  0.746403  1
  Pd  Pd10  1  0.500737  0.253597  0.499352  1
  Pd  Pd11  1  0.253578  0.500000  0.500000  1
  Pd  Pd12  1  0.500737  0.499352  0.253597  1
  Pd  Pd13  1  0.500737  0.746403  0.500648  1
  Pd  Pd14  1  0.746415  0.500000  0.500000  1
  Pd  Pd15  1  0.999428  0.999479  0.702836  1
  Pd  Pd16  1  0.999428  0.297164  0.000521  1
  Pd  Pd17  1  0.296995  0.000000  0.000000  1
  Pd  Pd18  1  0.999428  0.000521  0.297164  1
  Pd  Pd19  1  0.999428  0.702836  0.999479  1
  Pd  Pd20  1  0.702641  0.000000  0.000000  1
  Pd  Pd21  1  0.999259  0.500306  0.737940  1
  Pd  Pd22  1  0.500650  0.262086  0.000706  1
  Pd  Pd23  1  0.261993  0.000000  0.500000  1
  Pd  Pd24  1  0.999259  0.262060  0.499694  1
  Pd  Pd25  1  0.500650  0.999294  0.737914  1
  Pd  Pd26  1  0.261993  0.500000  0.000000  1
  Pd  Pd27  1  0.999259  0.499694  0.262060  1
  Pd  Pd28  1  0.500650  0.737914  0.999294  1
  Pd  Pd29  1  0.999259  0.737940  0.500306  1
  Pd  Pd30  1  0.500650  0.000706  0.262086  1
  Pd  Pd31  1  0.737827  0.000000  0.500000  1
  Pd  Pd32  1  0.737827  0.500000  0.000000  1
