# generated using pymatgen
data_Nd4DyRu2
_symmetry_space_group_name_H-M   'P 1'
_cell_length_a   8.77734954
_cell_length_b   8.77734995
_cell_length_c   7.37129963
_cell_angle_alpha   83.79509376
_cell_angle_beta   83.79509411
_cell_angle_gamma   43.94319446
_symmetry_Int_Tables_number   1
_chemical_formula_structural   Nd4DyRu2
_chemical_formula_sum   'Nd8 Dy2 Ru4'
_cell_volume   391.40459957
_cell_formula_units_Z   2
loop_
 _symmetry_equiv_pos_site_id
 _symmetry_equiv_pos_as_xyz
  1  'x, y, z'
loop_
 _atom_site_type_symbol
 _atom_site_label
 _atom_site_symmetry_multiplicity
 _atom_site_fract_x
 _atom_site_fract_y
 _atom_site_fract_z
 _atom_site_occupancy
  Nd  Nd0  1  0.204078  0.978603  0.584152  1
  Nd  Nd1  1  0.021397  0.795922  0.915848  1
  Nd  Nd2  1  0.208254  0.360995  0.312967  1
  Nd  Nd3  1  0.639005  0.791746  0.187033  1
  Nd  Nd4  1  0.791746  0.639005  0.687033  1
  Nd  Nd5  1  0.360995  0.208254  0.812967  1
  Nd  Nd6  1  0.978603  0.204078  0.084152  1
  Nd  Nd7  1  0.795922  0.021397  0.415848  1
  Dy  Dy8  1  0.571761  0.428239  0.750000  1
  Dy  Dy9  1  0.428239  0.571761  0.250000  1
  Ru  Ru10  1  0.182843  0.601323  0.572458  1
  Ru  Ru11  1  0.398677  0.817157  0.927542  1
  Ru  Ru12  1  0.817157  0.398677  0.427542  1
  Ru  Ru13  1  0.601323  0.182843  0.072458  1
