# generated using pymatgen
data_Hf12Ti4NbOs7
_symmetry_space_group_name_H-M   'P 1'
_cell_length_a   8.61787812
_cell_length_b   8.59802605
_cell_length_c   8.59802600
_cell_angle_alpha   60.00000018
_cell_angle_beta   60.07617315
_cell_angle_gamma   60.07617586
_symmetry_Int_Tables_number   1
_chemical_formula_structural   Hf12Ti4NbOs7
_chemical_formula_sum   'Hf12 Ti4 Nb1 Os7'
_cell_volume   451.00560490
_cell_formula_units_Z   1
loop_
 _symmetry_equiv_pos_site_id
 _symmetry_equiv_pos_as_xyz
  1  'x, y, z'
loop_
 _atom_site_type_symbol
 _atom_site_label
 _atom_site_symmetry_multiplicity
 _atom_site_fract_x
 _atom_site_fract_y
 _atom_site_fract_z
 _atom_site_occupancy
  Hf  Hf0  1  0.810683  0.808369  0.190474  1
  Hf  Hf1  1  0.192369  0.192918  0.807356  1
  Hf  Hf2  1  0.810683  0.190474  0.808369  1
  Hf  Hf3  1  0.192369  0.807356  0.192918  1
  Hf  Hf4  1  0.192369  0.807356  0.807356  1
  Hf  Hf5  1  0.810683  0.190474  0.190474  1
  Hf  Hf6  1  0.443710  0.443182  0.056554  1
  Hf  Hf7  1  0.059665  0.054184  0.443075  1
  Hf  Hf8  1  0.443710  0.056554  0.443182  1
  Hf  Hf9  1  0.059665  0.443075  0.054184  1
  Hf  Hf10  1  0.059665  0.443075  0.443075  1
  Hf  Hf11  1  0.443710  0.056554  0.056554  1
  Ti  Ti12  1  0.125904  0.624699  0.624699  1
  Ti  Ti13  1  0.623115  0.121050  0.627918  1
  Ti  Ti14  1  0.623115  0.627918  0.121050  1
  Ti  Ti15  1  0.623115  0.627918  0.627918  1
  Nb  Nb16  1  0.751289  0.416236  0.416236  1
  Os  Os17  1  0.410478  0.760480  0.414520  1
  Os  Os18  1  0.410478  0.414520  0.760480  1
  Os  Os19  1  0.410478  0.414520  0.414520  1
  Os  Os20  1  0.492694  0.835769  0.835769  1
  Os  Os21  1  0.836686  0.492423  0.835447  1
  Os  Os22  1  0.836686  0.835447  0.492423  1
  Os  Os23  1  0.836686  0.835447  0.835447  1
