# generated using pymatgen
data_Sm4AlVCr2(WO6)4
_symmetry_space_group_name_H-M   'P 1'
_cell_length_a   5.31624841
_cell_length_b   7.48137806
_cell_length_c   11.11176000
_cell_angle_alpha   89.86737080
_cell_angle_beta   90.15079872
_cell_angle_gamma   89.95829665
_symmetry_Int_Tables_number   1
_chemical_formula_structural   Sm4AlVCr2(WO6)4
_chemical_formula_sum   'Sm4 Al1 V1 Cr2 W4 O24'
_cell_volume   441.94368809
_cell_formula_units_Z   1
loop_
 _symmetry_equiv_pos_site_id
 _symmetry_equiv_pos_as_xyz
  1  'x, y, z'
loop_
 _atom_site_type_symbol
 _atom_site_label
 _atom_site_symmetry_multiplicity
 _atom_site_fract_x
 _atom_site_fract_y
 _atom_site_fract_z
 _atom_site_occupancy
  Sm  Sm0  1  0.547055  0.254705  0.048817  1
  Sm  Sm1  1  0.046947  0.753756  0.451871  1
  Sm  Sm2  1  0.954525  0.254031  0.543906  1
  Sm  Sm3  1  0.455528  0.751519  0.958637  1
  Al  Al4  1  0.045093  0.508087  0.135522  1
  V  V5  1  0.949622  0.005245  0.865459  1
  Cr  Cr6  1  0.551072  0.005573  0.365324  1
  Cr  Cr7  1  0.451918  0.505762  0.633787  1
  W  W8  1  0.056645  0.998948  0.144013  1
  W  W9  1  0.554321  0.498779  0.353040  1
  W  W10  1  0.443431  0.998465  0.642547  1
  W  W11  1  0.947305  0.498157  0.858491  1
  O  O12  1  0.768785  0.540687  0.024900  1
  O  O13  1  0.766754  0.963451  0.030504  1
  O  O14  1  0.156650  0.750854  0.121392  1
  O  O15  1  0.954313  0.251319  0.142262  1
  O  O16  1  0.374517  0.063117  0.210159  1
  O  O17  1  0.362832  0.446322  0.214876  1
  O  O18  1  0.884654  0.943546  0.286441  1
  O  O19  1  0.868076  0.559595  0.280563  1
  O  O20  1  0.447606  0.746409  0.355557  1
  O  O21  1  0.664868  0.256759  0.377914  1
  O  O22  1  0.270056  0.462831  0.473000  1
  O  O23  1  0.261290  0.041837  0.477866  1
  O  O24  1  0.739881  0.541976  0.516971  1
  O  O25  1  0.731767  0.962081  0.525611  1
  O  O26  1  0.331564  0.755472  0.617803  1
  O  O27  1  0.558899  0.245933  0.642317  1
  O  O28  1  0.128616  0.067115  0.706415  1
  O  O29  1  0.120858  0.441221  0.717019  1
  O  O30  1  0.614421  0.938366  0.784610  1
  O  O31  1  0.630424  0.564141  0.792319  1
  O  O32  1  0.058239  0.746032  0.857578  1
  O  O33  1  0.832131  0.254978  0.881816  1
  O  O34  1  0.227676  0.463363  0.979415  1
  O  O35  1  0.241646  0.039969  0.981281  1
