# generated using pymatgen
data_YbDy7Mg2(SiB4)4
_symmetry_space_group_name_H-M   'P 1'
_cell_length_a   7.17072176
_cell_length_b   7.17072176
_cell_length_c   7.87290043
_cell_angle_alpha   90.04890115
_cell_angle_beta   90.04890115
_cell_angle_gamma   89.98050935
_symmetry_Int_Tables_number   1
_chemical_formula_structural   YbDy7Mg2(SiB4)4
_chemical_formula_sum   'Yb1 Dy7 Mg2 Si4 B16'
_cell_volume   404.81832141
_cell_formula_units_Z   1
loop_
 _symmetry_equiv_pos_site_id
 _symmetry_equiv_pos_as_xyz
  1  'x, y, z'
loop_
 _atom_site_type_symbol
 _atom_site_label
 _atom_site_symmetry_multiplicity
 _atom_site_fract_x
 _atom_site_fract_y
 _atom_site_fract_z
 _atom_site_occupancy
  Yb  Yb0  1  0.682847  0.182847  0.234365  1
  Dy  Dy1  1  0.317427  0.817427  0.766007  1
  Dy  Dy2  1  0.316925  0.816925  0.233263  1
  Dy  Dy3  1  0.817538  0.682837  0.233007  1
  Dy  Dy4  1  0.816482  0.682898  0.766300  1
  Dy  Dy5  1  0.683009  0.183009  0.768449  1
  Dy  Dy6  1  0.182898  0.316482  0.766300  1
  Dy  Dy7  1  0.182837  0.317538  0.233007  1
  Mg  Mg8  1  0.999134  0.000544  0.499221  1
  Mg  Mg9  1  0.500544  0.499134  0.499221  1
  Si  Si10  1  0.115819  0.615819  0.501137  1
  Si  Si11  1  0.885285  0.385285  0.500193  1
  Si  Si12  1  0.384329  0.114675  0.500878  1
  Si  Si13  1  0.614675  0.884329  0.500878  1
  B  B14  1  0.173979  0.039520  0.999201  1
  B  B15  1  0.826431  0.960483  0.001112  1
  B  B16  1  0.960292  0.173533  0.000837  1
  B  B17  1  0.326428  0.540266  0.999407  1
  B  B18  1  0.040266  0.826428  0.999407  1
  B  B19  1  0.673533  0.460292  0.000837  1
  B  B20  1  0.539520  0.673979  0.999201  1
  B  B21  1  0.460483  0.326431  0.001112  1
  B  B22  1  0.089390  0.589390  0.999565  1
  B  B23  1  0.910706  0.410706  0.999322  1
  B  B24  1  0.410726  0.089163  0.999276  1
  B  B25  1  0.589163  0.910726  0.999276  1
  B  B26  1  0.000237  0.999633  0.160653  1
  B  B27  1  0.999317  0.000146  0.838958  1
  B  B28  1  0.500146  0.499317  0.838958  1
  B  B29  1  0.499633  0.500237  0.160653  1
