# generated using pymatgen
data_Tb3HoSc3AlPt4
_symmetry_space_group_name_H-M   'P 1'
_cell_length_a   4.52789300
_cell_length_b   7.05081914
_cell_length_c   8.30829088
_cell_angle_alpha   86.87322191
_cell_angle_beta   90.00000000
_cell_angle_gamma   90.00000000
_symmetry_Int_Tables_number   1
_chemical_formula_structural   Tb3HoSc3AlPt4
_chemical_formula_sum   'Tb3 Ho1 Sc3 Al1 Pt4'
_cell_volume   264.85025872
_cell_formula_units_Z   1
loop_
 _symmetry_equiv_pos_site_id
 _symmetry_equiv_pos_as_xyz
  1  'x, y, z'
loop_
 _atom_site_type_symbol
 _atom_site_label
 _atom_site_symmetry_multiplicity
 _atom_site_fract_x
 _atom_site_fract_y
 _atom_site_fract_z
 _atom_site_occupancy
  Tb  Tb0  1  0.250000  0.040293  0.672140  1
  Tb  Tb1  1  0.250000  0.522403  0.815331  1
  Tb  Tb2  1  0.750000  0.986771  0.339408  1
  Ho  Ho3  1  0.750000  0.468198  0.184145  1
  Sc  Sc4  1  0.250000  0.133769  0.069775  1
  Sc  Sc5  1  0.250000  0.637663  0.435524  1
  Sc  Sc6  1  0.750000  0.863696  0.929475  1
  Al  Al7  1  0.750000  0.360106  0.567304  1
  Pt  Pt8  1  0.250000  0.264701  0.382759  1
  Pt  Pt9  1  0.250000  0.748335  0.101634  1
  Pt  Pt10  1  0.750000  0.729025  0.614639  1
  Pt  Pt11  1  0.750000  0.245040  0.887865  1
