# generated using pymatgen
data_SrLi3Sc2Pb3
_symmetry_space_group_name_H-M   'P 1'
_cell_length_a   4.76891200
_cell_length_b   4.76891205
_cell_length_c   11.06885400
_cell_angle_alpha   90.00000000
_cell_angle_beta   90.00000000
_cell_angle_gamma   119.99999964
_symmetry_Int_Tables_number   1
_chemical_formula_structural   SrLi3Sc2Pb3
_chemical_formula_sum   'Sr1 Li3 Sc2 Pb3'
_cell_volume   218.00774067
_cell_formula_units_Z   1
loop_
 _symmetry_equiv_pos_site_id
 _symmetry_equiv_pos_as_xyz
  1  'x, y, z'
loop_
 _atom_site_type_symbol
 _atom_site_label
 _atom_site_symmetry_multiplicity
 _atom_site_fract_x
 _atom_site_fract_y
 _atom_site_fract_z
 _atom_site_occupancy
  Sr  Sr0  1  0.000000  0.000000  0.000000  1
  Li  Li1  1  0.666667  0.333333  0.780051  1
  Li  Li2  1  0.333333  0.666667  0.500000  1
  Li  Li3  1  0.666667  0.333333  0.219949  1
  Sc  Sc4  1  0.000000  0.000000  0.345302  1
  Sc  Sc5  1  0.000000  0.000000  0.654698  1
  Pb  Pb6  1  0.333333  0.666667  0.211764  1
  Pb  Pb7  1  0.333333  0.666667  0.788236  1
  Pb  Pb8  1  0.666667  0.333333  0.500000  1
