# generated using pymatgen
data_NaNd6OsBr12
_symmetry_space_group_name_H-M   'P 1'
_cell_length_a   9.54469500
_cell_length_b   9.53254740
_cell_length_c   9.54418956
_cell_angle_alpha   107.04291207
_cell_angle_beta   107.17365163
_cell_angle_gamma   107.02147744
_symmetry_Int_Tables_number   1
_chemical_formula_structural   NaNd6OsBr12
_chemical_formula_sum   'Na1 Nd6 Os1 Br12'
_cell_volume   721.62339860
_cell_formula_units_Z   1
loop_
 _symmetry_equiv_pos_site_id
 _symmetry_equiv_pos_as_xyz
  1  'x, y, z'
loop_
 _atom_site_type_symbol
 _atom_site_label
 _atom_site_symmetry_multiplicity
 _atom_site_fract_x
 _atom_site_fract_y
 _atom_site_fract_z
 _atom_site_occupancy
  Na  Na0  1  0.500000  0.500000  0.500000  1
  Nd  Nd1  1  0.112787  0.321749  0.032650  1
  Nd  Nd2  1  0.320245  0.032176  0.111814  1
  Nd  Nd3  1  0.032631  0.111971  0.321405  1
  Nd  Nd4  1  0.967369  0.888030  0.678595  1
  Nd  Nd5  1  0.679755  0.967825  0.888186  1
  Nd  Nd6  1  0.887213  0.678251  0.967350  1
  Os  Os7  1  0.000000  0.000000  0.000000  1
  Br  Br8  1  0.216871  0.683416  0.070788  1
  Br  Br9  1  0.454998  0.374020  0.154982  1
  Br  Br10  1  0.683962  0.071372  0.217404  1
  Br  Br11  1  0.929714  0.782001  0.316450  1
  Br  Br12  1  0.154610  0.454755  0.373910  1
  Br  Br13  1  0.373872  0.154397  0.454556  1
  Br  Br14  1  0.626128  0.845603  0.545445  1
  Br  Br15  1  0.845390  0.545245  0.626090  1
  Br  Br16  1  0.070286  0.217999  0.683551  1
  Br  Br17  1  0.316038  0.928628  0.782596  1
  Br  Br18  1  0.545002  0.625980  0.845019  1
  Br  Br19  1  0.783129  0.316585  0.929212  1
