# generated using pymatgen
data_Cd7P4Pd13
_symmetry_space_group_name_H-M   'P 1'
_cell_length_a   7.36715224
_cell_length_b   7.36715248
_cell_length_c   7.36715200
_cell_angle_alpha   89.95532779
_cell_angle_beta   90.04467221
_cell_angle_gamma   89.95533152
_symmetry_Int_Tables_number   1
_chemical_formula_structural   Cd7P4Pd13
_chemical_formula_sum   'Cd7 P4 Pd13'
_cell_volume   399.85132307
_cell_formula_units_Z   1
loop_
 _symmetry_equiv_pos_site_id
 _symmetry_equiv_pos_as_xyz
  1  'x, y, z'
loop_
 _atom_site_type_symbol
 _atom_site_label
 _atom_site_symmetry_multiplicity
 _atom_site_fract_x
 _atom_site_fract_y
 _atom_site_fract_z
 _atom_site_occupancy
  Cd  Cd0  1  0.301565  0.299580  0.288000  1
  Cd  Cd1  1  0.048315  0.451685  0.548315  1
  Cd  Cd2  1  0.562877  0.022806  0.412780  1
  Cd  Cd3  1  0.477194  0.587220  0.062877  1
  Cd  Cd4  1  0.200420  0.712000  0.801565  1
  Cd  Cd5  1  0.912780  0.937123  0.977194  1
  Cd  Cd6  1  0.788000  0.198435  0.700420  1
  P  P7  1  0.859221  0.406664  0.138191  1
  P  P8  1  0.369568  0.130432  0.869568  1
  P  P9  1  0.638191  0.640779  0.593336  1
  P  P10  1  0.093336  0.861809  0.359221  1
  Pd  Pd11  1  0.764746  0.735254  0.264746  1
  Pd  Pd12  1  0.208621  0.070538  0.599600  1
  Pd  Pd13  1  0.429462  0.400400  0.708621  1
  Pd  Pd14  1  0.103208  0.608398  0.159706  1
  Pd  Pd15  1  0.940363  0.138168  0.307310  1
  Pd  Pd16  1  0.304280  0.947473  0.125278  1
  Pd  Pd17  1  0.659706  0.396792  0.391602  1
  Pd  Pd18  1  0.552527  0.874722  0.804280  1
  Pd  Pd19  1  0.625278  0.195720  0.052527  1
  Pd  Pd20  1  0.361832  0.692690  0.440363  1
  Pd  Pd21  1  0.891602  0.840294  0.603208  1
  Pd  Pd22  1  0.099600  0.291379  0.929462  1
  Pd  Pd23  1  0.807310  0.559637  0.861832  1
