# generated using pymatgen
data_HoPa3Al18(Os2Pd)2
_symmetry_space_group_name_H-M   'P 1'
_cell_length_a   7.63595044
_cell_length_b   7.65630191
_cell_length_c   9.40930200
_cell_angle_alpha   90.00000000
_cell_angle_beta   90.00000000
_cell_angle_gamma   120.06004508
_symmetry_Int_Tables_number   1
_chemical_formula_structural   HoPa3Al18(Os2Pd)2
_chemical_formula_sum   'Ho1 Pa3 Al18 Os4 Pd2'
_cell_volume   476.10977856
_cell_formula_units_Z   1
loop_
 _symmetry_equiv_pos_site_id
 _symmetry_equiv_pos_as_xyz
  1  'x, y, z'
loop_
 _atom_site_type_symbol
 _atom_site_label
 _atom_site_symmetry_multiplicity
 _atom_site_fract_x
 _atom_site_fract_y
 _atom_site_fract_z
 _atom_site_occupancy
  Ho  Ho0  1  0.332259  0.007309  0.750000  1
  Pa  Pa1  1  0.999433  0.659191  0.250000  1
  Pa  Pa2  1  0.999308  0.336989  0.750000  1
  Pa  Pa3  1  0.659529  0.996507  0.250000  1
  Al  Al4  1  0.125569  0.121138  0.250000  1
  Al  Al5  1  0.869229  0.873759  0.750000  1
  Al  Al6  1  0.006443  0.333828  0.075285  1
  Al  Al7  1  0.000172  0.667199  0.923464  1
  Al  Al8  1  0.000172  0.667199  0.576536  1
  Al  Al9  1  0.336674  0.005083  0.428588  1
  Al  Al10  1  0.006443  0.333828  0.424715  1
  Al  Al11  1  0.657892  0.995810  0.577492  1
  Al  Al12  1  0.657892  0.995810  0.922508  1
  Al  Al13  1  0.336674  0.005083  0.071412  1
  Al  Al14  1  0.341807  0.340523  0.558698  1
  Al  Al15  1  0.662424  0.661517  0.444751  1
  Al  Al16  1  0.662424  0.661517  0.055249  1
  Al  Al17  1  0.341807  0.340523  0.941302  1
  Al  Al18  1  0.340405  0.541589  0.250000  1
  Al  Al19  1  0.662808  0.453652  0.750000  1
  Al  Al20  1  0.544184  0.336515  0.250000  1
  Al  Al21  1  0.448597  0.661759  0.750000  1
  Os  Os22  1  0.678870  0.328258  0.002505  1
  Os  Os23  1  0.326189  0.673503  0.004229  1
  Os  Os24  1  0.326189  0.673503  0.495771  1
  Os  Os25  1  0.678870  0.328258  0.497495  1
  Pd  Pd26  1  0.998870  0.000076  0.999698  1
  Pd  Pd27  1  0.998870  0.000076  0.500302  1
