# generated using pymatgen
data_V3Co6Ni2Ir
_symmetry_space_group_name_H-M   'P 1'
_cell_length_a   5.05273839
_cell_length_b   5.08337572
_cell_length_c   6.77388031
_cell_angle_alpha   68.83912271
_cell_angle_beta   68.10188188
_cell_angle_gamma   60.19916155
_symmetry_Int_Tables_number   1
_chemical_formula_structural   V3Co6Ni2Ir
_chemical_formula_sum   'V3 Co6 Ni2 Ir1'
_cell_volume   136.71169576
_cell_formula_units_Z   1
loop_
 _symmetry_equiv_pos_site_id
 _symmetry_equiv_pos_as_xyz
  1  'x, y, z'
loop_
 _atom_site_type_symbol
 _atom_site_label
 _atom_site_symmetry_multiplicity
 _atom_site_fract_x
 _atom_site_fract_y
 _atom_site_fract_z
 _atom_site_occupancy
  V  V0  1  0.000000  0.000000  0.000000  1
  V  V1  1  0.785234  0.784501  0.645030  1
  V  V2  1  0.214766  0.215499  0.354970  1
  Co  Co3  1  0.723029  0.712377  0.337290  1
  Co  Co4  1  0.227304  0.712377  0.337290  1
  Co  Co5  1  0.719911  0.225908  0.334271  1
  Co  Co6  1  0.276971  0.287623  0.662710  1
  Co  Co7  1  0.772696  0.287623  0.662710  1
  Co  Co8  1  0.280089  0.774092  0.665729  1
  Ni  Ni9  1  0.000000  0.500000  0.000000  1
  Ni  Ni10  1  0.500000  0.500000  0.000000  1
  Ir  Ir11  1  0.500000  0.000000  0.000000  1
