# generated using pymatgen
data_YTm4Pa(Al3Os)8
_symmetry_space_group_name_H-M   'P 1'
_cell_length_a   8.79088300
_cell_length_b   8.83619512
_cell_length_c   9.54072800
_cell_angle_alpha   90.00000000
_cell_angle_beta   90.00000000
_cell_angle_gamma   119.83051493
_symmetry_Int_Tables_number   1
_chemical_formula_structural   YTm4Pa(Al3Os)8
_chemical_formula_sum   'Y1 Tm4 Pa1 Al24 Os8'
_cell_volume   642.90842969
_cell_formula_units_Z   1
loop_
 _symmetry_equiv_pos_site_id
 _symmetry_equiv_pos_as_xyz
  1  'x, y, z'
loop_
 _atom_site_type_symbol
 _atom_site_label
 _atom_site_symmetry_multiplicity
 _atom_site_fract_x
 _atom_site_fract_y
 _atom_site_fract_z
 _atom_site_occupancy
  Y  Y0  1  0.808120  0.616239  0.750000  1
  Tm  Tm1  1  0.608148  0.801785  0.250000  1
  Tm  Tm2  1  0.389668  0.192348  0.750000  1
  Tm  Tm3  1  0.193637  0.801785  0.250000  1
  Tm  Tm4  1  0.802679  0.192348  0.750000  1
  Pa  Pa5  1  0.196782  0.393563  0.250000  1
  Al  Al6  1  0.336554  0.673110  0.020215  1
  Al  Al7  1  0.667515  0.335027  0.978579  1
  Al  Al8  1  0.667515  0.335027  0.521421  1
  Al  Al9  1  0.336554  0.673110  0.479785  1
  Al  Al10  1  0.163150  0.326301  0.578045  1
  Al  Al11  1  0.836531  0.673063  0.424326  1
  Al  Al12  1  0.672042  0.835568  0.574789  1
  Al  Al13  1  0.836531  0.673063  0.075674  1
  Al  Al14  1  0.326837  0.162375  0.423838  1
  Al  Al15  1  0.163150  0.326301  0.921955  1
  Al  Al16  1  0.163526  0.835568  0.574789  1
  Al  Al17  1  0.326837  0.162375  0.076162  1
  Al  Al18  1  0.835538  0.162375  0.423838  1
  Al  Al19  1  0.672042  0.835568  0.925211  1
  Al  Al20  1  0.835538  0.162375  0.076162  1
  Al  Al21  1  0.163526  0.835568  0.925211  1
  Al  Al22  1  0.559825  0.119651  0.250000  1
  Al  Al23  1  0.437898  0.875797  0.750000  1
  Al  Al24  1  0.872998  0.437682  0.250000  1
  Al  Al25  1  0.120727  0.559193  0.750000  1
  Al  Al26  1  0.564684  0.437682  0.250000  1
  Al  Al27  1  0.438466  0.559193  0.750000  1
  Al  Al28  1  0.000730  0.001459  0.250000  1
  Al  Al29  1  0.001253  0.002505  0.750000  1
  Os  Os30  1  0.501750  0.003498  0.997614  1
  Os  Os31  1  0.003754  0.499373  0.004997  1
  Os  Os32  1  0.501750  0.003498  0.502386  1
  Os  Os33  1  0.495620  0.499373  0.004997  1
  Os  Os34  1  0.003754  0.499373  0.495003  1
  Os  Os35  1  0.495620  0.499373  0.495003  1
  Os  Os36  1  0.999377  0.998754  0.998859  1
  Os  Os37  1  0.999377  0.998754  0.501141  1
