# generated using pymatgen
data_Dy4ZnReRu6
_symmetry_space_group_name_H-M   'P 1'
_cell_length_a   5.21759154
_cell_length_b   5.45997910
_cell_length_c   8.90201700
_cell_angle_alpha   90.00000000
_cell_angle_beta   90.00000000
_cell_angle_gamma   121.31593658
_symmetry_Int_Tables_number   1
_chemical_formula_structural   Dy4ZnReRu6
_chemical_formula_sum   'Dy4 Zn1 Re1 Ru6'
_cell_volume   216.65421879
_cell_formula_units_Z   1
loop_
 _symmetry_equiv_pos_site_id
 _symmetry_equiv_pos_as_xyz
  1  'x, y, z'
loop_
 _atom_site_type_symbol
 _atom_site_label
 _atom_site_symmetry_multiplicity
 _atom_site_fract_x
 _atom_site_fract_y
 _atom_site_fract_z
 _atom_site_occupancy
  Dy  Dy0  1  0.334893  0.668439  0.437402  1
  Dy  Dy1  1  0.659781  0.328140  0.565478  1
  Dy  Dy2  1  0.659781  0.328140  0.934522  1
  Dy  Dy3  1  0.334893  0.668439  0.062598  1
  Zn  Zn4  1  0.833329  0.171517  0.250000  1
  Re  Re5  1  0.669403  0.834672  0.750000  1
  Ru  Ru6  1  0.990291  0.987016  0.499632  1
  Ru  Ru7  1  0.990291  0.987016  0.000368  1
  Ru  Ru8  1  0.823931  0.663650  0.250000  1
  Ru  Ru9  1  0.345296  0.184078  0.250000  1
  Ru  Ru10  1  0.177737  0.831959  0.750000  1
  Ru  Ru11  1  0.180371  0.346937  0.750000  1
