# generated using pymatgen
data_Sc3In3Ag2Pt
_symmetry_space_group_name_H-M   'P 1'
_cell_length_a   7.85457200
_cell_length_b   7.85457160
_cell_length_c   3.48272000
_cell_angle_alpha   90.00000000
_cell_angle_beta   90.00000000
_cell_angle_gamma   119.99999327
_symmetry_Int_Tables_number   1
_chemical_formula_structural   Sc3In3Ag2Pt
_chemical_formula_sum   'Sc3 In3 Ag2 Pt1'
_cell_volume   186.07766554
_cell_formula_units_Z   1
loop_
 _symmetry_equiv_pos_site_id
 _symmetry_equiv_pos_as_xyz
  1  'x, y, z'
loop_
 _atom_site_type_symbol
 _atom_site_label
 _atom_site_symmetry_multiplicity
 _atom_site_fract_x
 _atom_site_fract_y
 _atom_site_fract_z
 _atom_site_occupancy
  Sc  Sc0  1  0.592063  0.972779  0.000000  1
  Sc  Sc1  1  0.380715  0.407937  0.000000  1
  Sc  Sc2  1  0.027221  0.619285  0.000000  1
  In  In3  1  0.723639  0.714799  0.500000  1
  In  In4  1  0.991160  0.276361  0.500000  1
  In  In5  1  0.285201  0.008840  0.500000  1
  Ag  Ag6  1  0.666667  0.333333  0.500000  1
  Ag  Ag7  1  0.000000  0.000000  0.000000  1
  Pt  Pt8  1  0.333333  0.666667  0.500000  1
