# generated using pymatgen
data_Er3Mg3Ag2Os
_symmetry_space_group_name_H-M   'P 1'
_cell_length_a   7.70947300
_cell_length_b   7.70947234
_cell_length_c   3.96393700
_cell_angle_alpha   90.00000000
_cell_angle_beta   90.00000000
_cell_angle_gamma   119.99999852
_symmetry_Int_Tables_number   1
_chemical_formula_structural   Er3Mg3Ag2Os
_chemical_formula_sum   'Er3 Mg3 Ag2 Os1'
_cell_volume   204.03596594
_cell_formula_units_Z   1
loop_
 _symmetry_equiv_pos_site_id
 _symmetry_equiv_pos_as_xyz
  1  'x, y, z'
loop_
 _atom_site_type_symbol
 _atom_site_label
 _atom_site_symmetry_multiplicity
 _atom_site_fract_x
 _atom_site_fract_y
 _atom_site_fract_z
 _atom_site_occupancy
  Er  Er0  1  0.434585  0.397057  0.500000  1
  Er  Er1  1  0.602943  0.037528  0.500000  1
  Er  Er2  1  0.962472  0.565415  0.500000  1
  Mg  Mg3  1  0.746077  0.742540  0.000000  1
  Mg  Mg4  1  0.257460  0.003538  0.000000  1
  Mg  Mg5  1  0.996462  0.253923  0.000000  1
  Ag  Ag6  1  0.333333  0.666667  0.000000  1
  Ag  Ag7  1  0.000000  0.000000  0.500000  1
  Os  Os8  1  0.666667  0.333333  0.000000  1
