# generated using pymatgen
data_SrIr3RhPb3O14
_symmetry_space_group_name_H-M   'P 1'
_cell_length_a   7.36160168
_cell_length_b   7.36159957
_cell_length_c   7.35736460
_cell_angle_alpha   60.04009818
_cell_angle_beta   60.04009896
_cell_angle_gamma   59.89838937
_symmetry_Int_Tables_number   1
_chemical_formula_structural   SrIr3RhPb3O14
_chemical_formula_sum   'Sr1 Ir3 Rh1 Pb3 O14'
_cell_volume   281.89003554
_cell_formula_units_Z   1
loop_
 _symmetry_equiv_pos_site_id
 _symmetry_equiv_pos_as_xyz
  1  'x, y, z'
loop_
 _atom_site_type_symbol
 _atom_site_label
 _atom_site_symmetry_multiplicity
 _atom_site_fract_x
 _atom_site_fract_y
 _atom_site_fract_z
 _atom_site_occupancy
  Sr  Sr0  1  0.125000  0.125000  0.125000  1
  Ir  Ir1  1  0.125000  0.625000  0.625000  1
  Ir  Ir2  1  0.625000  0.125000  0.625000  1
  Ir  Ir3  1  0.625000  0.625000  0.625000  1
  Rh  Rh4  1  0.625000  0.625000  0.125000  1
  Pb  Pb5  1  0.625000  0.125000  0.125000  1
  Pb  Pb6  1  0.125000  0.625000  0.125000  1
  Pb  Pb7  1  0.125000  0.125000  0.625000  1
  O  O8  1  0.704431  0.704431  0.299505  1
  O  O9  1  0.301883  0.301883  0.686049  1
  O  O10  1  0.705231  0.298338  0.701025  1
  O  O11  1  0.294392  0.692993  0.301110  1
  O  O12  1  0.298338  0.705231  0.701025  1
  O  O13  1  0.692993  0.294392  0.301110  1
  O  O14  1  0.545569  0.545569  0.950495  1
  O  O15  1  0.948117  0.948117  0.563951  1
  O  O16  1  0.544769  0.951662  0.548975  1
  O  O17  1  0.955608  0.557007  0.948890  1
  O  O18  1  0.951662  0.544769  0.548975  1
  O  O19  1  0.557007  0.955608  0.948890  1
  O  O20  1  0.254837  0.254837  0.257145  1
  O  O21  1  0.995163  0.995163  0.992855  1
