# generated using pymatgen
data_GaFePO5
_symmetry_space_group_name_H-M   'P 1'
_cell_length_a   5.61838154
_cell_length_b   7.30081412
_cell_length_c   10.75813201
_cell_angle_alpha   89.99681672
_cell_angle_beta   90.00084052
_cell_angle_gamma   98.07826325
_symmetry_Int_Tables_number   1
_chemical_formula_structural   GaFePO5
_chemical_formula_sum   'Ga4 Fe4 P4 O20'
_cell_volume   436.90637138
_cell_formula_units_Z   4
loop_
 _symmetry_equiv_pos_site_id
 _symmetry_equiv_pos_as_xyz
  1  'x, y, z'
loop_
 _atom_site_type_symbol
 _atom_site_label
 _atom_site_symmetry_multiplicity
 _atom_site_fract_x
 _atom_site_fract_y
 _atom_site_fract_z
 _atom_site_occupancy
  Ga  Ga0  1  0.549715  0.360490  0.171206  1
  Ga  Ga1  1  0.950353  0.639498  0.671201  1
  Ga  Ga2  1  0.450335  0.639503  0.828787  1
  Ga  Ga3  1  0.049697  0.360492  0.328794  1
  Fe  Fe4  1  0.608556  0.009814  0.357134  1
  Fe  Fe5  1  0.891277  0.990118  0.857191  1
  Fe  Fe6  1  0.391351  0.990186  0.642876  1
  Fe  Fe7  1  0.108525  0.009964  0.142852  1
  P  P8  1  0.071408  0.781468  0.401028  1
  P  P9  1  0.428609  0.218511  0.901042  1
  P  P10  1  0.928606  0.218507  0.598961  1
  P  P11  1  0.571386  0.781476  0.098963  1
  O  O12  1  0.742325  0.262050  0.283849  1
  O  O13  1  0.757722  0.737937  0.783852  1
  O  O14  1  0.257720  0.737975  0.716150  1
  O  O15  1  0.242331  0.262085  0.216146  1
  O  O16  1  0.126284  0.614447  0.322334  1
  O  O17  1  0.373738  0.385527  0.822320  1
  O  O18  1  0.873728  0.385521  0.677673  1
  O  O19  1  0.626275  0.614445  0.177659  1
  O  O20  1  0.603601  0.284547  0.009195  1
  O  O21  1  0.896398  0.715468  0.509183  1
  O  O22  1  0.396396  0.715479  0.990801  1
  O  O23  1  0.103587  0.284545  0.490802  1
  O  O24  1  0.946203  0.912958  0.318003  1
  O  O25  1  0.553864  0.087027  0.818051  1
  O  O26  1  0.053827  0.087004  0.681969  1
  O  O27  1  0.446187  0.912958  0.181982  1
  O  O28  1  0.687242  0.115874  0.547437  1
  O  O29  1  0.812762  0.884129  0.047451  1
  O  O30  1  0.312757  0.884124  0.452554  1
  O  O31  1  0.187233  0.115871  0.952553  1
