# generated using pymatgen
data_YHo11Co4SnPd
_symmetry_space_group_name_H-M   'P 1'
_cell_length_a   8.31306217
_cell_length_b   8.30830312
_cell_length_c   8.30830230
_cell_angle_alpha   110.89412811
_cell_angle_beta   110.60292180
_cell_angle_gamma   106.92383209
_symmetry_Int_Tables_number   1
_chemical_formula_structural   YHo11Co4SnPd
_chemical_formula_sum   'Y1 Ho11 Co4 Sn1 Pd1'
_cell_volume   441.20850457
_cell_formula_units_Z   1
loop_
 _symmetry_equiv_pos_site_id
 _symmetry_equiv_pos_as_xyz
  1  'x, y, z'
loop_
 _atom_site_type_symbol
 _atom_site_label
 _atom_site_symmetry_multiplicity
 _atom_site_fract_x
 _atom_site_fract_y
 _atom_site_fract_z
 _atom_site_occupancy
  Y  Y0  1  0.414953  0.216668  0.198286  1
  Ho  Ho1  1  0.584200  0.783468  0.800733  1
  Ho  Ho2  1  0.016969  0.216141  0.800827  1
  Ho  Ho3  1  0.983273  0.784567  0.198706  1
  Ho  Ho4  1  0.185441  0.292153  0.478099  1
  Ho  Ho5  1  0.815343  0.709179  0.523472  1
  Ho  Ho6  1  0.185441  0.707340  0.893288  1
  Ho  Ho7  1  0.815343  0.291872  0.106163  1
  Ho  Ho8  1  0.315337  0.623154  0.307231  1
  Ho  Ho9  1  0.684963  0.377671  0.693396  1
  Ho  Ho10  1  0.315337  0.008106  0.692182  1
  Ho  Ho11  1  0.684963  0.991567  0.307293  1
  Co  Co12  1  0.376820  0.999334  0.377486  1
  Co  Co13  1  0.625433  0.000249  0.625184  1
  Co  Co14  1  0.112112  0.612159  0.499953  1
  Co  Co15  1  0.888644  0.388070  0.500574  1
  Sn  Sn16  1  0.499832  0.500233  0.999599  1
  Pd  Pd17  1  0.995597  0.998069  0.997528  1
