# generated using pymatgen
data_Tb2Th12(FeCo)3
_symmetry_space_group_name_H-M   'P 1'
_cell_length_a   9.72925526
_cell_length_b   9.72830936
_cell_length_c   6.21071205
_cell_angle_alpha   89.51611409
_cell_angle_beta   90.54911771
_cell_angle_gamma   119.94686829
_symmetry_Int_Tables_number   1
_chemical_formula_structural   Tb2Th12(FeCo)3
_chemical_formula_sum   'Tb2 Th12 Fe3 Co3'
_cell_volume   509.32787111
_cell_formula_units_Z   1
loop_
 _symmetry_equiv_pos_site_id
 _symmetry_equiv_pos_as_xyz
  1  'x, y, z'
loop_
 _atom_site_type_symbol
 _atom_site_label
 _atom_site_symmetry_multiplicity
 _atom_site_fract_x
 _atom_site_fract_y
 _atom_site_fract_z
 _atom_site_occupancy
  Tb  Tb0  1  0.333304  0.666590  0.044412  1
  Tb  Tb1  1  0.666684  0.333261  0.546084  1
  Th  Th2  1  0.126509  0.873562  0.245634  1
  Th  Th3  1  0.250599  0.127632  0.746561  1
  Th  Th4  1  0.872467  0.749271  0.746387  1
  Th  Th5  1  0.123448  0.251395  0.245848  1
  Th  Th6  1  0.748583  0.876582  0.245723  1
  Th  Th7  1  0.875142  0.125154  0.745129  1
  Th  Th8  1  0.541658  0.458368  0.068132  1
  Th  Th9  1  0.085015  0.539949  0.568895  1
  Th  Th10  1  0.459963  0.914981  0.568742  1
  Th  Th11  1  0.545855  0.085935  0.066659  1
  Th  Th12  1  0.914001  0.454163  0.066698  1
  Th  Th13  1  0.456259  0.543735  0.566059  1
  Fe  Fe14  1  0.818203  0.181755  0.275504  1
  Fe  Fe15  1  0.637536  0.818478  0.778436  1
  Fe  Fe16  1  0.181579  0.362438  0.778672  1
  Co  Co17  1  0.818574  0.636528  0.284496  1
  Co  Co18  1  0.363422  0.181391  0.284520  1
  Co  Co19  1  0.181197  0.818833  0.787409  1
