# generated using pymatgen
data_HoTmZr2(Al3Ir)6
_symmetry_space_group_name_H-M   'P 1'
_cell_length_a   7.52368902
_cell_length_b   7.50988246
_cell_length_c   9.35458000
_cell_angle_alpha   90.00000000
_cell_angle_beta   90.00000000
_cell_angle_gamma   119.74342410
_symmetry_Int_Tables_number   1
_chemical_formula_structural   HoTmZr2(Al3Ir)6
_chemical_formula_sum   'Ho1 Tm1 Zr2 Al18 Ir6'
_cell_volume   458.91889833
_cell_formula_units_Z   1
loop_
 _symmetry_equiv_pos_site_id
 _symmetry_equiv_pos_as_xyz
  1  'x, y, z'
loop_
 _atom_site_type_symbol
 _atom_site_label
 _atom_site_symmetry_multiplicity
 _atom_site_fract_x
 _atom_site_fract_y
 _atom_site_fract_z
 _atom_site_occupancy
  Ho  Ho0  1  0.670619  0.994460  0.250000  1
  Tm  Tm1  1  0.329366  0.005532  0.750000  1
  Zr  Zr2  1  0.995207  0.670831  0.250000  1
  Zr  Zr3  1  0.004817  0.329182  0.750000  1
  Al  Al4  1  0.125903  0.124029  0.250000  1
  Al  Al5  1  0.874250  0.876025  0.750000  1
  Al  Al6  1  0.999851  0.336766  0.075074  1
  Al  Al7  1  0.000288  0.663370  0.924828  1
  Al  Al8  1  0.000288  0.663370  0.575172  1
  Al  Al9  1  0.332426  0.998468  0.422430  1
  Al  Al10  1  0.999851  0.336766  0.424926  1
  Al  Al11  1  0.667438  0.001537  0.577780  1
  Al  Al12  1  0.667438  0.001537  0.922220  1
  Al  Al13  1  0.332426  0.998468  0.077570  1
  Al  Al14  1  0.331406  0.333311  0.556715  1
  Al  Al15  1  0.668597  0.666565  0.443383  1
  Al  Al16  1  0.668597  0.666565  0.056617  1
  Al  Al17  1  0.331406  0.333311  0.943285  1
  Al  Al18  1  0.335042  0.548339  0.250000  1
  Al  Al19  1  0.664825  0.451489  0.750000  1
  Al  Al20  1  0.553597  0.343043  0.250000  1
  Al  Al21  1  0.446350  0.657039  0.750000  1
  Ir  Ir22  1  0.671889  0.327263  0.999433  1
  Ir  Ir23  1  0.327997  0.672716  0.000437  1
  Ir  Ir24  1  0.327997  0.672716  0.499563  1
  Ir  Ir25  1  0.671889  0.327263  0.500567  1
  Ir  Ir26  1  0.000122  0.000019  0.999927  1
  Ir  Ir27  1  0.000122  0.000019  0.500073  1
