# generated using pymatgen
data_La3AlIn2Pt3
_symmetry_space_group_name_H-M   'P 1'
_cell_length_a   7.72895542
_cell_length_b   7.72895587
_cell_length_c   4.16033200
_cell_angle_alpha   90.00000000
_cell_angle_beta   90.00000000
_cell_angle_gamma   120.57828462
_symmetry_Int_Tables_number   1
_chemical_formula_structural   La3AlIn2Pt3
_chemical_formula_sum   'La3 Al1 In2 Pt3'
_cell_volume   213.96361626
_cell_formula_units_Z   1
loop_
 _symmetry_equiv_pos_site_id
 _symmetry_equiv_pos_as_xyz
  1  'x, y, z'
loop_
 _atom_site_type_symbol
 _atom_site_label
 _atom_site_symmetry_multiplicity
 _atom_site_fract_x
 _atom_site_fract_y
 _atom_site_fract_z
 _atom_site_occupancy
  La  La0  1  0.421410  0.421410  0.500000  1
  La  La1  1  0.000519  0.588267  0.500000  1
  La  La2  1  0.588267  0.000519  0.500000  1
  Al  Al3  1  0.758328  0.758328  0.000000  1
  In  In4  1  0.242026  0.002262  0.000000  1
  In  In5  1  0.002262  0.242026  0.000000  1
  Pt  Pt6  1  0.672505  0.352866  0.000000  1
  Pt  Pt7  1  0.352866  0.672505  0.000000  1
  Pt  Pt8  1  0.961817  0.961817  0.500000  1
