# generated using pymatgen
data_Y2Ho4CrFeB14
_symmetry_space_group_name_H-M   'P 1'
_cell_length_a   8.02516912
_cell_length_b   8.02516891
_cell_length_c   9.30451000
_cell_angle_alpha   90.00000000
_cell_angle_beta   90.00000000
_cell_angle_gamma   155.34880624
_symmetry_Int_Tables_number   1
_chemical_formula_structural   Y2Ho4CrFeB14
_chemical_formula_sum   'Y2 Ho4 Cr1 Fe1 B14'
_cell_volume   249.93945200
_cell_formula_units_Z   1
loop_
 _symmetry_equiv_pos_site_id
 _symmetry_equiv_pos_as_xyz
  1  'x, y, z'
loop_
 _atom_site_type_symbol
 _atom_site_label
 _atom_site_symmetry_multiplicity
 _atom_site_fract_x
 _atom_site_fract_y
 _atom_site_fract_z
 _atom_site_occupancy
  Y  Y0  1  0.243540  0.756460  0.250000  1
  Y  Y1  1  0.757085  0.242915  0.750000  1
  Ho  Ho2  1  0.894824  0.105176  0.440793  1
  Ho  Ho3  1  0.104730  0.895270  0.560344  1
  Ho  Ho4  1  0.894824  0.105176  0.059207  1
  Ho  Ho5  1  0.104730  0.895270  0.939656  1
  Cr  Cr6  1  0.052716  0.947284  0.250000  1
  Fe  Fe7  1  0.945916  0.054084  0.750000  1
  B  B8  1  0.727749  0.272251  0.467830  1
  B  B9  1  0.272990  0.727010  0.533652  1
  B  B10  1  0.727749  0.272251  0.032170  1
  B  B11  1  0.272990  0.727010  0.966348  1
  B  B12  1  0.631270  0.368730  0.151229  1
  B  B13  1  0.370376  0.629624  0.846951  1
  B  B14  1  0.631270  0.368730  0.348771  1
  B  B15  1  0.370376  0.629624  0.653049  1
  B  B16  1  0.520970  0.479030  0.096047  1
  B  B17  1  0.478521  0.521479  0.901879  1
  B  B18  1  0.520970  0.479030  0.403953  1
  B  B19  1  0.478521  0.521479  0.598121  1
  B  B20  1  0.457806  0.542194  0.250000  1
  B  B21  1  0.540077  0.459923  0.750000  1
