# generated using pymatgen
data_PrNd15(TmSn4)4
_symmetry_space_group_name_H-M   'P 1'
_cell_length_a   8.21695212
_cell_length_b   8.37635407
_cell_length_c   15.90650712
_cell_angle_alpha   90.00495714
_cell_angle_beta   89.98680504
_cell_angle_gamma   89.98594676
_symmetry_Int_Tables_number   1
_chemical_formula_structural   PrNd15(TmSn4)4
_chemical_formula_sum   'Pr1 Nd15 Tm4 Sn16'
_cell_volume   1094.81460158
_cell_formula_units_Z   1
loop_
 _symmetry_equiv_pos_site_id
 _symmetry_equiv_pos_as_xyz
  1  'x, y, z'
loop_
 _atom_site_type_symbol
 _atom_site_label
 _atom_site_symmetry_multiplicity
 _atom_site_fract_x
 _atom_site_fract_y
 _atom_site_fract_z
 _atom_site_occupancy
  Pr  Pr0  1  0.017998  0.181000  0.401606  1
  Nd  Nd1  1  0.367783  0.837510  0.120941  1
  Nd  Nd2  1  0.132249  0.337570  0.621013  1
  Nd  Nd3  1  0.482008  0.680937  0.901475  1
  Nd  Nd4  1  0.867781  0.662476  0.120925  1
  Nd  Nd5  1  0.132222  0.337538  0.879041  1
  Nd  Nd6  1  0.482015  0.680950  0.598535  1
  Nd  Nd7  1  0.632222  0.162454  0.620984  1
  Nd  Nd8  1  0.867728  0.662493  0.379047  1
  Nd  Nd9  1  0.018001  0.180943  0.098559  1
  Nd  Nd10  1  0.982011  0.819061  0.901474  1
  Nd  Nd11  1  0.632218  0.162471  0.879044  1
  Nd  Nd12  1  0.517990  0.319088  0.098494  1
  Nd  Nd13  1  0.367829  0.837450  0.379035  1
  Nd  Nd14  1  0.982026  0.819010  0.598560  1
  Nd  Nd15  1  0.518011  0.319129  0.401470  1
  Tm  Tm16  1  0.199411  0.502096  0.249945  1
  Tm  Tm17  1  0.699263  0.997922  0.249932  1
  Tm  Tm18  1  0.300667  0.002013  0.749999  1
  Tm  Tm19  1  0.800661  0.497980  0.750006  1
  Sn  Sn20  1  0.791939  0.465005  0.543997  1
  Sn  Sn21  1  0.707567  0.964666  0.456123  1
  Sn  Sn22  1  0.675312  0.853080  0.750002  1
  Sn  Sn23  1  0.208141  0.535304  0.456078  1
  Sn  Sn24  1  0.292005  0.035043  0.956027  1
  Sn  Sn25  1  0.824385  0.353347  0.249785  1
  Sn  Sn26  1  0.792012  0.464947  0.956030  1
  Sn  Sn27  1  0.564026  0.616437  0.249991  1
  Sn  Sn28  1  0.207982  0.535050  0.043967  1
  Sn  Sn29  1  0.435983  0.383564  0.750001  1
  Sn  Sn30  1  0.175323  0.646924  0.750005  1
  Sn  Sn31  1  0.935981  0.116448  0.749997  1
  Sn  Sn32  1  0.292307  0.034870  0.544102  1
  Sn  Sn33  1  0.708002  0.964963  0.043977  1
  Sn  Sn34  1  0.324893  0.146886  0.249910  1
  Sn  Sn35  1  0.064050  0.883379  0.249925  1
