# generated using pymatgen
data_TmFe3P3Ir2
_symmetry_space_group_name_H-M   'P 1'
_cell_length_a   3.78467200
_cell_length_b   10.22562900
_cell_length_c   12.17081300
_cell_angle_alpha   90.00000000
_cell_angle_beta   90.00000000
_cell_angle_gamma   90.00000000
_symmetry_Int_Tables_number   1
_chemical_formula_structural   TmFe3P3Ir2
_chemical_formula_sum   'Tm4 Fe12 P12 Ir8'
_cell_volume   471.01839553
_cell_formula_units_Z   4
loop_
 _symmetry_equiv_pos_site_id
 _symmetry_equiv_pos_as_xyz
  1  'x, y, z'
loop_
 _atom_site_type_symbol
 _atom_site_label
 _atom_site_symmetry_multiplicity
 _atom_site_fract_x
 _atom_site_fract_y
 _atom_site_fract_z
 _atom_site_occupancy
  Tm  Tm0  1  0.250000  0.580895  0.713086  1
  Tm  Tm1  1  0.250000  0.919105  0.213086  1
  Tm  Tm2  1  0.750000  0.419105  0.286914  1
  Tm  Tm3  1  0.750000  0.080895  0.786914  1
  Fe  Fe4  1  0.250000  0.223097  0.170584  1
  Fe  Fe5  1  0.250000  0.276903  0.670584  1
  Fe  Fe6  1  0.750000  0.776903  0.829416  1
  Fe  Fe7  1  0.750000  0.723097  0.329416  1
  Fe  Fe8  1  0.250000  0.877279  0.695737  1
  Fe  Fe9  1  0.250000  0.622721  0.195737  1
  Fe  Fe10  1  0.750000  0.122721  0.304263  1
  Fe  Fe11  1  0.750000  0.377279  0.804263  1
  Fe  Fe12  1  0.250000  0.457869  0.937075  1
  Fe  Fe13  1  0.250000  0.042131  0.437075  1
  Fe  Fe14  1  0.750000  0.542131  0.062925  1
  Fe  Fe15  1  0.750000  0.957869  0.562925  1
  P  P16  1  0.250000  0.428514  0.114074  1
  P  P17  1  0.250000  0.071486  0.614074  1
  P  P18  1  0.750000  0.571486  0.885926  1
  P  P19  1  0.750000  0.928514  0.385926  1
  P  P20  1  0.250000  0.272320  0.851753  1
  P  P21  1  0.250000  0.227680  0.351753  1
  P  P22  1  0.750000  0.727680  0.148247  1
  P  P23  1  0.750000  0.772320  0.648247  1
  P  P24  1  0.250000  0.603528  0.374733  1
  P  P25  1  0.250000  0.896472  0.874733  1
  P  P26  1  0.750000  0.396472  0.625267  1
  P  P27  1  0.750000  0.103528  0.125267  1
  Ir  Ir28  1  0.250000  0.709429  0.983848  1
  Ir  Ir29  1  0.250000  0.790571  0.483848  1
  Ir  Ir30  1  0.750000  0.290571  0.016152  1
  Ir  Ir31  1  0.750000  0.209429  0.516152  1
  Ir  Ir32  1  0.250000  0.405618  0.475097  1
  Ir  Ir33  1  0.250000  0.094382  0.975097  1
  Ir  Ir34  1  0.750000  0.594382  0.524903  1
  Ir  Ir35  1  0.750000  0.905618  0.024903  1
