# generated using pymatgen
data_La2B4Os3Rh
_symmetry_space_group_name_H-M   'P 1'
_cell_length_a   6.92921937
_cell_length_b   6.09910951
_cell_length_c   5.67025617
_cell_angle_alpha   72.03217288
_cell_angle_beta   56.85335512
_cell_angle_gamma   50.83222500
_symmetry_Int_Tables_number   1
_chemical_formula_structural   La2B4Os3Rh
_chemical_formula_sum   'La2 B4 Os3 Rh1'
_cell_volume   155.30637595
_cell_formula_units_Z   1
loop_
 _symmetry_equiv_pos_site_id
 _symmetry_equiv_pos_as_xyz
  1  'x, y, z'
loop_
 _atom_site_type_symbol
 _atom_site_label
 _atom_site_symmetry_multiplicity
 _atom_site_fract_x
 _atom_site_fract_y
 _atom_site_fract_z
 _atom_site_occupancy
  La  La0  1  0.003579  0.003579  0.996421  1
  La  La1  1  0.248310  0.248310  0.251690  1
  B  B2  1  0.317879  0.672955  0.313449  1
  B  B3  1  0.672955  0.317879  0.695715  1
  B  B4  1  0.574446  0.929355  0.574414  1
  B  B5  1  0.929355  0.574446  0.921786  1
  Os  Os6  1  0.365861  0.365861  0.634139  1
  Os  Os7  1  0.614341  0.614341  0.885659  1
  Os  Os8  1  0.887025  0.887025  0.612975  1
  Rh  Rh9  1  0.636250  0.636250  0.363750  1
