# generated using pymatgen
data_CaLa(Al4Co)2
_symmetry_space_group_name_H-M   'P 1'
_cell_length_a   4.00821300
_cell_length_b   6.92602900
_cell_length_c   7.65836300
_cell_angle_alpha   90.00000000
_cell_angle_beta   90.00000000
_cell_angle_gamma   90.00000000
_symmetry_Int_Tables_number   1
_chemical_formula_structural   CaLa(Al4Co)2
_chemical_formula_sum   'Ca1 La1 Al8 Co2'
_cell_volume   212.60381123
_cell_formula_units_Z   1
loop_
 _symmetry_equiv_pos_site_id
 _symmetry_equiv_pos_as_xyz
  1  'x, y, z'
loop_
 _atom_site_type_symbol
 _atom_site_label
 _atom_site_symmetry_multiplicity
 _atom_site_fract_x
 _atom_site_fract_y
 _atom_site_fract_z
 _atom_site_occupancy
  Ca  Ca0  1  0.000000  0.609756  0.750000  1
  La  La1  1  0.000000  0.389639  0.250000  1
  Al  Al2  1  0.000000  0.998292  0.501714  1
  Al  Al3  1  0.000000  0.998292  0.998286  1
  Al  Al4  1  0.500000  0.951884  0.750000  1
  Al  Al5  1  0.500000  0.043752  0.250000  1
  Al  Al6  1  0.500000  0.708336  0.066760  1
  Al  Al7  1  0.500000  0.294274  0.929922  1
  Al  Al8  1  0.500000  0.708336  0.433240  1
  Al  Al9  1  0.500000  0.294274  0.570078  1
  Co  Co10  1  0.000000  0.185856  0.750000  1
  Co  Co11  1  0.000000  0.817309  0.250000  1
