# generated using pymatgen
data_Tb17Dy(HoPb8)2
_symmetry_space_group_name_H-M   'P 1'
_cell_length_a   8.23116853
_cell_length_b   15.72158500
_cell_length_c   8.32146205
_cell_angle_alpha   90.00000000
_cell_angle_beta   90.02688240
_cell_angle_gamma   90.00000000
_symmetry_Int_Tables_number   1
_chemical_formula_structural   Tb17Dy(HoPb8)2
_chemical_formula_sum   'Tb17 Dy1 Ho2 Pb16'
_cell_volume   1076.85545140
_cell_formula_units_Z   1
loop_
 _symmetry_equiv_pos_site_id
 _symmetry_equiv_pos_as_xyz
  1  'x, y, z'
loop_
 _atom_site_type_symbol
 _atom_site_label
 _atom_site_symmetry_multiplicity
 _atom_site_fract_x
 _atom_site_fract_y
 _atom_site_fract_z
 _atom_site_occupancy
  Tb  Tb0  1  0.622673  0.620212  0.159415  1
  Tb  Tb1  1  0.123004  0.879792  0.340351  1
  Tb  Tb2  1  0.377222  0.120239  0.840537  1
  Tb  Tb3  1  0.877115  0.379712  0.659540  1
  Tb  Tb4  1  0.377222  0.379761  0.840537  1
  Tb  Tb5  1  0.877115  0.120288  0.659540  1
  Tb  Tb6  1  0.622673  0.879788  0.159415  1
  Tb  Tb7  1  0.123004  0.620208  0.340351  1
  Tb  Tb8  1  0.466377  0.600165  0.677116  1
  Tb  Tb9  1  0.966590  0.899828  0.823119  1
  Tb  Tb10  1  0.533550  0.100222  0.322956  1
  Tb  Tb11  1  0.033460  0.399819  0.176978  1
  Tb  Tb12  1  0.533550  0.399778  0.322956  1
  Tb  Tb13  1  0.033460  0.100181  0.176978  1
  Tb  Tb14  1  0.466377  0.899835  0.677116  1
  Tb  Tb15  1  0.966590  0.600172  0.823119  1
  Tb  Tb16  1  0.791293  0.750000  0.496666  1
  Dy  Dy17  1  0.208822  0.250000  0.503403  1
  Ho  Ho18  1  0.291041  0.750000  0.003473  1
  Ho  Ho19  1  0.708963  0.250000  0.996632  1
  Pb  Pb20  1  0.718942  0.457162  0.967222  1
  Pb  Pb21  1  0.218953  0.042769  0.532746  1
  Pb  Pb22  1  0.281059  0.957205  0.032768  1
  Pb  Pb23  1  0.781035  0.542570  0.467174  1
  Pb  Pb24  1  0.281059  0.542795  0.032768  1
  Pb  Pb25  1  0.781035  0.957430  0.467174  1
  Pb  Pb26  1  0.718942  0.042838  0.967222  1
  Pb  Pb27  1  0.218953  0.457231  0.532746  1
  Pb  Pb28  1  0.427132  0.750000  0.372861  1
  Pb  Pb29  1  0.927770  0.750000  0.126510  1
  Pb  Pb30  1  0.572480  0.250000  0.626998  1
  Pb  Pb31  1  0.072277  0.250000  0.873194  1
  Pb  Pb32  1  0.654815  0.750000  0.848931  1
  Pb  Pb33  1  0.155189  0.750000  0.651883  1
  Pb  Pb34  1  0.345139  0.250000  0.151470  1
  Pb  Pb35  1  0.845118  0.250000  0.348133  1
