# generated using pymatgen
data_YZr3(Al3Ir)6
_symmetry_space_group_name_H-M   'P 1'
_cell_length_a   7.49934183
_cell_length_b   7.49136012
_cell_length_c   9.32699000
_cell_angle_alpha   90.00000000
_cell_angle_beta   90.00000000
_cell_angle_gamma   119.78496743
_symmetry_Int_Tables_number   1
_chemical_formula_structural   YZr3(Al3Ir)6
_chemical_formula_sum   'Y1 Zr3 Al18 Ir6'
_cell_volume   454.77117406
_cell_formula_units_Z   1
loop_
 _symmetry_equiv_pos_site_id
 _symmetry_equiv_pos_as_xyz
  1  'x, y, z'
loop_
 _atom_site_type_symbol
 _atom_site_label
 _atom_site_symmetry_multiplicity
 _atom_site_fract_x
 _atom_site_fract_y
 _atom_site_fract_z
 _atom_site_occupancy
  Y  Y0  1  0.329397  0.005758  0.750000  1
  Zr  Zr1  1  0.994300  0.671309  0.250000  1
  Zr  Zr2  1  0.005731  0.329739  0.750000  1
  Zr  Zr3  1  0.671249  0.994298  0.250000  1
  Al  Al4  1  0.122662  0.123796  0.250000  1
  Al  Al5  1  0.871944  0.875619  0.750000  1
  Al  Al6  1  0.997673  0.334374  0.076164  1
  Al  Al7  1  0.999739  0.662728  0.926155  1
  Al  Al8  1  0.999739  0.662728  0.573845  1
  Al  Al9  1  0.334729  0.998238  0.420544  1
  Al  Al10  1  0.997673  0.334374  0.423836  1
  Al  Al11  1  0.668186  0.002194  0.573905  1
  Al  Al12  1  0.668186  0.002194  0.926095  1
  Al  Al13  1  0.334729  0.998238  0.079456  1
  Al  Al14  1  0.331400  0.333785  0.555120  1
  Al  Al15  1  0.668176  0.668089  0.441655  1
  Al  Al16  1  0.668176  0.668089  0.058345  1
  Al  Al17  1  0.331400  0.333785  0.944880  1
  Al  Al18  1  0.338556  0.552548  0.250000  1
  Al  Al19  1  0.666103  0.452609  0.750000  1
  Al  Al20  1  0.553636  0.339678  0.250000  1
  Al  Al21  1  0.447097  0.656557  0.750000  1
  Ir  Ir22  1  0.672135  0.327941  0.001110  1
  Ir  Ir23  1  0.328342  0.672907  0.001451  1
  Ir  Ir24  1  0.328342  0.672907  0.498549  1
  Ir  Ir25  1  0.672135  0.327941  0.498890  1
  Ir  Ir26  1  0.999284  0.998787  0.001298  1
  Ir  Ir27  1  0.999284  0.998787  0.498702  1
