# generated using pymatgen
data_Mn5Nb4FeIr2
_symmetry_space_group_name_H-M   'P 1'
_cell_length_a   4.84329891
_cell_length_b   4.84329905
_cell_length_c   8.23808300
_cell_angle_alpha   90.00000000
_cell_angle_beta   90.00000000
_cell_angle_gamma   120.31164760
_symmetry_Int_Tables_number   1
_chemical_formula_structural   Mn5Nb4FeIr2
_chemical_formula_sum   'Mn5 Nb4 Fe1 Ir2'
_cell_volume   166.82722475
_cell_formula_units_Z   1
loop_
 _symmetry_equiv_pos_site_id
 _symmetry_equiv_pos_as_xyz
  1  'x, y, z'
loop_
 _atom_site_type_symbol
 _atom_site_label
 _atom_site_symmetry_multiplicity
 _atom_site_fract_x
 _atom_site_fract_y
 _atom_site_fract_z
 _atom_site_occupancy
  Mn  Mn0  1  0.818295  0.645132  0.250000  1
  Mn  Mn1  1  0.354868  0.181705  0.250000  1
  Mn  Mn2  1  0.178946  0.821054  0.750000  1
  Mn  Mn3  1  0.177696  0.355519  0.750000  1
  Mn  Mn4  1  0.644481  0.822304  0.750000  1
  Nb  Nb5  1  0.333283  0.666717  0.428516  1
  Nb  Nb6  1  0.667319  0.332681  0.569377  1
  Nb  Nb7  1  0.667319  0.332681  0.930623  1
  Nb  Nb8  1  0.333283  0.666717  0.071484  1
  Fe  Fe9  1  0.824886  0.175114  0.250000  1
  Ir  Ir10  1  0.999813  0.000187  0.499226  1
  Ir  Ir11  1  0.999813  0.000187  0.000774  1
