# generated using pymatgen
data_Sm8Be4GaSi11
_symmetry_space_group_name_H-M   'P 1'
_cell_length_a   8.04909600
_cell_length_b   8.04909607
_cell_length_c   8.23210000
_cell_angle_alpha   89.99866888
_cell_angle_beta   90.00132400
_cell_angle_gamma   119.87760473
_symmetry_Int_Tables_number   1
_chemical_formula_structural   Sm8Be4GaSi11
_chemical_formula_sum   'Sm8 Be4 Ga1 Si11'
_cell_volume   462.45533912
_cell_formula_units_Z   1
loop_
 _symmetry_equiv_pos_site_id
 _symmetry_equiv_pos_as_xyz
  1  'x, y, z'
loop_
 _atom_site_type_symbol
 _atom_site_label
 _atom_site_symmetry_multiplicity
 _atom_site_fract_x
 _atom_site_fract_y
 _atom_site_fract_z
 _atom_site_occupancy
  Sm  Sm0  1  0.998366  0.001634  0.249031  1
  Sm  Sm1  1  0.998434  0.001566  0.750979  1
  Sm  Sm2  1  0.500398  0.499602  0.250184  1
  Sm  Sm3  1  0.502283  0.001595  0.248701  1
  Sm  Sm4  1  0.998405  0.497717  0.248701  1
  Sm  Sm5  1  0.499853  0.500147  0.749800  1
  Sm  Sm6  1  0.501820  0.000573  0.751301  1
  Sm  Sm7  1  0.999427  0.498180  0.751301  1
  Be  Be8  1  0.336183  0.663817  0.497845  1
  Be  Be9  1  0.666333  0.333667  0.501987  1
  Be  Be10  1  0.666894  0.333106  0.997962  1
  Be  Be11  1  0.333820  0.666180  0.002067  1
  Ga  Ga12  1  0.173128  0.826872  0.499902  1
  Si  Si13  1  0.172431  0.344606  0.499878  1
  Si  Si14  1  0.655394  0.827569  0.499878  1
  Si  Si15  1  0.827836  0.172164  0.500160  1
  Si  Si16  1  0.825869  0.655644  0.500138  1
  Si  Si17  1  0.344356  0.174131  0.500138  1
  Si  Si18  1  0.827832  0.172168  0.999861  1
  Si  Si19  1  0.827770  0.655923  0.999877  1
  Si  Si20  1  0.344077  0.172230  0.999877  1
  Si  Si21  1  0.171739  0.828261  0.000146  1
  Si  Si22  1  0.171679  0.344327  0.000143  1
  Si  Si23  1  0.655673  0.828321  0.000143  1
