# generated using pymatgen
data_SmY5(AuO7)2
_symmetry_space_group_name_H-M   'P 1'
_cell_length_a   6.52418345
_cell_length_b   6.52418424
_cell_length_c   7.48677074
_cell_angle_alpha   89.95859752
_cell_angle_beta   90.04140512
_cell_angle_gamma   108.92390069
_symmetry_Int_Tables_number   1
_chemical_formula_structural   SmY5(AuO7)2
_chemical_formula_sum   'Sm1 Y5 Au2 O14'
_cell_volume   301.44979787
_cell_formula_units_Z   1
loop_
 _symmetry_equiv_pos_site_id
 _symmetry_equiv_pos_as_xyz
  1  'x, y, z'
loop_
 _atom_site_type_symbol
 _atom_site_label
 _atom_site_symmetry_multiplicity
 _atom_site_fract_x
 _atom_site_fract_y
 _atom_site_fract_z
 _atom_site_occupancy
  Sm  Sm0  1  0.500000  0.500000  0.500000  1
  Y  Y1  1  0.500000  0.500000  0.000000  1
  Y  Y2  1  0.528139  0.997849  0.751265  1
  Y  Y3  1  0.997849  0.528139  0.248735  1
  Y  Y4  1  0.471861  0.002151  0.248735  1
  Y  Y5  1  0.002151  0.471861  0.751265  1
  Au  Au6  1  0.000000  0.000000  0.500000  1
  Au  Au7  1  0.000000  0.000000  0.000000  1
  O  O8  1  0.670949  0.920860  0.475883  1
  O  O9  1  0.920860  0.670949  0.524117  1
  O  O10  1  0.670943  0.918515  0.024187  1
  O  O11  1  0.918515  0.670943  0.975813  1
  O  O12  1  0.329051  0.079140  0.524117  1
  O  O13  1  0.079140  0.329051  0.475883  1
  O  O14  1  0.329057  0.081485  0.975813  1
  O  O15  1  0.081485  0.329057  0.024187  1
  O  O16  1  0.921630  0.078370  0.750016  1
  O  O17  1  0.078370  0.921630  0.249984  1
  O  O18  1  0.366284  0.633716  0.754552  1
  O  O19  1  0.633716  0.366284  0.245448  1
  O  O20  1  0.640155  0.359845  0.753828  1
  O  O21  1  0.359845  0.640155  0.246172  1
