# generated using pymatgen
data_Ac3(GeIr)2
_symmetry_space_group_name_H-M   'P 1'
_cell_length_a   6.03798100
_cell_length_b   8.51726200
_cell_length_c   13.89219500
_cell_angle_alpha   90.00000000
_cell_angle_beta   90.00000000
_cell_angle_gamma   90.00000000
_symmetry_Int_Tables_number   1
_chemical_formula_structural   Ac3(GeIr)2
_chemical_formula_sum   'Ac12 Ge8 Ir8'
_cell_volume   714.43483093
_cell_formula_units_Z   4
loop_
 _symmetry_equiv_pos_site_id
 _symmetry_equiv_pos_as_xyz
  1  'x, y, z'
loop_
 _atom_site_type_symbol
 _atom_site_label
 _atom_site_symmetry_multiplicity
 _atom_site_fract_x
 _atom_site_fract_y
 _atom_site_fract_z
 _atom_site_occupancy
  Ac  Ac0  1  0.150847  0.893516  0.599567  1
  Ac  Ac1  1  0.849153  0.106484  0.099567  1
  Ac  Ac2  1  0.150847  0.606484  0.400433  1
  Ac  Ac3  1  0.849153  0.393516  0.900433  1
  Ac  Ac4  1  0.849153  0.106484  0.400433  1
  Ac  Ac5  1  0.150847  0.893516  0.900433  1
  Ac  Ac6  1  0.849153  0.393516  0.599567  1
  Ac  Ac7  1  0.150847  0.606484  0.099567  1
  Ac  Ac8  1  0.359676  0.249209  0.750000  1
  Ac  Ac9  1  0.640324  0.750791  0.250000  1
  Ac  Ac10  1  0.359676  0.250791  0.250000  1
  Ac  Ac11  1  0.640324  0.749209  0.750000  1
  Ge  Ge12  1  0.844725  0.098996  0.750000  1
  Ge  Ge13  1  0.155275  0.901004  0.250000  1
  Ge  Ge14  1  0.844725  0.401004  0.250000  1
  Ge  Ge15  1  0.155275  0.598996  0.750000  1
  Ge  Ge16  1  0.376264  0.250000  0.500000  1
  Ge  Ge17  1  0.623736  0.750000  0.000000  1
  Ge  Ge18  1  0.623736  0.750000  0.500000  1
  Ge  Ge19  1  0.376264  0.250000  0.000000  1
  Ir  Ir20  1  0.620389  0.039503  0.590622  1
  Ir  Ir21  1  0.379611  0.960497  0.090622  1
  Ir  Ir22  1  0.620389  0.460497  0.409378  1
  Ir  Ir23  1  0.379611  0.539503  0.909378  1
  Ir  Ir24  1  0.379611  0.960497  0.409378  1
  Ir  Ir25  1  0.620389  0.039503  0.909378  1
  Ir  Ir26  1  0.379611  0.539503  0.590622  1
  Ir  Ir27  1  0.620389  0.460497  0.090622  1
