# generated using pymatgen
data_Ti6GaSN2
_symmetry_space_group_name_H-M   'P 1'
_cell_length_a   5.49375139
_cell_length_b   5.49375320
_cell_length_c   7.96036100
_cell_angle_alpha   90.00000000
_cell_angle_beta   90.00000000
_cell_angle_gamma   146.86863881
_symmetry_Int_Tables_number   1
_chemical_formula_structural   Ti6GaSN2
_chemical_formula_sum   'Ti6 Ga1 S1 N2'
_cell_volume   131.31341041
_cell_formula_units_Z   1
loop_
 _symmetry_equiv_pos_site_id
 _symmetry_equiv_pos_as_xyz
  1  'x, y, z'
loop_
 _atom_site_type_symbol
 _atom_site_label
 _atom_site_symmetry_multiplicity
 _atom_site_fract_x
 _atom_site_fract_y
 _atom_site_fract_z
 _atom_site_occupancy
  Ti  Ti0  1  0.631095  0.368905  0.563198  1
  Ti  Ti1  1  0.374097  0.625903  0.041438  1
  Ti  Ti2  1  0.374097  0.625903  0.458562  1
  Ti  Ti3  1  0.631095  0.368905  0.936802  1
  Ti  Ti4  1  0.936945  0.063055  0.750000  1
  Ti  Ti5  1  0.044981  0.955019  0.250000  1
  Ga  Ga6  1  0.745597  0.254403  0.250000  1
  S  S7  1  0.258665  0.741335  0.750000  1
  N  N8  1  0.001714  0.998286  0.505376  1
  N  N9  1  0.001714  0.998286  0.994624  1
