# generated using pymatgen
data_Cs3RbYbI6
_symmetry_space_group_name_H-M   'P 1'
_cell_length_a   10.50067074
_cell_length_b   10.50067154
_cell_length_c   10.50067190
_cell_angle_alpha   90.35779534
_cell_angle_beta   90.35779480
_cell_angle_gamma   90.35779514
_symmetry_Int_Tables_number   1
_chemical_formula_structural   Cs3RbYbI6
_chemical_formula_sum   'Cs6 Rb2 Yb2 I12'
_cell_volume   1157.77906663
_cell_formula_units_Z   2
loop_
 _symmetry_equiv_pos_site_id
 _symmetry_equiv_pos_as_xyz
  1  'x, y, z'
loop_
 _atom_site_type_symbol
 _atom_site_label
 _atom_site_symmetry_multiplicity
 _atom_site_fract_x
 _atom_site_fract_y
 _atom_site_fract_z
 _atom_site_occupancy
  Cs  Cs0  1  0.870108  0.629892  0.250000  1
  Cs  Cs1  1  0.629892  0.250000  0.870108  1
  Cs  Cs2  1  0.250000  0.870108  0.629892  1
  Cs  Cs3  1  0.129892  0.370108  0.750000  1
  Cs  Cs4  1  0.370108  0.750000  0.129892  1
  Cs  Cs5  1  0.750000  0.129892  0.370108  1
  Rb  Rb6  1  0.250000  0.250000  0.250000  1
  Rb  Rb7  1  0.750000  0.750000  0.750000  1
  Yb  Yb8  1  0.000000  0.000000  0.000000  1
  Yb  Yb9  1  0.500000  0.500000  0.500000  1
  I  I10  1  0.213140  0.552674  0.428719  1
  I  I11  1  0.052674  0.713140  0.928719  1
  I  I12  1  0.928719  0.052674  0.713140  1
  I  I13  1  0.786860  0.447326  0.571281  1
  I  I14  1  0.713140  0.928719  0.052674  1
  I  I15  1  0.447326  0.571281  0.786860  1
  I  I16  1  0.571281  0.786860  0.447326  1
  I  I17  1  0.552674  0.428719  0.213140  1
  I  I18  1  0.071281  0.947326  0.286860  1
  I  I19  1  0.947326  0.286860  0.071281  1
  I  I20  1  0.286860  0.071281  0.947326  1
  I  I21  1  0.428719  0.213140  0.552674  1
