# generated using pymatgen
data_CsThNiSe3
_symmetry_space_group_name_H-M   'P 1'
_cell_length_a   8.41235764
_cell_length_b   8.41235707
_cell_length_c   11.04367800
_cell_angle_alpha   90.00000000
_cell_angle_beta   90.00000000
_cell_angle_gamma   150.97230449
_symmetry_Int_Tables_number   1
_chemical_formula_structural   CsThNiSe3
_chemical_formula_sum   'Cs2 Th2 Ni2 Se6'
_cell_volume   379.22669052
_cell_formula_units_Z   2
loop_
 _symmetry_equiv_pos_site_id
 _symmetry_equiv_pos_as_xyz
  1  'x, y, z'
loop_
 _atom_site_type_symbol
 _atom_site_label
 _atom_site_symmetry_multiplicity
 _atom_site_fract_x
 _atom_site_fract_y
 _atom_site_fract_z
 _atom_site_occupancy
  Cs  Cs0  1  0.256837  0.743163  0.250000  1
  Cs  Cs1  1  0.743163  0.256837  0.750000  1
  Th  Th2  1  0.000000  0.000000  0.000000  1
  Th  Th3  1  0.000000  0.000000  0.500000  1
  Ni  Ni4  1  0.526823  0.473177  0.250000  1
  Ni  Ni5  1  0.473177  0.526823  0.750000  1
  Se  Se6  1  0.614743  0.385256  0.070115  1
  Se  Se7  1  0.944341  0.055658  0.250000  1
  Se  Se8  1  0.614743  0.385256  0.429885  1
  Se  Se9  1  0.385256  0.614743  0.570115  1
  Se  Se10  1  0.055658  0.944341  0.750000  1
  Se  Se11  1  0.385256  0.614743  0.929885  1
