# generated using pymatgen
data_Sm8Si12PdAu3
_symmetry_space_group_name_H-M   'P 1'
_cell_length_a   8.25276200
_cell_length_b   8.25276116
_cell_length_c   8.44471400
_cell_angle_alpha   90.00000000
_cell_angle_beta   90.00000000
_cell_angle_gamma   120.00001137
_symmetry_Int_Tables_number   1
_chemical_formula_structural   Sm8Si12PdAu3
_chemical_formula_sum   'Sm8 Si12 Pd1 Au3'
_cell_volume   498.09722840
_cell_formula_units_Z   1
loop_
 _symmetry_equiv_pos_site_id
 _symmetry_equiv_pos_as_xyz
  1  'x, y, z'
loop_
 _atom_site_type_symbol
 _atom_site_label
 _atom_site_symmetry_multiplicity
 _atom_site_fract_x
 _atom_site_fract_y
 _atom_site_fract_z
 _atom_site_occupancy
  Sm  Sm0  1  0.499457  0.998913  0.251998  1
  Sm  Sm1  1  0.498189  0.996380  0.748116  1
  Sm  Sm2  1  0.001087  0.500543  0.251998  1
  Sm  Sm3  1  0.003620  0.501811  0.748116  1
  Sm  Sm4  1  0.499457  0.500543  0.251998  1
  Sm  Sm5  1  0.498189  0.501811  0.748116  1
  Sm  Sm6  1  0.000000  0.000000  0.250910  1
  Sm  Sm7  1  0.000000  0.000000  0.747917  1
  Si  Si8  1  0.163624  0.327250  0.995003  1
  Si  Si9  1  0.836123  0.672246  0.003989  1
  Si  Si10  1  0.672750  0.836376  0.995003  1
  Si  Si11  1  0.837586  0.675172  0.502383  1
  Si  Si12  1  0.327754  0.163877  0.003989  1
  Si  Si13  1  0.167466  0.334931  0.496637  1
  Si  Si14  1  0.163624  0.836376  0.995003  1
  Si  Si15  1  0.324828  0.162414  0.502383  1
  Si  Si16  1  0.836123  0.163877  0.003989  1
  Si  Si17  1  0.665069  0.832534  0.496637  1
  Si  Si18  1  0.837586  0.162414  0.502383  1
  Si  Si19  1  0.167466  0.832534  0.496637  1
  Pd  Pd20  1  0.333333  0.666667  0.501596  1
  Au  Au21  1  0.333333  0.666667  0.005682  1
  Au  Au22  1  0.666667  0.333333  0.997379  1
  Au  Au23  1  0.666667  0.333333  0.502136  1
