# generated using pymatgen
data_Ta14Ni8MoWN4
_symmetry_space_group_name_H-M   'P 1'
_cell_length_a   8.21036118
_cell_length_b   8.17459107
_cell_length_c   8.17451500
_cell_angle_alpha   59.72305944
_cell_angle_beta   59.85199993
_cell_angle_gamma   59.85156977
_symmetry_Int_Tables_number   1
_chemical_formula_structural   Ta14Ni8MoWN4
_chemical_formula_sum   'Ta14 Ni8 Mo1 W1 N4'
_cell_volume   386.26519019
_cell_formula_units_Z   1
loop_
 _symmetry_equiv_pos_site_id
 _symmetry_equiv_pos_as_xyz
  1  'x, y, z'
loop_
 _atom_site_type_symbol
 _atom_site_label
 _atom_site_symmetry_multiplicity
 _atom_site_fract_x
 _atom_site_fract_y
 _atom_site_fract_z
 _atom_site_occupancy
  Ta  Ta0  1  0.316168  0.683814  0.683766  1
  Ta  Ta1  1  0.125000  0.125000  0.625000  1
  Ta  Ta2  1  0.565971  0.561884  0.936255  1
  Ta  Ta3  1  0.314077  0.688112  0.313785  1
  Ta  Ta4  1  0.314108  0.313834  0.687985  1
  Ta  Ta5  1  0.686748  0.313226  0.313227  1
  Ta  Ta6  1  0.935892  0.936166  0.562015  1
  Ta  Ta7  1  0.935923  0.561888  0.936215  1
  Ta  Ta8  1  0.933832  0.566186  0.566234  1
  Ta  Ta9  1  0.563252  0.936774  0.936773  1
  Ta  Ta10  1  0.684029  0.688116  0.313745  1
  Ta  Ta11  1  0.684083  0.313801  0.687978  1
  Ta  Ta12  1  0.565917  0.936199  0.562022  1
  Ta  Ta13  1  0.125000  0.625000  0.125000  1
  Ni  Ni14  1  0.006533  0.330196  0.330230  1
  Ni  Ni15  1  0.916885  0.919741  0.919703  1
  Ni  Ni16  1  0.330551  0.327600  0.011421  1
  Ni  Ni17  1  0.919449  0.922400  0.238579  1
  Ni  Ni18  1  0.243467  0.919804  0.919770  1
  Ni  Ni19  1  0.330578  0.011305  0.327650  1
  Ni  Ni20  1  0.919422  0.238695  0.922350  1
  Ni  Ni21  1  0.333115  0.330259  0.330297  1
  Mo  Mo22  1  0.125000  0.125000  0.125000  1
  W  W23  1  0.625000  0.125000  0.125000  1
  N  N24  1  0.625000  0.125000  0.625000  1
  N  N25  1  0.625000  0.625000  0.125000  1
  N  N26  1  0.125000  0.625000  0.625000  1
  N  N27  1  0.625000  0.625000  0.625000  1
