# generated using pymatgen
data_Rb8Li4TbHo3Bi8
_symmetry_space_group_name_H-M   'P 1'
_cell_length_a   11.38866897
_cell_length_b   11.38866984
_cell_length_c   7.36553506
_cell_angle_alpha   89.99732159
_cell_angle_beta   90.00268009
_cell_angle_gamma   99.39675726
_symmetry_Int_Tables_number   1
_chemical_formula_structural   Rb8Li4TbHo3Bi8
_chemical_formula_sum   'Rb8 Li4 Tb1 Ho3 Bi8'
_cell_volume   942.50399070
_cell_formula_units_Z   1
loop_
 _symmetry_equiv_pos_site_id
 _symmetry_equiv_pos_as_xyz
  1  'x, y, z'
loop_
 _atom_site_type_symbol
 _atom_site_label
 _atom_site_symmetry_multiplicity
 _atom_site_fract_x
 _atom_site_fract_y
 _atom_site_fract_z
 _atom_site_occupancy
  Rb  Rb0  1  0.571134  0.928439  0.749988  1
  Rb  Rb1  1  0.928439  0.571134  0.250012  1
  Rb  Rb2  1  0.428376  0.071870  0.250199  1
  Rb  Rb3  1  0.071870  0.428376  0.749801  1
  Rb  Rb4  1  0.675139  0.324719  0.783496  1
  Rb  Rb5  1  0.824874  0.175586  0.283679  1
  Rb  Rb6  1  0.324719  0.675139  0.216504  1
  Rb  Rb7  1  0.175586  0.824874  0.716321  1
  Li  Li8  1  0.620839  0.620839  0.000000  1
  Li  Li9  1  0.878710  0.878710  0.500000  1
  Li  Li10  1  0.378571  0.378571  0.000000  1
  Li  Li11  1  0.121697  0.121697  0.500000  1
  Tb  Tb12  1  0.869372  0.869372  0.000000  1
  Ho  Ho13  1  0.629850  0.629850  0.500000  1
  Ho  Ho14  1  0.130526  0.130526  0.000000  1
  Ho  Ho15  1  0.370041  0.370041  0.500000  1
  Bi  Bi16  1  0.347989  0.152363  0.749952  1
  Bi  Bi17  1  0.152363  0.347989  0.250048  1
  Bi  Bi18  1  0.650873  0.847783  0.251532  1
  Bi  Bi19  1  0.847783  0.650873  0.748468  1
  Bi  Bi20  1  0.904338  0.097149  0.758932  1
  Bi  Bi21  1  0.596003  0.403761  0.259503  1
  Bi  Bi22  1  0.097149  0.904338  0.241068  1
  Bi  Bi23  1  0.403761  0.596003  0.740497  1
