# generated using pymatgen
data_Tb3Y4BI12
_symmetry_space_group_name_H-M   'P 1'
_cell_length_a   9.67101417
_cell_length_b   9.67101374
_cell_length_c   9.67101382
_cell_angle_alpha   107.91878168
_cell_angle_beta   107.91877838
_cell_angle_gamma   107.91877745
_symmetry_Int_Tables_number   1
_chemical_formula_structural   Tb3Y4BI12
_chemical_formula_sum   'Tb3 Y4 B1 I12'
_cell_volume   733.59083650
_cell_formula_units_Z   1
loop_
 _symmetry_equiv_pos_site_id
 _symmetry_equiv_pos_as_xyz
  1  'x, y, z'
loop_
 _atom_site_type_symbol
 _atom_site_label
 _atom_site_symmetry_multiplicity
 _atom_site_fract_x
 _atom_site_fract_y
 _atom_site_fract_z
 _atom_site_occupancy
  Tb  Tb0  1  0.100909  0.034350  0.293658  1
  Tb  Tb1  1  0.034350  0.293658  0.100909  1
  Tb  Tb2  1  0.293658  0.100909  0.034350  1
  Y  Y3  1  0.495292  0.495292  0.495292  1
  Y  Y4  1  0.900920  0.967834  0.707745  1
  Y  Y5  1  0.967834  0.707745  0.900920  1
  Y  Y6  1  0.707745  0.900920  0.967834  1
  B  B7  1  0.999435  0.999435  0.999435  1
  I  I8  1  0.531467  0.846212  0.611325  1
  I  I9  1  0.846212  0.611325  0.531467  1
  I  I10  1  0.611325  0.531467  0.846212  1
  I  I11  1  0.470517  0.151894  0.389676  1
  I  I12  1  0.151894  0.389676  0.470517  1
  I  I13  1  0.389676  0.470517  0.151894  1
  I  I14  1  0.686211  0.225173  0.074942  1
  I  I15  1  0.225173  0.074942  0.686211  1
  I  I16  1  0.074942  0.686211  0.225173  1
  I  I17  1  0.313723  0.774331  0.924387  1
  I  I18  1  0.774331  0.924387  0.313723  1
  I  I19  1  0.924387  0.313723  0.774331  1
