# generated using pymatgen
data_Mg5Zn13Pt6
_symmetry_space_group_name_H-M   'P 1'
_cell_length_a   7.51190598
_cell_length_b   7.51190512
_cell_length_c   8.21799794
_cell_angle_alpha   89.90995792
_cell_angle_beta   89.90996518
_cell_angle_gamma   120.63005882
_symmetry_Int_Tables_number   1
_chemical_formula_structural   Mg5Zn13Pt6
_chemical_formula_sum   'Mg5 Zn13 Pt6'
_cell_volume   399.02698037
_cell_formula_units_Z   1
loop_
 _symmetry_equiv_pos_site_id
 _symmetry_equiv_pos_as_xyz
  1  'x, y, z'
loop_
 _atom_site_type_symbol
 _atom_site_label
 _atom_site_symmetry_multiplicity
 _atom_site_fract_x
 _atom_site_fract_y
 _atom_site_fract_z
 _atom_site_occupancy
  Mg  Mg0  1  0.002584  0.369144  0.926668  1
  Mg  Mg1  1  0.369144  0.002584  0.926668  1
  Mg  Mg2  1  0.633137  0.998732  0.427882  1
  Mg  Mg3  1  0.998732  0.633137  0.427882  1
  Mg  Mg4  1  0.634128  0.634128  0.927443  1
  Zn  Zn5  1  0.997836  0.997836  0.333538  1
  Zn  Zn6  1  0.003523  0.003523  0.837779  1
  Zn  Zn7  1  0.332401  0.668947  0.202451  1
  Zn  Zn8  1  0.670469  0.331908  0.702552  1
  Zn  Zn9  1  0.331908  0.670469  0.702552  1
  Zn  Zn10  1  0.668947  0.332401  0.202451  1
  Zn  Zn11  1  0.300002  0.300002  0.092213  1
  Zn  Zn12  1  0.006585  0.292815  0.585261  1
  Zn  Zn13  1  0.292815  0.006585  0.585261  1
  Zn  Zn14  1  0.708354  0.997511  0.088766  1
  Zn  Zn15  1  0.997511  0.708354  0.088766  1
  Zn  Zn16  1  0.691578  0.691578  0.588122  1
  Zn  Zn17  1  0.360916  0.360916  0.427198  1
  Pt  Pt18  1  0.328729  0.328729  0.754856  1
  Pt  Pt19  1  0.000108  0.323018  0.260329  1
  Pt  Pt20  1  0.323018  0.000108  0.260329  1
  Pt  Pt21  1  0.679686  0.000083  0.760020  1
  Pt  Pt22  1  0.000083  0.679686  0.760020  1
  Pt  Pt23  1  0.667806  0.667806  0.262591  1
