# generated using pymatgen
data_Ho2Er2B16Ir3Ru
_symmetry_space_group_name_H-M   'P 1'
_cell_length_a   3.55545500
_cell_length_b   5.95216410
_cell_length_c   11.54455141
_cell_angle_alpha   90.04325318
_cell_angle_beta   90.00000000
_cell_angle_gamma   90.00000000
_symmetry_Int_Tables_number   1
_chemical_formula_structural   Ho2Er2B16Ir3Ru
_chemical_formula_sum   'Ho2 Er2 B16 Ir3 Ru1'
_cell_volume   244.31324956
_cell_formula_units_Z   1
loop_
 _symmetry_equiv_pos_site_id
 _symmetry_equiv_pos_as_xyz
  1  'x, y, z'
loop_
 _atom_site_type_symbol
 _atom_site_label
 _atom_site_symmetry_multiplicity
 _atom_site_fract_x
 _atom_site_fract_y
 _atom_site_fract_z
 _atom_site_occupancy
  Ho  Ho0  1  0.000000  0.131185  0.851486  1
  Ho  Ho1  1  0.000000  0.868026  0.151155  1
  Er  Er2  1  0.000000  0.631749  0.646857  1
  Er  Er3  1  0.000000  0.370203  0.351402  1
  B  B4  1  0.500000  0.972033  0.691587  1
  B  B5  1  0.500000  0.024634  0.307602  1
  B  B6  1  0.500000  0.474419  0.807005  1
  B  B7  1  0.500000  0.525167  0.192982  1
  B  B8  1  0.500000  0.792020  0.812214  1
  B  B9  1  0.500000  0.208754  0.187983  1
  B  B10  1  0.500000  0.292338  0.687203  1
  B  B11  1  0.500000  0.709442  0.313773  1
  B  B12  1  0.500000  0.863953  0.969800  1
  B  B13  1  0.500000  0.135946  0.030126  1
  B  B14  1  0.500000  0.363970  0.529539  1
  B  B15  1  0.500000  0.635009  0.468967  1
  B  B16  1  0.500000  0.885863  0.545557  1
  B  B17  1  0.500000  0.111736  0.452132  1
  B  B18  1  0.500000  0.387618  0.953023  1
  B  B19  1  0.500000  0.612512  0.047365  1
  Ir  Ir20  1  0.000000  0.644102  0.902647  1
  Ir  Ir21  1  0.000000  0.355860  0.096265  1
  Ir  Ir22  1  0.000000  0.143908  0.597052  1
  Ru  Ru23  1  0.000000  0.859554  0.406278  1
