# generated using pymatgen
data_Sc8Al3Zn4Ru
_symmetry_space_group_name_H-M   'P 1'
_cell_length_a   9.45127735
_cell_length_b   6.59638750
_cell_length_c   9.44560407
_cell_angle_alpha   134.27254352
_cell_angle_beta   119.12594393
_cell_angle_gamma   45.75466770
_symmetry_Int_Tables_number   1
_chemical_formula_structural   Sc8Al3Zn4Ru
_chemical_formula_sum   'Sc8 Al3 Zn4 Ru1'
_cell_volume   302.05533290
_cell_formula_units_Z   1
loop_
 _symmetry_equiv_pos_site_id
 _symmetry_equiv_pos_as_xyz
  1  'x, y, z'
loop_
 _atom_site_type_symbol
 _atom_site_label
 _atom_site_symmetry_multiplicity
 _atom_site_fract_x
 _atom_site_fract_y
 _atom_site_fract_z
 _atom_site_occupancy
  Sc  Sc0  1  0.243438  0.005235  0.242331  1
  Sc  Sc1  1  0.756677  0.492103  0.242818  1
  Sc  Sc2  1  0.757390  0.980067  0.243349  1
  Sc  Sc3  1  0.242032  0.495049  0.243392  1
  Sc  Sc4  1  0.757604  0.492996  0.757001  1
  Sc  Sc5  1  0.242519  0.007849  0.756758  1
  Sc  Sc6  1  0.243481  0.519856  0.757057  1
  Sc  Sc7  1  0.756858  0.006812  0.757314  1
  Al  Al8  1  0.500084  0.250102  0.499858  1
  Al  Al9  1  0.499898  0.749913  0.500131  1
  Al  Al10  1  0.000118  0.750055  0.999843  1
  Zn  Zn11  1  0.500164  0.751355  0.000232  1
  Zn  Zn12  1  0.999832  0.748674  0.499793  1
  Zn  Zn13  1  0.000170  0.251339  0.500222  1
  Zn  Zn14  1  0.499835  0.248622  0.999782  1
  Ru  Ru15  1  0.999903  0.249971  0.000119  1
