# generated using pymatgen
data_Ho9Mg(Ni2Bi)2
_symmetry_space_group_name_H-M   'P 1'
_cell_length_a   8.75217383
_cell_length_b   8.75217441
_cell_length_c   8.75217441
_cell_angle_alpha   129.33869172
_cell_angle_beta   129.33870129
_cell_angle_gamma   74.46620233
_symmetry_Int_Tables_number   1
_chemical_formula_structural   Ho9Mg(Ni2Bi)2
_chemical_formula_sum   'Ho9 Mg1 Ni4 Bi2'
_cell_volume   390.82751115
_cell_formula_units_Z   1
loop_
 _symmetry_equiv_pos_site_id
 _symmetry_equiv_pos_as_xyz
  1  'x, y, z'
loop_
 _atom_site_type_symbol
 _atom_site_label
 _atom_site_symmetry_multiplicity
 _atom_site_fract_x
 _atom_site_fract_y
 _atom_site_fract_z
 _atom_site_occupancy
  Ho  Ho0  1  0.000000  0.000000  0.000000  1
  Ho  Ho1  1  0.042225  0.523811  0.823749  1
  Ho  Ho2  1  0.700062  0.218476  0.176251  1
  Ho  Ho3  1  0.523811  0.700062  0.481587  1
  Ho  Ho4  1  0.218476  0.042225  0.518413  1
  Ho  Ho5  1  0.957775  0.476189  0.176251  1
  Ho  Ho6  1  0.299938  0.781524  0.823749  1
  Ho  Ho7  1  0.476189  0.299938  0.518413  1
  Ho  Ho8  1  0.781524  0.957775  0.481587  1
  Mg  Mg9  1  0.500000  0.500000  0.000000  1
  Ni  Ni10  1  0.369301  0.875877  0.245176  1
  Ni  Ni11  1  0.630699  0.124123  0.754824  1
  Ni  Ni12  1  0.875877  0.630699  0.506576  1
  Ni  Ni13  1  0.124123  0.369301  0.493424  1
  Bi  Bi14  1  0.759638  0.759638  0.000000  1
  Bi  Bi15  1  0.240362  0.240362  0.000000  1
