# generated using pymatgen
data_Ac3PtI3
_symmetry_space_group_name_H-M   'P 1'
_cell_length_a   11.45899179
_cell_length_b   11.45899942
_cell_length_c   11.45882100
_cell_angle_alpha   109.47125792
_cell_angle_beta   109.47014156
_cell_angle_gamma   109.47231916
_symmetry_Int_Tables_number   1
_chemical_formula_structural   Ac3PtI3
_chemical_formula_sum   'Ac12 Pt4 I12'
_cell_volume   1158.27276876
_cell_formula_units_Z   4
loop_
 _symmetry_equiv_pos_site_id
 _symmetry_equiv_pos_as_xyz
  1  'x, y, z'
loop_
 _atom_site_type_symbol
 _atom_site_label
 _atom_site_symmetry_multiplicity
 _atom_site_fract_x
 _atom_site_fract_y
 _atom_site_fract_z
 _atom_site_occupancy
  Ac  Ac0  1  0.039385  0.269694  0.019708  1
  Ac  Ac1  1  0.749998  0.019678  0.480323  1
  Ac  Ac2  1  0.269672  0.749987  0.230335  1
  Ac  Ac3  1  0.480333  0.750013  0.019683  1
  Ac  Ac4  1  0.749992  0.230323  0.269663  1
  Ac  Ac5  1  0.019685  0.480324  0.750005  1
  Ac  Ac6  1  0.230313  0.269674  0.749991  1
  Ac  Ac7  1  0.480333  0.230335  0.460652  1
  Ac  Ac8  1  0.460622  0.480294  0.230314  1
  Ac  Ac9  1  0.269666  0.019688  0.039348  1
  Ac  Ac10  1  0.019695  0.039360  0.269676  1
  Ac  Ac11  1  0.230315  0.460629  0.480295  1
  Pt  Pt12  1  0.499991  0.999997  0.250003  1
  Pt  Pt13  1  0.250004  0.499998  0.000006  1
  Pt  Pt14  1  0.249999  0.250003  0.250008  1
  Pt  Pt15  1  0.000005  0.250008  0.499999  1
  I  I16  1  0.760756  0.739243  0.249998  1
  I  I17  1  0.989240  0.510762  0.250003  1
  I  I18  1  0.249998  0.760753  0.739243  1
  I  I19  1  0.760756  0.521513  0.510756  1
  I  I20  1  0.510761  0.249997  0.989238  1
  I  I21  1  0.739240  0.989238  0.978479  1
  I  I22  1  0.989237  0.978482  0.739241  1
  I  I23  1  0.521515  0.510762  0.760757  1
  I  I24  1  0.250001  0.989242  0.510760  1
  I  I25  1  0.739243  0.249999  0.760756  1
  I  I26  1  0.510757  0.760763  0.521516  1
  I  I27  1  0.978489  0.739243  0.989244  1
