# generated using pymatgen
data_Dy7HoSnHg3Au8
_symmetry_space_group_name_H-M   'P 1'
_cell_length_a   8.01268332
_cell_length_b   8.01264032
_cell_length_c   7.35593200
_cell_angle_alpha   90.00074548
_cell_angle_beta   89.99833005
_cell_angle_gamma   89.96777915
_symmetry_Int_Tables_number   1
_chemical_formula_structural   Dy7HoSnHg3Au8
_chemical_formula_sum   'Dy7 Ho1 Sn1 Hg3 Au8'
_cell_volume   472.27098392
_cell_formula_units_Z   1
loop_
 _symmetry_equiv_pos_site_id
 _symmetry_equiv_pos_as_xyz
  1  'x, y, z'
loop_
 _atom_site_type_symbol
 _atom_site_label
 _atom_site_symmetry_multiplicity
 _atom_site_fract_x
 _atom_site_fract_y
 _atom_site_fract_z
 _atom_site_occupancy
  Dy  Dy0  1  0.840453  0.158894  0.500617  1
  Dy  Dy1  1  0.159521  0.841169  0.500620  1
  Dy  Dy2  1  0.341175  0.340407  0.999383  1
  Dy  Dy3  1  0.658935  0.659461  0.999378  1
  Dy  Dy4  1  0.683934  0.685400  0.500033  1
  Dy  Dy5  1  0.316070  0.314607  0.500031  1
  Dy  Dy6  1  0.185372  0.816082  0.999953  1
  Ho  Ho7  1  0.814683  0.183844  0.999956  1
  Sn  Sn8  1  0.999949  0.499934  0.249954  1
  Hg  Hg9  1  0.500031  0.000031  0.249982  1
  Hg  Hg10  1  0.999982  0.499989  0.750049  1
  Hg  Hg11  1  0.500024  0.000030  0.750016  1
  Au  Au12  1  0.626891  0.372303  0.276026  1
  Au  Au13  1  0.373308  0.627519  0.276334  1
  Au  Au14  1  0.127413  0.126931  0.776203  1
  Au  Au15  1  0.872335  0.873325  0.776212  1
  Au  Au16  1  0.373142  0.627587  0.723941  1
  Au  Au17  1  0.627038  0.372218  0.724236  1
  Au  Au18  1  0.872422  0.873490  0.223526  1
  Au  Au19  1  0.127324  0.126780  0.223551  1
