# generated using pymatgen
data_Pr16CdHg3Os4
_symmetry_space_group_name_H-M   'P 1'
_cell_length_a   9.99055779
_cell_length_b   10.01208995
_cell_length_c   10.01209000
_cell_angle_alpha   59.99999322
_cell_angle_beta   59.92867244
_cell_angle_gamma   59.92867192
_symmetry_Int_Tables_number   1
_chemical_formula_structural   Pr16CdHg3Os4
_chemical_formula_sum   'Pr16 Cd1 Hg3 Os4'
_cell_volume   707.38384965
_cell_formula_units_Z   1
loop_
 _symmetry_equiv_pos_site_id
 _symmetry_equiv_pos_as_xyz
  1  'x, y, z'
loop_
 _atom_site_type_symbol
 _atom_site_label
 _atom_site_symmetry_multiplicity
 _atom_site_fract_x
 _atom_site_fract_y
 _atom_site_fract_z
 _atom_site_occupancy
  Pr  Pr0  1  0.347311  0.347403  0.347403  1
  Pr  Pr1  1  0.347311  0.347403  0.957882  1
  Pr  Pr2  1  0.347311  0.957882  0.347403  1
  Pr  Pr3  1  0.954692  0.348436  0.348436  1
  Pr  Pr4  1  0.807189  0.192408  0.192408  1
  Pr  Pr5  1  0.191251  0.808689  0.808689  1
  Pr  Pr6  1  0.191251  0.808689  0.191372  1
  Pr  Pr7  1  0.807189  0.192408  0.807995  1
  Pr  Pr8  1  0.191251  0.191372  0.808689  1
  Pr  Pr9  1  0.807189  0.807995  0.192408  1
  Pr  Pr10  1  0.941117  0.558570  0.558570  1
  Pr  Pr11  1  0.558133  0.941685  0.941685  1
  Pr  Pr12  1  0.558133  0.941685  0.558495  1
  Pr  Pr13  1  0.941117  0.558570  0.941743  1
  Pr  Pr14  1  0.558133  0.558495  0.941685  1
  Pr  Pr15  1  0.941117  0.941743  0.558570  1
  Cd  Cd16  1  0.267172  0.577609  0.577609  1
  Hg  Hg17  1  0.581734  0.584241  0.584241  1
  Hg  Hg18  1  0.581734  0.584241  0.249783  1
  Hg  Hg19  1  0.581734  0.249783  0.584241  1
  Os  Os20  1  0.137475  0.138490  0.138490  1
  Os  Os21  1  0.137475  0.138490  0.585544  1
  Os  Os22  1  0.137475  0.585544  0.138490  1
  Os  Os23  1  0.585507  0.138164  0.138164  1
