# generated using pymatgen
data_Ca6Os2N7
_symmetry_space_group_name_H-M   'P 1'
_cell_length_a   6.13512740
_cell_length_b   6.13512719
_cell_length_c   6.13512712
_cell_angle_alpha   94.81583934
_cell_angle_beta   94.81583455
_cell_angle_gamma   94.81582879
_symmetry_Int_Tables_number   1
_chemical_formula_structural   Ca6Os2N7
_chemical_formula_sum   'Ca6 Os2 N7'
_cell_volume   228.33229432
_cell_formula_units_Z   1
loop_
 _symmetry_equiv_pos_site_id
 _symmetry_equiv_pos_as_xyz
  1  'x, y, z'
loop_
 _atom_site_type_symbol
 _atom_site_label
 _atom_site_symmetry_multiplicity
 _atom_site_fract_x
 _atom_site_fract_y
 _atom_site_fract_z
 _atom_site_occupancy
  Ca  Ca0  1  0.665083  0.107800  0.808467  1
  Ca  Ca1  1  0.107800  0.808467  0.665083  1
  Ca  Ca2  1  0.808467  0.665083  0.107800  1
  Ca  Ca3  1  0.334917  0.892200  0.191533  1
  Ca  Ca4  1  0.892200  0.191533  0.334917  1
  Ca  Ca5  1  0.191533  0.334917  0.892200  1
  Os  Os6  1  0.622923  0.622923  0.622923  1
  Os  Os7  1  0.377077  0.377077  0.377077  1
  N  N8  1  0.000000  0.000000  0.000000  1
  N  N9  1  0.727442  0.855114  0.467089  1
  N  N10  1  0.855114  0.467089  0.727442  1
  N  N11  1  0.467089  0.727442  0.855114  1
  N  N12  1  0.272558  0.144886  0.532911  1
  N  N13  1  0.144886  0.532911  0.272558  1
  N  N14  1  0.532911  0.272558  0.144886  1
