# generated using pymatgen
data_CePIrN
_symmetry_space_group_name_H-M   'P 1'
_cell_length_a   3.98594200
_cell_length_b   3.98594200
_cell_length_c   8.36444400
_cell_angle_alpha   90.00000000
_cell_angle_beta   90.00000000
_cell_angle_gamma   90.00000000
_symmetry_Int_Tables_number   1
_chemical_formula_structural   CePIrN
_chemical_formula_sum   'Ce2 P2 Ir2 N2'
_cell_volume   132.89205821
_cell_formula_units_Z   2
loop_
 _symmetry_equiv_pos_site_id
 _symmetry_equiv_pos_as_xyz
  1  'x, y, z'
loop_
 _atom_site_type_symbol
 _atom_site_label
 _atom_site_symmetry_multiplicity
 _atom_site_fract_x
 _atom_site_fract_y
 _atom_site_fract_z
 _atom_site_occupancy
  Ce  Ce0  1  0.250002  0.250002  0.133255  1
  Ce  Ce1  1  0.750001  0.750001  0.866746  1
  P  P2  1  0.750001  0.750001  0.344453  1
  P  P3  1  0.250002  0.250002  0.655547  1
  Ir  Ir4  1  0.750002  0.250002  0.499999  1
  Ir  Ir5  1  0.250002  0.750002  0.499999  1
  N  N6  1  0.750002  0.250002  0.000000  1
  N  N7  1  0.250002  0.750002  0.000000  1
