# generated using pymatgen
data_Ho2Er10Ni5Bi
_symmetry_space_group_name_H-M   'P 1'
_cell_length_a   8.30090812
_cell_length_b   8.28705287
_cell_length_c   8.30136601
_cell_angle_alpha   111.69965814
_cell_angle_beta   109.43942577
_cell_angle_gamma   107.36924015
_symmetry_Int_Tables_number   1
_chemical_formula_structural   Ho2Er10Ni5Bi
_chemical_formula_sum   'Ho2 Er10 Ni5 Bi1'
_cell_volume   438.61054128
_cell_formula_units_Z   1
loop_
 _symmetry_equiv_pos_site_id
 _symmetry_equiv_pos_as_xyz
  1  'x, y, z'
loop_
 _atom_site_type_symbol
 _atom_site_label
 _atom_site_symmetry_multiplicity
 _atom_site_fract_x
 _atom_site_fract_y
 _atom_site_fract_z
 _atom_site_occupancy
  Ho  Ho0  1  0.821203  0.706015  0.527586  1
  Ho  Ho1  1  0.178797  0.293985  0.472414  1
  Er  Er2  1  0.178436  0.706028  0.884837  1
  Er  Er3  1  0.821564  0.293972  0.115163  1
  Er  Er4  1  0.679566  0.371205  0.691696  1
  Er  Er5  1  0.320434  0.628795  0.308304  1
  Er  Er6  1  0.679279  0.987280  0.307943  1
  Er  Er7  1  0.320721  0.012720  0.692057  1
  Er  Er8  1  0.599867  0.792843  0.807162  1
  Er  Er9  1  0.400133  0.207157  0.192838  1
  Er  Er10  1  0.985683  0.792781  0.192916  1
  Er  Er11  1  0.014317  0.207219  0.807084  1
  Ni  Ni12  1  0.633634  0.000023  0.633660  1
  Ni  Ni13  1  0.366366  0.999977  0.366340  1
  Ni  Ni14  1  0.124270  0.624750  0.500476  1
  Ni  Ni15  1  0.875730  0.375250  0.499524  1
  Ni  Ni16  1  0.000000  0.000000  0.000000  1
  Bi  Bi17  1  0.500000  0.500000  0.000000  1
