# generated using pymatgen
data_BaCoNi(Sb6Os)2
_symmetry_space_group_name_H-M   'P 1'
_cell_length_a   8.13428458
_cell_length_b   8.11831454
_cell_length_c   8.15406301
_cell_angle_alpha   109.56746866
_cell_angle_beta   109.52554766
_cell_angle_gamma   109.54045566
_symmetry_Int_Tables_number   1
_chemical_formula_structural   BaCoNi(Sb6Os)2
_chemical_formula_sum   'Ba1 Co1 Ni1 Sb12 Os2'
_cell_volume   413.38395268
_cell_formula_units_Z   1
loop_
 _symmetry_equiv_pos_site_id
 _symmetry_equiv_pos_as_xyz
  1  'x, y, z'
loop_
 _atom_site_type_symbol
 _atom_site_label
 _atom_site_symmetry_multiplicity
 _atom_site_fract_x
 _atom_site_fract_y
 _atom_site_fract_z
 _atom_site_occupancy
  Ba  Ba0  1  0.000000  0.000000  0.000000  1
  Co  Co1  1  0.000000  0.000000  0.500000  1
  Ni  Ni2  1  0.500000  0.000000  0.000000  1
  Sb  Sb3  1  0.335635  0.177839  0.835217  1
  Sb  Sb4  1  0.664365  0.822161  0.164783  1
  Sb  Sb5  1  0.656706  0.499198  0.842146  1
  Sb  Sb6  1  0.343294  0.500802  0.157854  1
  Sb  Sb7  1  0.179242  0.844007  0.344620  1
  Sb  Sb8  1  0.820758  0.155993  0.655380  1
  Sb  Sb9  1  0.498878  0.842874  0.660457  1
  Sb  Sb10  1  0.501122  0.157126  0.339543  1
  Sb  Sb11  1  0.838517  0.339706  0.182262  1
  Sb  Sb12  1  0.161483  0.660294  0.817738  1
  Sb  Sb13  1  0.844242  0.665162  0.500012  1
  Sb  Sb14  1  0.155758  0.334838  0.499988  1
  Os  Os15  1  0.000000  0.500000  0.000000  1
  Os  Os16  1  0.500000  0.500000  0.500000  1
