# generated using pymatgen
data_Hf3SiTc(MoP)2
_symmetry_space_group_name_H-M   'P 1'
_cell_length_a   6.89241300
_cell_length_b   6.91683588
_cell_length_c   3.44774300
_cell_angle_alpha   90.00000000
_cell_angle_beta   90.00000000
_cell_angle_gamma   119.88327105
_symmetry_Int_Tables_number   1
_chemical_formula_structural   Hf3SiTc(MoP)2
_chemical_formula_sum   'Hf3 Si1 Tc1 Mo2 P2'
_cell_volume   142.51281349
_cell_formula_units_Z   1
loop_
 _symmetry_equiv_pos_site_id
 _symmetry_equiv_pos_as_xyz
  1  'x, y, z'
loop_
 _atom_site_type_symbol
 _atom_site_label
 _atom_site_symmetry_multiplicity
 _atom_site_fract_x
 _atom_site_fract_y
 _atom_site_fract_z
 _atom_site_occupancy
  Hf  Hf0  1  0.998287  0.593310  0.500000  1
  Hf  Hf1  1  0.404978  0.406690  0.500000  1
  Hf  Hf2  1  0.593866  0.000000  0.500000  1
  Si  Si3  1  0.003136  0.000000  0.500000  1
  Tc  Tc4  1  0.257970  0.000000  0.000000  1
  Mo  Mo5  1  0.743519  0.743435  0.000000  1
  Mo  Mo6  1  0.000085  0.256565  0.000000  1
  P  P7  1  0.665368  0.332576  0.000000  1
  P  P8  1  0.332792  0.667424  0.000000  1
