# generated using pymatgen
data_Ho9Th3CoRu3
_symmetry_space_group_name_H-M   'P 1'
_cell_length_a   6.32217304
_cell_length_b   7.13666308
_cell_length_c   9.48956000
_cell_angle_alpha   90.00000000
_cell_angle_beta   90.00000000
_cell_angle_gamma   90.51711913
_symmetry_Int_Tables_number   1
_chemical_formula_structural   Ho9Th3CoRu3
_chemical_formula_sum   'Ho9 Th3 Co1 Ru3'
_cell_volume   428.14409671
_cell_formula_units_Z   1
loop_
 _symmetry_equiv_pos_site_id
 _symmetry_equiv_pos_as_xyz
  1  'x, y, z'
loop_
 _atom_site_type_symbol
 _atom_site_label
 _atom_site_symmetry_multiplicity
 _atom_site_fract_x
 _atom_site_fract_y
 _atom_site_fract_z
 _atom_site_occupancy
  Ho  Ho0  1  0.332915  0.679832  0.065975  1
  Ho  Ho1  1  0.163716  0.170973  0.432595  1
  Ho  Ho2  1  0.668205  0.324521  0.565376  1
  Ho  Ho3  1  0.828904  0.823505  0.931794  1
  Ho  Ho4  1  0.668205  0.324521  0.934624  1
  Ho  Ho5  1  0.828904  0.823505  0.568206  1
  Ho  Ho6  1  0.332915  0.679832  0.434025  1
  Ho  Ho7  1  0.163716  0.170973  0.067405  1
  Ho  Ho8  1  0.362138  0.964849  0.750000  1
  Th  Th9  1  0.854264  0.554164  0.250000  1
  Th  Th10  1  0.654448  0.043021  0.250000  1
  Th  Th11  1  0.150503  0.452567  0.750000  1
  Co  Co12  1  0.032509  0.868727  0.250000  1
  Ru  Ru13  1  0.466782  0.371480  0.250000  1
  Ru  Ru14  1  0.960228  0.130400  0.750000  1
  Ru  Ru15  1  0.531647  0.617132  0.750000  1
