# generated using pymatgen
data_Ca2Y(B3Rh4)2
_symmetry_space_group_name_H-M   'P 1'
_cell_length_a   9.91521415
_cell_length_b   9.06625032
_cell_length_c   5.60005565
_cell_angle_alpha   81.36474816
_cell_angle_beta   64.69060498
_cell_angle_gamma   33.94464794
_symmetry_Int_Tables_number   1
_chemical_formula_structural   Ca2Y(B3Rh4)2
_chemical_formula_sum   'Ca2 Y1 B6 Rh8'
_cell_volume   232.32999147
_cell_formula_units_Z   1
loop_
 _symmetry_equiv_pos_site_id
 _symmetry_equiv_pos_as_xyz
  1  'x, y, z'
loop_
 _atom_site_type_symbol
 _atom_site_label
 _atom_site_symmetry_multiplicity
 _atom_site_fract_x
 _atom_site_fract_y
 _atom_site_fract_z
 _atom_site_occupancy
  Ca  Ca0  1  0.315662  0.315662  0.684338  1
  Ca  Ca1  1  0.684338  0.684338  0.315662  1
  Y  Y2  1  0.500000  0.500000  0.500000  1
  B  B3  1  0.669280  0.987212  0.012788  1
  B  B4  1  0.987212  0.669280  0.330720  1
  B  B5  1  0.330720  0.012788  0.987212  1
  B  B6  1  0.012788  0.330720  0.669280  1
  B  B7  1  0.166530  0.833470  0.166530  1
  B  B8  1  0.833470  0.166530  0.833470  1
  Rh  Rh9  1  0.585036  0.585036  0.914964  1
  Rh  Rh10  1  0.913794  0.913794  0.086206  1
  Rh  Rh11  1  0.414964  0.414964  0.085036  1
  Rh  Rh12  1  0.085036  0.085036  0.414964  1
  Rh  Rh13  1  0.914964  0.914964  0.585036  1
  Rh  Rh14  1  0.250000  0.250000  0.250000  1
  Rh  Rh15  1  0.086206  0.086206  0.913794  1
  Rh  Rh16  1  0.750000  0.750000  0.750000  1
