# generated using pymatgen
data_HfZr3InCu4Hg
_symmetry_space_group_name_H-M   'P 1'
_cell_length_a   7.23157103
_cell_length_b   7.23823989
_cell_length_c   6.88314500
_cell_angle_alpha   90.00000000
_cell_angle_beta   90.00000000
_cell_angle_gamma   90.34590229
_symmetry_Int_Tables_number   1
_chemical_formula_structural   HfZr3InCu4Hg
_chemical_formula_sum   'Hf2 Zr6 In2 Cu8 Hg2'
_cell_volume   360.28371557
_cell_formula_units_Z   2
loop_
 _symmetry_equiv_pos_site_id
 _symmetry_equiv_pos_as_xyz
  1  'x, y, z'
loop_
 _atom_site_type_symbol
 _atom_site_label
 _atom_site_symmetry_multiplicity
 _atom_site_fract_x
 _atom_site_fract_y
 _atom_site_fract_z
 _atom_site_occupancy
  Hf  Hf0  1  0.803277  0.810640  0.500000  1
  Hf  Hf1  1  0.196723  0.189360  0.500000  1
  Zr  Zr2  1  0.147830  0.150260  0.000000  1
  Zr  Zr3  1  0.852170  0.849740  0.000000  1
  Zr  Zr4  1  0.650778  0.351998  0.500000  1
  Zr  Zr5  1  0.349222  0.648002  0.500000  1
  Zr  Zr6  1  0.690381  0.303623  0.000000  1
  Zr  Zr7  1  0.309619  0.696377  0.000000  1
  In  In8  1  0.000000  0.500000  0.251741  1
  In  In9  1  0.000000  0.500000  0.748259  1
  Cu  Cu10  1  0.374459  0.376919  0.203772  1
  Cu  Cu11  1  0.625541  0.623081  0.796228  1
  Cu  Cu12  1  0.625541  0.623081  0.203772  1
  Cu  Cu13  1  0.878523  0.124199  0.699858  1
  Cu  Cu14  1  0.878523  0.124199  0.300142  1
  Cu  Cu15  1  0.374459  0.376919  0.796228  1
  Cu  Cu16  1  0.121477  0.875801  0.300142  1
  Cu  Cu17  1  0.121477  0.875801  0.699858  1
  Hg  Hg18  1  0.500000  0.000000  0.251556  1
  Hg  Hg19  1  0.500000  0.000000  0.748444  1
