# generated using pymatgen
data_Tm4Al2(TcOs)3
_symmetry_space_group_name_H-M   'P 1'
_cell_length_a   5.32562660
_cell_length_b   5.38543808
_cell_length_c   8.71804300
_cell_angle_alpha   90.00000000
_cell_angle_beta   90.00000000
_cell_angle_gamma   119.71437261
_symmetry_Int_Tables_number   1
_chemical_formula_structural   Tm4Al2(TcOs)3
_chemical_formula_sum   'Tm4 Al2 Tc3 Os3'
_cell_volume   217.16217402
_cell_formula_units_Z   1
loop_
 _symmetry_equiv_pos_site_id
 _symmetry_equiv_pos_as_xyz
  1  'x, y, z'
loop_
 _atom_site_type_symbol
 _atom_site_label
 _atom_site_symmetry_multiplicity
 _atom_site_fract_x
 _atom_site_fract_y
 _atom_site_fract_z
 _atom_site_occupancy
  Tm  Tm0  1  0.335122  0.671982  0.437598  1
  Tm  Tm1  1  0.670865  0.334305  0.560010  1
  Tm  Tm2  1  0.670865  0.334305  0.939990  1
  Tm  Tm3  1  0.335122  0.671982  0.062402  1
  Al  Al4  1  0.332666  0.168780  0.250000  1
  Al  Al5  1  0.176245  0.340297  0.750000  1
  Tc  Tc6  1  0.984743  0.988412  0.500367  1
  Tc  Tc7  1  0.984743  0.988412  0.999633  1
  Tc  Tc8  1  0.668865  0.836144  0.750000  1
  Os  Os9  1  0.830358  0.177188  0.250000  1
  Os  Os10  1  0.829005  0.656065  0.250000  1
  Os  Os11  1  0.181403  0.832127  0.750000  1
