# generated using pymatgen
data_Ba2SBr
_symmetry_space_group_name_H-M   'P 1'
_cell_length_a   10.50216046
_cell_length_b   10.50216130
_cell_length_c   9.45020177
_cell_angle_alpha   74.11411481
_cell_angle_beta   74.11411411
_cell_angle_gamma   25.00480881
_symmetry_Int_Tables_number   1
_chemical_formula_structural   Ba2SBr
_chemical_formula_sum   'Ba6 S3 Br3'
_cell_volume   422.90917747
_cell_formula_units_Z   3
loop_
 _symmetry_equiv_pos_site_id
 _symmetry_equiv_pos_as_xyz
  1  'x, y, z'
loop_
 _atom_site_type_symbol
 _atom_site_label
 _atom_site_symmetry_multiplicity
 _atom_site_fract_x
 _atom_site_fract_y
 _atom_site_fract_z
 _atom_site_occupancy
  Ba  Ba0  1  0.492986  0.492986  0.732132  1
  Ba  Ba1  1  0.159349  0.159349  0.399204  1
  Ba  Ba2  1  0.826186  0.826186  0.065525  1
  Ba  Ba3  1  0.507014  0.507014  0.267868  1
  Ba  Ba4  1  0.173814  0.173814  0.934475  1
  Ba  Ba5  1  0.840651  0.840651  0.600796  1
  S  S6  1  0.000000  0.000000  0.500000  1
  S  S7  1  0.666779  0.666779  0.166275  1
  S  S8  1  0.333221  0.333221  0.833725  1
  Br  Br9  1  0.666650  0.666650  0.666607  1
  Br  Br10  1  0.333350  0.333350  0.333393  1
  Br  Br11  1  0.000000  0.000000  0.000000  1
