# generated using pymatgen
data_Sr14YbBi11
_symmetry_space_group_name_H-M   'P 1'
_cell_length_a   17.41501692
_cell_length_b   17.41502671
_cell_length_c   17.41503200
_cell_angle_alpha   94.39898063
_cell_angle_beta   117.49359858
_cell_angle_gamma   117.49361955
_symmetry_Int_Tables_number   1
_chemical_formula_structural   Sr14YbBi11
_chemical_formula_sum   'Sr56 Yb4 Bi44'
_cell_volume   3863.87811173
_cell_formula_units_Z   4
loop_
 _symmetry_equiv_pos_site_id
 _symmetry_equiv_pos_as_xyz
  1  'x, y, z'
loop_
 _atom_site_type_symbol
 _atom_site_label
 _atom_site_symmetry_multiplicity
 _atom_site_fract_x
 _atom_site_fract_y
 _atom_site_fract_z
 _atom_site_occupancy
  Sr  Sr0  1  0.094133  0.123375  0.977558  1
  Sr  Sr1  1  0.355567  0.250002  0.605567  1
  Sr  Sr2  1  0.033218  0.785792  0.402066  1
  Sr  Sr3  1  0.088376  0.519647  0.752670  1
  Sr  Sr4  1  0.644433  0.749998  0.394433  1
  Sr  Sr5  1  0.644433  0.394435  0.249999  1
  Sr  Sr6  1  0.883719  0.752570  0.785793  1
  Sr  Sr7  1  0.405867  0.383426  0.029242  1
  Sr  Sr8  1  0.266980  0.335707  0.747332  1
  Sr  Sr9  1  0.088373  0.068727  0.335705  1
  Sr  Sr10  1  0.911627  0.931273  0.664295  1
  Sr  Sr11  1  0.733020  0.664293  0.252668  1
  Sr  Sr12  1  0.645816  0.116576  0.522440  1
  Sr  Sr13  1  0.854182  0.977559  0.383426  1
  Sr  Sr14  1  0.144432  0.749999  0.894433  1
  Sr  Sr15  1  0.594133  0.616574  0.970758  1
  Sr  Sr16  1  0.733018  0.568725  0.480352  1
  Sr  Sr17  1  0.588373  0.252669  0.019647  1
  Sr  Sr18  1  0.405870  0.522441  0.376625  1
  Sr  Sr19  1  0.233020  0.980353  0.068728  1
  Sr  Sr20  1  0.411627  0.747331  0.980353  1
  Sr  Sr21  1  0.145816  0.623377  0.529240  1
  Sr  Sr22  1  0.383724  0.285796  0.252573  1
  Sr  Sr23  1  0.533219  0.131152  0.247427  1
  Sr  Sr24  1  0.911624  0.480353  0.247330  1
  Sr  Sr25  1  0.588375  0.835705  0.568728  1
  Sr  Sr26  1  0.883722  0.631151  0.097928  1
  Sr  Sr27  1  0.116278  0.368849  0.902072  1
  Sr  Sr28  1  0.354184  0.883424  0.477560  1
  Sr  Sr29  1  0.466781  0.868848  0.752573  1
  Sr  Sr30  1  0.354183  0.970757  0.876623  1
  Sr  Sr31  1  0.905867  0.876625  0.022442  1
  Sr  Sr32  1  0.854184  0.376623  0.470760  1
  Sr  Sr33  1  0.855568  0.250001  0.105567  1
  Sr  Sr34  1  0.905869  0.529244  0.883427  1
  Sr  Sr35  1  0.094131  0.470756  0.116573  1
  Sr  Sr36  1  0.116281  0.247430  0.214207  1
  Sr  Sr37  1  0.533219  0.902068  0.285791  1
  Sr  Sr38  1  0.594130  0.477559  0.623375  1
  Sr  Sr39  1  0.233019  0.752666  0.164293  1
  Sr  Sr40  1  0.616281  0.402074  0.868850  1
  Sr  Sr41  1  0.383719  0.597926  0.131150  1
  Sr  Sr42  1  0.033219  0.747428  0.631151  1
  Sr  Sr43  1  0.966782  0.214208  0.597934  1
  Sr  Sr44  1  0.766981  0.247334  0.835707  1
  Sr  Sr45  1  0.355567  0.605565  0.750001  1
  Sr  Sr46  1  0.411625  0.164295  0.431272  1
  Sr  Sr47  1  0.145818  0.022441  0.616574  1
  Sr  Sr48  1  0.645817  0.029243  0.123377  1
  Sr  Sr49  1  0.855567  0.105566  0.750002  1
  Sr  Sr50  1  0.616276  0.714204  0.747427  1
  Sr  Sr51  1  0.266982  0.431275  0.519648  1
  Sr  Sr52  1  0.144433  0.894434  0.249998  1
  Sr  Sr53  1  0.466781  0.097932  0.714209  1
  Sr  Sr54  1  0.766980  0.019647  0.931272  1
  Sr  Sr55  1  0.966781  0.252572  0.368849  1
  Yb  Yb56  1  0.749999  0.874999  0.125000  1
  Yb  Yb57  1  0.750000  0.375000  0.624999  1
  Yb  Yb58  1  0.250000  0.625000  0.375001  1
  Yb  Yb59  1  0.250001  0.125001  0.875000  1
  Bi  Bi60  1  0.478972  0.489486  0.739486  1
  Bi  Bi61  1  0.395117  0.914835  0.074922  1
  Bi  Bi62  1  0.521028  0.510514  0.260514  1
  Bi  Bi63  1  0.104883  0.179805  0.519718  1
  Bi  Bi64  1  0.895117  0.574923  0.414835  1
  Bi  Bi65  1  0.750000  0.989485  0.510515  1
  Bi  Bi66  1  0.604883  0.085165  0.925078  1
  Bi  Bi67  1  0.395117  0.980282  0.320194  1
  Bi  Bi68  1  0.389375  0.685208  0.585986  1
  Bi  Bi69  1  0.660087  0.679805  0.574923  1
  Bi  Bi70  1  0.750000  0.125000  0.375000  1
  Bi  Bi71  1  0.895117  0.820195  0.480282  1
  Bi  Bi72  1  0.099224  0.414016  0.303389  1
  Bi  Bi73  1  0.889374  0.303388  0.704167  1
  Bi  Bi74  1  0.889374  0.085985  0.185207  1
  Bi  Bi75  1  0.610625  0.795833  0.196612  1
  Bi  Bi76  1  0.400776  0.196613  0.085985  1
  Bi  Bi77  1  0.599224  0.295836  0.685209  1
  Bi  Bi78  1  0.400776  0.704164  0.314791  1
  Bi  Bi79  1  0.250000  0.375000  0.125000  1
  Bi  Bi80  1  0.099225  0.185209  0.795837  1
  Bi  Bi81  1  0.250000  0.010515  0.489485  1
  Bi  Bi82  1  0.110626  0.696612  0.295833  1
  Bi  Bi83  1  0.750000  0.625000  0.875000  1
  Bi  Bi84  1  0.110626  0.914015  0.814793  1
  Bi  Bi85  1  0.104883  0.425077  0.585165  1
  Bi  Bi86  1  0.250000  0.875000  0.625000  1
  Bi  Bi87  1  0.604883  0.019718  0.679806  1
  Bi  Bi88  1  0.839913  0.925077  0.820195  1
  Bi  Bi89  1  0.339913  0.320195  0.425077  1
  Bi  Bi90  1  0.839914  0.414836  0.019718  1
  Bi  Bi91  1  0.900775  0.814791  0.204163  1
  Bi  Bi92  1  0.160086  0.585164  0.980282  1
  Bi  Bi93  1  0.249999  0.739485  0.760514  1
  Bi  Bi94  1  0.900776  0.585984  0.696611  1
  Bi  Bi95  1  0.750001  0.260515  0.239486  1
  Bi  Bi96  1  0.610625  0.314792  0.414014  1
  Bi  Bi97  1  0.389375  0.204167  0.803388  1
  Bi  Bi98  1  0.660087  0.480282  0.085164  1
  Bi  Bi99  1  0.339913  0.519718  0.914836  1
  Bi  Bi100  1  0.160087  0.074923  0.179805  1
  Bi  Bi101  1  0.021027  0.760514  0.010512  1
  Bi  Bi102  1  0.978973  0.239486  0.989488  1
  Bi  Bi103  1  0.599224  0.803387  0.914015  1
