# generated using pymatgen
data_ErPu3H11
_symmetry_space_group_name_H-M   'P 1'
_cell_length_a   6.42834353
_cell_length_b   6.42834372
_cell_length_c   6.42834380
_cell_angle_alpha   133.60006511
_cell_angle_beta   130.78098683
_cell_angle_gamma   69.95306383
_symmetry_Int_Tables_number   1
_chemical_formula_structural   ErPu3H11
_chemical_formula_sum   'Er1 Pu3 H11'
_cell_volume   142.83071600
_cell_formula_units_Z   1
loop_
 _symmetry_equiv_pos_site_id
 _symmetry_equiv_pos_as_xyz
  1  'x, y, z'
loop_
 _atom_site_type_symbol
 _atom_site_label
 _atom_site_symmetry_multiplicity
 _atom_site_fract_x
 _atom_site_fract_y
 _atom_site_fract_z
 _atom_site_occupancy
  Er  Er0  1  0.000000  0.500000  0.500000  1
  Pu  Pu1  1  0.500000  0.000000  0.500000  1
  Pu  Pu2  1  0.264407  0.264407  0.000000  1
  Pu  Pu3  1  0.735593  0.735593  0.000000  1
  H  H4  1  0.654969  0.116618  0.008894  1
  H  H5  1  0.345031  0.353926  0.461648  1
  H  H6  1  0.107723  0.646074  0.991106  1
  H  H7  1  0.892277  0.883382  0.538352  1
  H  H8  1  0.892277  0.353926  0.008894  1
  H  H9  1  0.654969  0.646074  0.538352  1
  H  H10  1  0.345031  0.883382  0.991106  1
  H  H11  1  0.107723  0.116618  0.461648  1
  H  H12  1  0.738323  0.238323  0.500000  1
  H  H13  1  0.500000  0.500000  0.000000  1
  H  H14  1  0.261677  0.761677  0.500000  1
