# generated using pymatgen
data_NdTh7Se12
_symmetry_space_group_name_H-M   'P 1'
_cell_length_a   11.37399375
_cell_length_b   4.08413300
_cell_length_c   11.41952240
_cell_angle_alpha   90.00000000
_cell_angle_beta   89.63418245
_cell_angle_gamma   90.00000000
_symmetry_Int_Tables_number   1
_chemical_formula_structural   NdTh7Se12
_chemical_formula_sum   'Nd1 Th7 Se12'
_cell_volume   530.45915657
_cell_formula_units_Z   1
loop_
 _symmetry_equiv_pos_site_id
 _symmetry_equiv_pos_as_xyz
  1  'x, y, z'
loop_
 _atom_site_type_symbol
 _atom_site_label
 _atom_site_symmetry_multiplicity
 _atom_site_fract_x
 _atom_site_fract_y
 _atom_site_fract_z
 _atom_site_occupancy
  Nd  Nd0  1  0.479434  0.250000  0.186742  1
  Th  Th1  1  0.980507  0.250000  0.314493  1
  Th  Th2  1  0.520424  0.750000  0.815039  1
  Th  Th3  1  0.020104  0.750000  0.685355  1
  Th  Th4  1  0.698098  0.750000  0.484937  1
  Th  Th5  1  0.195512  0.750000  0.010722  1
  Th  Th6  1  0.303464  0.250000  0.514114  1
  Th  Th7  1  0.801064  0.250000  0.987482  1
  Se  Se8  1  0.553150  0.250000  0.622685  1
  Se  Se9  1  0.051751  0.250000  0.877349  1
  Se  Se10  1  0.448557  0.750000  0.380096  1
  Se  Se11  1  0.946802  0.750000  0.121890  1
  Se  Se12  1  0.622570  0.750000  0.054989  1
  Se  Se13  1  0.123941  0.750000  0.444311  1
  Se  Se14  1  0.377558  0.250000  0.944884  1
  Se  Se15  1  0.877332  0.250000  0.555968  1
  Se  Se16  1  0.721074  0.250000  0.295980  1
  Se  Se17  1  0.217906  0.250000  0.201495  1
  Se  Se18  1  0.280134  0.750000  0.705589  1
  Se  Se19  1  0.780619  0.750000  0.795878  1
