# generated using pymatgen
data_Dy5Ho3(Ta3Ge4)4
_symmetry_space_group_name_H-M   'P 1'
_cell_length_a   6.99824021
_cell_length_b   7.17501610
_cell_length_c   13.51200595
_cell_angle_alpha   90.17017849
_cell_angle_beta   89.98946022
_cell_angle_gamma   89.97411814
_symmetry_Int_Tables_number   1
_chemical_formula_structural   Dy5Ho3(Ta3Ge4)4
_chemical_formula_sum   'Dy5 Ho3 Ta12 Ge16'
_cell_volume   678.46833822
_cell_formula_units_Z   1
loop_
 _symmetry_equiv_pos_site_id
 _symmetry_equiv_pos_as_xyz
  1  'x, y, z'
loop_
 _atom_site_type_symbol
 _atom_site_label
 _atom_site_symmetry_multiplicity
 _atom_site_fract_x
 _atom_site_fract_y
 _atom_site_fract_z
 _atom_site_occupancy
  Dy  Dy0  1  0.494746  0.327459  0.094234  1
  Dy  Dy1  1  0.994920  0.172653  0.405794  1
  Dy  Dy2  1  0.504945  0.674923  0.594157  1
  Dy  Dy3  1  0.004889  0.825114  0.905733  1
  Dy  Dy4  1  0.505112  0.672802  0.905704  1
  Ho  Ho5  1  0.005331  0.826806  0.594329  1
  Ho  Ho6  1  0.494937  0.324422  0.405561  1
  Ho  Ho7  1  0.994820  0.175622  0.094538  1
  Ta  Ta8  1  0.664140  0.014978  0.750064  1
  Ta  Ta9  1  0.163949  0.484948  0.749837  1
  Ta  Ta10  1  0.335937  0.985003  0.249852  1
  Ta  Ta11  1  0.836013  0.514888  0.250224  1
  Ta  Ta12  1  0.841766  0.330174  0.626366  1
  Ta  Ta13  1  0.341947  0.169714  0.873528  1
  Ta  Ta14  1  0.162577  0.668726  0.126890  1
  Ta  Ta15  1  0.662586  0.831240  0.373281  1
  Ta  Ta16  1  0.157363  0.669923  0.373716  1
  Ta  Ta17  1  0.657312  0.830370  0.126451  1
  Ta  Ta18  1  0.838329  0.331108  0.873306  1
  Ta  Ta19  1  0.338501  0.168800  0.626512  1
  Ge  Ge20  1  0.805976  0.640233  0.749777  1
  Ge  Ge21  1  0.305562  0.859875  0.749789  1
  Ge  Ge22  1  0.194361  0.359796  0.250164  1
  Ge  Ge23  1  0.694173  0.140396  0.250005  1
  Ge  Ge24  1  0.539294  0.380391  0.749203  1
  Ge  Ge25  1  0.039361  0.119329  0.750544  1
  Ge  Ge26  1  0.460780  0.619301  0.251145  1
  Ge  Ge27  1  0.960641  0.880663  0.248925  1
  Ge  Ge28  1  0.676006  0.039179  0.542252  1
  Ge  Ge29  1  0.175148  0.460288  0.957749  1
  Ge  Ge30  1  0.322062  0.961952  0.041673  1
  Ge  Ge31  1  0.822229  0.538351  0.458542  1
  Ge  Ge32  1  0.325236  0.960758  0.457427  1
  Ge  Ge33  1  0.825314  0.539355  0.042668  1
  Ge  Ge34  1  0.677050  0.038836  0.958479  1
  Ge  Ge35  1  0.176685  0.461624  0.541582  1
