# generated using pymatgen
data_Er12Co6Pb
_symmetry_space_group_name_H-M   'P 1'
_cell_length_a   8.31235774
_cell_length_b   8.31235721
_cell_length_c   8.31235800
_cell_angle_alpha   109.47122256
_cell_angle_beta   109.47122128
_cell_angle_gamma   109.47122128
_symmetry_Int_Tables_number   1
_chemical_formula_structural   Er12Co6Pb
_chemical_formula_sum   'Er12 Co6 Pb1'
_cell_volume   442.13078468
_cell_formula_units_Z   1
loop_
 _symmetry_equiv_pos_site_id
 _symmetry_equiv_pos_as_xyz
  1  'x, y, z'
loop_
 _atom_site_type_symbol
 _atom_site_label
 _atom_site_symmetry_multiplicity
 _atom_site_fract_x
 _atom_site_fract_y
 _atom_site_fract_z
 _atom_site_occupancy
  Er  Er0  1  0.805319  0.696118  0.501437  1
  Er  Er1  1  0.194681  0.303882  0.498563  1
  Er  Er2  1  0.194681  0.696118  0.890801  1
  Er  Er3  1  0.805319  0.303882  0.109199  1
  Er  Er4  1  0.696118  0.501437  0.805319  1
  Er  Er5  1  0.303882  0.498563  0.194681  1
  Er  Er6  1  0.696118  0.890801  0.194681  1
  Er  Er7  1  0.303882  0.109199  0.805319  1
  Er  Er8  1  0.501437  0.805319  0.696118  1
  Er  Er9  1  0.498563  0.194681  0.303882  1
  Er  Er10  1  0.109199  0.805319  0.303882  1
  Er  Er11  1  0.890801  0.194681  0.696118  1
  Co  Co12  1  0.886400  0.386400  0.500000  1
  Co  Co13  1  0.113600  0.613600  0.500000  1
  Co  Co14  1  0.386400  0.500000  0.886400  1
  Co  Co15  1  0.613600  0.500000  0.113600  1
  Co  Co16  1  0.500000  0.886400  0.386400  1
  Co  Co17  1  0.500000  0.113600  0.613600  1
  Pb  Pb18  1  0.000000  0.000000  0.000000  1
