# generated using pymatgen
data_Nb12Al9Rh3N4
_symmetry_space_group_name_H-M   'P 1'
_cell_length_a   8.31202280
_cell_length_b   8.31202238
_cell_length_c   8.32664759
_cell_angle_alpha   60.05808472
_cell_angle_beta   60.05808687
_cell_angle_gamma   60.00000062
_symmetry_Int_Tables_number   1
_chemical_formula_structural   Nb12Al9Rh3N4
_chemical_formula_sum   'Nb12 Al9 Rh3 N4'
_cell_volume   407.14523575
_cell_formula_units_Z   1
loop_
 _symmetry_equiv_pos_site_id
 _symmetry_equiv_pos_as_xyz
  1  'x, y, z'
loop_
 _atom_site_type_symbol
 _atom_site_label
 _atom_site_symmetry_multiplicity
 _atom_site_fract_x
 _atom_site_fract_y
 _atom_site_fract_z
 _atom_site_occupancy
  Nb  Nb0  1  0.809684  0.809684  0.184602  1
  Nb  Nb1  1  0.182702  0.182702  0.819722  1
  Nb  Nb2  1  0.814874  0.182702  0.819722  1
  Nb  Nb3  1  0.196029  0.809684  0.184602  1
  Nb  Nb4  1  0.182702  0.814874  0.819722  1
  Nb  Nb5  1  0.809684  0.196029  0.184602  1
  Nb  Nb6  1  0.440316  0.440316  0.065398  1
  Nb  Nb7  1  0.067298  0.067298  0.430278  1
  Nb  Nb8  1  0.435126  0.067298  0.430278  1
  Nb  Nb9  1  0.053971  0.440316  0.065398  1
  Nb  Nb10  1  0.067298  0.435126  0.430278  1
  Nb  Nb11  1  0.440316  0.053971  0.065398  1
  Al  Al12  1  0.625000  0.625000  0.125000  1
  Al  Al13  1  0.751678  0.410880  0.426564  1
  Al  Al14  1  0.410880  0.751678  0.426564  1
  Al  Al15  1  0.414389  0.414389  0.756834  1
  Al  Al16  1  0.410880  0.410880  0.426564  1
  Al  Al17  1  0.498322  0.839120  0.823436  1
  Al  Al18  1  0.839120  0.498322  0.823436  1
  Al  Al19  1  0.835611  0.835611  0.493166  1
  Al  Al20  1  0.839120  0.839120  0.823436  1
  Rh  Rh21  1  0.125000  0.625000  0.625000  1
  Rh  Rh22  1  0.625000  0.125000  0.625000  1
  Rh  Rh23  1  0.625000  0.625000  0.625000  1
  N  N24  1  0.625000  0.125000  0.125000  1
  N  N25  1  0.125000  0.625000  0.125000  1
  N  N26  1  0.125000  0.125000  0.625000  1
  N  N27  1  0.125000  0.125000  0.125000  1
