# generated using pymatgen
data_Hf2Co12Si3P4
_symmetry_space_group_name_H-M   'P 1'
_cell_length_a   8.96209144
_cell_length_b   8.99314357
_cell_length_c   3.53652700
_cell_angle_alpha   90.00000000
_cell_angle_beta   90.00000000
_cell_angle_gamma   120.12036264
_symmetry_Int_Tables_number   1
_chemical_formula_structural   Hf2Co12Si3P4
_chemical_formula_sum   'Hf2 Co12 Si3 P4'
_cell_volume   246.54743731
_cell_formula_units_Z   1
loop_
 _symmetry_equiv_pos_site_id
 _symmetry_equiv_pos_as_xyz
  1  'x, y, z'
loop_
 _atom_site_type_symbol
 _atom_site_label
 _atom_site_symmetry_multiplicity
 _atom_site_fract_x
 _atom_site_fract_y
 _atom_site_fract_z
 _atom_site_occupancy
  Hf  Hf0  1  0.334681  0.667405  0.000000  1
  Hf  Hf1  1  0.668266  0.335087  0.500000  1
  Co  Co2  1  0.433395  0.055622  0.000000  1
  Co  Co3  1  0.941896  0.382143  0.000000  1
  Co  Co4  1  0.628956  0.563997  0.000000  1
  Co  Co5  1  0.385524  0.444196  0.500000  1
  Co  Co6  1  0.556822  0.939917  0.500000  1
  Co  Co7  1  0.055002  0.615474  0.500000  1
  Co  Co8  1  0.156551  0.285745  0.000000  1
  Co  Co9  1  0.716561  0.872737  0.000000  1
  Co  Co10  1  0.121238  0.837651  0.000000  1
  Co  Co11  1  0.227323  0.098399  0.500000  1
  Co  Co12  1  0.900899  0.131235  0.500000  1
  Co  Co13  1  0.870335  0.769347  0.500000  1
  Si  Si14  1  0.001033  0.001708  0.000000  1
  Si  Si15  1  0.406948  0.288921  0.000000  1
  Si  Si16  1  0.710676  0.117955  0.000000  1
  P  P17  1  0.117387  0.408433  0.500000  1
  P  P18  1  0.594148  0.710025  0.500000  1
  P  P19  1  0.289554  0.883445  0.500000  1
  P  P20  1  0.882802  0.590562  0.000000  1
