# generated using pymatgen
data_Ti3BeTc2Ge2Pd
_symmetry_space_group_name_H-M   'P 1'
_cell_length_a   6.73972600
_cell_length_b   6.77128029
_cell_length_c   3.28365200
_cell_angle_alpha   90.00000000
_cell_angle_beta   90.00000000
_cell_angle_gamma   119.84595746
_symmetry_Int_Tables_number   1
_chemical_formula_structural   Ti3BeTc2Ge2Pd
_chemical_formula_sum   'Ti3 Be1 Tc2 Ge2 Pd1'
_cell_volume   129.97889021
_cell_formula_units_Z   1
loop_
 _symmetry_equiv_pos_site_id
 _symmetry_equiv_pos_as_xyz
  1  'x, y, z'
loop_
 _atom_site_type_symbol
 _atom_site_label
 _atom_site_symmetry_multiplicity
 _atom_site_fract_x
 _atom_site_fract_y
 _atom_site_fract_z
 _atom_site_occupancy
  Ti  Ti0  1  0.394854  0.412783  0.000000  1
  Ti  Ti1  1  0.629969  0.000000  0.000000  1
  Ti  Ti2  1  0.982071  0.587217  0.000000  1
  Be  Be3  1  0.006265  0.000000  0.000000  1
  Tc  Tc4  1  0.001613  0.248342  0.500000  1
  Tc  Tc5  1  0.753270  0.751658  0.500000  1
  Ge  Ge6  1  0.655852  0.324371  0.500000  1
  Ge  Ge7  1  0.331480  0.675629  0.500000  1
  Pd  Pd8  1  0.244623  0.000000  0.500000  1
