# generated using pymatgen
data_Pr2Al9Ir2Pt
_symmetry_space_group_name_H-M   'P 1'
_cell_length_a   7.65619543
_cell_length_b   7.65619425
_cell_length_c   9.62757191
_cell_angle_alpha   89.97500375
_cell_angle_beta   89.97500184
_cell_angle_gamma   119.58314266
_symmetry_Int_Tables_number   1
_chemical_formula_structural   Pr2Al9Ir2Pt
_chemical_formula_sum   'Pr4 Al18 Ir4 Pt2'
_cell_volume   490.77471352
_cell_formula_units_Z   2
loop_
 _symmetry_equiv_pos_site_id
 _symmetry_equiv_pos_as_xyz
  1  'x, y, z'
loop_
 _atom_site_type_symbol
 _atom_site_label
 _atom_site_symmetry_multiplicity
 _atom_site_fract_x
 _atom_site_fract_y
 _atom_site_fract_z
 _atom_site_occupancy
  Pr  Pr0  1  0.995232  0.669375  0.250171  1
  Pr  Pr1  1  0.004768  0.330625  0.749829  1
  Pr  Pr2  1  0.669375  0.995232  0.250171  1
  Pr  Pr3  1  0.330625  0.004768  0.749829  1
  Al  Al4  1  0.129231  0.129231  0.250681  1
  Al  Al5  1  0.870769  0.870769  0.749319  1
  Al  Al6  1  0.002857  0.330913  0.075048  1
  Al  Al7  1  0.997143  0.669087  0.924952  1
  Al  Al8  1  0.998189  0.665345  0.571915  1
  Al  Al9  1  0.334655  0.001811  0.428085  1
  Al  Al10  1  0.001811  0.334655  0.428085  1
  Al  Al11  1  0.665345  0.998189  0.571915  1
  Al  Al12  1  0.669087  0.997143  0.924952  1
  Al  Al13  1  0.330913  0.002857  0.075048  1
  Al  Al14  1  0.333793  0.333793  0.546833  1
  Al  Al15  1  0.666207  0.666207  0.453167  1
  Al  Al16  1  0.667685  0.667685  0.052495  1
  Al  Al17  1  0.332315  0.332315  0.947505  1
  Al  Al18  1  0.340194  0.544536  0.253514  1
  Al  Al19  1  0.659806  0.455464  0.746486  1
  Al  Al20  1  0.544536  0.340194  0.253514  1
  Al  Al21  1  0.455464  0.659806  0.746486  1
  Ir  Ir22  1  0.329039  0.670961  0.500000  1
  Ir  Ir23  1  0.670961  0.329039  0.500000  1
  Ir  Ir24  1  0.000000  0.000000  0.000000  1
  Ir  Ir25  1  0.000000  0.000000  0.500000  1
  Pt  Pt26  1  0.671116  0.328884  0.000000  1
  Pt  Pt27  1  0.328884  0.671116  0.000000  1
