# generated using pymatgen
data_DyErAl3Pt4
_symmetry_space_group_name_H-M   'P 1'
_cell_length_a   8.10872833
_cell_length_b   8.10872959
_cell_length_c   7.60706500
_cell_angle_alpha   90.07704701
_cell_angle_beta   89.92295298
_cell_angle_gamma   139.95910068
_symmetry_Int_Tables_number   1
_chemical_formula_structural   DyErAl3Pt4
_chemical_formula_sum   'Dy2 Er2 Al6 Pt8'
_cell_volume   321.77991806
_cell_formula_units_Z   2
loop_
 _symmetry_equiv_pos_site_id
 _symmetry_equiv_pos_as_xyz
  1  'x, y, z'
loop_
 _atom_site_type_symbol
 _atom_site_label
 _atom_site_symmetry_multiplicity
 _atom_site_fract_x
 _atom_site_fract_y
 _atom_site_fract_z
 _atom_site_occupancy
  Dy  Dy0  1  0.893511  0.106489  0.407717  1
  Dy  Dy1  1  0.106489  0.893511  0.592283  1
  Er  Er2  1  0.606023  0.393977  0.907755  1
  Er  Er3  1  0.393977  0.606023  0.092245  1
  Al  Al4  1  0.500000  0.500000  0.500000  1
  Al  Al5  1  0.000000  0.000000  0.000000  1
  Al  Al6  1  0.522327  0.977375  0.750771  1
  Al  Al7  1  0.977375  0.522327  0.249229  1
  Al  Al8  1  0.477673  0.022625  0.249229  1
  Al  Al9  1  0.022625  0.477673  0.750771  1
  Pt  Pt10  1  0.690209  0.808818  0.751170  1
  Pt  Pt11  1  0.808818  0.690209  0.248830  1
  Pt  Pt12  1  0.309791  0.191182  0.248830  1
  Pt  Pt13  1  0.191182  0.309791  0.751170  1
  Pt  Pt14  1  0.683729  0.316271  0.528424  1
  Pt  Pt15  1  0.316271  0.683729  0.471576  1
  Pt  Pt16  1  0.816977  0.183023  0.028194  1
  Pt  Pt17  1  0.183023  0.816977  0.971806  1
