# generated using pymatgen
data_Y10IrPb6Br
_symmetry_space_group_name_H-M   'P 1'
_cell_length_a   9.18666800
_cell_length_b   9.18666848
_cell_length_c   6.81924600
_cell_angle_alpha   90.00000000
_cell_angle_beta   90.00000000
_cell_angle_gamma   119.99999106
_symmetry_Int_Tables_number   1
_chemical_formula_structural   Y10IrPb6Br
_chemical_formula_sum   'Y10 Ir1 Pb6 Br1'
_cell_volume   498.40580782
_cell_formula_units_Z   1
loop_
 _symmetry_equiv_pos_site_id
 _symmetry_equiv_pos_as_xyz
  1  'x, y, z'
loop_
 _atom_site_type_symbol
 _atom_site_label
 _atom_site_symmetry_multiplicity
 _atom_site_fract_x
 _atom_site_fract_y
 _atom_site_fract_z
 _atom_site_occupancy
  Y  Y0  1  0.000000  0.749993  0.732455  1
  Y  Y1  1  0.333333  0.666667  0.500000  1
  Y  Y2  1  0.333333  0.666667  0.000000  1
  Y  Y3  1  0.749993  0.749993  0.267545  1
  Y  Y4  1  0.250007  0.250007  0.732455  1
  Y  Y5  1  0.000000  0.250007  0.267545  1
  Y  Y6  1  0.666667  0.333333  0.500000  1
  Y  Y7  1  0.250007  0.000000  0.267545  1
  Y  Y8  1  0.749993  0.000000  0.732455  1
  Y  Y9  1  0.666667  0.333333  0.000000  1
  Ir  Ir10  1  0.000000  0.000000  0.500000  1
  Pb  Pb11  1  0.396621  0.000000  0.753175  1
  Pb  Pb12  1  0.396621  0.396621  0.246825  1
  Pb  Pb13  1  0.603379  0.603379  0.753175  1
  Pb  Pb14  1  0.000000  0.603379  0.246825  1
  Pb  Pb15  1  0.000000  0.396621  0.753175  1
  Pb  Pb16  1  0.603379  0.000000  0.246825  1
  Br  Br17  1  0.000000  0.000000  0.000000  1
