# generated using pymatgen
data_La3Nd3Co16(P6Ru)2
_symmetry_space_group_name_H-M   'P 1'
_cell_length_a   3.79470100
_cell_length_b   10.69562188
_cell_length_c   12.47179147
_cell_angle_alpha   90.08475885
_cell_angle_beta   90.00000000
_cell_angle_gamma   90.00000000
_symmetry_Int_Tables_number   1
_chemical_formula_structural   La3Nd3Co16(P6Ru)2
_chemical_formula_sum   'La3 Nd3 Co16 P12 Ru2'
_cell_volume   506.18814321
_cell_formula_units_Z   1
loop_
 _symmetry_equiv_pos_site_id
 _symmetry_equiv_pos_as_xyz
  1  'x, y, z'
loop_
 _atom_site_type_symbol
 _atom_site_label
 _atom_site_symmetry_multiplicity
 _atom_site_fract_x
 _atom_site_fract_y
 _atom_site_fract_z
 _atom_site_occupancy
  La  La0  1  0.000000  0.499829  0.525280  1
  La  La1  1  0.500000  0.999999  0.475201  1
  La  La2  1  0.500000  0.818637  0.207855  1
  Nd  Nd3  1  0.500000  0.184389  0.205764  1
  Nd  Nd4  1  0.000000  0.683391  0.794165  1
  Nd  Nd5  1  0.000000  0.316642  0.793398  1
  Co  Co6  1  0.500000  0.499597  0.705929  1
  Co  Co7  1  0.000000  0.000128  0.293539  1
  Co  Co8  1  0.000000  0.499493  0.986555  1
  Co  Co9  1  0.500000  0.001281  0.011446  1
  Co  Co10  1  0.500000  0.332491  0.991467  1
  Co  Co11  1  0.500000  0.667282  0.992209  1
  Co  Co12  1  0.000000  0.168915  0.006995  1
  Co  Co13  1  0.000000  0.832585  0.006614  1
  Co  Co14  1  0.500000  0.298949  0.428189  1
  Co  Co15  1  0.500000  0.699467  0.429739  1
  Co  Co16  1  0.000000  0.200544  0.571583  1
  Co  Co17  1  0.000000  0.799410  0.573566  1
  Co  Co18  1  0.500000  0.882478  0.712972  1
  Co  Co19  1  0.500000  0.117349  0.711617  1
  Co  Co20  1  0.000000  0.616630  0.288241  1
  Co  Co21  1  0.000000  0.382034  0.287892  1
  P  P22  1  0.500000  0.499829  0.885985  1
  P  P23  1  0.000000  0.001782  0.111631  1
  P  P24  1  0.500000  0.499974  0.343184  1
  P  P25  1  0.000000  0.999445  0.656970  1
  P  P26  1  0.500000  0.302930  0.614247  1
  P  P27  1  0.500000  0.696590  0.615494  1
  P  P28  1  0.000000  0.196719  0.385269  1
  P  P29  1  0.000000  0.801467  0.388833  1
  P  P30  1  0.500000  0.847682  0.896716  1
  P  P31  1  0.500000  0.152736  0.895576  1
  P  P32  1  0.000000  0.651540  0.102565  1
  P  P33  1  0.000000  0.348391  0.103207  1
  Ru  Ru34  1  0.500000  0.499069  0.155998  1
  Ru  Ru35  1  0.000000  0.000329  0.844108  1
