# generated using pymatgen
data_Li8Hf3PaBr24
_symmetry_space_group_name_H-M   'P 1'
_cell_length_a   6.82284000
_cell_length_b   6.82284020
_cell_length_c   26.89044500
_cell_angle_alpha   90.00000000
_cell_angle_beta   90.00000000
_cell_angle_gamma   119.99999902
_symmetry_Int_Tables_number   1
_chemical_formula_structural   Li8Hf3PaBr24
_chemical_formula_sum   'Li8 Hf3 Pa1 Br24'
_cell_volume   1084.07420815
_cell_formula_units_Z   1
loop_
 _symmetry_equiv_pos_site_id
 _symmetry_equiv_pos_as_xyz
  1  'x, y, z'
loop_
 _atom_site_type_symbol
 _atom_site_label
 _atom_site_symmetry_multiplicity
 _atom_site_fract_x
 _atom_site_fract_y
 _atom_site_fract_z
 _atom_site_occupancy
  Li  Li0  1  0.000000  0.000000  0.250106  1
  Li  Li1  1  0.000000  0.000000  0.749894  1
  Li  Li2  1  0.333333  0.666667  0.000922  1
  Li  Li3  1  0.333333  0.666667  0.499059  1
  Li  Li4  1  0.333333  0.666667  0.250065  1
  Li  Li5  1  0.666667  0.333333  0.749935  1
  Li  Li6  1  0.666667  0.333333  0.999078  1
  Li  Li7  1  0.666667  0.333333  0.500941  1
  Hf  Hf8  1  0.000000  0.000000  0.500000  1
  Hf  Hf9  1  0.333333  0.666667  0.749835  1
  Hf  Hf10  1  0.666667  0.333333  0.250165  1
  Pa  Pa11  1  0.000000  0.000000  0.000000  1
  Br  Br12  1  0.351259  0.017646  0.306328  1
  Br  Br13  1  0.333243  0.982294  0.805994  1
  Br  Br14  1  0.999534  0.337913  0.059198  1
  Br  Br15  1  0.000412  0.315696  0.556221  1
  Br  Br16  1  0.982354  0.333614  0.306328  1
  Br  Br17  1  0.017706  0.350948  0.805994  1
  Br  Br18  1  0.350948  0.333243  0.194006  1
  Br  Br19  1  0.333614  0.351259  0.693672  1
  Br  Br20  1  0.315696  0.315284  0.443779  1
  Br  Br21  1  0.337913  0.338380  0.940802  1
  Br  Br22  1  0.684716  0.000412  0.443779  1
  Br  Br23  1  0.338380  0.000466  0.059198  1
  Br  Br24  1  0.315284  0.999588  0.556221  1
  Br  Br25  1  0.662087  0.661620  0.059198  1
  Br  Br26  1  0.684304  0.684716  0.556221  1
  Br  Br27  1  0.666386  0.648741  0.306328  1
  Br  Br28  1  0.649052  0.666757  0.805994  1
  Br  Br29  1  0.982294  0.649052  0.194006  1
  Br  Br30  1  0.017646  0.666386  0.693672  1
  Br  Br31  1  0.999588  0.684304  0.443779  1
  Br  Br32  1  0.000466  0.662087  0.940802  1
  Br  Br33  1  0.661620  0.999534  0.940802  1
  Br  Br34  1  0.666757  0.017706  0.194006  1
  Br  Br35  1  0.648741  0.982354  0.693672  1
