# generated using pymatgen
data_Li2Dy3MgSi2Ag
_symmetry_space_group_name_H-M   'P 1'
_cell_length_a   7.16455215
_cell_length_b   7.16455217
_cell_length_c   4.23122300
_cell_angle_alpha   90.00000000
_cell_angle_beta   90.00000000
_cell_angle_gamma   119.33454439
_symmetry_Int_Tables_number   1
_chemical_formula_structural   Li2Dy3MgSi2Ag
_chemical_formula_sum   'Li2 Dy3 Mg1 Si2 Ag1'
_cell_volume   189.34243341
_cell_formula_units_Z   1
loop_
 _symmetry_equiv_pos_site_id
 _symmetry_equiv_pos_as_xyz
  1  'x, y, z'
loop_
 _atom_site_type_symbol
 _atom_site_label
 _atom_site_symmetry_multiplicity
 _atom_site_fract_x
 _atom_site_fract_y
 _atom_site_fract_z
 _atom_site_occupancy
  Li  Li0  1  0.250034  0.000503  0.500000  1
  Li  Li1  1  0.000503  0.250034  0.500000  1
  Dy  Dy2  1  0.571329  0.001494  0.000000  1
  Dy  Dy3  1  0.001494  0.571329  0.000000  1
  Dy  Dy4  1  0.420271  0.420271  0.000000  1
  Mg  Mg5  1  0.756336  0.756336  0.500000  1
  Si  Si6  1  0.330150  0.665621  0.500000  1
  Si  Si7  1  0.665621  0.330150  0.500000  1
  Ag  Ag8  1  0.004261  0.004261  0.000000  1
