# generated using pymatgen
data_Tm5UCo17P12W
_symmetry_space_group_name_H-M   'P 1'
_cell_length_a   3.69576100
_cell_length_b   10.53020500
_cell_length_c   12.13585600
_cell_angle_alpha   90.00000000
_cell_angle_beta   90.00000000
_cell_angle_gamma   90.00000000
_symmetry_Int_Tables_number   1
_chemical_formula_structural   Tm5UCo17P12W
_chemical_formula_sum   'Tm5 U1 Co17 P12 W1'
_cell_volume   472.29257592
_cell_formula_units_Z   1
loop_
 _symmetry_equiv_pos_site_id
 _symmetry_equiv_pos_as_xyz
  1  'x, y, z'
loop_
 _atom_site_type_symbol
 _atom_site_label
 _atom_site_symmetry_multiplicity
 _atom_site_fract_x
 _atom_site_fract_y
 _atom_site_fract_z
 _atom_site_occupancy
  Tm  Tm0  1  0.500000  0.000000  0.474121  1
  Tm  Tm1  1  0.500000  0.816960  0.204609  1
  Tm  Tm2  1  0.500000  0.183040  0.204609  1
  Tm  Tm3  1  0.000000  0.682161  0.794289  1
  Tm  Tm4  1  0.000000  0.317839  0.794289  1
  U  U5  1  0.000000  0.500000  0.529606  1
  Co  Co6  1  0.500000  0.500000  0.160342  1
  Co  Co7  1  0.500000  0.500000  0.694783  1
  Co  Co8  1  0.000000  0.000000  0.298314  1
  Co  Co9  1  0.000000  0.500000  0.985903  1
  Co  Co10  1  0.500000  0.000000  0.014000  1
  Co  Co11  1  0.500000  0.334710  0.992936  1
  Co  Co12  1  0.500000  0.665290  0.992936  1
  Co  Co13  1  0.000000  0.168436  0.009261  1
  Co  Co14  1  0.000000  0.831564  0.009261  1
  Co  Co15  1  0.500000  0.298320  0.431764  1
  Co  Co16  1  0.500000  0.701680  0.431764  1
  Co  Co17  1  0.000000  0.202422  0.567626  1
  Co  Co18  1  0.000000  0.797578  0.567626  1
  Co  Co19  1  0.500000  0.877888  0.708813  1
  Co  Co20  1  0.500000  0.122112  0.708813  1
  Co  Co21  1  0.000000  0.620720  0.292124  1
  Co  Co22  1  0.000000  0.379280  0.292124  1
  P  P23  1  0.500000  0.500000  0.878863  1
  P  P24  1  0.000000  0.000000  0.120429  1
  P  P25  1  0.500000  0.500000  0.346965  1
  P  P26  1  0.000000  0.000000  0.647670  1
  P  P27  1  0.500000  0.307347  0.616065  1
  P  P28  1  0.500000  0.692653  0.616065  1
  P  P29  1  0.000000  0.187699  0.382281  1
  P  P30  1  0.000000  0.812301  0.382281  1
  P  P31  1  0.500000  0.842192  0.894063  1
  P  P32  1  0.500000  0.157808  0.894063  1
  P  P33  1  0.000000  0.651430  0.109038  1
  P  P34  1  0.000000  0.348570  0.109038  1
  W  W35  1  0.000000  0.000000  0.843265  1
