# generated using pymatgen
data_CaEu3(BeSi3)2
_symmetry_space_group_name_H-M   'P 1'
_cell_length_a   8.25134585
_cell_length_b   7.98660299
_cell_length_c   6.01517680
_cell_angle_alpha   70.61966746
_cell_angle_beta   65.93310671
_cell_angle_gamma   43.44723401
_symmetry_Int_Tables_number   1
_chemical_formula_structural   CaEu3(BeSi3)2
_chemical_formula_sum   'Ca1 Eu3 Be2 Si6'
_cell_volume   248.49855999
_cell_formula_units_Z   1
loop_
 _symmetry_equiv_pos_site_id
 _symmetry_equiv_pos_as_xyz
  1  'x, y, z'
loop_
 _atom_site_type_symbol
 _atom_site_label
 _atom_site_symmetry_multiplicity
 _atom_site_fract_x
 _atom_site_fract_y
 _atom_site_fract_z
 _atom_site_occupancy
  Ca  Ca0  1  0.243594  0.756406  0.243594  1
  Eu  Eu1  1  0.749762  0.750238  0.749762  1
  Eu  Eu2  1  0.757727  0.242273  0.757727  1
  Eu  Eu3  1  0.249762  0.250238  0.249762  1
  Be  Be4  1  0.666764  0.666735  0.333265  1
  Be  Be5  1  0.333265  0.333236  0.666764  1
  Si  Si6  1  0.825669  0.346468  0.174045  1
  Si  Si7  1  0.653532  0.174331  0.346182  1
  Si  Si8  1  0.174045  0.653818  0.825669  1
  Si  Si9  1  0.346182  0.825955  0.653532  1
  Si  Si10  1  0.171492  0.171792  0.828208  1
  Si  Si11  1  0.828208  0.828508  0.171492  1
