# generated using pymatgen
data_Yb3Al12(FePt)2
_symmetry_space_group_name_H-M   'P 1'
_cell_length_a   8.80384500
_cell_length_b   8.74193033
_cell_length_c   9.41319600
_cell_angle_alpha   90.00000000
_cell_angle_beta   90.00000000
_cell_angle_gamma   119.76763549
_symmetry_Int_Tables_number   1
_chemical_formula_structural   Yb3Al12(FePt)2
_chemical_formula_sum   'Yb6 Al24 Fe4 Pt4'
_cell_volume   628.86813625
_cell_formula_units_Z   2
loop_
 _symmetry_equiv_pos_site_id
 _symmetry_equiv_pos_as_xyz
  1  'x, y, z'
loop_
 _atom_site_type_symbol
 _atom_site_label
 _atom_site_symmetry_multiplicity
 _atom_site_fract_x
 _atom_site_fract_y
 _atom_site_fract_z
 _atom_site_occupancy
  Yb  Yb0  1  0.193919  0.387105  0.250000  1
  Yb  Yb1  1  0.806081  0.612895  0.750000  1
  Yb  Yb2  1  0.613010  0.806506  0.250000  1
  Yb  Yb3  1  0.386990  0.193494  0.750000  1
  Yb  Yb4  1  0.193919  0.806813  0.250000  1
  Yb  Yb5  1  0.806081  0.193187  0.750000  1
  Al  Al6  1  0.317345  0.658673  0.002615  1
  Al  Al7  1  0.682655  0.341327  0.997385  1
  Al  Al8  1  0.682655  0.341327  0.502615  1
  Al  Al9  1  0.317345  0.658673  0.497385  1
  Al  Al10  1  0.149852  0.315769  0.578663  1
  Al  Al11  1  0.850148  0.684231  0.421337  1
  Al  Al12  1  0.686472  0.843236  0.578201  1
  Al  Al13  1  0.850148  0.684231  0.078663  1
  Al  Al14  1  0.313528  0.156764  0.421799  1
  Al  Al15  1  0.149852  0.315769  0.921337  1
  Al  Al16  1  0.149852  0.834083  0.578663  1
  Al  Al17  1  0.313528  0.156764  0.078201  1
  Al  Al18  1  0.850148  0.165917  0.421337  1
  Al  Al19  1  0.686472  0.843236  0.921799  1
  Al  Al20  1  0.850148  0.165917  0.078663  1
  Al  Al21  1  0.149852  0.834083  0.921337  1
  Al  Al22  1  0.565774  0.129287  0.250000  1
  Al  Al23  1  0.434226  0.870713  0.750000  1
  Al  Al24  1  0.888124  0.444061  0.250000  1
  Al  Al25  1  0.111876  0.555939  0.750000  1
  Al  Al26  1  0.565774  0.436488  0.250000  1
  Al  Al27  1  0.434226  0.563512  0.750000  1
  Al  Al28  1  0.997619  0.998810  0.250000  1
  Al  Al29  1  0.002381  0.001190  0.750000  1
  Fe  Fe30  1  0.000000  0.500000  0.000000  1
  Fe  Fe31  1  0.000000  0.500000  0.500000  1
  Fe  Fe32  1  0.000000  0.000000  0.000000  1
  Fe  Fe33  1  0.000000  0.000000  0.500000  1
  Pt  Pt34  1  0.500000  0.000000  0.000000  1
  Pt  Pt35  1  0.500000  0.000000  0.500000  1
  Pt  Pt36  1  0.500000  0.500000  0.000000  1
  Pt  Pt37  1  0.500000  0.500000  0.500000  1
