# generated using pymatgen
data_Ba4Ga8IrPt7
_symmetry_space_group_name_H-M   'P 1'
_cell_length_a   6.55507477
_cell_length_b   8.36733398
_cell_length_c   8.66197987
_cell_angle_alpha   83.49276861
_cell_angle_beta   89.74710696
_cell_angle_gamma   90.15227617
_symmetry_Int_Tables_number   1
_chemical_formula_structural   Ba4Ga8IrPt7
_chemical_formula_sum   'Ba4 Ga8 Ir1 Pt7'
_cell_volume   472.02883769
_cell_formula_units_Z   1
loop_
 _symmetry_equiv_pos_site_id
 _symmetry_equiv_pos_as_xyz
  1  'x, y, z'
loop_
 _atom_site_type_symbol
 _atom_site_label
 _atom_site_symmetry_multiplicity
 _atom_site_fract_x
 _atom_site_fract_y
 _atom_site_fract_z
 _atom_site_occupancy
  Ba  Ba0  1  0.889229  0.504687  0.764528  1
  Ba  Ba1  1  0.389233  0.995779  0.235902  1
  Ba  Ba2  1  0.611806  0.005444  0.764643  1
  Ba  Ba3  1  0.109599  0.493991  0.236042  1
  Ga  Ga4  1  0.845024  0.813712  0.438006  1
  Ga  Ga5  1  0.076407  0.874731  0.924377  1
  Ga  Ga6  1  0.656719  0.307099  0.439678  1
  Ga  Ga7  1  0.145514  0.192106  0.558795  1
  Ga  Ga8  1  0.577602  0.624923  0.074336  1
  Ga  Ga9  1  0.928175  0.126393  0.079544  1
  Ga  Ga10  1  0.348729  0.689621  0.561836  1
  Ga  Ga11  1  0.422811  0.374432  0.925083  1
  Ir  Ir12  1  0.902087  0.106706  0.372546  1
  Pt  Pt13  1  0.097830  0.893033  0.626686  1
  Pt  Pt14  1  0.168291  0.174713  0.853055  1
  Pt  Pt15  1  0.402338  0.392134  0.626709  1
  Pt  Pt16  1  0.330974  0.674644  0.854700  1
  Pt  Pt17  1  0.831101  0.825261  0.145327  1
  Pt  Pt18  1  0.668215  0.325391  0.145059  1
  Pt  Pt19  1  0.598316  0.605199  0.373150  1
