# generated using pymatgen
data_Zr18Ta7RhO6
_symmetry_space_group_name_H-M   'P 1'
_cell_length_a   8.79615310
_cell_length_b   8.72914383
_cell_length_c   8.68631300
_cell_angle_alpha   90.00000000
_cell_angle_beta   90.00000000
_cell_angle_gamma   120.27139511
_symmetry_Int_Tables_number   1
_chemical_formula_structural   Zr18Ta7RhO6
_chemical_formula_sum   'Zr18 Ta7 Rh1 O6'
_cell_volume   576.01837486
_cell_formula_units_Z   1
loop_
 _symmetry_equiv_pos_site_id
 _symmetry_equiv_pos_as_xyz
  1  'x, y, z'
loop_
 _atom_site_type_symbol
 _atom_site_label
 _atom_site_symmetry_multiplicity
 _atom_site_fract_x
 _atom_site_fract_y
 _atom_site_fract_z
 _atom_site_occupancy
  Zr  Zr0  1  0.453757  0.907453  0.250000  1
  Zr  Zr1  1  0.546507  0.092834  0.750000  1
  Zr  Zr2  1  0.093936  0.547855  0.250000  1
  Zr  Zr3  1  0.907835  0.454577  0.750000  1
  Zr  Zr4  1  0.453893  0.547894  0.250000  1
  Zr  Zr5  1  0.546640  0.454376  0.750000  1
  Zr  Zr6  1  0.207014  0.414138  0.565770  1
  Zr  Zr7  1  0.793147  0.586184  0.437154  1
  Zr  Zr8  1  0.587286  0.792359  0.561299  1
  Zr  Zr9  1  0.793147  0.586184  0.062846  1
  Zr  Zr10  1  0.412747  0.205682  0.439389  1
  Zr  Zr11  1  0.207014  0.414138  0.934230  1
  Zr  Zr12  1  0.204969  0.792315  0.561372  1
  Zr  Zr13  1  0.412747  0.205682  0.060611  1
  Zr  Zr14  1  0.793031  0.205750  0.439277  1
  Zr  Zr15  1  0.587286  0.792359  0.938701  1
  Zr  Zr16  1  0.793031  0.205750  0.060723  1
  Zr  Zr17  1  0.204969  0.792315  0.938628  1
  Ta  Ta18  1  0.888408  0.776817  0.750000  1
  Ta  Ta19  1  0.777567  0.891036  0.250000  1
  Ta  Ta20  1  0.222091  0.110875  0.750000  1
  Ta  Ta21  1  0.113436  0.891071  0.250000  1
  Ta  Ta22  1  0.888693  0.110569  0.750000  1
  Ta  Ta23  1  0.002262  0.004642  0.003775  1
  Ta  Ta24  1  0.002262  0.004642  0.496225  1
  Rh  Rh25  1  0.112919  0.225680  0.250000  1
  O  O26  1  0.500714  0.001439  0.000415  1
  O  O27  1  0.001134  0.495972  0.002075  1
  O  O28  1  0.500714  0.001439  0.499585  1
  O  O29  1  0.494855  0.495998  0.002051  1
  O  O30  1  0.001134  0.495972  0.497925  1
  O  O31  1  0.494855  0.495998  0.497949  1
