# generated using pymatgen
data_Tb2MoP7Rh9W2
_symmetry_space_group_name_H-M   'P 1'
_cell_length_a   3.94972970
_cell_length_b   9.52931308
_cell_length_c   9.51686303
_cell_angle_alpha   119.85825337
_cell_angle_beta   90.01252922
_cell_angle_gamma   89.98107181
_symmetry_Int_Tables_number   1
_chemical_formula_structural   Tb2MoP7Rh9W2
_chemical_formula_sum   'Tb2 Mo1 P7 Rh9 W2'
_cell_volume   310.65041892
_cell_formula_units_Z   1
loop_
 _symmetry_equiv_pos_site_id
 _symmetry_equiv_pos_as_xyz
  1  'x, y, z'
loop_
 _atom_site_type_symbol
 _atom_site_label
 _atom_site_symmetry_multiplicity
 _atom_site_fract_x
 _atom_site_fract_y
 _atom_site_fract_z
 _atom_site_occupancy
  Tb  Tb0  1  0.261638  0.666540  0.333171  1
  Tb  Tb1  1  0.762054  0.333536  0.666698  1
  Mo  Mo2  1  0.761948  0.780703  0.909528  1
  P  P3  1  0.262189  0.000170  0.999567  1
  P  P4  1  0.761758  0.881498  0.593527  1
  P  P5  1  0.761797  0.407247  0.289282  1
  P  P6  1  0.761782  0.711020  0.118118  1
  P  P7  1  0.261965  0.117789  0.411724  1
  P  P8  1  0.261994  0.587774  0.705162  1
  P  P9  1  0.261990  0.293841  0.881726  1
  Rh  Rh10  1  0.261850  0.885967  0.159924  1
  Rh  Rh11  1  0.261868  0.840545  0.725470  1
  Rh  Rh12  1  0.261896  0.274193  0.114169  1
  Rh  Rh13  1  0.761904  0.612825  0.559422  1
  Rh  Rh14  1  0.761850  0.440758  0.054426  1
  Rh  Rh15  1  0.761916  0.945338  0.386345  1
  Rh  Rh16  1  0.261958  0.369560  0.437799  1
  Rh  Rh17  1  0.261921  0.561449  0.932027  1
  Rh  Rh18  1  0.261825  0.068873  0.629914  1
  W  W19  1  0.761970  0.091431  0.871793  1
  W  W20  1  0.761927  0.128940  0.220208  1
