# generated using pymatgen
data_Hf2Zr11Ta7Si16
_symmetry_space_group_name_H-M   'P 1'
_cell_length_a   6.98675029
_cell_length_b   6.98240031
_cell_length_c   12.84053920
_cell_angle_alpha   89.78889546
_cell_angle_beta   89.84613449
_cell_angle_gamma   89.90197846
_symmetry_Int_Tables_number   1
_chemical_formula_structural   Hf2Zr11Ta7Si16
_chemical_formula_sum   'Hf2 Zr11 Ta7 Si16'
_cell_volume   626.40913791
_cell_formula_units_Z   1
loop_
 _symmetry_equiv_pos_site_id
 _symmetry_equiv_pos_as_xyz
  1  'x, y, z'
loop_
 _atom_site_type_symbol
 _atom_site_label
 _atom_site_symmetry_multiplicity
 _atom_site_fract_x
 _atom_site_fract_y
 _atom_site_fract_z
 _atom_site_occupancy
  Hf  Hf0  1  0.349612  0.505755  0.376704  1
  Hf  Hf1  1  0.852286  0.000389  0.373855  1
  Zr  Zr2  1  0.499479  0.352733  0.623425  1
  Zr  Zr3  1  0.500999  0.649067  0.123804  1
  Zr  Zr4  1  0.147520  0.998899  0.873843  1
  Zr  Zr5  1  0.999850  0.653059  0.030411  1
  Zr  Zr6  1  0.996680  0.345948  0.532084  1
  Zr  Zr7  1  0.658284  0.999213  0.968907  1
  Zr  Zr8  1  0.153401  0.497636  0.781243  1
  Zr  Zr9  1  0.846967  0.502603  0.281425  1
  Zr  Zr10  1  0.501638  0.157199  0.216963  1
  Zr  Zr11  1  0.498903  0.843734  0.719198  1
  Zr  Zr12  1  0.342631  0.001807  0.468781  1
  Ta  Ta13  1  0.007625  0.151195  0.125042  1
  Ta  Ta14  1  0.989571  0.850804  0.626105  1
  Ta  Ta15  1  0.650723  0.490234  0.875835  1
  Ta  Ta16  1  0.672662  0.675526  0.501186  1
  Ta  Ta17  1  0.826368  0.170044  0.750448  1
  Ta  Ta18  1  0.172655  0.830963  0.250242  1
  Ta  Ta19  1  0.329519  0.325488  0.000288  1
  Si  Si20  1  0.044496  0.702021  0.437288  1
  Si  Si21  1  0.952867  0.298910  0.936302  1
  Si  Si22  1  0.699090  0.045467  0.564836  1
  Si  Si23  1  0.199585  0.453207  0.185325  1
  Si  Si24  1  0.799673  0.546256  0.686812  1
  Si  Si25  1  0.454470  0.199566  0.815274  1
  Si  Si26  1  0.547659  0.803227  0.315349  1
  Si  Si27  1  0.300322  0.954943  0.065338  1
  Si  Si28  1  0.855413  0.788730  0.821822  1
  Si  Si29  1  0.142973  0.206504  0.319954  1
  Si  Si30  1  0.801338  0.863165  0.176889  1
  Si  Si31  1  0.287776  0.646250  0.573900  1
  Si  Si32  1  0.711430  0.356806  0.071489  1
  Si  Si33  1  0.642129  0.297211  0.427117  1
  Si  Si34  1  0.363076  0.699139  0.926248  1
  Si  Si35  1  0.200332  0.136300  0.676261  1
