# generated using pymatgen
data_Sc6Al17Si7Os8
_symmetry_space_group_name_H-M   'P 1'
_cell_length_a   8.56708408
_cell_length_b   8.56306840
_cell_length_c   9.37150500
_cell_angle_alpha   90.00000000
_cell_angle_beta   90.00000000
_cell_angle_gamma   120.04851639
_symmetry_Int_Tables_number   1
_chemical_formula_structural   Sc6Al17Si7Os8
_chemical_formula_sum   'Sc6 Al17 Si7 Os8'
_cell_volume   595.09991459
_cell_formula_units_Z   1
loop_
 _symmetry_equiv_pos_site_id
 _symmetry_equiv_pos_as_xyz
  1  'x, y, z'
loop_
 _atom_site_type_symbol
 _atom_site_label
 _atom_site_symmetry_multiplicity
 _atom_site_fract_x
 _atom_site_fract_y
 _atom_site_fract_z
 _atom_site_occupancy
  Sc  Sc0  1  0.193538  0.391342  0.250000  1
  Sc  Sc1  1  0.805797  0.612799  0.750000  1
  Sc  Sc2  1  0.608276  0.806457  0.250000  1
  Sc  Sc3  1  0.390996  0.191726  0.750000  1
  Sc  Sc4  1  0.197825  0.802632  0.250000  1
  Sc  Sc5  1  0.799709  0.191525  0.750000  1
  Al  Al6  1  0.164039  0.329182  0.579275  1
  Al  Al7  1  0.834354  0.671353  0.420279  1
  Al  Al8  1  0.671552  0.835371  0.579204  1
  Al  Al9  1  0.834354  0.671353  0.079721  1
  Al  Al10  1  0.329833  0.165942  0.421723  1
  Al  Al11  1  0.164039  0.329182  0.920725  1
  Al  Al12  1  0.163803  0.834492  0.577992  1
  Al  Al13  1  0.329833  0.165942  0.078277  1
  Al  Al14  1  0.835384  0.164182  0.420685  1
  Al  Al15  1  0.671552  0.835371  0.920796  1
  Al  Al16  1  0.835384  0.164182  0.079315  1
  Al  Al17  1  0.163803  0.834492  0.922008  1
  Al  Al18  1  0.120787  0.562673  0.750000  1
  Al  Al19  1  0.562445  0.437039  0.250000  1
  Al  Al20  1  0.439992  0.563961  0.750000  1
  Al  Al21  1  0.999867  0.999231  0.250000  1
  Al  Al22  1  0.000383  0.001430  0.750000  1
  Si  Si23  1  0.333936  0.664836  0.047538  1
  Si  Si24  1  0.667042  0.336125  0.950914  1
  Si  Si25  1  0.667042  0.336125  0.549086  1
  Si  Si26  1  0.333936  0.664836  0.452462  1
  Si  Si27  1  0.562899  0.121436  0.250000  1
  Si  Si28  1  0.437399  0.875599  0.750000  1
  Si  Si29  1  0.876753  0.435941  0.250000  1
  Os  Os30  1  0.501035  0.000983  0.000853  1
  Os  Os31  1  0.999300  0.499916  0.007351  1
  Os  Os32  1  0.501035  0.000983  0.499147  1
  Os  Os33  1  0.500781  0.500374  0.000367  1
  Os  Os34  1  0.999300  0.499916  0.492649  1
  Os  Os35  1  0.500781  0.500374  0.499633  1
  Os  Os36  1  0.000607  0.000346  0.000261  1
  Os  Os37  1  0.000607  0.000346  0.499739  1
