# generated using pymatgen
data_La2TbSi2
_symmetry_space_group_name_H-M   'P 1'
_cell_length_a   7.72538500
_cell_length_b   7.72538500
_cell_length_c   4.50348700
_cell_angle_alpha   90.00000000
_cell_angle_beta   90.00000000
_cell_angle_gamma   90.00000000
_symmetry_Int_Tables_number   1
_chemical_formula_structural   La2TbSi2
_chemical_formula_sum   'La4 Tb2 Si4'
_cell_volume   268.77518994
_cell_formula_units_Z   2
loop_
 _symmetry_equiv_pos_site_id
 _symmetry_equiv_pos_as_xyz
  1  'x, y, z'
loop_
 _atom_site_type_symbol
 _atom_site_label
 _atom_site_symmetry_multiplicity
 _atom_site_fract_x
 _atom_site_fract_y
 _atom_site_fract_z
 _atom_site_occupancy
  La  La0  1  0.676993  0.176993  0.500000  1
  La  La1  1  0.323007  0.823007  0.500000  1
  La  La2  1  0.176993  0.323007  0.500000  1
  La  La3  1  0.823007  0.676993  0.500000  1
  Tb  Tb4  1  0.000000  0.000000  0.000000  1
  Tb  Tb5  1  0.500000  0.500000  0.000000  1
  Si  Si6  1  0.112395  0.612395  0.000000  1
  Si  Si7  1  0.887605  0.387605  0.000000  1
  Si  Si8  1  0.612395  0.887605  0.000000  1
  Si  Si9  1  0.387605  0.112395  0.000000  1
