# generated using pymatgen
data_SmErZr2(NiP)4
_symmetry_space_group_name_H-M   'P 1'
_cell_length_a   3.86310100
_cell_length_b   3.86310123
_cell_length_c   14.85326300
_cell_angle_alpha   90.00000000
_cell_angle_beta   90.00000000
_cell_angle_gamma   120.00002374
_symmetry_Int_Tables_number   1
_chemical_formula_structural   SmErZr2(NiP)4
_chemical_formula_sum   'Sm1 Er1 Zr2 Ni4 P4'
_cell_volume   191.96610362
_cell_formula_units_Z   1
loop_
 _symmetry_equiv_pos_site_id
 _symmetry_equiv_pos_as_xyz
  1  'x, y, z'
loop_
 _atom_site_type_symbol
 _atom_site_label
 _atom_site_symmetry_multiplicity
 _atom_site_fract_x
 _atom_site_fract_y
 _atom_site_fract_z
 _atom_site_occupancy
  Sm  Sm0  1  0.000000  0.000000  0.500000  1
  Er  Er1  1  0.000000  0.000000  0.000000  1
  Zr  Zr2  1  0.000000  0.000000  0.247595  1
  Zr  Zr3  1  0.000000  0.000000  0.752405  1
  Ni  Ni4  1  0.333333  0.666667  0.350945  1
  Ni  Ni5  1  0.666667  0.333333  0.649055  1
  Ni  Ni6  1  0.666667  0.333333  0.857302  1
  Ni  Ni7  1  0.333333  0.666667  0.142698  1
  P  P8  1  0.333333  0.666667  0.877217  1
  P  P9  1  0.666667  0.333333  0.122783  1
  P  P10  1  0.666667  0.333333  0.370871  1
  P  P11  1  0.333333  0.666667  0.629129  1
