# generated using pymatgen
data_Y15Ho5Pb16
_symmetry_space_group_name_H-M   'P 1'
_cell_length_a   8.21741045
_cell_length_b   15.66226800
_cell_length_c   8.28326045
_cell_angle_alpha   89.99973279
_cell_angle_beta   90.03772334
_cell_angle_gamma   90.00263846
_symmetry_Int_Tables_number   1
_chemical_formula_structural   Y15Ho5Pb16
_chemical_formula_sum   'Y15 Ho5 Pb16'
_cell_volume   1066.08259582
_cell_formula_units_Z   1
loop_
 _symmetry_equiv_pos_site_id
 _symmetry_equiv_pos_as_xyz
  1  'x, y, z'
loop_
 _atom_site_type_symbol
 _atom_site_label
 _atom_site_symmetry_multiplicity
 _atom_site_fract_x
 _atom_site_fract_y
 _atom_site_fract_z
 _atom_site_occupancy
  Y  Y0  1  0.624041  0.378440  0.158060  1
  Y  Y1  1  0.034437  0.599478  0.175900  1
  Y  Y2  1  0.034639  0.900533  0.175940  1
  Y  Y3  1  0.534433  0.599492  0.324082  1
  Y  Y4  1  0.534413  0.900847  0.323771  1
  Y  Y5  1  0.124195  0.121496  0.342151  1
  Y  Y6  1  0.124148  0.378398  0.341922  1
  Y  Y7  1  0.875993  0.621184  0.658017  1
  Y  Y8  1  0.875934  0.878930  0.657895  1
  Y  Y9  1  0.465376  0.099788  0.675790  1
  Y  Y10  1  0.465532  0.400160  0.675826  1
  Y  Y11  1  0.965231  0.099858  0.824511  1
  Y  Y12  1  0.965328  0.400209  0.824339  1
  Y  Y13  1  0.375972  0.621196  0.841991  1
  Y  Y14  1  0.375876  0.878780  0.841978  1
  Ho  Ho15  1  0.292185  0.249841  0.004171  1
  Ho  Ho16  1  0.624133  0.121420  0.157972  1
  Ho  Ho17  1  0.791931  0.249924  0.495793  1
  Ho  Ho18  1  0.208061  0.749992  0.504210  1
  Ho  Ho19  1  0.708077  0.750034  0.995845  1
  Pb  Pb20  1  0.282921  0.042973  0.034553  1
  Pb  Pb21  1  0.282365  0.457088  0.034351  1
  Pb  Pb22  1  0.929184  0.249834  0.124941  1
  Pb  Pb23  1  0.346863  0.750044  0.154032  1
  Pb  Pb24  1  0.846833  0.750034  0.345948  1
  Pb  Pb25  1  0.429743  0.249730  0.374762  1
  Pb  Pb26  1  0.782082  0.043070  0.465022  1
  Pb  Pb27  1  0.782369  0.457093  0.465654  1
  Pb  Pb28  1  0.217591  0.542777  0.534228  1
  Pb  Pb29  1  0.217616  0.957146  0.534261  1
  Pb  Pb30  1  0.570620  0.750034  0.624793  1
  Pb  Pb31  1  0.153055  0.250023  0.653998  1
  Pb  Pb32  1  0.653211  0.249890  0.846427  1
  Pb  Pb33  1  0.070568  0.750037  0.875158  1
  Pb  Pb34  1  0.717619  0.542785  0.965744  1
  Pb  Pb35  1  0.717422  0.957442  0.965955  1
