# generated using pymatgen
data_Li2Tb5Ho3(SiB4)4
_symmetry_space_group_name_H-M   'P 1'
_cell_length_a   7.15623701
_cell_length_b   7.15624701
_cell_length_c   7.86559300
_cell_angle_alpha   89.99736041
_cell_angle_beta   89.99727667
_cell_angle_gamma   89.99460365
_symmetry_Int_Tables_number   1
_chemical_formula_structural   Li2Tb5Ho3(SiB4)4
_chemical_formula_sum   'Li2 Tb5 Ho3 Si4 B16'
_cell_volume   402.81117082
_cell_formula_units_Z   1
loop_
 _symmetry_equiv_pos_site_id
 _symmetry_equiv_pos_as_xyz
  1  'x, y, z'
loop_
 _atom_site_type_symbol
 _atom_site_label
 _atom_site_symmetry_multiplicity
 _atom_site_fract_x
 _atom_site_fract_y
 _atom_site_fract_z
 _atom_site_occupancy
  Li  Li0  1  0.000147  0.999915  0.499871  1
  Li  Li1  1  0.499915  0.500146  0.499870  1
  Tb  Tb2  1  0.816505  0.683557  0.236229  1
  Tb  Tb3  1  0.816565  0.683517  0.763772  1
  Tb  Tb4  1  0.683298  0.183297  0.763873  1
  Tb  Tb5  1  0.183518  0.316564  0.763772  1
  Tb  Tb6  1  0.183557  0.316506  0.236228  1
  Ho  Ho7  1  0.683262  0.183260  0.234911  1
  Ho  Ho8  1  0.316609  0.816608  0.765131  1
  Ho  Ho9  1  0.316692  0.816692  0.234880  1
  Si  Si10  1  0.115549  0.615550  0.499873  1
  Si  Si11  1  0.885135  0.385133  0.499315  1
  Si  Si12  1  0.385171  0.113975  0.499460  1
  Si  Si13  1  0.613976  0.885171  0.499461  1
  B  B14  1  0.174235  0.039508  0.000188  1
  B  B15  1  0.826045  0.960149  0.000289  1
  B  B16  1  0.959986  0.173883  0.000230  1
  B  B17  1  0.325893  0.540380  0.000149  1
  B  B18  1  0.040380  0.825891  0.000149  1
  B  B19  1  0.673883  0.459986  0.000230  1
  B  B20  1  0.539508  0.674235  0.000188  1
  B  B21  1  0.460148  0.326046  0.000289  1
  B  B22  1  0.089142  0.589142  0.000043  1
  B  B23  1  0.910921  0.410920  0.000060  1
  B  B24  1  0.410977  0.088805  0.000319  1
  B  B25  1  0.588805  0.910978  0.000319  1
  B  B26  1  0.000038  0.999925  0.160851  1
  B  B27  1  0.000481  0.999738  0.839599  1
  B  B28  1  0.499735  0.500483  0.839599  1
  B  B29  1  0.499926  0.500039  0.160853  1
