# generated using pymatgen
data_Dy7TmSe12
_symmetry_space_group_name_H-M   'P 1'
_cell_length_a   7.08943900
_cell_length_b   7.10052804
_cell_length_c   12.91121305
_cell_angle_alpha   100.72470329
_cell_angle_beta   100.68255471
_cell_angle_gamma   108.91828333
_symmetry_Int_Tables_number   1
_chemical_formula_structural   Dy7TmSe12
_chemical_formula_sum   'Dy7 Tm1 Se12'
_cell_volume   582.59772819
_cell_formula_units_Z   1
loop_
 _symmetry_equiv_pos_site_id
 _symmetry_equiv_pos_as_xyz
  1  'x, y, z'
loop_
 _atom_site_type_symbol
 _atom_site_label
 _atom_site_symmetry_multiplicity
 _atom_site_fract_x
 _atom_site_fract_y
 _atom_site_fract_z
 _atom_site_occupancy
  Dy  Dy0  1  0.372086  0.622099  0.244147  1
  Dy  Dy1  1  0.877739  0.127754  0.255511  1
  Dy  Dy2  1  0.458898  0.208925  0.417850  1
  Dy  Dy3  1  0.541077  0.791067  0.582111  1
  Dy  Dy4  1  0.122328  0.872326  0.744626  1
  Dy  Dy5  1  0.627961  0.377968  0.755949  1
  Dy  Dy6  1  0.709040  0.959029  0.918091  1
  Tm  Tm7  1  0.291272  0.041320  0.082589  1
  Se  Se8  1  0.040790  0.281183  0.087869  1
  Se  Se9  1  0.547004  0.806758  0.087741  1
  Se  Se10  1  0.615081  0.364927  0.248763  1
  Se  Se11  1  0.133656  0.883707  0.248718  1
  Se  Se12  1  0.216874  0.461192  0.411918  1
  Se  Se13  1  0.694928  0.950846  0.411996  1
  Se  Se14  1  0.305193  0.049266  0.588018  1
  Se  Se15  1  0.783009  0.538741  0.588094  1
  Se  Se16  1  0.866961  0.117097  0.750033  1
  Se  Se17  1  0.382993  0.632928  0.749953  1
  Se  Se18  1  0.449955  0.194178  0.913065  1
  Se  Se19  1  0.963164  0.718695  0.912968  1
