# generated using pymatgen
data_MnNb6FeS12
_symmetry_space_group_name_H-M   'P 1'
_cell_length_a   5.80976500
_cell_length_b   5.80976568
_cell_length_c   12.10342200
_cell_angle_alpha   90.00000000
_cell_angle_beta   90.00000000
_cell_angle_gamma   120.00001321
_symmetry_Int_Tables_number   1
_chemical_formula_structural   MnNb6FeS12
_chemical_formula_sum   'Mn1 Nb6 Fe1 S12'
_cell_volume   353.79845523
_cell_formula_units_Z   1
loop_
 _symmetry_equiv_pos_site_id
 _symmetry_equiv_pos_as_xyz
  1  'x, y, z'
loop_
 _atom_site_type_symbol
 _atom_site_label
 _atom_site_symmetry_multiplicity
 _atom_site_fract_x
 _atom_site_fract_y
 _atom_site_fract_z
 _atom_site_occupancy
  Mn  Mn0  1  0.666667  0.333333  0.750000  1
  Nb  Nb1  1  0.000000  0.000000  0.012807  1
  Nb  Nb2  1  0.000000  0.000000  0.487193  1
  Nb  Nb3  1  0.333333  0.666667  0.492233  1
  Nb  Nb4  1  0.666667  0.333333  0.013420  1
  Nb  Nb5  1  0.666667  0.333333  0.486580  1
  Nb  Nb6  1  0.333333  0.666667  0.007767  1
  Fe  Fe7  1  0.333333  0.666667  0.250000  1
  S  S8  1  0.333115  0.993863  0.140214  1
  S  S9  1  0.006137  0.339250  0.140214  1
  S  S10  1  0.669820  0.000443  0.619724  1
  S  S11  1  0.999557  0.330180  0.880276  1
  S  S12  1  0.660750  0.666885  0.140214  1
  S  S13  1  0.999557  0.669377  0.619724  1
  S  S14  1  0.330623  0.000443  0.880276  1
  S  S15  1  0.006137  0.666885  0.359786  1
  S  S16  1  0.330623  0.330180  0.619724  1
  S  S17  1  0.660750  0.993863  0.359786  1
  S  S18  1  0.669820  0.669377  0.880276  1
  S  S19  1  0.333115  0.339250  0.359786  1
