# generated using pymatgen
data_AlBi4I3
_symmetry_space_group_name_H-M   'P 1'
_cell_length_a   24.32768123
_cell_length_b   24.32768099
_cell_length_c   6.72650487
_cell_angle_alpha   72.79726278
_cell_angle_beta   72.79726338
_cell_angle_gamma   14.04809595
_symmetry_Int_Tables_number   1
_chemical_formula_structural   AlBi4I3
_chemical_formula_sum   'Al3 Bi12 I9'
_cell_volume   922.42897709
_cell_formula_units_Z   3
loop_
 _symmetry_equiv_pos_site_id
 _symmetry_equiv_pos_as_xyz
  1  'x, y, z'
loop_
 _atom_site_type_symbol
 _atom_site_label
 _atom_site_symmetry_multiplicity
 _atom_site_fract_x
 _atom_site_fract_y
 _atom_site_fract_z
 _atom_site_occupancy
  Al  Al0  1  0.958516  0.958516  0.220440  1
  Al  Al1  1  0.463182  0.463182  0.713516  1
  Al  Al2  1  0.587945  0.587945  0.501673  1
  Bi  Bi3  1  0.092615  0.092615  0.990858  1
  Bi  Bi4  1  0.732511  0.732511  0.042279  1
  Bi  Bi5  1  0.248000  0.248000  0.536166  1
  Bi  Bi6  1  0.234450  0.234450  0.044613  1
  Bi  Bi7  1  0.748388  0.748388  0.528319  1
  Bi  Bi8  1  0.873174  0.873174  0.929839  1
  Bi  Bi9  1  0.300528  0.300528  0.053508  1
  Bi  Bi10  1  0.166153  0.166153  0.326109  1
  Bi  Bi11  1  0.679277  0.679277  0.794445  1
  Bi  Bi12  1  0.802179  0.802179  0.060729  1
  Bi  Bi13  1  0.175701  0.175701  0.795912  1
  Bi  Bi14  1  0.663906  0.663906  0.323429  1
  I  I15  1  0.090285  0.090285  0.497978  1
  I  I16  1  0.595017  0.595017  0.986619  1
  I  I17  1  0.884032  0.884032  0.479508  1
  I  I18  1  0.377759  0.377759  0.944807  1
  I  I19  1  0.458545  0.458545  0.217042  1
  I  I20  1  0.960559  0.960559  0.717538  1
  I  I21  1  0.530053  0.530053  0.619404  1
  I  I22  1  0.030057  0.030057  0.133196  1
  I  I23  1  0.315252  0.315252  0.542074  1
