# generated using pymatgen
data_Li2Co8NiP7Ru3
_symmetry_space_group_name_H-M   'P 1'
_cell_length_a   8.93109725
_cell_length_b   8.93037850
_cell_length_c   3.60131300
_cell_angle_alpha   90.00000000
_cell_angle_beta   90.00000000
_cell_angle_gamma   120.12706279
_symmetry_Int_Tables_number   1
_chemical_formula_structural   Li2Co8NiP7Ru3
_chemical_formula_sum   'Li2 Co8 Ni1 P7 Ru3'
_cell_volume   248.43266753
_cell_formula_units_Z   1
loop_
 _symmetry_equiv_pos_site_id
 _symmetry_equiv_pos_as_xyz
  1  'x, y, z'
loop_
 _atom_site_type_symbol
 _atom_site_label
 _atom_site_symmetry_multiplicity
 _atom_site_fract_x
 _atom_site_fract_y
 _atom_site_fract_z
 _atom_site_occupancy
  Li  Li0  1  0.333254  0.665925  0.000000  1
  Li  Li1  1  0.667873  0.334996  0.500000  1
  Co  Co2  1  0.715364  0.877534  0.000000  1
  Co  Co3  1  0.161874  0.283438  0.000000  1
  Co  Co4  1  0.122173  0.836166  0.000000  1
  Co  Co5  1  0.624915  0.564705  0.000000  1
  Co  Co6  1  0.939559  0.375338  0.000000  1
  Co  Co7  1  0.559711  0.950702  0.500000  1
  Co  Co8  1  0.388482  0.440934  0.500000  1
  Co  Co9  1  0.048695  0.608773  0.500000  1
  Ni  Ni10  1  0.437724  0.063808  0.000000  1
  P  P11  1  0.583443  0.710991  0.500000  1
  P  P12  1  0.126052  0.416073  0.500000  1
  P  P13  1  0.286527  0.867468  0.500000  1
  P  P14  1  0.000780  0.999068  0.000000  1
  P  P15  1  0.879210  0.582219  0.000000  1
  P  P16  1  0.706449  0.119906  0.000000  1
  P  P17  1  0.415656  0.301035  0.000000  1
  Ru  Ru18  1  0.872836  0.778210  0.500000  1
  Ru  Ru19  1  0.904013  0.127444  0.500000  1
  Ru  Ru20  1  0.225409  0.095264  0.500000  1
