# generated using pymatgen
data_La3CdIn3CuIr
_symmetry_space_group_name_H-M   'P 1'
_cell_length_a   7.98285300
_cell_length_b   7.98285232
_cell_length_c   4.10242900
_cell_angle_alpha   90.00000000
_cell_angle_beta   90.00000000
_cell_angle_gamma   119.99999866
_symmetry_Int_Tables_number   1
_chemical_formula_structural   La3CdIn3CuIr
_chemical_formula_sum   'La3 Cd1 In3 Cu1 Ir1'
_cell_volume   226.40600335
_cell_formula_units_Z   1
loop_
 _symmetry_equiv_pos_site_id
 _symmetry_equiv_pos_as_xyz
  1  'x, y, z'
loop_
 _atom_site_type_symbol
 _atom_site_label
 _atom_site_symmetry_multiplicity
 _atom_site_fract_x
 _atom_site_fract_y
 _atom_site_fract_z
 _atom_site_occupancy
  La  La0  1  0.031161  0.604461  0.500000  1
  La  La1  1  0.395539  0.426699  0.500000  1
  La  La2  1  0.573301  0.968839  0.500000  1
  Cd  Cd3  1  0.666667  0.333333  0.000000  1
  In  In4  1  0.759965  0.757680  0.000000  1
  In  In5  1  0.997714  0.240035  0.000000  1
  In  In6  1  0.242320  0.002286  0.000000  1
  Cu  Cu7  1  0.000000  0.000000  0.500000  1
  Ir  Ir8  1  0.333333  0.666667  0.000000  1
