# generated using pymatgen
data_NdDy5Al24(Ir3Os)2
_symmetry_space_group_name_H-M   'P 1'
_cell_length_a   8.82930600
_cell_length_b   8.83841357
_cell_length_c   9.56186700
_cell_angle_alpha   90.00000000
_cell_angle_beta   90.00000000
_cell_angle_gamma   119.96591875
_symmetry_Int_Tables_number   1
_chemical_formula_structural   NdDy5Al24(Ir3Os)2
_chemical_formula_sum   'Nd1 Dy5 Al24 Ir6 Os2'
_cell_volume   646.43261973
_cell_formula_units_Z   1
loop_
 _symmetry_equiv_pos_site_id
 _symmetry_equiv_pos_as_xyz
  1  'x, y, z'
loop_
 _atom_site_type_symbol
 _atom_site_label
 _atom_site_symmetry_multiplicity
 _atom_site_fract_x
 _atom_site_fract_y
 _atom_site_fract_z
 _atom_site_occupancy
  Nd  Nd0  1  0.189746  0.379493  0.250000  1
  Dy  Dy1  1  0.808071  0.616140  0.750000  1
  Dy  Dy2  1  0.616389  0.809017  0.250000  1
  Dy  Dy3  1  0.384601  0.192119  0.750000  1
  Dy  Dy4  1  0.192626  0.809017  0.250000  1
  Dy  Dy5  1  0.807520  0.192119  0.750000  1
  Al  Al6  1  0.333995  0.667991  0.028999  1
  Al  Al7  1  0.666810  0.333619  0.968951  1
  Al  Al8  1  0.666810  0.333619  0.531049  1
  Al  Al9  1  0.333995  0.667991  0.471001  1
  Al  Al10  1  0.163873  0.327748  0.576687  1
  Al  Al11  1  0.836172  0.672343  0.425602  1
  Al  Al12  1  0.672482  0.835980  0.575422  1
  Al  Al13  1  0.836172  0.672343  0.074398  1
  Al  Al14  1  0.328446  0.163291  0.425895  1
  Al  Al15  1  0.163873  0.327748  0.923313  1
  Al  Al16  1  0.163498  0.835980  0.575422  1
  Al  Al17  1  0.328446  0.163291  0.074105  1
  Al  Al18  1  0.834846  0.163291  0.425895  1
  Al  Al19  1  0.672482  0.835980  0.924578  1
  Al  Al20  1  0.834846  0.163291  0.074105  1
  Al  Al21  1  0.163498  0.835980  0.924578  1
  Al  Al22  1  0.562267  0.124534  0.250000  1
  Al  Al23  1  0.437724  0.875449  0.750000  1
  Al  Al24  1  0.873660  0.438242  0.250000  1
  Al  Al25  1  0.124983  0.562613  0.750000  1
  Al  Al26  1  0.564582  0.438242  0.250000  1
  Al  Al27  1  0.437629  0.562613  0.750000  1
  Al  Al28  1  0.998235  0.996470  0.250000  1
  Al  Al29  1  0.999928  0.999856  0.750000  1
  Ir  Ir30  1  0.500315  0.000630  0.999582  1
  Ir  Ir31  1  0.999318  0.500674  0.998949  1
  Ir  Ir32  1  0.500315  0.000630  0.500418  1
  Ir  Ir33  1  0.501357  0.500674  0.998949  1
  Ir  Ir34  1  0.999318  0.500674  0.501051  1
  Ir  Ir35  1  0.501357  0.500674  0.501051  1
  Os  Os36  1  0.999908  0.999815  0.999747  1
  Os  Os37  1  0.999908  0.999815  0.500253  1
