# generated using pymatgen
data_Er8Tc3OsC8
_symmetry_space_group_name_H-M   'P 1'
_cell_length_a   5.04571100
_cell_length_b   6.51146917
_cell_length_c   9.77055293
_cell_angle_alpha   89.80709283
_cell_angle_beta   90.00000000
_cell_angle_gamma   90.00000000
_symmetry_Int_Tables_number   1
_chemical_formula_structural   Er8Tc3OsC8
_chemical_formula_sum   'Er8 Tc3 Os1 C8'
_cell_volume   321.00961515
_cell_formula_units_Z   1
loop_
 _symmetry_equiv_pos_site_id
 _symmetry_equiv_pos_as_xyz
  1  'x, y, z'
loop_
 _atom_site_type_symbol
 _atom_site_label
 _atom_site_symmetry_multiplicity
 _atom_site_fract_x
 _atom_site_fract_y
 _atom_site_fract_z
 _atom_site_occupancy
  Er  Er0  1  0.250000  0.675449  0.557287  1
  Er  Er1  1  0.750000  0.323063  0.442750  1
  Er  Er2  1  0.750000  0.824046  0.057528  1
  Er  Er3  1  0.250000  0.175549  0.942663  1
  Er  Er4  1  0.250000  0.532375  0.216119  1
  Er  Er5  1  0.750000  0.466055  0.784428  1
  Er  Er6  1  0.750000  0.968033  0.713478  1
  Er  Er7  1  0.250000  0.032158  0.284389  1
  Tc  Tc8  1  0.250000  0.717965  0.867004  1
  Tc  Tc9  1  0.750000  0.282607  0.132375  1
  Tc  Tc10  1  0.750000  0.781623  0.367612  1
  Os  Os11  1  0.250000  0.218016  0.633102  1
  C  C12  1  0.250000  0.450812  0.758359  1
  C  C13  1  0.750000  0.549382  0.241378  1
  C  C14  1  0.750000  0.049523  0.259287  1
  C  C15  1  0.250000  0.952114  0.741422  1
  C  C16  1  0.250000  0.824214  0.051691  1
  C  C17  1  0.750000  0.176292  0.947491  1
  C  C18  1  0.750000  0.675913  0.553203  1
  C  C19  1  0.250000  0.324810  0.448434  1
