# generated using pymatgen
data_Yb9Y(Sn3H)2
_symmetry_space_group_name_H-M   'P 1'
_cell_length_a   9.32869834
_cell_length_b   9.32869685
_cell_length_c   9.35073294
_cell_angle_alpha   128.44870120
_cell_angle_beta   128.44867929
_cell_angle_gamma   75.95768986
_symmetry_Int_Tables_number   1
_chemical_formula_structural   Yb9Y(Sn3H)2
_chemical_formula_sum   'Yb9 Y1 Sn6 H2'
_cell_volume   485.15491217
_cell_formula_units_Z   1
loop_
 _symmetry_equiv_pos_site_id
 _symmetry_equiv_pos_as_xyz
  1  'x, y, z'
loop_
 _atom_site_type_symbol
 _atom_site_label
 _atom_site_symmetry_multiplicity
 _atom_site_fract_x
 _atom_site_fract_y
 _atom_site_fract_z
 _atom_site_occupancy
  Yb  Yb0  1  0.499256  0.502472  0.001124  1
  Yb  Yb1  1  0.002472  0.999256  0.001123  1
  Yb  Yb2  1  0.184642  0.684642  0.173276  1
  Yb  Yb3  1  0.008389  0.185259  0.498757  1
  Yb  Yb4  1  0.685257  0.508388  0.498755  1
  Yb  Yb5  1  0.490549  0.990547  0.179985  1
  Yb  Yb6  1  0.812850  0.312851  0.823076  1
  Yb  Yb7  1  0.988254  0.812615  0.498378  1
  Yb  Yb8  1  0.312614  0.488256  0.498380  1
  Y  Y9  1  0.513246  0.013244  0.823882  1
  Sn  Sn10  1  0.254024  0.244750  0.995048  1
  Sn  Sn11  1  0.744751  0.754025  0.995050  1
  Sn  Sn12  1  0.868769  0.368762  0.238542  1
  Sn  Sn13  1  0.125885  0.625889  0.752600  1
  Sn  Sn14  1  0.371098  0.127846  0.504361  1
  Sn  Sn15  1  0.627845  0.871099  0.504366  1
  H  H16  1  0.259891  0.759891  0.511163  1
  H  H17  1  0.750207  0.250207  0.502134  1
