# generated using pymatgen
data_CeTm(Al5Os)4
_symmetry_space_group_name_H-M   'P 1'
_cell_length_a   6.86197907
_cell_length_b   6.86197869
_cell_length_c   9.14796300
_cell_angle_alpha   90.00000000
_cell_angle_beta   90.00000000
_cell_angle_gamma   96.80361677
_symmetry_Int_Tables_number   1
_chemical_formula_structural   CeTm(Al5Os)4
_chemical_formula_sum   'Ce1 Tm1 Al20 Os4'
_cell_volume   427.71457186
_cell_formula_units_Z   1
loop_
 _symmetry_equiv_pos_site_id
 _symmetry_equiv_pos_as_xyz
  1  'x, y, z'
loop_
 _atom_site_type_symbol
 _atom_site_label
 _atom_site_symmetry_multiplicity
 _atom_site_fract_x
 _atom_site_fract_y
 _atom_site_fract_z
 _atom_site_occupancy
  Ce  Ce0  1  0.372519  0.627481  0.250000  1
  Tm  Tm1  1  0.631680  0.368320  0.750000  1
  Al  Al2  1  0.282454  0.019289  0.750000  1
  Al  Al3  1  0.017486  0.281577  0.250000  1
  Al  Al4  1  0.718423  0.982514  0.250000  1
  Al  Al5  1  0.980711  0.717546  0.750000  1
  Al  Al6  1  0.876047  0.123953  0.950626  1
  Al  Al7  1  0.122776  0.877224  0.046456  1
  Al  Al8  1  0.876047  0.123953  0.549374  1
  Al  Al9  1  0.122776  0.877224  0.453544  1
  Al  Al10  1  0.646352  0.918675  0.750000  1
  Al  Al11  1  0.912296  0.645692  0.250000  1
  Al  Al12  1  0.354308  0.087704  0.250000  1
  Al  Al13  1  0.081325  0.353648  0.750000  1
  Al  Al14  1  0.344081  0.655919  0.897203  1
  Al  Al15  1  0.657522  0.342478  0.100793  1
  Al  Al16  1  0.344081  0.655919  0.602797  1
  Al  Al17  1  0.657522  0.342478  0.399207  1
  Al  Al18  1  0.724376  0.723410  0.997624  1
  Al  Al19  1  0.724376  0.723410  0.502376  1
  Al  Al20  1  0.276590  0.275624  0.997624  1
  Al  Al21  1  0.276590  0.275624  0.502376  1
  Os  Os22  1  0.499645  0.999816  0.999416  1
  Os  Os23  1  0.000184  0.500355  0.999416  1
  Os  Os24  1  0.499645  0.999816  0.500584  1
  Os  Os25  1  0.000184  0.500355  0.500584  1
