# generated using pymatgen
data_LaEuTmCuSe5
_symmetry_space_group_name_H-M   'P 1'
_cell_length_a   12.14873700
_cell_length_b   4.11385000
_cell_length_c   17.77956000
_cell_angle_alpha   90.00000000
_cell_angle_beta   90.00000000
_cell_angle_gamma   90.00000000
_symmetry_Int_Tables_number   1
_chemical_formula_structural   LaEuTmCuSe5
_chemical_formula_sum   'La4 Eu4 Tm4 Cu4 Se20'
_cell_volume   888.58830240
_cell_formula_units_Z   4
loop_
 _symmetry_equiv_pos_site_id
 _symmetry_equiv_pos_as_xyz
  1  'x, y, z'
loop_
 _atom_site_type_symbol
 _atom_site_label
 _atom_site_symmetry_multiplicity
 _atom_site_fract_x
 _atom_site_fract_y
 _atom_site_fract_z
 _atom_site_occupancy
  La  La0  1  0.137959  0.749999  0.602931  1
  La  La1  1  0.487449  0.749999  0.674986  1
  La  La2  1  0.987449  0.749999  0.825015  1
  La  La3  1  0.637958  0.749999  0.897069  1
  Eu  Eu4  1  0.361990  0.250000  0.103217  1
  Eu  Eu5  1  0.012633  0.250000  0.175188  1
  Eu  Eu6  1  0.512633  0.250000  0.324813  1
  Eu  Eu7  1  0.861989  0.250000  0.396783  1
  Tm  Tm8  1  0.698660  0.749999  0.135682  1
  Tm  Tm9  1  0.198660  0.749999  0.364319  1
  Tm  Tm10  1  0.801278  0.250000  0.635387  1
  Tm  Tm11  1  0.301278  0.250000  0.864614  1
  Cu  Cu12  1  0.824922  0.250000  0.020082  1
  Cu  Cu13  1  0.324921  0.250000  0.479918  1
  Cu  Cu14  1  0.675107  0.749999  0.519981  1
  Cu  Cu15  1  0.175107  0.749999  0.980019  1
  Se  Se16  1  0.616460  0.250000  0.033509  1
  Se  Se17  1  0.905123  0.749999  0.070808  1
  Se  Se18  1  0.182489  0.749999  0.115258  1
  Se  Se19  1  0.486853  0.749999  0.197952  1
  Se  Se20  1  0.759585  0.250000  0.230614  1
  Se  Se21  1  0.259584  0.250000  0.269386  1
  Se  Se22  1  0.986852  0.749999  0.302048  1
  Se  Se23  1  0.682489  0.749999  0.384742  1
  Se  Se24  1  0.405123  0.749999  0.429192  1
  Se  Se25  1  0.116460  0.250000  0.466490  1
  Se  Se26  1  0.883624  0.749999  0.533761  1
  Se  Se27  1  0.594832  0.250000  0.570907  1
  Se  Se28  1  0.317457  0.250000  0.615321  1
  Se  Se29  1  0.013196  0.250000  0.697992  1
  Se  Se30  1  0.740387  0.749999  0.730716  1
  Se  Se31  1  0.240386  0.749999  0.769284  1
  Se  Se32  1  0.513195  0.250000  0.802009  1
  Se  Se33  1  0.817456  0.250000  0.884679  1
  Se  Se34  1  0.094832  0.250000  0.929093  1
  Se  Se35  1  0.383624  0.749999  0.966238  1
