# generated using pymatgen
data_Ti6SiSe
_symmetry_space_group_name_H-M   'P 1'
_cell_length_a   10.13529500
_cell_length_b   10.13529500
_cell_length_c   5.08804500
_cell_angle_alpha   90.00000000
_cell_angle_beta   90.00000000
_cell_angle_gamma   90.00000000
_symmetry_Int_Tables_number   1
_chemical_formula_structural   Ti6SiSe
_chemical_formula_sum   'Ti24 Si4 Se4'
_cell_volume   522.66537629
_cell_formula_units_Z   4
loop_
 _symmetry_equiv_pos_site_id
 _symmetry_equiv_pos_as_xyz
  1  'x, y, z'
loop_
 _atom_site_type_symbol
 _atom_site_label
 _atom_site_symmetry_multiplicity
 _atom_site_fract_x
 _atom_site_fract_y
 _atom_site_fract_z
 _atom_site_occupancy
  Ti  Ti0  1  0.217011  0.683438  0.994915  1
  Ti  Ti1  1  0.782989  0.316562  0.994915  1
  Ti  Ti2  1  0.183438  0.282989  0.494915  1
  Ti  Ti3  1  0.816562  0.717011  0.494915  1
  Ti  Ti4  1  0.285791  0.817662  0.503974  1
  Ti  Ti5  1  0.714209  0.182338  0.503974  1
  Ti  Ti6  1  0.317662  0.214209  0.003974  1
  Ti  Ti7  1  0.682338  0.785791  0.003974  1
  Ti  Ti8  1  0.639802  0.527730  0.715746  1
  Ti  Ti9  1  0.360198  0.472270  0.715746  1
  Ti  Ti10  1  0.027730  0.860198  0.215746  1
  Ti  Ti11  1  0.972270  0.139802  0.215746  1
  Ti  Ti12  1  0.856698  0.971877  0.785031  1
  Ti  Ti13  1  0.143302  0.028123  0.785031  1
  Ti  Ti14  1  0.471877  0.643302  0.285031  1
  Ti  Ti15  1  0.528123  0.356698  0.285031  1
  Ti  Ti16  1  0.104560  0.580695  0.466150  1
  Ti  Ti17  1  0.895440  0.419305  0.466150  1
  Ti  Ti18  1  0.080695  0.395440  0.966150  1
  Ti  Ti19  1  0.919305  0.604560  0.966150  1
  Ti  Ti20  1  0.393509  0.918254  0.034443  1
  Ti  Ti21  1  0.606491  0.081746  0.034443  1
  Ti  Ti22  1  0.418254  0.106491  0.534443  1
  Ti  Ti23  1  0.581746  0.893509  0.534443  1
  Si  Si24  1  0.793973  0.958651  0.287950  1
  Si  Si25  1  0.206027  0.041349  0.287950  1
  Si  Si26  1  0.458651  0.706027  0.787950  1
  Si  Si27  1  0.541349  0.293973  0.787950  1
  Se  Se28  1  0.706873  0.541351  0.211792  1
  Se  Se29  1  0.293127  0.458649  0.211792  1
  Se  Se30  1  0.041351  0.793127  0.711792  1
  Se  Se31  1  0.958649  0.206873  0.711792  1
