# generated using pymatgen
data_Sr3In4Ni3Ir
_symmetry_space_group_name_H-M   'P 1'
_cell_length_a   7.06498297
_cell_length_b   6.94253458
_cell_length_c   6.94253437
_cell_angle_alpha   109.11118600
_cell_angle_beta   109.82889549
_cell_angle_gamma   109.82890397
_symmetry_Int_Tables_number   1
_chemical_formula_structural   Sr3In4Ni3Ir
_chemical_formula_sum   'Sr3 In4 Ni3 Ir1'
_cell_volume   260.96914725
_cell_formula_units_Z   1
loop_
 _symmetry_equiv_pos_site_id
 _symmetry_equiv_pos_as_xyz
  1  'x, y, z'
loop_
 _atom_site_type_symbol
 _atom_site_label
 _atom_site_symmetry_multiplicity
 _atom_site_fract_x
 _atom_site_fract_y
 _atom_site_fract_z
 _atom_site_occupancy
  Sr  Sr0  1  0.002730  0.498130  0.498130  1
  Sr  Sr1  1  0.504599  0.000000  0.501870  1
  Sr  Sr2  1  0.504599  0.501870  0.000000  1
  In  In3  1  0.596950  0.589838  0.589838  1
  In  In4  1  0.007110  0.000000  0.410162  1
  In  In5  1  0.007110  0.410162  0.000000  1
  In  In6  1  0.391800  0.000000  0.000000  1
  Ni  Ni7  1  0.222125  0.224206  0.224206  1
  Ni  Ni8  1  0.997919  0.000000  0.775794  1
  Ni  Ni9  1  0.997919  0.775794  0.000000  1
  Ir  Ir10  1  0.767137  0.000000  0.000000  1
