# generated using pymatgen
data_KRb2Bi(AsSe2)6
_symmetry_space_group_name_H-M   'P 1'
_cell_length_a   9.96024700
_cell_length_b   9.96024594
_cell_length_c   8.21492000
_cell_angle_alpha   90.00000000
_cell_angle_beta   90.00000000
_cell_angle_gamma   120.00000018
_symmetry_Int_Tables_number   1
_chemical_formula_structural   KRb2Bi(AsSe2)6
_chemical_formula_sum   'K1 Rb2 Bi1 As6 Se12'
_cell_volume   705.78778895
_cell_formula_units_Z   1
loop_
 _symmetry_equiv_pos_site_id
 _symmetry_equiv_pos_as_xyz
  1  'x, y, z'
loop_
 _atom_site_type_symbol
 _atom_site_label
 _atom_site_symmetry_multiplicity
 _atom_site_fract_x
 _atom_site_fract_y
 _atom_site_fract_z
 _atom_site_occupancy
  K  K0  1  0.000000  0.000000  0.000000  1
  Rb  Rb1  1  0.333333  0.666667  0.839638  1
  Rb  Rb2  1  0.666667  0.333333  0.160362  1
  Bi  Bi3  1  0.000000  0.000000  0.500000  1
  As  As4  1  0.294024  0.840843  0.373244  1
  As  As5  1  0.159157  0.453180  0.373244  1
  As  As6  1  0.546820  0.705976  0.373244  1
  As  As7  1  0.705976  0.159157  0.626756  1
  As  As8  1  0.840843  0.546820  0.626756  1
  As  As9  1  0.453180  0.294024  0.626756  1
  Se  Se10  1  0.269467  0.056863  0.291071  1
  Se  Se11  1  0.943137  0.212605  0.291071  1
  Se  Se12  1  0.787395  0.730533  0.291071  1
  Se  Se13  1  0.730533  0.943137  0.708929  1
  Se  Se14  1  0.056863  0.787395  0.708929  1
  Se  Se15  1  0.212605  0.269467  0.708929  1
  Se  Se16  1  0.529384  0.905669  0.210749  1
  Se  Se17  1  0.094331  0.623715  0.210749  1
  Se  Se18  1  0.376285  0.470616  0.210749  1
  Se  Se19  1  0.470616  0.094331  0.789251  1
  Se  Se20  1  0.905669  0.376285  0.789251  1
  Se  Se21  1  0.623715  0.529384  0.789251  1
