# generated using pymatgen
data_Nd5U(Co3P2)6
_symmetry_space_group_name_H-M   'P 1'
_cell_length_a   3.75843800
_cell_length_b   10.59265137
_cell_length_c   12.38970024
_cell_angle_alpha   90.36976173
_cell_angle_beta   90.00000000
_cell_angle_gamma   90.00000000
_symmetry_Int_Tables_number   1
_chemical_formula_structural   Nd5U(Co3P2)6
_chemical_formula_sum   'Nd5 U1 Co18 P12'
_cell_volume   493.24628665
_cell_formula_units_Z   1
loop_
 _symmetry_equiv_pos_site_id
 _symmetry_equiv_pos_as_xyz
  1  'x, y, z'
loop_
 _atom_site_type_symbol
 _atom_site_label
 _atom_site_symmetry_multiplicity
 _atom_site_fract_x
 _atom_site_fract_y
 _atom_site_fract_z
 _atom_site_occupancy
  Nd  Nd0  1  0.000000  0.499866  0.520575  1
  Nd  Nd1  1  0.500000  0.999160  0.479192  1
  Nd  Nd2  1  0.500000  0.183446  0.205245  1
  Nd  Nd3  1  0.000000  0.682796  0.794006  1
  Nd  Nd4  1  0.000000  0.316957  0.794515  1
  U  U5  1  0.500000  0.823311  0.209625  1
  Co  Co6  1  0.500000  0.500681  0.158723  1
  Co  Co7  1  0.000000  0.999907  0.842791  1
  Co  Co8  1  0.500000  0.499529  0.705745  1
  Co  Co9  1  0.000000  0.984841  0.288891  1
  Co  Co10  1  0.000000  0.503378  0.990054  1
  Co  Co11  1  0.500000  0.999437  0.013060  1
  Co  Co12  1  0.500000  0.335064  0.996651  1
  Co  Co13  1  0.500000  0.669258  0.999741  1
  Co  Co14  1  0.000000  0.167073  0.004708  1
  Co  Co15  1  0.000000  0.834430  0.003919  1
  Co  Co16  1  0.500000  0.296069  0.429245  1
  Co  Co17  1  0.500000  0.700265  0.426614  1
  Co  Co18  1  0.000000  0.202070  0.569343  1
  Co  Co19  1  0.000000  0.797683  0.570175  1
  Co  Co20  1  0.500000  0.881585  0.711523  1
  Co  Co21  1  0.500000  0.118163  0.711102  1
  Co  Co22  1  0.000000  0.622268  0.285637  1
  Co  Co23  1  0.000000  0.381723  0.288816  1
  P  P24  1  0.500000  0.501586  0.887788  1
  P  P25  1  0.000000  0.998800  0.111217  1
  P  P26  1  0.500000  0.498411  0.339498  1
  P  P27  1  0.000000  0.999588  0.660477  1
  P  P28  1  0.500000  0.306015  0.614131  1
  P  P29  1  0.500000  0.692983  0.613549  1
  P  P30  1  0.000000  0.190572  0.385327  1
  P  P31  1  0.000000  0.803232  0.386608  1
  P  P32  1  0.500000  0.849002  0.894465  1
  P  P33  1  0.500000  0.151621  0.895790  1
  P  P34  1  0.000000  0.659252  0.106680  1
  P  P35  1  0.000000  0.349981  0.104572  1
