# generated using pymatgen
data_Sc8Mn3Si16Tc9
_symmetry_space_group_name_H-M   'P 1'
_cell_length_a   6.59836633
_cell_length_b   6.59138058
_cell_length_c   12.22621309
_cell_angle_alpha   90.10500263
_cell_angle_beta   89.71572123
_cell_angle_gamma   90.13698554
_symmetry_Int_Tables_number   1
_chemical_formula_structural   Sc8Mn3Si16Tc9
_chemical_formula_sum   'Sc8 Mn3 Si16 Tc9'
_cell_volume   531.73771589
_cell_formula_units_Z   1
loop_
 _symmetry_equiv_pos_site_id
 _symmetry_equiv_pos_as_xyz
  1  'x, y, z'
loop_
 _atom_site_type_symbol
 _atom_site_label
 _atom_site_symmetry_multiplicity
 _atom_site_fract_x
 _atom_site_fract_y
 _atom_site_fract_z
 _atom_site_occupancy
  Sc  Sc0  1  0.000309  0.662180  0.030070  1
  Sc  Sc1  1  0.996986  0.344253  0.528372  1
  Sc  Sc2  1  0.341342  0.001071  0.469779  1
  Sc  Sc3  1  0.159399  0.492622  0.779231  1
  Sc  Sc4  1  0.842403  0.510879  0.281730  1
  Sc  Sc5  1  0.495361  0.162578  0.222429  1
  Sc  Sc6  1  0.506275  0.841497  0.716633  1
  Sc  Sc7  1  0.658398  0.003291  0.968982  1
  Mn  Mn8  1  0.025780  0.807258  0.634494  1
  Mn  Mn9  1  0.977787  0.181133  0.129618  1
  Mn  Mn10  1  0.811084  0.026889  0.366252  1
  Si  Si11  1  0.020765  0.740831  0.440611  1
  Si  Si12  1  0.625790  0.300248  0.430966  1
  Si  Si13  1  0.378541  0.692125  0.935100  1
  Si  Si14  1  0.189730  0.110976  0.679581  1
  Si  Si15  1  0.298964  0.624920  0.566902  1
  Si  Si16  1  0.701546  0.371491  0.070150  1
  Si  Si17  1  0.808163  0.889341  0.184738  1
  Si  Si18  1  0.109088  0.192520  0.315217  1
  Si  Si19  1  0.974556  0.275996  0.939106  1
  Si  Si20  1  0.739707  0.020728  0.559047  1
  Si  Si21  1  0.209306  0.465757  0.183289  1
  Si  Si22  1  0.784433  0.528832  0.684912  1
  Si  Si23  1  0.470591  0.216939  0.813029  1
  Si  Si24  1  0.534422  0.790934  0.316670  1
  Si  Si25  1  0.277002  0.973709  0.067691  1
  Si  Si26  1  0.879070  0.803471  0.813828  1
  Tc  Tc27  1  0.669570  0.669631  0.499926  1
  Tc  Tc28  1  0.165977  0.835143  0.251056  1
  Tc  Tc29  1  0.331615  0.330217  0.001918  1
  Tc  Tc30  1  0.324696  0.483241  0.376329  1
  Tc  Tc31  1  0.681160  0.514343  0.882084  1
  Tc  Tc32  1  0.477951  0.319903  0.618006  1
  Tc  Tc33  1  0.520357  0.672934  0.124786  1
  Tc  Tc34  1  0.179545  0.976195  0.871355  1
  Tc  Tc35  1  0.832333  0.165924  0.746115  1
