# generated using pymatgen
data_TbHo3Ni13Ge
_symmetry_space_group_name_H-M   'P 1'
_cell_length_a   4.90364151
_cell_length_b   4.97320441
_cell_length_c   12.45325134
_cell_angle_alpha   78.48206502
_cell_angle_beta   78.69195286
_cell_angle_gamma   59.52961173
_symmetry_Int_Tables_number   1
_chemical_formula_structural   TbHo3Ni13Ge
_chemical_formula_sum   'Tb1 Ho3 Ni13 Ge1'
_cell_volume   254.85904373
_cell_formula_units_Z   1
loop_
 _symmetry_equiv_pos_site_id
 _symmetry_equiv_pos_as_xyz
  1  'x, y, z'
loop_
 _atom_site_type_symbol
 _atom_site_label
 _atom_site_symmetry_multiplicity
 _atom_site_fract_x
 _atom_site_fract_y
 _atom_site_fract_z
 _atom_site_occupancy
  Tb  Tb0  1  0.948142  0.947162  0.157531  1
  Ho  Ho1  1  0.052346  0.052617  0.842423  1
  Ho  Ho2  1  0.853250  0.851997  0.442755  1
  Ho  Ho3  1  0.145921  0.148177  0.557725  1
  Ni  Ni4  1  0.499703  0.500190  0.499917  1
  Ni  Ni5  1  0.724025  0.721844  0.832286  1
  Ni  Ni6  1  0.276246  0.278236  0.167282  1
  Ni  Ni7  1  0.614132  0.609318  0.167232  1
  Ni  Ni8  1  0.386268  0.390365  0.833002  1
  Ni  Ni9  1  0.500494  0.000567  0.999566  1
  Ni  Ni10  1  0.500494  0.499374  0.999566  1
  Ni  Ni11  1  0.391313  0.389566  0.329991  1
  Ni  Ni12  1  0.891753  0.388044  0.332160  1
  Ni  Ni13  1  0.391313  0.889132  0.329991  1
  Ni  Ni14  1  0.608498  0.611237  0.670370  1
  Ni  Ni15  1  0.106694  0.612516  0.668274  1
  Ni  Ni16  1  0.608498  0.109893  0.670370  1
  Ge  Ge17  1  0.000911  0.499766  0.999557  1
