# generated using pymatgen
data_YbYSi6Pd20Pb
_symmetry_space_group_name_H-M   'P 1'
_cell_length_a   8.71042806
_cell_length_b   8.71042827
_cell_length_c   8.71042900
_cell_angle_alpha   60.00000102
_cell_angle_beta   60.00000024
_cell_angle_gamma   60.00000094
_symmetry_Int_Tables_number   1
_chemical_formula_structural   YbYSi6Pd20Pb
_chemical_formula_sum   'Yb1 Y1 Si6 Pd20 Pb1'
_cell_volume   467.30837190
_cell_formula_units_Z   1
loop_
 _symmetry_equiv_pos_site_id
 _symmetry_equiv_pos_as_xyz
  1  'x, y, z'
loop_
 _atom_site_type_symbol
 _atom_site_label
 _atom_site_symmetry_multiplicity
 _atom_site_fract_x
 _atom_site_fract_y
 _atom_site_fract_z
 _atom_site_occupancy
  Yb  Yb0  1  0.000000  0.000000  0.000000  1
  Y  Y1  1  0.250000  0.250000  0.250000  1
  Si  Si2  1  0.731246  0.268754  0.268754  1
  Si  Si3  1  0.268754  0.731246  0.731246  1
  Si  Si4  1  0.268754  0.731246  0.268754  1
  Si  Si5  1  0.731246  0.268754  0.731246  1
  Si  Si6  1  0.268754  0.268754  0.731246  1
  Si  Si7  1  0.731246  0.731246  0.268754  1
  Pd  Pd8  1  0.385191  0.385191  0.385191  1
  Pd  Pd9  1  0.618430  0.618430  0.618430  1
  Pd  Pd10  1  0.385191  0.385191  0.844428  1
  Pd  Pd11  1  0.385191  0.844428  0.385191  1
  Pd  Pd12  1  0.618430  0.618430  0.144708  1
  Pd  Pd13  1  0.618430  0.144708  0.618430  1
  Pd  Pd14  1  0.844428  0.385191  0.385191  1
  Pd  Pd15  1  0.144708  0.618430  0.618430  1
  Pd  Pd16  1  0.340452  0.003068  0.003068  1
  Pd  Pd17  1  0.653412  0.003068  0.003068  1
  Pd  Pd18  1  0.003068  0.340452  0.653412  1
  Pd  Pd19  1  0.003068  0.653412  0.340452  1
  Pd  Pd20  1  0.003068  0.340452  0.003068  1
  Pd  Pd21  1  0.653412  0.003068  0.340452  1
  Pd  Pd22  1  0.003068  0.653412  0.003068  1
  Pd  Pd23  1  0.340452  0.003068  0.653412  1
  Pd  Pd24  1  0.003068  0.003068  0.340452  1
  Pd  Pd25  1  0.003068  0.003068  0.653412  1
  Pd  Pd26  1  0.653412  0.340452  0.003068  1
  Pd  Pd27  1  0.340452  0.653412  0.003068  1
  Pb  Pb28  1  0.750000  0.750000  0.750000  1
