# generated using pymatgen
data_La5P12IrRu18
_symmetry_space_group_name_H-M   'P 1'
_cell_length_a   12.72918000
_cell_length_b   12.72918152
_cell_length_c   4.03924200
_cell_angle_alpha   90.00000000
_cell_angle_beta   90.00000000
_cell_angle_gamma   119.99999606
_symmetry_Int_Tables_number   1
_chemical_formula_structural   La5P12IrRu18
_chemical_formula_sum   'La5 P12 Ir1 Ru18'
_cell_volume   566.80207269
_cell_formula_units_Z   1
loop_
 _symmetry_equiv_pos_site_id
 _symmetry_equiv_pos_as_xyz
  1  'x, y, z'
loop_
 _atom_site_type_symbol
 _atom_site_label
 _atom_site_symmetry_multiplicity
 _atom_site_fract_x
 _atom_site_fract_y
 _atom_site_fract_z
 _atom_site_occupancy
  La  La0  1  0.333333  0.666667  0.000000  1
  La  La1  1  0.666667  0.333333  0.000000  1
  La  La2  1  0.813857  0.000000  0.500000  1
  La  La3  1  0.000000  0.813857  0.500000  1
  La  La4  1  0.186143  0.186143  0.500000  1
  P  P5  1  0.189635  0.000000  0.000000  1
  P  P6  1  0.000000  0.189635  0.000000  1
  P  P7  1  0.810365  0.810365  0.000000  1
  P  P8  1  0.169353  0.474996  0.500000  1
  P  P9  1  0.525004  0.694357  0.500000  1
  P  P10  1  0.305643  0.830647  0.500000  1
  P  P11  1  0.694357  0.525004  0.500000  1
  P  P12  1  0.830647  0.305643  0.500000  1
  P  P13  1  0.474996  0.169353  0.500000  1
  P  P14  1  0.623284  0.000000  0.000000  1
  P  P15  1  0.000000  0.623284  0.000000  1
  P  P16  1  0.376716  0.376716  0.000000  1
  Ir  Ir17  1  0.000000  0.000000  0.000000  1
  Ru  Ru18  1  0.444643  0.000000  0.000000  1
  Ru  Ru19  1  0.000000  0.444643  0.000000  1
  Ru  Ru20  1  0.555357  0.555357  0.000000  1
  Ru  Ru21  1  0.366459  0.490663  0.500000  1
  Ru  Ru22  1  0.509337  0.875796  0.500000  1
  Ru  Ru23  1  0.124204  0.633541  0.500000  1
  Ru  Ru24  1  0.875796  0.509337  0.500000  1
  Ru  Ru25  1  0.633541  0.124204  0.500000  1
  Ru  Ru26  1  0.490663  0.366459  0.500000  1
  Ru  Ru27  1  0.184337  0.378876  0.000000  1
  Ru  Ru28  1  0.621124  0.805462  0.000000  1
  Ru  Ru29  1  0.194538  0.815663  0.000000  1
  Ru  Ru30  1  0.805462  0.621124  0.000000  1
  Ru  Ru31  1  0.815663  0.194538  0.000000  1
  Ru  Ru32  1  0.378876  0.184337  0.000000  1
  Ru  Ru33  1  0.284975  0.000000  0.500000  1
  Ru  Ru34  1  0.000000  0.284975  0.500000  1
  Ru  Ru35  1  0.715025  0.715025  0.500000  1
