# generated using pymatgen
data_ScGaPb(SeO3)4
_symmetry_space_group_name_H-M   'P 1'
_cell_length_a   5.28535400
_cell_length_b   10.23010593
_cell_length_c   14.21651062
_cell_angle_alpha   48.79496507
_cell_angle_beta   90.00000000
_cell_angle_gamma   90.00000000
_symmetry_Int_Tables_number   1
_chemical_formula_structural   ScGaPb(SeO3)4
_chemical_formula_sum   'Sc2 Ga2 Pb2 Se8 O24'
_cell_volume   578.32398495
_cell_formula_units_Z   2
loop_
 _symmetry_equiv_pos_site_id
 _symmetry_equiv_pos_as_xyz
  1  'x, y, z'
loop_
 _atom_site_type_symbol
 _atom_site_label
 _atom_site_symmetry_multiplicity
 _atom_site_fract_x
 _atom_site_fract_y
 _atom_site_fract_z
 _atom_site_occupancy
  Sc  Sc0  1  0.500000  0.000000  0.000000  1
  Sc  Sc1  1  0.500000  0.000000  0.500000  1
  Ga  Ga2  1  0.000000  0.500000  0.500000  1
  Ga  Ga3  1  0.000000  0.500000  0.000000  1
  Pb  Pb4  1  0.028772  0.000000  0.750000  1
  Pb  Pb5  1  0.971228  0.000000  0.250000  1
  Se  Se6  1  0.501483  0.337492  0.176348  1
  Se  Se7  1  0.016808  0.731910  0.599306  1
  Se  Se8  1  0.016808  0.268090  0.900694  1
  Se  Se9  1  0.983192  0.268090  0.400694  1
  Se  Se10  1  0.498517  0.337492  0.676348  1
  Se  Se11  1  0.498517  0.662508  0.823652  1
  Se  Se12  1  0.501483  0.662508  0.323652  1
  Se  Se13  1  0.983192  0.731910  0.099306  1
  O  O14  1  0.213064  0.714413  0.352444  1
  O  O15  1  0.293812  0.787485  0.054597  1
  O  O16  1  0.786936  0.714413  0.852444  1
  O  O17  1  0.826400  0.907601  0.963312  1
  O  O18  1  0.706188  0.787485  0.554597  1
  O  O19  1  0.300465  0.348179  0.573524  1
  O  O20  1  0.173600  0.092399  0.036688  1
  O  O21  1  0.699535  0.348179  0.073524  1
  O  O22  1  0.786936  0.285587  0.647556  1
  O  O23  1  0.600639  0.134113  0.311232  1
  O  O24  1  0.699535  0.651821  0.426476  1
  O  O25  1  0.293812  0.212515  0.445403  1
  O  O26  1  0.600639  0.865887  0.188768  1
  O  O27  1  0.826400  0.092399  0.536688  1
  O  O28  1  0.399361  0.134113  0.811232  1
  O  O29  1  0.060184  0.439635  0.895668  1
  O  O30  1  0.706188  0.212515  0.945403  1
  O  O31  1  0.939816  0.439635  0.395668  1
  O  O32  1  0.060184  0.560365  0.604332  1
  O  O33  1  0.399361  0.865887  0.688768  1
  O  O34  1  0.300465  0.651821  0.926476  1
  O  O35  1  0.173600  0.907601  0.463312  1
  O  O36  1  0.939816  0.560365  0.104332  1
  O  O37  1  0.213064  0.285587  0.147556  1
