# generated using pymatgen
data_Rb11Sb5Pb2
_symmetry_space_group_name_H-M   'P 1'
_cell_length_a   10.53727779
_cell_length_b   12.84016775
_cell_length_c   13.64528665
_cell_angle_alpha   103.54073172
_cell_angle_beta   96.60463925
_cell_angle_gamma   107.66779216
_symmetry_Int_Tables_number   1
_chemical_formula_structural   Rb11Sb5Pb2
_chemical_formula_sum   'Rb22 Sb10 Pb4'
_cell_volume   1675.37495181
_cell_formula_units_Z   2
loop_
 _symmetry_equiv_pos_site_id
 _symmetry_equiv_pos_as_xyz
  1  'x, y, z'
loop_
 _atom_site_type_symbol
 _atom_site_label
 _atom_site_symmetry_multiplicity
 _atom_site_fract_x
 _atom_site_fract_y
 _atom_site_fract_z
 _atom_site_occupancy
  Rb  Rb0  1  0.854086  0.571765  0.964358  1
  Rb  Rb1  1  0.145914  0.428235  0.035642  1
  Rb  Rb2  1  0.309377  0.895847  0.774476  1
  Rb  Rb3  1  0.690623  0.104153  0.225524  1
  Rb  Rb4  1  0.629397  0.163627  0.529369  1
  Rb  Rb5  1  0.370603  0.836373  0.470631  1
  Rb  Rb6  1  0.629216  0.672689  0.557117  1
  Rb  Rb7  1  0.370784  0.327311  0.442883  1
  Rb  Rb8  1  0.188496  0.554423  0.569603  1
  Rb  Rb9  1  0.811504  0.445577  0.430397  1
  Rb  Rb10  1  0.050731  0.704560  0.268169  1
  Rb  Rb11  1  0.949269  0.295440  0.731831  1
  Rb  Rb12  1  0.192190  0.075360  0.569179  1
  Rb  Rb13  1  0.807810  0.924640  0.430821  1
  Rb  Rb14  1  0.877143  0.097921  0.986144  1
  Rb  Rb15  1  0.122857  0.902079  0.013856  1
  Rb  Rb16  1  0.585704  0.227566  0.864415  1
  Rb  Rb17  1  0.414296  0.772434  0.135585  1
  Rb  Rb18  1  0.384672  0.244493  0.140153  1
  Rb  Rb19  1  0.615328  0.755507  0.859847  1
  Rb  Rb20  1  0.356711  0.415692  0.790074  1
  Rb  Rb21  1  0.643289  0.584308  0.209926  1
  Sb  Sb22  1  0.002325  0.764716  0.548569  1
  Sb  Sb23  1  0.997675  0.235284  0.451431  1
  Sb  Sb24  1  0.667911  0.453913  0.687727  1
  Sb  Sb25  1  0.332089  0.546087  0.312273  1
  Sb  Sb26  1  0.666195  0.977947  0.699096  1
  Sb  Sb27  1  0.333805  0.022053  0.300904  1
  Sb  Sb28  1  0.191633  0.151398  0.862381  1
  Sb  Sb29  1  0.808367  0.848602  0.137619  1
  Sb  Sb30  1  0.190008  0.630408  0.862160  1
  Sb  Sb31  1  0.809992  0.369592  0.137840  1
  Pb  Pb32  1  0.939968  0.931232  0.742928  1
  Pb  Pb33  1  0.060032  0.068768  0.257072  1
  Pb  Pb34  1  0.938771  0.666291  0.739598  1
  Pb  Pb35  1  0.061229  0.333709  0.260402  1
