# generated using pymatgen
data_Er3TiZn2Rh3
_symmetry_space_group_name_H-M   'P 1'
_cell_length_a   6.91386000
_cell_length_b   7.06865361
_cell_length_c   4.05280000
_cell_angle_alpha   90.00000000
_cell_angle_beta   90.00000000
_cell_angle_gamma   119.27820594
_symmetry_Int_Tables_number   1
_chemical_formula_structural   Er3TiZn2Rh3
_chemical_formula_sum   'Er3 Ti1 Zn2 Rh3'
_cell_volume   172.76513375
_cell_formula_units_Z   1
loop_
 _symmetry_equiv_pos_site_id
 _symmetry_equiv_pos_as_xyz
  1  'x, y, z'
loop_
 _atom_site_type_symbol
 _atom_site_label
 _atom_site_symmetry_multiplicity
 _atom_site_fract_x
 _atom_site_fract_y
 _atom_site_fract_z
 _atom_site_occupancy
  Er  Er0  1  0.393091  0.000000  0.000000  1
  Er  Er1  1  0.011885  0.427267  0.000000  1
  Er  Er2  1  0.584617  0.572732  0.000000  1
  Ti  Ti3  1  0.765049  0.000000  0.499999  1
  Zn  Zn4  1  0.242913  0.245755  0.499999  1
  Zn  Zn5  1  0.997159  0.754245  0.499999  1
  Rh  Rh6  1  0.974373  0.000000  0.000000  1
  Rh  Rh7  1  0.674641  0.318368  0.499999  1
  Rh  Rh8  1  0.356273  0.681632  0.499999  1
