# generated using pymatgen
data_Zr10Al4Sn2S
_symmetry_space_group_name_H-M   'P 1'
_cell_length_a   8.41118979
_cell_length_b   8.40940187
_cell_length_c   5.90116200
_cell_angle_alpha   90.08000861
_cell_angle_beta   89.84002345
_cell_angle_gamma   120.00705300
_symmetry_Int_Tables_number   1
_chemical_formula_structural   Zr10Al4Sn2S
_chemical_formula_sum   'Zr10 Al4 Sn2 S1'
_cell_volume   361.45825294
_cell_formula_units_Z   1
loop_
 _symmetry_equiv_pos_site_id
 _symmetry_equiv_pos_as_xyz
  1  'x, y, z'
loop_
 _atom_site_type_symbol
 _atom_site_label
 _atom_site_symmetry_multiplicity
 _atom_site_fract_x
 _atom_site_fract_y
 _atom_site_fract_z
 _atom_site_occupancy
  Zr  Zr0  1  0.008357  0.760758  0.238558  1
  Zr  Zr1  1  0.247600  0.239242  0.238558  1
  Zr  Zr2  1  0.747230  0.000000  0.244104  1
  Zr  Zr3  1  0.000332  0.251303  0.755306  1
  Zr  Zr4  1  0.749028  0.748697  0.755306  1
  Zr  Zr5  1  0.250578  0.000000  0.763356  1
  Zr  Zr6  1  0.338701  0.677849  0.505380  1
  Zr  Zr7  1  0.660854  0.322151  0.505380  1
  Zr  Zr8  1  0.659672  0.322715  0.994467  1
  Zr  Zr9  1  0.336956  0.677285  0.994467  1
  Al  Al10  1  0.396942  0.000000  0.248984  1
  Al  Al11  1  0.996993  0.604731  0.750803  1
  Al  Al12  1  0.392261  0.395269  0.750803  1
  Al  Al13  1  0.607958  0.000000  0.752497  1
  Sn  Sn14  1  0.003621  0.399284  0.249333  1
  Sn  Sn15  1  0.604337  0.600716  0.249333  1
  S  S16  1  0.998581  0.000000  0.503365  1
