# generated using pymatgen
data_Pu2TcH6
_symmetry_space_group_name_H-M   'P 1'
_cell_length_a   5.10749748
_cell_length_b   5.10749677
_cell_length_c   5.10749700
_cell_angle_alpha   60.00000500
_cell_angle_beta   60.00000962
_cell_angle_gamma   60.00000927
_symmetry_Int_Tables_number   1
_chemical_formula_structural   Pu2TcH6
_chemical_formula_sum   'Pu2 Tc1 H6'
_cell_volume   94.21270277
_cell_formula_units_Z   1
loop_
 _symmetry_equiv_pos_site_id
 _symmetry_equiv_pos_as_xyz
  1  'x, y, z'
loop_
 _atom_site_type_symbol
 _atom_site_label
 _atom_site_symmetry_multiplicity
 _atom_site_fract_x
 _atom_site_fract_y
 _atom_site_fract_z
 _atom_site_occupancy
  Pu  Pu0  1  0.750000  0.750000  0.750000  1
  Pu  Pu1  1  0.250000  0.250000  0.250000  1
  Tc  Tc2  1  0.000000  0.000000  0.000000  1
  H  H3  1  0.750917  0.750917  0.249083  1
  H  H4  1  0.249083  0.750917  0.249083  1
  H  H5  1  0.750917  0.249083  0.249083  1
  H  H6  1  0.249083  0.249083  0.750917  1
  H  H7  1  0.750917  0.249083  0.750917  1
  H  H8  1  0.249083  0.750917  0.750917  1
