# generated using pymatgen
data_AlGa3(PbI8)2
_symmetry_space_group_name_H-M   'P 1'
_cell_length_a   8.35663021
_cell_length_b   8.59592593
_cell_length_c   15.77967652
_cell_angle_alpha   87.49407474
_cell_angle_beta   89.97672295
_cell_angle_gamma   89.98789132
_symmetry_Int_Tables_number   1
_chemical_formula_structural   AlGa3(PbI8)2
_chemical_formula_sum   'Al1 Ga3 Pb2 I16'
_cell_volume   1132.41702206
_cell_formula_units_Z   1
loop_
 _symmetry_equiv_pos_site_id
 _symmetry_equiv_pos_as_xyz
  1  'x, y, z'
loop_
 _atom_site_type_symbol
 _atom_site_label
 _atom_site_symmetry_multiplicity
 _atom_site_fract_x
 _atom_site_fract_y
 _atom_site_fract_z
 _atom_site_occupancy
  Al  Al0  1  0.429292  0.641717  0.277626  1
  Ga  Ga1  1  0.933642  0.221685  0.579458  1
  Ga  Ga2  1  0.066295  0.221703  0.079349  1
  Ga  Ga3  1  0.570678  0.641475  0.777300  1
  Pb  Pb4  1  0.753937  0.075737  0.812059  1
  Pb  Pb5  1  0.245876  0.075691  0.311954  1
  I  I6  1  0.422579  0.615569  0.639629  1
  I  I7  1  0.576107  0.615746  0.140738  1
  I  I8  1  0.870224  0.728837  0.760137  1
  I  I9  1  0.132134  0.728153  0.260201  1
  I  I10  1  0.938936  0.478021  0.495848  1
  I  I11  1  0.061134  0.477992  0.995859  1
  I  I12  1  0.921926  0.997268  0.002307  1
  I  I13  1  0.078154  0.997203  0.502247  1
  I  I14  1  0.640868  0.128041  0.615277  1
  I  I15  1  0.359166  0.128001  0.115290  1
  I  I16  1  0.559149  0.386998  0.875038  1
  I  I17  1  0.440761  0.389123  0.374256  1
  I  I18  1  0.441306  0.859920  0.866869  1
  I  I19  1  0.557766  0.858125  0.366164  1
  I  I20  1  0.927029  0.233891  0.228446  1
  I  I21  1  0.073040  0.233902  0.728351  1
