# generated using pymatgen
data_Zr6Sc8Al8Ru6Rh
_symmetry_space_group_name_H-M   'P 1'
_cell_length_a   9.06940824
_cell_length_b   9.06940814
_cell_length_c   9.06940800
_cell_angle_alpha   60.00000052
_cell_angle_beta   60.00000087
_cell_angle_gamma   60.00000444
_symmetry_Int_Tables_number   1
_chemical_formula_structural   Zr6Sc8Al8Ru6Rh
_chemical_formula_sum   'Zr6 Sc8 Al8 Ru6 Rh1'
_cell_volume   527.49926460
_cell_formula_units_Z   1
loop_
 _symmetry_equiv_pos_site_id
 _symmetry_equiv_pos_as_xyz
  1  'x, y, z'
loop_
 _atom_site_type_symbol
 _atom_site_label
 _atom_site_symmetry_multiplicity
 _atom_site_fract_x
 _atom_site_fract_y
 _atom_site_fract_z
 _atom_site_occupancy
  Zr  Zr0  1  0.674983  0.674983  0.325017  1
  Zr  Zr1  1  0.325017  0.674983  0.325017  1
  Zr  Zr2  1  0.674983  0.325017  0.325017  1
  Zr  Zr3  1  0.325017  0.325017  0.674983  1
  Zr  Zr4  1  0.674983  0.325017  0.674983  1
  Zr  Zr5  1  0.325017  0.674983  0.674983  1
  Sc  Sc6  1  0.875665  0.875665  0.373003  1
  Sc  Sc7  1  0.875665  0.373003  0.875665  1
  Sc  Sc8  1  0.373003  0.875665  0.875665  1
  Sc  Sc9  1  0.875665  0.875665  0.875665  1
  Sc  Sc10  1  0.124335  0.124335  0.626997  1
  Sc  Sc11  1  0.124335  0.626997  0.124335  1
  Sc  Sc12  1  0.626997  0.124335  0.124335  1
  Sc  Sc13  1  0.124335  0.124335  0.124335  1
  Al  Al14  1  0.661651  0.661651  0.015047  1
  Al  Al15  1  0.661651  0.015047  0.661651  1
  Al  Al16  1  0.015047  0.661651  0.661651  1
  Al  Al17  1  0.661651  0.661651  0.661651  1
  Al  Al18  1  0.338349  0.338349  0.984953  1
  Al  Al19  1  0.338349  0.984953  0.338349  1
  Al  Al20  1  0.984953  0.338349  0.338349  1
  Al  Al21  1  0.338349  0.338349  0.338349  1
  Ru  Ru22  1  0.000000  0.000000  0.500000  1
  Ru  Ru23  1  0.500000  0.000000  0.500000  1
  Ru  Ru24  1  0.000000  0.500000  0.500000  1
  Ru  Ru25  1  0.500000  0.500000  0.000000  1
  Ru  Ru26  1  0.000000  0.500000  0.000000  1
  Ru  Ru27  1  0.500000  0.000000  0.000000  1
  Rh  Rh28  1  0.000000  0.000000  0.000000  1
