# generated using pymatgen
data_Sm8Tm12Si15Se
_symmetry_space_group_name_H-M   'P 1'
_cell_length_a   7.48830016
_cell_length_b   7.65721529
_cell_length_c   14.57839345
_cell_angle_alpha   89.76957298
_cell_angle_beta   86.88763566
_cell_angle_gamma   89.93938855
_symmetry_Int_Tables_number   1
_chemical_formula_structural   Sm8Tm12Si15Se
_chemical_formula_sum   'Sm8 Tm12 Si15 Se1'
_cell_volume   834.67813333
_cell_formula_units_Z   1
loop_
 _symmetry_equiv_pos_site_id
 _symmetry_equiv_pos_as_xyz
  1  'x, y, z'
loop_
 _atom_site_type_symbol
 _atom_site_label
 _atom_site_symmetry_multiplicity
 _atom_site_fract_x
 _atom_site_fract_y
 _atom_site_fract_z
 _atom_site_occupancy
  Sm  Sm0  1  0.018484  0.180821  0.099815  1
  Sm  Sm1  1  0.981786  0.821935  0.899783  1
  Sm  Sm2  1  0.482326  0.681029  0.900470  1
  Sm  Sm3  1  0.002558  0.824187  0.599190  1
  Sm  Sm4  1  0.518336  0.320193  0.100031  1
  Sm  Sm5  1  0.992697  0.172948  0.398808  1
  Sm  Sm6  1  0.500431  0.313791  0.399220  1
  Sm  Sm7  1  0.509358  0.685182  0.600159  1
  Tm  Tm8  1  0.170722  0.506408  0.752203  1
  Tm  Tm9  1  0.828654  0.494908  0.254471  1
  Tm  Tm10  1  0.326850  0.004574  0.253488  1
  Tm  Tm11  1  0.673593  0.994978  0.747090  1
  Tm  Tm12  1  0.357877  0.161704  0.622188  1
  Tm  Tm13  1  0.644801  0.832531  0.378753  1
  Tm  Tm14  1  0.144327  0.666002  0.379670  1
  Tm  Tm15  1  0.670557  0.822236  0.123333  1
  Tm  Tm16  1  0.849787  0.334228  0.619273  1
  Tm  Tm17  1  0.328830  0.178229  0.875713  1
  Tm  Tm18  1  0.829170  0.323050  0.875637  1
  Tm  Tm19  1  0.170369  0.677566  0.123520  1
  Si  Si20  1  0.046232  0.116815  0.749100  1
  Si  Si21  1  0.953296  0.884943  0.248714  1
  Si  Si22  1  0.452863  0.613271  0.249490  1
  Si  Si23  1  0.544890  0.387233  0.749230  1
  Si  Si24  1  0.291036  0.873071  0.751146  1
  Si  Si25  1  0.710409  0.124651  0.247785  1
  Si  Si26  1  0.210603  0.374978  0.248837  1
  Si  Si27  1  0.791864  0.626318  0.750511  1
  Si  Si28  1  0.795941  0.535734  0.455823  1
  Si  Si29  1  0.299821  0.961391  0.458155  1
  Si  Si30  1  0.851011  0.531916  0.039720  1
  Si  Si31  1  0.697801  0.037507  0.543348  1
  Si  Si32  1  0.147591  0.470240  0.959022  1
  Si  Si33  1  0.647571  0.032293  0.959205  1
  Si  Si34  1  0.350995  0.969585  0.040440  1
  Se  Se35  1  0.206564  0.463556  0.546660  1
