# generated using pymatgen
data_Li4Nd7Sm(ZnRh2)4
_symmetry_space_group_name_H-M   'P 1'
_cell_length_a   4.06936200
_cell_length_b   7.28852109
_cell_length_c   16.47791802
_cell_angle_alpha   89.90658237
_cell_angle_beta   90.00000000
_cell_angle_gamma   90.00000000
_symmetry_Int_Tables_number   1
_chemical_formula_structural   Li4Nd7Sm(ZnRh2)4
_chemical_formula_sum   'Li4 Nd7 Sm1 Zn4 Rh8'
_cell_volume   488.72831429
_cell_formula_units_Z   1
loop_
 _symmetry_equiv_pos_site_id
 _symmetry_equiv_pos_as_xyz
  1  'x, y, z'
loop_
 _atom_site_type_symbol
 _atom_site_label
 _atom_site_symmetry_multiplicity
 _atom_site_fract_x
 _atom_site_fract_y
 _atom_site_fract_z
 _atom_site_occupancy
  Li  Li0  1  0.750000  0.008119  0.560574  1
  Li  Li1  1  0.250000  0.632374  0.351207  1
  Li  Li2  1  0.750000  0.368410  0.648834  1
  Li  Li3  1  0.250000  0.491007  0.060490  1
  Nd  Nd4  1  0.250000  0.661012  0.560695  1
  Nd  Nd5  1  0.750000  0.333720  0.438819  1
  Nd  Nd6  1  0.750000  0.956815  0.282049  1
  Nd  Nd7  1  0.750000  0.834928  0.059650  1
  Nd  Nd8  1  0.750000  0.451521  0.215454  1
  Nd  Nd9  1  0.250000  0.042711  0.718466  1
  Nd  Nd10  1  0.250000  0.547764  0.785217  1
  Sm  Sm11  1  0.250000  0.169497  0.939200  1
  Zn  Zn12  1  0.750000  0.502500  0.941361  1
  Zn  Zn13  1  0.250000  0.993344  0.438816  1
  Zn  Zn14  1  0.250000  0.127764  0.148706  1
  Zn  Zn15  1  0.750000  0.875636  0.851104  1
  Rh  Rh16  1  0.750000  0.757388  0.439304  1
  Rh  Rh17  1  0.250000  0.241981  0.312234  1
  Rh  Rh18  1  0.750000  0.249001  0.816440  1
  Rh  Rh19  1  0.750000  0.758182  0.689492  1
  Rh  Rh20  1  0.250000  0.248273  0.559366  1
  Rh  Rh21  1  0.250000  0.752886  0.184595  1
  Rh  Rh22  1  0.750000  0.249374  0.063220  1
  Rh  Rh23  1  0.250000  0.745797  0.934706  1
