# generated using pymatgen
data_Dy18Sc2Si15Rh
_symmetry_space_group_name_H-M   'P 1'
_cell_length_a   7.37963525
_cell_length_b   7.63668062
_cell_length_c   14.49400656
_cell_angle_alpha   89.67885620
_cell_angle_beta   89.65330314
_cell_angle_gamma   90.16539087
_symmetry_Int_Tables_number   1
_chemical_formula_structural   Dy18Sc2Si15Rh
_chemical_formula_sum   'Dy18 Sc2 Si15 Rh1'
_cell_volume   816.79177022
_cell_formula_units_Z   1
loop_
 _symmetry_equiv_pos_site_id
 _symmetry_equiv_pos_as_xyz
  1  'x, y, z'
loop_
 _atom_site_type_symbol
 _atom_site_label
 _atom_site_symmetry_multiplicity
 _atom_site_fract_x
 _atom_site_fract_y
 _atom_site_fract_z
 _atom_site_occupancy
  Dy  Dy0  1  0.848462  0.487883  0.757942  1
  Dy  Dy1  1  0.353327  0.009372  0.752300  1
  Dy  Dy2  1  0.975687  0.816137  0.099776  1
  Dy  Dy3  1  0.471846  0.683457  0.399497  1
  Dy  Dy4  1  0.527809  0.320907  0.901645  1
  Dy  Dy5  1  0.029163  0.184159  0.598518  1
  Dy  Dy6  1  0.028636  0.184427  0.902934  1
  Dy  Dy7  1  0.529228  0.317760  0.597727  1
  Dy  Dy8  1  0.473535  0.683513  0.101800  1
  Dy  Dy9  1  0.970401  0.817035  0.398653  1
  Dy  Dy10  1  0.683961  0.812180  0.883476  1
  Dy  Dy11  1  0.178940  0.681638  0.621042  1
  Dy  Dy12  1  0.817425  0.334810  0.120085  1
  Dy  Dy13  1  0.314593  0.176375  0.373995  1
  Dy  Dy14  1  0.320434  0.178664  0.126083  1
  Dy  Dy15  1  0.818589  0.320902  0.374708  1
  Dy  Dy16  1  0.176746  0.675449  0.879528  1
  Dy  Dy17  1  0.683052  0.819247  0.621605  1
  Sc  Sc18  1  0.649424  0.991103  0.248671  1
  Sc  Sc19  1  0.149732  0.512441  0.247532  1
  Si  Si20  1  0.768584  0.635611  0.251180  1
  Si  Si21  1  0.268738  0.865566  0.250516  1
  Si  Si22  1  0.733745  0.123319  0.748786  1
  Si  Si23  1  0.235778  0.372953  0.746583  1
  Si  Si24  1  0.012650  0.101157  0.248222  1
  Si  Si25  1  0.516714  0.401970  0.251351  1
  Si  Si26  1  0.472256  0.606028  0.746617  1
  Si  Si27  1  0.977109  0.897413  0.748399  1
  Si  Si28  1  0.354645  0.972698  0.538891  1
  Si  Si29  1  0.646816  0.026879  0.045100  1
  Si  Si30  1  0.147210  0.471198  0.457520  1
  Si  Si31  1  0.155755  0.473670  0.044429  1
  Si  Si32  1  0.644086  0.028033  0.456819  1
  Si  Si33  1  0.353552  0.969474  0.962966  1
  Si  Si34  1  0.854222  0.528370  0.537668  1
  Rh  Rh35  1  0.857149  0.518199  0.957439  1
