# generated using pymatgen
data_Er5Hf(InPd2)6
_symmetry_space_group_name_H-M   'P 1'
_cell_length_a   4.76183805
_cell_length_b   6.70568502
_cell_length_c   14.36140708
_cell_angle_alpha   89.99449452
_cell_angle_beta   89.99937763
_cell_angle_gamma   89.99132962
_symmetry_Int_Tables_number   1
_chemical_formula_structural   Er5Hf(InPd2)6
_chemical_formula_sum   'Er5 Hf1 In6 Pd12'
_cell_volume   458.57962628
_cell_formula_units_Z   1
loop_
 _symmetry_equiv_pos_site_id
 _symmetry_equiv_pos_as_xyz
  1  'x, y, z'
loop_
 _atom_site_type_symbol
 _atom_site_label
 _atom_site_symmetry_multiplicity
 _atom_site_fract_x
 _atom_site_fract_y
 _atom_site_fract_z
 _atom_site_occupancy
  Er  Er0  1  0.999885  0.499926  0.996466  1
  Er  Er1  1  0.500053  0.000060  0.166356  1
  Er  Er2  1  0.999979  0.500036  0.333363  1
  Er  Er3  1  0.500152  0.000117  0.500246  1
  Er  Er4  1  0.999965  0.499973  0.670218  1
  Hf  Hf5  1  0.499995  0.999986  0.833284  1
  In  In6  1  0.999608  0.999821  0.002024  1
  In  In7  1  0.499952  0.500003  0.163465  1
  In  In8  1  0.999733  0.000039  0.333278  1
  In  In9  1  0.500258  0.500000  0.503287  1
  In  In10  1  0.999510  0.999819  0.664782  1
  In  In11  1  0.499920  0.499854  0.833314  1
  Pd  Pd12  1  0.500048  0.240468  0.992354  1
  Pd  Pd13  1  0.499706  0.759489  0.992301  1
  Pd  Pd14  1  0.000076  0.253588  0.166273  1
  Pd  Pd15  1  0.000512  0.746527  0.166297  1
  Pd  Pd16  1  0.500176  0.251130  0.333395  1
  Pd  Pd17  1  0.499791  0.749034  0.333384  1
  Pd  Pd18  1  0.000102  0.253483  0.500447  1
  Pd  Pd19  1  0.000505  0.746697  0.500439  1
  Pd  Pd20  1  0.500085  0.240651  0.674169  1
  Pd  Pd21  1  0.499757  0.759370  0.674217  1
  Pd  Pd22  1  0.999873  0.225466  0.833337  1
  Pd  Pd23  1  0.000355  0.774456  0.833302  1
