# generated using pymatgen
data_Nd12ZnInCo4
_symmetry_space_group_name_H-M   'P 1'
_cell_length_a   8.62897988
_cell_length_b   8.62898120
_cell_length_c   8.62898000
_cell_angle_alpha   112.64602985
_cell_angle_beta   108.66043297
_cell_angle_gamma   107.15779759
_symmetry_Int_Tables_number   1
_chemical_formula_structural   Nd12ZnInCo4
_chemical_formula_sum   'Nd12 Zn1 In1 Co4'
_cell_volume   493.37689905
_cell_formula_units_Z   1
loop_
 _symmetry_equiv_pos_site_id
 _symmetry_equiv_pos_as_xyz
  1  'x, y, z'
loop_
 _atom_site_type_symbol
 _atom_site_label
 _atom_site_symmetry_multiplicity
 _atom_site_fract_x
 _atom_site_fract_y
 _atom_site_fract_z
 _atom_site_occupancy
  Nd  Nd0  1  0.426537  0.228015  0.198521  1
  Nd  Nd1  1  0.573463  0.771985  0.801479  1
  Nd  Nd2  1  0.029494  0.228015  0.801479  1
  Nd  Nd3  1  0.970506  0.771985  0.198521  1
  Nd  Nd4  1  0.180027  0.285444  0.465469  1
  Nd  Nd5  1  0.819973  0.714556  0.534531  1
  Nd  Nd6  1  0.180027  0.714556  0.894584  1
  Nd  Nd7  1  0.819973  0.285444  0.105416  1
  Nd  Nd8  1  0.324793  0.638705  0.313912  1
  Nd  Nd9  1  0.675207  0.361295  0.686088  1
  Nd  Nd10  1  0.324793  0.010881  0.686088  1
  Nd  Nd11  1  0.675207  0.989119  0.313912  1
  Zn  Zn12  1  0.000000  0.000000  0.000000  1
  In  In13  1  0.500000  0.500000  0.000000  1
  Co  Co14  1  0.339039  0.000000  0.339039  1
  Co  Co15  1  0.660961  0.000000  0.660961  1
  Co  Co16  1  0.111912  0.611912  0.500000  1
  Co  Co17  1  0.888088  0.388088  0.500000  1
