# generated using pymatgen
data_Pr16Cd3HgPdRu3
_symmetry_space_group_name_H-M   'P 1'
_cell_length_a   10.00535848
_cell_length_b   10.05127024
_cell_length_c   10.05126916
_cell_angle_alpha   59.81216601
_cell_angle_beta   59.69295993
_cell_angle_gamma   59.69295442
_symmetry_Int_Tables_number   1
_chemical_formula_structural   Pr16Cd3HgPdRu3
_chemical_formula_sum   'Pr16 Cd3 Hg1 Pd1 Ru3'
_cell_volume   710.41770108
_cell_formula_units_Z   1
loop_
 _symmetry_equiv_pos_site_id
 _symmetry_equiv_pos_as_xyz
  1  'x, y, z'
loop_
 _atom_site_type_symbol
 _atom_site_label
 _atom_site_symmetry_multiplicity
 _atom_site_fract_x
 _atom_site_fract_y
 _atom_site_fract_z
 _atom_site_occupancy
  Pr  Pr0  1  0.342548  0.350988  0.350988  1
  Pr  Pr1  1  0.343155  0.351147  0.953158  1
  Pr  Pr2  1  0.343155  0.953158  0.351147  1
  Pr  Pr3  1  0.960769  0.345537  0.345537  1
  Pr  Pr4  1  0.814743  0.191352  0.191352  1
  Pr  Pr5  1  0.190086  0.809599  0.809599  1
  Pr  Pr6  1  0.190565  0.809115  0.190121  1
  Pr  Pr7  1  0.815375  0.192114  0.801300  1
  Pr  Pr8  1  0.190565  0.190121  0.809115  1
  Pr  Pr9  1  0.815375  0.801300  0.192114  1
  Pr  Pr10  1  0.936273  0.562282  0.562282  1
  Pr  Pr11  1  0.558439  0.939276  0.939276  1
  Pr  Pr12  1  0.558342  0.937588  0.565260  1
  Pr  Pr13  1  0.937379  0.561525  0.939995  1
  Pr  Pr14  1  0.558342  0.565260  0.937588  1
  Pr  Pr15  1  0.937379  0.939995  0.561525  1
  Cd  Cd16  1  0.579525  0.579385  0.260799  1
  Cd  Cd17  1  0.579525  0.260799  0.579385  1
  Cd  Cd18  1  0.259811  0.579770  0.579770  1
  Hg  Hg19  1  0.583131  0.582012  0.582012  1
  Pd  Pd20  1  0.575251  0.141656  0.141656  1
  Ru  Ru21  1  0.142280  0.137277  0.137277  1
  Ru  Ru22  1  0.143992  0.138765  0.579979  1
  Ru  Ru23  1  0.143992  0.579979  0.138765  1
