# generated using pymatgen
data_Y9Ho11(SiBi2)4
_symmetry_space_group_name_H-M   'P 1'
_cell_length_a   8.04972483
_cell_length_b   9.12889700
_cell_length_c   12.19068316
_cell_angle_alpha   90.00000000
_cell_angle_beta   89.94902546
_cell_angle_gamma   90.00000000
_symmetry_Int_Tables_number   1
_chemical_formula_structural   Y9Ho11(SiBi2)4
_chemical_formula_sum   'Y9 Ho11 Si4 Bi8'
_cell_volume   895.83332419
_cell_formula_units_Z   1
loop_
 _symmetry_equiv_pos_site_id
 _symmetry_equiv_pos_as_xyz
  1  'x, y, z'
loop_
 _atom_site_type_symbol
 _atom_site_label
 _atom_site_symmetry_multiplicity
 _atom_site_fract_x
 _atom_site_fract_y
 _atom_site_fract_z
 _atom_site_occupancy
  Y  Y0  1  0.342974  0.750000  0.711468  1
  Y  Y1  1  0.656973  0.250000  0.288654  1
  Y  Y2  1  0.842810  0.250000  0.788988  1
  Y  Y3  1  0.156939  0.750000  0.210874  1
  Y  Y4  1  0.868373  0.750000  0.795660  1
  Y  Y5  1  0.131627  0.250000  0.204345  1
  Y  Y6  1  0.368786  0.250000  0.704496  1
  Y  Y7  1  0.631462  0.750000  0.295509  1
  Y  Y8  1  0.041740  0.750000  0.499928  1
  Ho  Ho9  1  0.682078  0.550740  0.565512  1
  Ho  Ho10  1  0.317927  0.448994  0.434619  1
  Ho  Ho11  1  0.182376  0.449029  0.934761  1
  Ho  Ho12  1  0.317927  0.051006  0.434619  1
  Ho  Ho13  1  0.817513  0.550913  0.065190  1
  Ho  Ho14  1  0.682078  0.949260  0.565512  1
  Ho  Ho15  1  0.817513  0.949087  0.065190  1
  Ho  Ho16  1  0.182376  0.050971  0.934761  1
  Ho  Ho17  1  0.958383  0.250000  0.499831  1
  Ho  Ho18  1  0.541582  0.250000  0.999847  1
  Ho  Ho19  1  0.458197  0.750000  0.000157  1
  Si  Si20  1  0.080975  0.750000  0.981893  1
  Si  Si21  1  0.919008  0.250000  0.018009  1
  Si  Si22  1  0.581020  0.250000  0.517764  1
  Si  Si23  1  0.419878  0.750000  0.482411  1
  Bi  Bi24  1  0.572833  0.510111  0.828116  1
  Bi  Bi25  1  0.427134  0.489951  0.171943  1
  Bi  Bi26  1  0.072893  0.489646  0.672319  1
  Bi  Bi27  1  0.427134  0.010049  0.171943  1
  Bi  Bi28  1  0.926882  0.509779  0.327623  1
  Bi  Bi29  1  0.572833  0.989889  0.828116  1
  Bi  Bi30  1  0.926882  0.990221  0.327623  1
  Bi  Bi31  1  0.072893  0.010354  0.672319  1
