# generated using pymatgen
data_PrLu15
_symmetry_space_group_name_H-M   'P 1'
_cell_length_a   7.11055400
_cell_length_b   7.11055315
_cell_length_c   10.98665600
_cell_angle_alpha   90.00000000
_cell_angle_beta   90.00000000
_cell_angle_gamma   119.99999463
_symmetry_Int_Tables_number   1
_chemical_formula_structural   PrLu15
_chemical_formula_sum   'Pr1 Lu15'
_cell_volume   481.06416621
_cell_formula_units_Z   1
loop_
 _symmetry_equiv_pos_site_id
 _symmetry_equiv_pos_as_xyz
  1  'x, y, z'
loop_
 _atom_site_type_symbol
 _atom_site_label
 _atom_site_symmetry_multiplicity
 _atom_site_fract_x
 _atom_site_fract_y
 _atom_site_fract_z
 _atom_site_occupancy
  Pr  Pr0  1  0.000000  0.000000  0.500000  1
  Lu  Lu1  1  0.000000  0.000000  0.000000  1
  Lu  Lu2  1  0.001933  0.500967  0.500000  1
  Lu  Lu3  1  0.999866  0.499933  0.000000  1
  Lu  Lu4  1  0.499033  0.500967  0.500000  1
  Lu  Lu5  1  0.500067  0.499933  0.000000  1
  Lu  Lu6  1  0.499033  0.998067  0.500000  1
  Lu  Lu7  1  0.500067  0.000134  0.000000  1
  Lu  Lu8  1  0.167687  0.335375  0.247791  1
  Lu  Lu9  1  0.167687  0.335375  0.752209  1
  Lu  Lu10  1  0.167687  0.832313  0.247791  1
  Lu  Lu11  1  0.167687  0.832313  0.752209  1
  Lu  Lu12  1  0.664625  0.832313  0.247791  1
  Lu  Lu13  1  0.664625  0.832313  0.752209  1
  Lu  Lu14  1  0.666667  0.333333  0.250818  1
  Lu  Lu15  1  0.666667  0.333333  0.749182  1
