# generated using pymatgen
data_LiSc2Co8P6Rh
_symmetry_space_group_name_H-M   'P 1'
_cell_length_a   3.62281400
_cell_length_b   10.17753600
_cell_length_c   11.76308400
_cell_angle_alpha   90.00000000
_cell_angle_beta   90.00000000
_cell_angle_gamma   90.00000000
_symmetry_Int_Tables_number   1
_chemical_formula_structural   LiSc2Co8P6Rh
_chemical_formula_sum   'Li2 Sc4 Co16 P12 Rh2'
_cell_volume   433.72043325
_cell_formula_units_Z   2
loop_
 _symmetry_equiv_pos_site_id
 _symmetry_equiv_pos_as_xyz
  1  'x, y, z'
loop_
 _atom_site_type_symbol
 _atom_site_label
 _atom_site_symmetry_multiplicity
 _atom_site_fract_x
 _atom_site_fract_y
 _atom_site_fract_z
 _atom_site_occupancy
  Li  Li0  1  0.250000  0.704671  0.991430  1
  Li  Li1  1  0.250000  0.795329  0.491430  1
  Sc  Sc2  1  0.250000  0.582633  0.705433  1
  Sc  Sc3  1  0.250000  0.917367  0.205433  1
  Sc  Sc4  1  0.750000  0.424170  0.298454  1
  Sc  Sc5  1  0.750000  0.075830  0.798454  1
  Co  Co6  1  0.250000  0.409660  0.484595  1
  Co  Co7  1  0.250000  0.090340  0.984595  1
  Co  Co8  1  0.750000  0.593816  0.518310  1
  Co  Co9  1  0.750000  0.906184  0.018310  1
  Co  Co10  1  0.250000  0.225191  0.175310  1
  Co  Co11  1  0.250000  0.274810  0.675310  1
  Co  Co12  1  0.750000  0.780474  0.825943  1
  Co  Co13  1  0.750000  0.719526  0.325943  1
  Co  Co14  1  0.250000  0.880073  0.700260  1
  Co  Co15  1  0.250000  0.619927  0.200260  1
  Co  Co16  1  0.750000  0.116605  0.295759  1
  Co  Co17  1  0.750000  0.383395  0.795759  1
  Co  Co18  1  0.250000  0.463287  0.929731  1
  Co  Co19  1  0.250000  0.036713  0.429731  1
  Co  Co20  1  0.750000  0.537292  0.067154  1
  Co  Co21  1  0.750000  0.962708  0.567154  1
  P  P22  1  0.250000  0.426031  0.115958  1
  P  P23  1  0.250000  0.073969  0.615958  1
  P  P24  1  0.750000  0.578536  0.881736  1
  P  P25  1  0.750000  0.921464  0.381736  1
  P  P26  1  0.250000  0.262796  0.862109  1
  P  P27  1  0.250000  0.237204  0.362109  1
  P  P28  1  0.750000  0.735243  0.139102  1
  P  P29  1  0.750000  0.764757  0.639102  1
  P  P30  1  0.250000  0.600398  0.390992  1
  P  P31  1  0.250000  0.899602  0.890992  1
  P  P32  1  0.750000  0.407497  0.610691  1
  P  P33  1  0.750000  0.092503  0.110691  1
  Rh  Rh34  1  0.750000  0.285221  0.007032  1
  Rh  Rh35  1  0.750000  0.214779  0.507032  1
