# generated using pymatgen
data_SrNdDy2(SbAu)4
_symmetry_space_group_name_H-M   'P 1'
_cell_length_a   4.60467600
_cell_length_b   4.60467703
_cell_length_c   17.13003100
_cell_angle_alpha   90.00000000
_cell_angle_beta   90.00000000
_cell_angle_gamma   120.00000699
_symmetry_Int_Tables_number   1
_chemical_formula_structural   SrNdDy2(SbAu)4
_chemical_formula_sum   'Sr1 Nd1 Dy2 Sb4 Au4'
_cell_volume   314.54805296
_cell_formula_units_Z   1
loop_
 _symmetry_equiv_pos_site_id
 _symmetry_equiv_pos_as_xyz
  1  'x, y, z'
loop_
 _atom_site_type_symbol
 _atom_site_label
 _atom_site_symmetry_multiplicity
 _atom_site_fract_x
 _atom_site_fract_y
 _atom_site_fract_z
 _atom_site_occupancy
  Sr  Sr0  1  0.000000  0.000000  0.500000  1
  Nd  Nd1  1  0.000000  0.000000  0.000000  1
  Dy  Dy2  1  0.000000  0.000000  0.246136  1
  Dy  Dy3  1  0.000000  0.000000  0.753864  1
  Sb  Sb4  1  0.333333  0.666667  0.376230  1
  Sb  Sb5  1  0.666667  0.333333  0.623770  1
  Sb  Sb6  1  0.666667  0.333333  0.892751  1
  Sb  Sb7  1  0.333333  0.666667  0.107249  1
  Au  Au8  1  0.666667  0.333333  0.327914  1
  Au  Au9  1  0.333333  0.666667  0.672086  1
  Au  Au10  1  0.333333  0.666667  0.842682  1
  Au  Au11  1  0.666667  0.333333  0.157318  1
