# generated using pymatgen
data_Er8Nb12Si15B
_symmetry_space_group_name_H-M   'P 1'
_cell_length_a   6.82014766
_cell_length_b   7.01047659
_cell_length_c   13.36191700
_cell_angle_alpha   90.00000000
_cell_angle_beta   90.00000000
_cell_angle_gamma   89.68759608
_symmetry_Int_Tables_number   1
_chemical_formula_structural   Er8Nb12Si15B
_chemical_formula_sum   'Er8 Nb12 Si15 B1'
_cell_volume   638.85696622
_cell_formula_units_Z   1
loop_
 _symmetry_equiv_pos_site_id
 _symmetry_equiv_pos_as_xyz
  1  'x, y, z'
loop_
 _atom_site_type_symbol
 _atom_site_label
 _atom_site_symmetry_multiplicity
 _atom_site_fract_x
 _atom_site_fract_y
 _atom_site_fract_z
 _atom_site_occupancy
  Er  Er0  1  0.502866  0.667020  0.597505  1
  Er  Er1  1  0.004175  0.825674  0.901882  1
  Er  Er2  1  0.498251  0.328166  0.095412  1
  Er  Er3  1  0.997874  0.172820  0.405376  1
  Er  Er4  1  0.498251  0.328166  0.404588  1
  Er  Er5  1  0.997874  0.172820  0.094624  1
  Er  Er6  1  0.502866  0.667020  0.902495  1
  Er  Er7  1  0.004175  0.825674  0.598118  1
  Nb  Nb8  1  0.650520  0.186499  0.630436  1
  Nb  Nb9  1  0.170808  0.325385  0.871985  1
  Nb  Nb10  1  0.339401  0.825372  0.124864  1
  Nb  Nb11  1  0.838186  0.675615  0.375228  1
  Nb  Nb12  1  0.339401  0.825372  0.375136  1
  Nb  Nb13  1  0.838186  0.675615  0.124772  1
  Nb  Nb14  1  0.650520  0.186499  0.869564  1
  Nb  Nb15  1  0.170808  0.325385  0.628015  1
  Nb  Nb16  1  0.829925  0.491662  0.750000  1
  Nb  Nb17  1  0.337099  0.012256  0.750000  1
  Nb  Nb18  1  0.163337  0.508787  0.250000  1
  Nb  Nb19  1  0.663549  0.992298  0.250000  1
  Si  Si20  1  0.663889  0.964416  0.462867  1
  Si  Si21  1  0.164982  0.537368  0.038739  1
  Si  Si22  1  0.335813  0.035220  0.959559  1
  Si  Si23  1  0.837662  0.462786  0.541350  1
  Si  Si24  1  0.335813  0.035220  0.540441  1
  Si  Si25  1  0.837662  0.462786  0.958650  1
  Si  Si26  1  0.663889  0.964416  0.037133  1
  Si  Si27  1  0.164982  0.537368  0.461261  1
  Si  Si28  1  0.956609  0.123966  0.750000  1
  Si  Si29  1  0.542683  0.622389  0.250000  1
  Si  Si30  1  0.042187  0.878727  0.250000  1
  Si  Si31  1  0.703812  0.873627  0.750000  1
  Si  Si32  1  0.215775  0.616222  0.750000  1
  Si  Si33  1  0.294816  0.129382  0.250000  1
  Si  Si34  1  0.795767  0.370762  0.250000  1
  B  B35  1  0.445583  0.367241  0.750000  1
