# generated using pymatgen
data_Sc11FeIr3
_symmetry_space_group_name_H-M   'P 1'
_cell_length_a   9.43089778
_cell_length_b   9.43089781
_cell_length_c   9.43089800
_cell_angle_alpha   59.99999932
_cell_angle_beta   59.99999925
_cell_angle_gamma   60.00000362
_symmetry_Int_Tables_number   1
_chemical_formula_structural   Sc11FeIr3
_chemical_formula_sum   'Sc22 Fe2 Ir6'
_cell_volume   593.12213751
_cell_formula_units_Z   2
loop_
 _symmetry_equiv_pos_site_id
 _symmetry_equiv_pos_as_xyz
  1  'x, y, z'
loop_
 _atom_site_type_symbol
 _atom_site_label
 _atom_site_symmetry_multiplicity
 _atom_site_fract_x
 _atom_site_fract_y
 _atom_site_fract_z
 _atom_site_occupancy
  Sc  Sc0  1  0.809011  0.809011  0.190989  1
  Sc  Sc1  1  0.190989  0.809011  0.190989  1
  Sc  Sc2  1  0.809011  0.190989  0.190989  1
  Sc  Sc3  1  0.190989  0.190989  0.809011  1
  Sc  Sc4  1  0.809011  0.190989  0.809011  1
  Sc  Sc5  1  0.190989  0.809011  0.809011  1
  Sc  Sc6  1  0.614426  0.614426  0.156720  1
  Sc  Sc7  1  0.614426  0.156720  0.614426  1
  Sc  Sc8  1  0.156720  0.614426  0.614426  1
  Sc  Sc9  1  0.614426  0.614426  0.614426  1
  Sc  Sc10  1  0.385574  0.385574  0.843280  1
  Sc  Sc11  1  0.385574  0.843280  0.385574  1
  Sc  Sc12  1  0.843280  0.385574  0.385574  1
  Sc  Sc13  1  0.385574  0.385574  0.385574  1
  Sc  Sc14  1  0.842055  0.842055  0.473833  1
  Sc  Sc15  1  0.842055  0.473833  0.842055  1
  Sc  Sc16  1  0.473833  0.842055  0.842055  1
  Sc  Sc17  1  0.842055  0.842055  0.842055  1
  Sc  Sc18  1  0.157945  0.157945  0.526167  1
  Sc  Sc19  1  0.157945  0.526167  0.157945  1
  Sc  Sc20  1  0.526167  0.157945  0.157945  1
  Sc  Sc21  1  0.157945  0.157945  0.157945  1
  Fe  Fe22  1  0.000000  0.000000  0.000000  1
  Fe  Fe23  1  0.500000  0.500000  0.500000  1
  Ir  Ir24  1  0.000000  0.000000  0.500000  1
  Ir  Ir25  1  0.500000  0.000000  0.500000  1
  Ir  Ir26  1  0.000000  0.500000  0.500000  1
  Ir  Ir27  1  0.500000  0.500000  0.000000  1
  Ir  Ir28  1  0.000000  0.500000  0.000000  1
  Ir  Ir29  1  0.500000  0.000000  0.000000  1
