# generated using pymatgen
data_Nd6Y13ThSn16
_symmetry_space_group_name_H-M   'P 1'
_cell_length_a   8.12873189
_cell_length_b   8.28278596
_cell_length_c   15.63014814
_cell_angle_alpha   90.06243085
_cell_angle_beta   90.24702968
_cell_angle_gamma   89.81073830
_symmetry_Int_Tables_number   1
_chemical_formula_structural   Nd6Y13ThSn16
_chemical_formula_sum   'Nd6 Y13 Th1 Sn16'
_cell_volume   1052.33902365
_cell_formula_units_Z   1
loop_
 _symmetry_equiv_pos_site_id
 _symmetry_equiv_pos_as_xyz
  1  'x, y, z'
loop_
 _atom_site_type_symbol
 _atom_site_label
 _atom_site_symmetry_multiplicity
 _atom_site_fract_x
 _atom_site_fract_y
 _atom_site_fract_z
 _atom_site_occupancy
  Nd  Nd0  1  0.017807  0.179640  0.598517  1
  Nd  Nd1  1  0.483414  0.679130  0.403068  1
  Nd  Nd2  1  0.981707  0.821220  0.097239  1
  Nd  Nd3  1  0.482350  0.677855  0.096947  1
  Nd  Nd4  1  0.983517  0.820783  0.403172  1
  Nd  Nd5  1  0.515649  0.321753  0.596508  1
  Y  Y6  1  0.363374  0.835360  0.877453  1
  Y  Y7  1  0.862272  0.664039  0.623283  1
  Y  Y8  1  0.637192  0.164142  0.377244  1
  Y  Y9  1  0.135102  0.336055  0.122043  1
  Y  Y10  1  0.635387  0.163576  0.121918  1
  Y  Y11  1  0.137851  0.336467  0.377446  1
  Y  Y12  1  0.362334  0.837136  0.623935  1
  Y  Y13  1  0.864010  0.663092  0.877670  1
  Y  Y14  1  0.522977  0.322595  0.901259  1
  Y  Y15  1  0.195810  0.500568  0.750615  1
  Y  Y16  1  0.694955  0.997597  0.750160  1
  Y  Y17  1  0.803762  0.497828  0.250144  1
  Y  Y18  1  0.304156  0.001992  0.249634  1
  Th  Th19  1  0.016740  0.179889  0.902683  1
  Sn  Sn20  1  0.296582  0.038707  0.040997  1
  Sn  Sn21  1  0.800239  0.460673  0.458108  1
  Sn  Sn22  1  0.700153  0.961688  0.542505  1
  Sn  Sn23  1  0.205904  0.532438  0.956001  1
  Sn  Sn24  1  0.701241  0.964210  0.956931  1
  Sn  Sn25  1  0.199178  0.541008  0.542296  1
  Sn  Sn26  1  0.300378  0.039320  0.458490  1
  Sn  Sn27  1  0.796146  0.457883  0.039653  1
  Sn  Sn28  1  0.561335  0.621403  0.750344  1
  Sn  Sn29  1  0.061044  0.878345  0.751682  1
  Sn  Sn30  1  0.437775  0.377751  0.249480  1
  Sn  Sn31  1  0.937717  0.122497  0.249868  1
  Sn  Sn32  1  0.328581  0.146445  0.752321  1
  Sn  Sn33  1  0.824179  0.357151  0.750460  1
  Sn  Sn34  1  0.674786  0.856749  0.249987  1
  Sn  Sn35  1  0.174394  0.643017  0.249938  1
