# generated using pymatgen
data_NdTmRe4(SiC)2
_symmetry_space_group_name_H-M   'P 1'
_cell_length_a   5.81773105
_cell_length_b   5.81773186
_cell_length_c   7.31395700
_cell_angle_alpha   90.00000000
_cell_angle_beta   90.00000000
_cell_angle_gamma   139.91962387
_symmetry_Int_Tables_number   1
_chemical_formula_structural   NdTmRe4(SiC)2
_chemical_formula_sum   'Nd1 Tm1 Re4 Si2 C2'
_cell_volume   159.38677087
_cell_formula_units_Z   1
loop_
 _symmetry_equiv_pos_site_id
 _symmetry_equiv_pos_as_xyz
  1  'x, y, z'
loop_
 _atom_site_type_symbol
 _atom_site_label
 _atom_site_symmetry_multiplicity
 _atom_site_fract_x
 _atom_site_fract_y
 _atom_site_fract_z
 _atom_site_occupancy
  Nd  Nd0  1  0.543938  0.456062  0.250000  1
  Tm  Tm1  1  0.456201  0.543799  0.750000  1
  Re  Re2  1  0.826799  0.173201  0.059738  1
  Re  Re3  1  0.173876  0.826124  0.935173  1
  Re  Re4  1  0.173876  0.826124  0.564827  1
  Re  Re5  1  0.826799  0.173201  0.440262  1
  Si  Si6  1  0.266180  0.733820  0.250000  1
  Si  Si7  1  0.734377  0.265623  0.750000  1
  C  C8  1  0.998977  0.001023  0.992116  1
  C  C9  1  0.998977  0.001023  0.507884  1
