# generated using pymatgen
data_HoHfMn12P7
_symmetry_space_group_name_H-M   'P 1'
_cell_length_a   9.23145000
_cell_length_b   9.23144895
_cell_length_c   3.56190900
_cell_angle_alpha   90.00000000
_cell_angle_beta   90.00000000
_cell_angle_gamma   120.00000377
_symmetry_Int_Tables_number   1
_chemical_formula_structural   HoHfMn12P7
_chemical_formula_sum   'Ho1 Hf1 Mn12 P7'
_cell_volume   262.87738698
_cell_formula_units_Z   1
loop_
 _symmetry_equiv_pos_site_id
 _symmetry_equiv_pos_as_xyz
  1  'x, y, z'
loop_
 _atom_site_type_symbol
 _atom_site_label
 _atom_site_symmetry_multiplicity
 _atom_site_fract_x
 _atom_site_fract_y
 _atom_site_fract_z
 _atom_site_occupancy
  Ho  Ho0  1  0.333333  0.666667  0.500000  1
  Hf  Hf1  1  0.666667  0.333333  0.000000  1
  Mn  Mn2  1  0.046944  0.425511  0.000000  1
  Mn  Mn3  1  0.574489  0.621433  0.000000  1
  Mn  Mn4  1  0.378567  0.953056  0.000000  1
  Mn  Mn5  1  0.279450  0.157961  0.000000  1
  Mn  Mn6  1  0.842039  0.121490  0.000000  1
  Mn  Mn7  1  0.878510  0.720550  0.000000  1
  Mn  Mn8  1  0.440516  0.391984  0.500000  1
  Mn  Mn9  1  0.608016  0.048533  0.500000  1
  Mn  Mn10  1  0.951467  0.559484  0.500000  1
  Mn  Mn11  1  0.103105  0.228310  0.500000  1
  Mn  Mn12  1  0.771690  0.874797  0.500000  1
  Mn  Mn13  1  0.125203  0.896895  0.500000  1
  P  P14  1  0.289987  0.410558  0.000000  1
  P  P15  1  0.589442  0.879429  0.000000  1
  P  P16  1  0.120571  0.710013  0.000000  1
  P  P17  1  0.413680  0.131758  0.500000  1
  P  P18  1  0.868242  0.281922  0.500000  1
  P  P19  1  0.718078  0.586320  0.500000  1
  P  P20  1  0.000000  0.000000  0.000000  1
