# generated using pymatgen
data_DyLu(Co3Si2)2
_symmetry_space_group_name_H-M   'P 1'
_cell_length_a   6.22383778
_cell_length_b   6.22383808
_cell_length_c   6.22383826
_cell_angle_alpha   130.64974979
_cell_angle_beta   112.78213371
_cell_angle_gamma   87.78430728
_symmetry_Int_Tables_number   1
_chemical_formula_structural   DyLu(Co3Si2)2
_chemical_formula_sum   'Dy1 Lu1 Co6 Si4'
_cell_volume   160.59028235
_cell_formula_units_Z   1
loop_
 _symmetry_equiv_pos_site_id
 _symmetry_equiv_pos_as_xyz
  1  'x, y, z'
loop_
 _atom_site_type_symbol
 _atom_site_label
 _atom_site_symmetry_multiplicity
 _atom_site_fract_x
 _atom_site_fract_y
 _atom_site_fract_z
 _atom_site_occupancy
  Dy  Dy0  1  0.250000  0.529597  0.279597  1
  Lu  Lu1  1  0.750000  0.468295  0.718295  1
  Co  Co2  1  0.999932  0.000501  0.500433  1
  Co  Co3  1  0.500068  0.000501  0.000569  1
  Co  Co4  1  0.724461  0.001331  0.724410  1
  Co  Co5  1  0.223078  0.499949  0.724410  1
  Co  Co6  1  0.276922  0.001331  0.276871  1
  Co  Co7  1  0.775539  0.499949  0.276871  1
  Si  Si8  1  0.080112  0.873133  0.793022  1
  Si  Si9  1  0.918046  0.124298  0.206252  1
  Si  Si10  1  0.581954  0.788205  0.206252  1
  Si  Si11  1  0.419888  0.212909  0.793022  1
