# generated using pymatgen
data_Ba6Li2Ag19Sn3
_symmetry_space_group_name_H-M   'P 1'
_cell_length_a   10.01819700
_cell_length_b   10.01819580
_cell_length_c   8.52065900
_cell_angle_alpha   90.00000000
_cell_angle_beta   90.00000000
_cell_angle_gamma   120.00000068
_symmetry_Int_Tables_number   1
_chemical_formula_structural   Ba6Li2Ag19Sn3
_chemical_formula_sum   'Ba6 Li2 Ag19 Sn3'
_cell_volume   740.59861673
_cell_formula_units_Z   1
loop_
 _symmetry_equiv_pos_site_id
 _symmetry_equiv_pos_as_xyz
  1  'x, y, z'
loop_
 _atom_site_type_symbol
 _atom_site_label
 _atom_site_symmetry_multiplicity
 _atom_site_fract_x
 _atom_site_fract_y
 _atom_site_fract_z
 _atom_site_occupancy
  Ba  Ba0  1  0.521354  0.042708  0.244619  1
  Ba  Ba1  1  0.474635  0.949270  0.752371  1
  Ba  Ba2  1  0.957292  0.478646  0.244619  1
  Ba  Ba3  1  0.050730  0.525365  0.752371  1
  Ba  Ba4  1  0.521354  0.478646  0.244619  1
  Ba  Ba5  1  0.474635  0.525365  0.752371  1
  Li  Li6  1  0.000000  0.000000  0.001102  1
  Li  Li7  1  0.000000  0.000000  0.501920  1
  Ag  Ag8  1  0.162430  0.324860  0.062653  1
  Ag  Ag9  1  0.835514  0.671028  0.937470  1
  Ag  Ag10  1  0.675140  0.837570  0.062653  1
  Ag  Ag11  1  0.835605  0.671209  0.563155  1
  Ag  Ag12  1  0.328972  0.164486  0.937470  1
  Ag  Ag13  1  0.164840  0.329680  0.436463  1
  Ag  Ag14  1  0.162430  0.837570  0.062653  1
  Ag  Ag15  1  0.328791  0.164395  0.563155  1
  Ag  Ag16  1  0.835514  0.164486  0.937470  1
  Ag  Ag17  1  0.670320  0.835160  0.436463  1
  Ag  Ag18  1  0.835605  0.164395  0.563155  1
  Ag  Ag19  1  0.164840  0.835160  0.436463  1
  Ag  Ag20  1  0.900018  0.800036  0.251987  1
  Ag  Ag21  1  0.099122  0.198245  0.750571  1
  Ag  Ag22  1  0.199964  0.099982  0.251987  1
  Ag  Ag23  1  0.801755  0.900878  0.750571  1
  Ag  Ag24  1  0.900018  0.099982  0.251987  1
  Ag  Ag25  1  0.099122  0.900878  0.750571  1
  Ag  Ag26  1  0.333333  0.666667  0.074863  1
  Sn  Sn27  1  0.666667  0.333333  0.924878  1
  Sn  Sn28  1  0.666667  0.333333  0.573589  1
  Sn  Sn29  1  0.333333  0.666667  0.425783  1
