# generated using pymatgen
data_Dy16In6CuRe
_symmetry_space_group_name_H-M   'P 1'
_cell_length_a   10.51348600
_cell_length_b   10.51348740
_cell_length_c   7.01451400
_cell_angle_alpha   90.00000000
_cell_angle_beta   90.00000000
_cell_angle_gamma   120.00000188
_symmetry_Int_Tables_number   1
_chemical_formula_structural   Dy16In6CuRe
_chemical_formula_sum   'Dy16 In6 Cu1 Re1'
_cell_volume   671.46247848
_cell_formula_units_Z   1
loop_
 _symmetry_equiv_pos_site_id
 _symmetry_equiv_pos_as_xyz
  1  'x, y, z'
loop_
 _atom_site_type_symbol
 _atom_site_label
 _atom_site_symmetry_multiplicity
 _atom_site_fract_x
 _atom_site_fract_y
 _atom_site_fract_z
 _atom_site_occupancy
  Dy  Dy0  1  0.472846  0.527154  0.475056  1
  Dy  Dy1  1  0.054307  0.527154  0.475056  1
  Dy  Dy2  1  0.472846  0.945693  0.475056  1
  Dy  Dy3  1  0.534074  0.465926  0.978731  1
  Dy  Dy4  1  0.931853  0.465926  0.978731  1
  Dy  Dy5  1  0.534074  0.068147  0.978731  1
  Dy  Dy6  1  0.824658  0.175342  0.271254  1
  Dy  Dy7  1  0.350682  0.175342  0.271254  1
  Dy  Dy8  1  0.824658  0.649318  0.271254  1
  Dy  Dy9  1  0.176035  0.823965  0.773948  1
  Dy  Dy10  1  0.647930  0.823965  0.773948  1
  Dy  Dy11  1  0.176035  0.352070  0.773948  1
  Dy  Dy12  1  0.333333  0.666667  0.104276  1
  Dy  Dy13  1  0.666667  0.333333  0.609144  1
  Dy  Dy14  1  0.000000  0.000000  0.500701  1
  Dy  Dy15  1  0.000000  0.000000  0.993179  1
  In  In16  1  0.164534  0.835466  0.238984  1
  In  In17  1  0.670931  0.835466  0.238984  1
  In  In18  1  0.164534  0.329069  0.238984  1
  In  In19  1  0.838435  0.161565  0.736651  1
  In  In20  1  0.323131  0.161565  0.736651  1
  In  In21  1  0.838435  0.676869  0.736651  1
  Cu  Cu22  1  0.333333  0.666667  0.703095  1
  Re  Re23  1  0.666667  0.333333  0.210290  1
