# generated using pymatgen
data_Ti4Ga2Pt3Rh7
_symmetry_space_group_name_H-M   'P 1'
_cell_length_a   4.02236400
_cell_length_b   5.43108512
_cell_length_c   10.74305283
_cell_angle_alpha   90.33453331
_cell_angle_beta   90.00000000
_cell_angle_gamma   90.00000000
_symmetry_Int_Tables_number   1
_chemical_formula_structural   Ti4Ga2Pt3Rh7
_chemical_formula_sum   'Ti4 Ga2 Pt3 Rh7'
_cell_volume   234.68659670
_cell_formula_units_Z   1
loop_
 _symmetry_equiv_pos_site_id
 _symmetry_equiv_pos_as_xyz
  1  'x, y, z'
loop_
 _atom_site_type_symbol
 _atom_site_label
 _atom_site_symmetry_multiplicity
 _atom_site_fract_x
 _atom_site_fract_y
 _atom_site_fract_z
 _atom_site_occupancy
  Ti  Ti0  1  0.500000  0.320292  0.132617  1
  Ti  Ti1  1  0.500000  0.671988  0.861483  1
  Ti  Ti2  1  0.500000  0.822321  0.367895  1
  Ti  Ti3  1  0.500000  0.189563  0.637910  1
  Ga  Ga4  1  0.000000  0.997788  0.998968  1
  Ga  Ga5  1  0.000000  0.500125  0.501977  1
  Pt  Pt6  1  0.000000  0.065975  0.244755  1
  Pt  Pt7  1  0.000000  0.932082  0.755485  1
  Pt  Pt8  1  0.000000  0.566250  0.255706  1
  Rh  Rh9  1  0.000000  0.002555  0.500558  1
  Rh  Rh10  1  0.000000  0.498204  0.999421  1
  Rh  Rh11  1  0.000000  0.431433  0.743954  1
  Rh  Rh12  1  0.500000  0.301769  0.387793  1
  Rh  Rh13  1  0.500000  0.701447  0.611623  1
  Rh  Rh14  1  0.500000  0.799512  0.111517  1
  Rh  Rh15  1  0.500000  0.198696  0.888338  1
