# generated using pymatgen
data_Sr2ZnRh3
_symmetry_space_group_name_H-M   'P 1'
_cell_length_a   5.63425478
_cell_length_b   5.40634080
_cell_length_c   5.63425500
_cell_angle_alpha   58.59538889
_cell_angle_beta   60.00000460
_cell_angle_gamma   58.59538010
_symmetry_Int_Tables_number   1
_chemical_formula_structural   Sr2ZnRh3
_chemical_formula_sum   'Sr2 Zn1 Rh3'
_cell_volume   118.71540809
_cell_formula_units_Z   1
loop_
 _symmetry_equiv_pos_site_id
 _symmetry_equiv_pos_as_xyz
  1  'x, y, z'
loop_
 _atom_site_type_symbol
 _atom_site_label
 _atom_site_symmetry_multiplicity
 _atom_site_fract_x
 _atom_site_fract_y
 _atom_site_fract_z
 _atom_site_occupancy
  Sr  Sr0  1  0.249457  0.251630  0.249457  1
  Sr  Sr1  1  0.000543  0.998370  0.000543  1
  Zn  Zn2  1  0.625000  0.125000  0.625000  1
  Rh  Rh3  1  0.625000  0.625000  0.125000  1
  Rh  Rh4  1  0.125000  0.625000  0.625000  1
  Rh  Rh5  1  0.625000  0.625000  0.625000  1
