# generated using pymatgen
data_Lu10GePb6Au
_symmetry_space_group_name_H-M   'P 1'
_cell_length_a   9.07243700
_cell_length_b   9.07243596
_cell_length_c   6.65390900
_cell_angle_alpha   90.00000000
_cell_angle_beta   90.00000000
_cell_angle_gamma   120.00000016
_symmetry_Int_Tables_number   1
_chemical_formula_structural   Lu10GePb6Au
_chemical_formula_sum   'Lu10 Ge1 Pb6 Au1'
_cell_volume   474.30244162
_cell_formula_units_Z   1
loop_
 _symmetry_equiv_pos_site_id
 _symmetry_equiv_pos_as_xyz
  1  'x, y, z'
loop_
 _atom_site_type_symbol
 _atom_site_label
 _atom_site_symmetry_multiplicity
 _atom_site_fract_x
 _atom_site_fract_y
 _atom_site_fract_z
 _atom_site_occupancy
  Lu  Lu0  1  0.253282  0.000000  0.736487  1
  Lu  Lu1  1  0.746718  0.000000  0.263513  1
  Lu  Lu2  1  0.000000  0.253282  0.736487  1
  Lu  Lu3  1  0.000000  0.746718  0.263513  1
  Lu  Lu4  1  0.746718  0.746718  0.736487  1
  Lu  Lu5  1  0.253282  0.253282  0.263513  1
  Lu  Lu6  1  0.333333  0.666667  0.500000  1
  Lu  Lu7  1  0.666667  0.333333  0.500000  1
  Lu  Lu8  1  0.666667  0.333333  0.000000  1
  Lu  Lu9  1  0.333333  0.666667  0.000000  1
  Ge  Ge10  1  0.000000  0.000000  0.500000  1
  Pb  Pb11  1  0.605494  0.000000  0.749082  1
  Pb  Pb12  1  0.394506  0.000000  0.250918  1
  Pb  Pb13  1  0.000000  0.605494  0.749082  1
  Pb  Pb14  1  0.000000  0.394506  0.250918  1
  Pb  Pb15  1  0.394506  0.394506  0.749082  1
  Pb  Pb16  1  0.605494  0.605494  0.250918  1
  Au  Au17  1  0.000000  0.000000  0.000000  1
