# generated using pymatgen
data_SrV4Si2(Pb3O8)3
_symmetry_space_group_name_H-M   'P 1'
_cell_length_a   7.44797741
_cell_length_b   10.22235823
_cell_length_c   10.25616124
_cell_angle_alpha   60.79977215
_cell_angle_beta   89.70802833
_cell_angle_gamma   89.97013672
_symmetry_Int_Tables_number   1
_chemical_formula_structural   SrV4Si2(Pb3O8)3
_chemical_formula_sum   'Sr1 V4 Si2 Pb9 O24'
_cell_volume   681.61958400
_cell_formula_units_Z   1
loop_
 _symmetry_equiv_pos_site_id
 _symmetry_equiv_pos_as_xyz
  1  'x, y, z'
loop_
 _atom_site_type_symbol
 _atom_site_label
 _atom_site_symmetry_multiplicity
 _atom_site_fract_x
 _atom_site_fract_y
 _atom_site_fract_z
 _atom_site_occupancy
  Sr  Sr0  1  0.756382  0.323698  0.339682  1
  V  V1  1  0.998326  0.598111  0.021747  1
  V  V2  1  0.500061  0.980012  0.629516  1
  V  V3  1  0.501508  0.622934  0.394920  1
  V  V4  1  0.499498  0.388237  0.985047  1
  Si  Si5  1  0.999384  0.020326  0.383199  1
  Si  Si6  1  0.996998  0.389441  0.583214  1
  Pb  Pb7  1  0.004066  0.227007  0.039837  1
  Pb  Pb8  1  0.001303  0.041839  0.727238  1
  Pb  Pb9  1  0.000091  0.735164  0.256515  1
  Pb  Pb10  1  0.497978  0.747431  0.994005  1
  Pb  Pb11  1  0.503581  0.008306  0.259138  1
  Pb  Pb12  1  0.511981  0.260438  0.739677  1
  Pb  Pb13  1  0.231085  0.668755  0.651701  1
  Pb  Pb14  1  0.767058  0.668615  0.654852  1
  Pb  Pb15  1  0.253829  0.323027  0.351832  1
  O  O16  1  0.821680  0.084058  0.272766  1
  O  O17  1  0.821068  0.274802  0.637735  1
  O  O18  1  0.814801  0.658806  0.081891  1
  O  O19  1  0.316059  0.917043  0.748278  1
  O  O20  1  0.312023  0.735109  0.349850  1
  O  O21  1  0.313098  0.333728  0.923278  1
  O  O22  1  0.683558  0.916930  0.747065  1
  O  O23  1  0.684733  0.743135  0.344225  1
  O  O24  1  0.680738  0.333987  0.915377  1
  O  O25  1  0.174545  0.080733  0.268167  1
  O  O26  1  0.175233  0.278512  0.628600  1
  O  O27  1  0.182662  0.657967  0.081502  1
  O  O28  1  0.999145  0.836903  0.491382  1
  O  O29  1  0.999178  0.509140  0.646432  1
  O  O30  1  0.999388  0.662851  0.829999  1
  O  O31  1  0.501837  0.176175  0.521974  1
  O  O32  1  0.504790  0.514826  0.306371  1
  O  O33  1  0.505859  0.294660  0.181048  1
  O  O34  1  0.999890  0.111085  0.481539  1
  O  O35  1  0.990103  0.482814  0.396233  1
  O  O36  1  0.992019  0.398589  0.123282  1
  O  O37  1  0.499161  0.896883  0.513408  1
  O  O38  1  0.504120  0.511886  0.592324  1
  O  O39  1  0.501184  0.586036  0.905156  1
