# generated using pymatgen
data_PrTh(Be2Ir3)2
_symmetry_space_group_name_H-M   'P 1'
_cell_length_a   6.50393829
_cell_length_b   6.50393687
_cell_length_c   6.50393771
_cell_angle_alpha   130.51149620
_cell_angle_beta   114.47265975
_cell_angle_gamma   86.33862570
_symmetry_Int_Tables_number   1
_chemical_formula_structural   PrTh(Be2Ir3)2
_chemical_formula_sum   'Pr1 Th1 Be4 Ir6'
_cell_volume   181.81124467
_cell_formula_units_Z   1
loop_
 _symmetry_equiv_pos_site_id
 _symmetry_equiv_pos_as_xyz
  1  'x, y, z'
loop_
 _atom_site_type_symbol
 _atom_site_label
 _atom_site_symmetry_multiplicity
 _atom_site_fract_x
 _atom_site_fract_y
 _atom_site_fract_z
 _atom_site_occupancy
  Pr  Pr0  1  0.750000  0.012407  0.262407  1
  Th  Th1  1  0.250000  0.981305  0.731305  1
  Be  Be2  1  0.078704  0.301062  0.222358  1
  Be  Be3  1  0.914098  0.691787  0.777689  1
  Be  Be4  1  0.421296  0.643654  0.222358  1
  Be  Be5  1  0.585902  0.363591  0.777689  1
  Ir  Ir6  1  0.493641  0.496665  0.490306  1
  Ir  Ir7  1  0.006359  0.496665  0.003022  1
  Ir  Ir8  1  0.262843  0.001080  0.268195  1
  Ir  Ir9  1  0.732885  0.001080  0.738237  1
  Ir  Ir10  1  0.237157  0.505352  0.738237  1
  Ir  Ir11  1  0.767115  0.505352  0.268195  1
