# generated using pymatgen
data_Lu10In8RhAu3
_symmetry_space_group_name_H-M   'P 1'
_cell_length_a   3.59047600
_cell_length_b   8.08073607
_cell_length_c   18.12221650
_cell_angle_alpha   90.08139057
_cell_angle_beta   90.00000000
_cell_angle_gamma   90.00000000
_symmetry_Int_Tables_number   1
_chemical_formula_structural   Lu10In8RhAu3
_chemical_formula_sum   'Lu10 In8 Rh1 Au3'
_cell_volume   525.79182162
_cell_formula_units_Z   1
loop_
 _symmetry_equiv_pos_site_id
 _symmetry_equiv_pos_as_xyz
  1  'x, y, z'
loop_
 _atom_site_type_symbol
 _atom_site_label
 _atom_site_symmetry_multiplicity
 _atom_site_fract_x
 _atom_site_fract_y
 _atom_site_fract_z
 _atom_site_occupancy
  Lu  Lu0  1  0.000000  0.877911  0.081458  1
  Lu  Lu1  1  0.000000  0.735982  0.282408  1
  Lu  Lu2  1  0.000000  0.743985  0.780047  1
  Lu  Lu3  1  0.000000  0.385049  0.413739  1
  Lu  Lu4  1  0.000000  0.120109  0.920531  1
  Lu  Lu5  1  0.000000  0.242614  0.718022  1
  Lu  Lu6  1  0.000000  0.497865  0.002185  1
  Lu  Lu7  1  0.000000  0.272813  0.223558  1
  Lu  Lu8  1  0.000000  0.622301  0.578985  1
  Lu  Lu9  1  0.000000  0.998847  0.497886  1
  In  In10  1  0.500000  0.207791  0.067655  1
  In  In11  1  0.500000  0.423623  0.854277  1
  In  In12  1  0.500000  0.574854  0.149583  1
  In  In13  1  0.500000  0.079880  0.352131  1
  In  In14  1  0.500000  0.925337  0.644585  1
  In  In15  1  0.500000  0.788882  0.934717  1
  In  In16  1  0.500000  0.706526  0.432068  1
  In  In17  1  0.500000  0.291143  0.563971  1
  Rh  Rh18  1  0.500000  0.472173  0.304989  1
  Au  Au19  1  0.500000  0.970135  0.197971  1
  Au  Au20  1  0.500000  0.031427  0.803349  1
  Au  Au21  1  0.500000  0.530753  0.695885  1
