# generated using pymatgen
data_Hf3Al2InPdPt2
_symmetry_space_group_name_H-M   'P 1'
_cell_length_a   7.30595241
_cell_length_b   7.27728056
_cell_length_c   7.09513518
_cell_angle_alpha   89.99999910
_cell_angle_beta   90.05343822
_cell_angle_gamma   119.87025837
_symmetry_Int_Tables_number   1
_chemical_formula_structural   Hf3Al2InPdPt2
_chemical_formula_sum   'Hf6 Al4 In2 Pd2 Pt4'
_cell_volume   327.11714690
_cell_formula_units_Z   2
loop_
 _symmetry_equiv_pos_site_id
 _symmetry_equiv_pos_as_xyz
  1  'x, y, z'
loop_
 _atom_site_type_symbol
 _atom_site_label
 _atom_site_symmetry_multiplicity
 _atom_site_fract_x
 _atom_site_fract_y
 _atom_site_fract_z
 _atom_site_occupancy
  Hf  Hf0  1  0.586725  0.977698  0.743550  1
  Hf  Hf1  1  0.027027  0.605846  0.749360  1
  Hf  Hf2  1  0.387916  0.416784  0.749532  1
  Hf  Hf3  1  0.972973  0.578820  0.250640  1
  Hf  Hf4  1  0.612084  0.028869  0.250468  1
  Hf  Hf5  1  0.413275  0.390974  0.256450  1
  Al  Al6  1  0.000000  0.251138  0.000000  1
  Al  Al7  1  0.727140  0.724679  0.500917  1
  Al  Al8  1  0.272860  0.997538  0.499083  1
  Al  Al9  1  0.000000  0.279915  0.500000  1
  In  In10  1  0.744722  0.746304  0.999981  1
  In  In11  1  0.255278  0.001582  0.000019  1
  Pd  Pd12  1  0.000712  0.010190  0.716718  1
  Pd  Pd13  1  0.999288  0.009479  0.283282  1
  Pt  Pt14  1  0.678515  0.328980  0.962685  1
  Pt  Pt15  1  0.664638  0.332687  0.534722  1
  Pt  Pt16  1  0.335362  0.668050  0.465279  1
  Pt  Pt17  1  0.321485  0.650466  0.037315  1
