# generated using pymatgen
data_La10SiGeSb4
_symmetry_space_group_name_H-M   'P 1'
_cell_length_a   8.32525722
_cell_length_b   9.52916600
_cell_length_c   12.79764734
_cell_angle_alpha   90.00000000
_cell_angle_beta   89.97377925
_cell_angle_gamma   90.00000000
_symmetry_Int_Tables_number   1
_chemical_formula_structural   La10SiGeSb4
_chemical_formula_sum   'La20 Si2 Ge2 Sb8'
_cell_volume   1015.27255297
_cell_formula_units_Z   2
loop_
 _symmetry_equiv_pos_site_id
 _symmetry_equiv_pos_as_xyz
  1  'x, y, z'
loop_
 _atom_site_type_symbol
 _atom_site_label
 _atom_site_symmetry_multiplicity
 _atom_site_fract_x
 _atom_site_fract_y
 _atom_site_fract_z
 _atom_site_occupancy
  La  La0  1  0.029581  0.750000  0.502317  1
  La  La1  1  0.970419  0.250000  0.497683  1
  La  La2  1  0.528071  0.250000  0.997610  1
  La  La3  1  0.471929  0.750000  0.002390  1
  La  La4  1  0.863291  0.750000  0.791339  1
  La  La5  1  0.136709  0.250000  0.208661  1
  La  La6  1  0.364751  0.250000  0.707332  1
  La  La7  1  0.635249  0.750000  0.292668  1
  La  La8  1  0.694205  0.541549  0.561254  1
  La  La9  1  0.305795  0.458451  0.438746  1
  La  La10  1  0.197046  0.457511  0.937857  1
  La  La11  1  0.305795  0.041549  0.438746  1
  La  La12  1  0.802954  0.542489  0.062143  1
  La  La13  1  0.694205  0.958451  0.561254  1
  La  La14  1  0.802954  0.957511  0.062143  1
  La  La15  1  0.197046  0.042489  0.937857  1
  La  La16  1  0.343273  0.750000  0.712822  1
  La  La17  1  0.656727  0.250000  0.287178  1
  La  La18  1  0.842508  0.250000  0.785621  1
  La  La19  1  0.157492  0.750000  0.214379  1
  Si  Si20  1  0.572219  0.250000  0.516910  1
  Si  Si21  1  0.427781  0.750000  0.483090  1
  Ge  Ge22  1  0.072650  0.750000  0.982479  1
  Ge  Ge23  1  0.927350  0.250000  0.017521  1
  Sb  Sb24  1  0.576640  0.507986  0.826093  1
  Sb  Sb25  1  0.423360  0.492014  0.173907  1
  Sb  Sb26  1  0.076494  0.491974  0.673998  1
  Sb  Sb27  1  0.423360  0.007986  0.173907  1
  Sb  Sb28  1  0.923506  0.508026  0.326002  1
  Sb  Sb29  1  0.576640  0.992014  0.826093  1
  Sb  Sb30  1  0.923506  0.991974  0.326002  1
  Sb  Sb31  1  0.076494  0.008026  0.673998  1
