# generated using pymatgen
data_MnV3Fe3P4W
_symmetry_space_group_name_H-M   'P 1'
_cell_length_a   3.52360200
_cell_length_b   5.93695953
_cell_length_c   6.75527213
_cell_angle_alpha   90.03531986
_cell_angle_beta   90.00000000
_cell_angle_gamma   90.00000000
_symmetry_Int_Tables_number   1
_chemical_formula_structural   MnV3Fe3P4W
_chemical_formula_sum   'Mn1 V3 Fe3 P4 W1'
_cell_volume   141.31677000
_cell_formula_units_Z   1
loop_
 _symmetry_equiv_pos_site_id
 _symmetry_equiv_pos_as_xyz
  1  'x, y, z'
loop_
 _atom_site_type_symbol
 _atom_site_label
 _atom_site_symmetry_multiplicity
 _atom_site_fract_x
 _atom_site_fract_y
 _atom_site_fract_z
 _atom_site_occupancy
  Mn  Mn0  1  0.250000  0.644208  0.939911  1
  V  V1  1  0.750000  0.971176  0.829373  1
  V  V2  1  0.250000  0.525547  0.323641  1
  V  V3  1  0.250000  0.022647  0.173419  1
  Fe  Fe4  1  0.750000  0.354633  0.061960  1
  Fe  Fe5  1  0.750000  0.856953  0.438130  1
  Fe  Fe6  1  0.250000  0.145366  0.561655  1
  P  P7  1  0.750000  0.730179  0.127353  1
  P  P8  1  0.750000  0.226582  0.371206  1
  P  P9  1  0.250000  0.264748  0.880428  1
  P  P10  1  0.250000  0.780038  0.622563  1
  W  W11  1  0.750000  0.477922  0.670362  1
