# generated using pymatgen
data_Tb5Ho3Ta11TiSi16
_symmetry_space_group_name_H-M   'P 1'
_cell_length_a   7.05132013
_cell_length_b   7.04764501
_cell_length_c   13.00333813
_cell_angle_alpha   89.95320557
_cell_angle_beta   89.98999911
_cell_angle_gamma   90.00800837
_symmetry_Int_Tables_number   1
_chemical_formula_structural   Tb5Ho3Ta11TiSi16
_chemical_formula_sum   'Tb5 Ho3 Ta11 Ti1 Si16'
_cell_volume   646.20327217
_cell_formula_units_Z   1
loop_
 _symmetry_equiv_pos_site_id
 _symmetry_equiv_pos_as_xyz
  1  'x, y, z'
loop_
 _atom_site_type_symbol
 _atom_site_label
 _atom_site_symmetry_multiplicity
 _atom_site_fract_x
 _atom_site_fract_y
 _atom_site_fract_z
 _atom_site_occupancy
  Tb  Tb0  1  0.341947  0.002412  0.467751  1
  Tb  Tb1  1  0.497835  0.841965  0.717943  1
  Tb  Tb2  1  0.502442  0.158361  0.217985  1
  Tb  Tb3  1  0.841538  0.497423  0.281966  1
  Tb  Tb4  1  0.157884  0.502300  0.782378  1
  Ho  Ho5  1  0.658405  0.997459  0.967878  1
  Ho  Ho6  1  0.002525  0.341607  0.532224  1
  Ho  Ho7  1  0.997549  0.659042  0.031893  1
  Ta  Ta8  1  0.328563  0.328844  0.999787  1
  Ta  Ta9  1  0.171411  0.828066  0.249881  1
  Ta  Ta10  1  0.827164  0.172887  0.750125  1
  Ta  Ta11  1  0.671263  0.671014  0.499835  1
  Ta  Ta12  1  0.151907  0.007015  0.873805  1
  Ta  Ta13  1  0.492803  0.652838  0.124276  1
  Ta  Ta14  1  0.507616  0.347049  0.624219  1
  Ta  Ta15  1  0.653252  0.491586  0.876166  1
  Ta  Ta16  1  0.347590  0.507427  0.375721  1
  Ta  Ta17  1  0.846417  0.991703  0.373803  1
  Ta  Ta18  1  0.007982  0.152631  0.125959  1
  Ti  Ti19  1  0.992429  0.846380  0.626504  1
  Si  Si20  1  0.201897  0.132211  0.681943  1
  Si  Si21  1  0.366328  0.704371  0.932173  1
  Si  Si22  1  0.634539  0.296331  0.432861  1
  Si  Si23  1  0.703837  0.366163  0.067740  1
  Si  Si24  1  0.295393  0.634244  0.567724  1
  Si  Si25  1  0.796838  0.865735  0.181353  1
  Si  Si26  1  0.133632  0.203660  0.318358  1
  Si  Si27  1  0.865669  0.797631  0.817533  1
  Si  Si28  1  0.294116  0.953865  0.063377  1
  Si  Si29  1  0.545651  0.793823  0.313921  1
  Si  Si30  1  0.453868  0.206174  0.813896  1
  Si  Si31  1  0.795145  0.547035  0.685012  1
  Si  Si32  1  0.205879  0.454673  0.185902  1
  Si  Si33  1  0.709387  0.045281  0.564337  1
  Si  Si34  1  0.953863  0.294240  0.936364  1
  Si  Si35  1  0.045435  0.706554  0.437408  1
