# generated using pymatgen
data_Er2Pu3(SiB4)2
_symmetry_space_group_name_H-M   'P 1'
_cell_length_a   7.18858120
_cell_length_b   7.18858182
_cell_length_c   8.04337000
_cell_angle_alpha   90.00000000
_cell_angle_beta   90.00000000
_cell_angle_gamma   89.90205188
_symmetry_Int_Tables_number   1
_chemical_formula_structural   Er2Pu3(SiB4)2
_chemical_formula_sum   'Er4 Pu6 Si4 B16'
_cell_volume   415.64620079
_cell_formula_units_Z   2
loop_
 _symmetry_equiv_pos_site_id
 _symmetry_equiv_pos_as_xyz
  1  'x, y, z'
loop_
 _atom_site_type_symbol
 _atom_site_label
 _atom_site_symmetry_multiplicity
 _atom_site_fract_x
 _atom_site_fract_y
 _atom_site_fract_z
 _atom_site_occupancy
  Er  Er0  1  0.181766  0.318234  0.778925  1
  Er  Er1  1  0.181766  0.318234  0.221075  1
  Er  Er2  1  0.999496  0.998754  0.500000  1
  Er  Er3  1  0.501246  0.500504  0.500000  1
  Pu  Pu4  1  0.683070  0.182917  0.229952  1
  Pu  Pu5  1  0.317083  0.816930  0.770048  1
  Pu  Pu6  1  0.317083  0.816930  0.229952  1
  Pu  Pu7  1  0.816633  0.683367  0.229679  1
  Pu  Pu8  1  0.816633  0.683367  0.770321  1
  Pu  Pu9  1  0.683070  0.182917  0.770048  1
  Si  Si10  1  0.117111  0.613787  0.500000  1
  Si  Si11  1  0.886213  0.382889  0.500000  1
  Si  Si12  1  0.381834  0.118166  0.500000  1
  Si  Si13  1  0.613040  0.886960  0.500000  1
  B  B14  1  0.173665  0.038375  0.000000  1
  B  B15  1  0.826084  0.959802  0.000000  1
  B  B16  1  0.958754  0.172428  0.000000  1
  B  B17  1  0.327572  0.541246  0.000000  1
  B  B18  1  0.040031  0.825459  0.000000  1
  B  B19  1  0.674541  0.459969  0.000000  1
  B  B20  1  0.540198  0.673916  0.000000  1
  B  B21  1  0.461625  0.326335  0.000000  1
  B  B22  1  0.090269  0.588860  0.000000  1
  B  B23  1  0.911140  0.409731  0.000000  1
  B  B24  1  0.409785  0.090215  0.000000  1
  B  B25  1  0.588831  0.911169  0.000000  1
  B  B26  1  0.999738  0.999008  0.162497  1
  B  B27  1  0.999738  0.999008  0.837503  1
  B  B28  1  0.500992  0.500262  0.837503  1
  B  B29  1  0.500992  0.500262  0.162497  1
