# generated using pymatgen
data_La3Sm(EuSe4)2
_symmetry_space_group_name_H-M   'P 1'
_cell_length_a   7.83607595
_cell_length_b   7.82505515
_cell_length_c   7.82505589
_cell_angle_alpha   109.24031033
_cell_angle_beta   109.49726647
_cell_angle_gamma   109.61900842
_symmetry_Int_Tables_number   1
_chemical_formula_structural   La3Sm(EuSe4)2
_chemical_formula_sum   'La3 Sm1 Eu2 Se8'
_cell_volume   369.61827426
_cell_formula_units_Z   1
loop_
 _symmetry_equiv_pos_site_id
 _symmetry_equiv_pos_as_xyz
  1  'x, y, z'
loop_
 _atom_site_type_symbol
 _atom_site_label
 _atom_site_symmetry_multiplicity
 _atom_site_fract_x
 _atom_site_fract_y
 _atom_site_fract_z
 _atom_site_occupancy
  La  La0  1  0.998456  0.375720  0.123554  1
  La  La1  1  0.625000  0.747700  0.622700  1
  La  La2  1  0.251544  0.875099  0.877264  1
  Sm  Sm3  1  0.125000  0.001852  0.376852  1
  Eu  Eu4  1  0.749939  0.249378  0.499898  1
  Eu  Eu5  1  0.500061  0.499960  0.999440  1
  Se  Se6  1  0.517387  0.119848  0.745742  1
  Se  Se7  1  0.732613  0.978354  0.102460  1
  Se  Se8  1  0.879879  0.632112  0.399369  1
  Se  Se9  1  0.370121  0.269490  0.252234  1
  Se  Se10  1  0.878691  0.629737  0.903365  1
  Se  Se11  1  0.226315  0.474491  0.597901  1
  Se  Se12  1  0.371309  0.774675  0.251046  1
  Se  Se13  1  0.023685  0.121586  0.748175  1
