# generated using pymatgen
data_CsBa2Hg10Bi
_symmetry_space_group_name_H-M   'P 1'
_cell_length_a   9.91068572
_cell_length_b   9.91068438
_cell_length_c   9.91068622
_cell_angle_alpha   147.68705240
_cell_angle_beta   118.64305412
_cell_angle_gamma   71.06517222
_symmetry_Int_Tables_number   1
_chemical_formula_structural   CsBa2Hg10Bi
_chemical_formula_sum   'Cs1 Ba2 Hg10 Bi1'
_cell_volume   449.87440089
_cell_formula_units_Z   1
loop_
 _symmetry_equiv_pos_site_id
 _symmetry_equiv_pos_as_xyz
  1  'x, y, z'
loop_
 _atom_site_type_symbol
 _atom_site_label
 _atom_site_symmetry_multiplicity
 _atom_site_fract_x
 _atom_site_fract_y
 _atom_site_fract_z
 _atom_site_occupancy
  Cs  Cs0  1  0.000000  0.000000  0.000000  1
  Ba  Ba1  1  0.694584  0.694584  0.000000  1
  Ba  Ba2  1  0.305416  0.305416  0.000000  1
  Hg  Hg3  1  0.136854  0.852347  0.284508  1
  Hg  Hg4  1  0.863146  0.147653  0.715492  1
  Hg  Hg5  1  0.432161  0.147653  0.284508  1
  Hg  Hg6  1  0.567839  0.852347  0.715492  1
  Hg  Hg7  1  0.019311  0.666333  0.352976  1
  Hg  Hg8  1  0.980689  0.333667  0.647024  1
  Hg  Hg9  1  0.686643  0.333667  0.352976  1
  Hg  Hg10  1  0.313357  0.666333  0.647024  1
  Hg  Hg11  1  0.692244  0.500000  0.192244  1
  Hg  Hg12  1  0.307756  0.500000  0.807756  1
  Bi  Bi13  1  0.500000  0.000000  0.500000  1
