# generated using pymatgen
data_MnGa3(FeCo3)2
_symmetry_space_group_name_H-M   'P 1'
_cell_length_a   4.04852700
_cell_length_b   5.72750100
_cell_length_c   12.15221900
_cell_angle_alpha   89.99989812
_cell_angle_beta   90.00033489
_cell_angle_gamma   89.99996584
_symmetry_Int_Tables_number   1
_chemical_formula_structural   MnGa3(FeCo3)2
_chemical_formula_sum   'Mn2 Ga6 Fe4 Co12'
_cell_volume   281.78495470
_cell_formula_units_Z   2
loop_
 _symmetry_equiv_pos_site_id
 _symmetry_equiv_pos_as_xyz
  1  'x, y, z'
loop_
 _atom_site_type_symbol
 _atom_site_label
 _atom_site_symmetry_multiplicity
 _atom_site_fract_x
 _atom_site_fract_y
 _atom_site_fract_z
 _atom_site_occupancy
  Mn  Mn0  1  0.000002  0.499979  0.000209  1
  Mn  Mn1  1  0.499913  0.000015  0.166535  1
  Ga  Ga2  1  0.000000  0.000025  0.001347  1
  Ga  Ga3  1  0.499907  0.499981  0.165411  1
  Ga  Ga4  1  0.999907  0.000018  0.332186  1
  Ga  Ga5  1  0.500000  0.499971  0.500146  1
  Ga  Ga6  1  0.000088  0.000037  0.666443  1
  Ga  Ga7  1  0.500097  0.499972  0.834452  1
  Fe  Fe8  1  0.999921  0.499994  0.332518  1
  Fe  Fe9  1  0.500001  0.000002  0.499550  1
  Fe  Fe10  1  0.000079  0.499993  0.667110  1
  Fe  Fe11  1  0.500086  0.000008  0.834115  1
  Co  Co12  1  0.500002  0.248411  0.998838  1
  Co  Co13  1  0.500002  0.751590  0.998835  1
  Co  Co14  1  0.999910  0.251586  0.167864  1
  Co  Co15  1  0.999909  0.748416  0.167863  1
  Co  Co16  1  0.499916  0.251993  0.334633  1
  Co  Co17  1  0.499916  0.748010  0.334633  1
  Co  Co18  1  0.000000  0.249583  0.500043  1
  Co  Co19  1  0.000000  0.750416  0.500043  1
  Co  Co20  1  0.500083  0.250406  0.666569  1
  Co  Co21  1  0.500083  0.749595  0.666569  1
  Co  Co22  1  0.000093  0.248019  0.832045  1
  Co  Co23  1  0.000093  0.751986  0.832044  1
