# generated using pymatgen
data_TbHo4Tm15Pt16
_symmetry_space_group_name_H-M   'P 1'
_cell_length_a   7.40676502
_cell_length_b   7.48870110
_cell_length_c   14.60103601
_cell_angle_alpha   90.02074877
_cell_angle_beta   90.00422496
_cell_angle_gamma   89.96543522
_symmetry_Int_Tables_number   1
_chemical_formula_structural   TbHo4Tm15Pt16
_chemical_formula_sum   'Tb1 Ho4 Tm15 Pt16'
_cell_volume   809.87618268
_cell_formula_units_Z   1
loop_
 _symmetry_equiv_pos_site_id
 _symmetry_equiv_pos_as_xyz
  1  'x, y, z'
loop_
 _atom_site_type_symbol
 _atom_site_label
 _atom_site_symmetry_multiplicity
 _atom_site_fract_x
 _atom_site_fract_y
 _atom_site_fract_z
 _atom_site_occupancy
  Tb  Tb0  1  0.999081  0.179219  0.407081  1
  Ho  Ho1  1  0.499073  0.321483  0.407466  1
  Ho  Ho2  1  0.998837  0.178800  0.092458  1
  Ho  Ho3  1  0.500933  0.678993  0.907556  1
  Ho  Ho4  1  0.001278  0.820330  0.592772  1
  Tm  Tm5  1  0.655923  0.167492  0.622665  1
  Tm  Tm6  1  0.156063  0.332710  0.877479  1
  Tm  Tm7  1  0.343897  0.832692  0.122448  1
  Tm  Tm8  1  0.843785  0.667264  0.377372  1
  Tm  Tm9  1  0.344833  0.831896  0.377654  1
  Tm  Tm10  1  0.844002  0.667518  0.122025  1
  Tm  Tm11  1  0.655949  0.167516  0.877798  1
  Tm  Tm12  1  0.156515  0.332820  0.622495  1
  Tm  Tm13  1  0.501611  0.680073  0.593079  1
  Tm  Tm14  1  0.001706  0.819923  0.906924  1
  Tm  Tm15  1  0.498255  0.319926  0.092945  1
  Tm  Tm16  1  0.819100  0.510325  0.750031  1
  Tm  Tm17  1  0.319033  0.989593  0.750133  1
  Tm  Tm18  1  0.180982  0.489829  0.249629  1
  Tm  Tm19  1  0.680700  0.010298  0.249714  1
  Pt  Pt20  1  0.682810  0.965610  0.458748  1
  Pt  Pt21  1  0.184902  0.533252  0.041574  1
  Pt  Pt22  1  0.315161  0.033170  0.958416  1
  Pt  Pt23  1  0.815046  0.467665  0.541916  1
  Pt  Pt24  1  0.316963  0.032340  0.542185  1
  Pt  Pt25  1  0.816691  0.467012  0.958326  1
  Pt  Pt26  1  0.683324  0.967150  0.041654  1
  Pt  Pt27  1  0.183842  0.534575  0.458915  1
  Pt  Pt28  1  0.453650  0.386811  0.749862  1
  Pt  Pt29  1  0.953538  0.113275  0.750273  1
  Pt  Pt30  1  0.546215  0.613496  0.249606  1
  Pt  Pt31  1  0.046692  0.886093  0.249867  1
  Pt  Pt32  1  0.681700  0.856051  0.749849  1
  Pt  Pt33  1  0.181733  0.644041  0.750395  1
  Pt  Pt34  1  0.318877  0.144002  0.249329  1
  Pt  Pt35  1  0.817300  0.356761  0.249363  1
