# generated using pymatgen
data_La7Nd8Th(CdIr)4
_symmetry_space_group_name_H-M   'P 1'
_cell_length_a   10.03604400
_cell_length_b   10.03606211
_cell_length_c   10.07817616
_cell_angle_alpha   59.79906938
_cell_angle_beta   59.79917716
_cell_angle_gamma   60.25571016
_symmetry_Int_Tables_number   1
_chemical_formula_structural   La7Nd8Th(CdIr)4
_chemical_formula_sum   'La7 Nd8 Th1 Cd4 Ir4'
_cell_volume   716.95949694
_cell_formula_units_Z   1
loop_
 _symmetry_equiv_pos_site_id
 _symmetry_equiv_pos_as_xyz
  1  'x, y, z'
loop_
 _atom_site_type_symbol
 _atom_site_label
 _atom_site_symmetry_multiplicity
 _atom_site_fract_x
 _atom_site_fract_y
 _atom_site_fract_z
 _atom_site_occupancy
  La  La0  1  0.347412  0.347410  0.956392  1
  La  La1  1  0.350291  0.956410  0.347131  1
  La  La2  1  0.956400  0.350292  0.347139  1
  La  La3  1  0.810864  0.189172  0.189447  1
  La  La4  1  0.189524  0.809023  0.809412  1
  La  La5  1  0.189175  0.810857  0.189449  1
  La  La6  1  0.809020  0.189523  0.809406  1
  Nd  Nd7  1  0.192439  0.192432  0.807177  1
  Nd  Nd8  1  0.805693  0.805698  0.192952  1
  Nd  Nd9  1  0.939314  0.563818  0.564142  1
  Nd  Nd10  1  0.561926  0.936669  0.936331  1
  Nd  Nd11  1  0.563814  0.939316  0.564145  1
  Nd  Nd12  1  0.936669  0.561927  0.936333  1
  Nd  Nd13  1  0.562315  0.562317  0.941407  1
  Nd  Nd14  1  0.937906  0.937909  0.561013  1
  Th  Th15  1  0.344073  0.344075  0.346895  1
  Cd  Cd16  1  0.581110  0.581112  0.578485  1
  Cd  Cd17  1  0.579792  0.579790  0.257349  1
  Cd  Cd18  1  0.577610  0.257689  0.579685  1
  Cd  Cd19  1  0.257691  0.577610  0.579683  1
  Ir  Ir20  1  0.140035  0.140034  0.144684  1
  Ir  Ir21  1  0.144927  0.144925  0.571835  1
  Ir  Ir22  1  0.149140  0.572855  0.144752  1
  Ir  Ir23  1  0.572859  0.149135  0.144753  1
