# generated using pymatgen
data_Y3HoTmSi3
_symmetry_space_group_name_H-M   'P 1'
_cell_length_a   8.42622700
_cell_length_b   8.42622670
_cell_length_c   6.32439800
_cell_angle_alpha   90.00000000
_cell_angle_beta   90.00000000
_cell_angle_gamma   120.00000512
_symmetry_Int_Tables_number   1
_chemical_formula_structural   Y3HoTmSi3
_chemical_formula_sum   'Y6 Ho2 Tm2 Si6'
_cell_volume   388.88043663
_cell_formula_units_Z   2
loop_
 _symmetry_equiv_pos_site_id
 _symmetry_equiv_pos_as_xyz
  1  'x, y, z'
loop_
 _atom_site_type_symbol
 _atom_site_label
 _atom_site_symmetry_multiplicity
 _atom_site_fract_x
 _atom_site_fract_y
 _atom_site_fract_z
 _atom_site_occupancy
  Y  Y0  1  0.755786  0.755786  0.248245  1
  Y  Y1  1  0.244214  0.000000  0.248245  1
  Y  Y2  1  0.000000  0.244214  0.248245  1
  Y  Y3  1  0.244214  0.244214  0.751755  1
  Y  Y4  1  0.755786  0.000000  0.751755  1
  Y  Y5  1  0.000000  0.755786  0.751755  1
  Ho  Ho6  1  0.666667  0.333333  0.500000  1
  Ho  Ho7  1  0.333333  0.666667  0.500000  1
  Tm  Tm8  1  0.333333  0.666667  0.000000  1
  Tm  Tm9  1  0.666667  0.333333  0.000000  1
  Si  Si10  1  0.394936  0.394936  0.245033  1
  Si  Si11  1  0.605064  0.000000  0.245033  1
  Si  Si12  1  0.000000  0.605064  0.245033  1
  Si  Si13  1  0.605064  0.605064  0.754967  1
  Si  Si14  1  0.394936  0.000000  0.754967  1
  Si  Si15  1  0.000000  0.394936  0.754967  1
