# generated using pymatgen
data_Hf14ZrNb(Ir2N)4
_symmetry_space_group_name_H-M   'P 1'
_cell_length_a   8.75201143
_cell_length_b   8.74002533
_cell_length_c   8.74002491
_cell_angle_alpha   59.58621974
_cell_angle_beta   59.55088244
_cell_angle_gamma   59.55087208
_symmetry_Int_Tables_number   1
_chemical_formula_structural   Hf14ZrNb(Ir2N)4
_chemical_formula_sum   'Hf14 Zr1 Nb1 Ir8 N4'
_cell_volume   468.03521356
_cell_formula_units_Z   1
loop_
 _symmetry_equiv_pos_site_id
 _symmetry_equiv_pos_as_xyz
  1  'x, y, z'
loop_
 _atom_site_type_symbol
 _atom_site_label
 _atom_site_symmetry_multiplicity
 _atom_site_fract_x
 _atom_site_fract_y
 _atom_site_fract_z
 _atom_site_occupancy
  Hf  Hf0  1  0.124940  0.624934  0.624934  1
  Hf  Hf1  1  0.625007  0.125034  0.624770  1
  Hf  Hf2  1  0.625007  0.624770  0.125034  1
  Hf  Hf3  1  0.815599  0.815274  0.185307  1
  Hf  Hf4  1  0.182866  0.183432  0.816716  1
  Hf  Hf5  1  0.815599  0.185307  0.815274  1
  Hf  Hf6  1  0.182866  0.816716  0.183432  1
  Hf  Hf7  1  0.185658  0.814846  0.814846  1
  Hf  Hf8  1  0.816268  0.183748  0.183748  1
  Hf  Hf9  1  0.435057  0.435168  0.064560  1
  Hf  Hf10  1  0.066207  0.066372  0.433678  1
  Hf  Hf11  1  0.435057  0.064560  0.435168  1
  Hf  Hf12  1  0.066207  0.433678  0.066372  1
  Hf  Hf13  1  0.064620  0.434762  0.434762  1
  Zr  Zr14  1  0.434067  0.065709  0.065709  1
  Nb  Nb15  1  0.625312  0.624907  0.624907  1
  Ir  Ir16  1  0.767555  0.413444  0.413444  1
  Ir  Ir17  1  0.413175  0.765468  0.415997  1
  Ir  Ir18  1  0.413175  0.415997  0.765468  1
  Ir  Ir19  1  0.407714  0.408070  0.408070  1
  Ir  Ir20  1  0.482864  0.836163  0.836163  1
  Ir  Ir21  1  0.836552  0.483078  0.836321  1
  Ir  Ir22  1  0.836552  0.836321  0.483078  1
  Ir  Ir23  1  0.842759  0.841538  0.841538  1
  N  N24  1  0.627555  0.125500  0.125500  1
  N  N25  1  0.125170  0.624768  0.124890  1
  N  N26  1  0.125170  0.124890  0.624768  1
  N  N27  1  0.121420  0.125545  0.125545  1
