# generated using pymatgen
data_Sb12IrRu2Pt
_symmetry_space_group_name_H-M   'P 1'
_cell_length_a   8.13918020
_cell_length_b   8.13905580
_cell_length_c   9.41487394
_cell_angle_alpha   54.78304488
_cell_angle_beta   54.85120247
_cell_angle_gamma   70.61328363
_symmetry_Int_Tables_number   1
_chemical_formula_structural   Sb12IrRu2Pt
_chemical_formula_sum   'Sb12 Ir1 Ru2 Pt1'
_cell_volume   416.62965396
_cell_formula_units_Z   1
loop_
 _symmetry_equiv_pos_site_id
 _symmetry_equiv_pos_as_xyz
  1  'x, y, z'
loop_
 _atom_site_type_symbol
 _atom_site_label
 _atom_site_symmetry_multiplicity
 _atom_site_fract_x
 _atom_site_fract_y
 _atom_site_fract_z
 _atom_site_occupancy
  Sb  Sb0  1  0.156880  0.156205  0.178203  1
  Sb  Sb1  1  0.843120  0.843795  0.821797  1
  Sb  Sb2  1  0.844318  0.849560  0.496986  1
  Sb  Sb3  1  0.155682  0.150440  0.503014  1
  Sb  Sb4  1  0.811974  0.504409  0.336832  1
  Sb  Sb5  1  0.188026  0.495591  0.663168  1
  Sb  Sb6  1  0.505886  0.817303  0.336490  1
  Sb  Sb7  1  0.494114  0.182697  0.663510  1
  Sb  Sb8  1  0.654627  0.337300  0.850721  1
  Sb  Sb9  1  0.345373  0.662700  0.149279  1
  Sb  Sb10  1  0.663642  0.339477  0.153917  1
  Sb  Sb11  1  0.336358  0.660523  0.846083  1
  Ir  Ir12  1  0.500000  0.000000  0.500000  1
  Ru  Ru13  1  0.000000  0.500000  0.000000  1
  Ru  Ru14  1  0.500000  0.000000  0.000000  1
  Pt  Pt15  1  0.000000  0.500000  0.500000  1
