# generated using pymatgen
data_LaNd3(Tc2I)2
_symmetry_space_group_name_H-M   'P 1'
_cell_length_a   4.17927100
_cell_length_b   4.17927174
_cell_length_c   18.47012400
_cell_angle_alpha   90.00000000
_cell_angle_beta   90.00000000
_cell_angle_gamma   119.99998622
_symmetry_Int_Tables_number   1
_chemical_formula_structural   LaNd3(Tc2I)2
_chemical_formula_sum   'La1 Nd3 Tc4 I2'
_cell_volume   279.38407461
_cell_formula_units_Z   1
loop_
 _symmetry_equiv_pos_site_id
 _symmetry_equiv_pos_as_xyz
  1  'x, y, z'
loop_
 _atom_site_type_symbol
 _atom_site_label
 _atom_site_symmetry_multiplicity
 _atom_site_fract_x
 _atom_site_fract_y
 _atom_site_fract_z
 _atom_site_occupancy
  La  La0  1  0.000000  0.000000  0.113546  1
  Nd  Nd1  1  0.000000  0.000000  0.886066  1
  Nd  Nd2  1  0.000000  0.000000  0.613078  1
  Nd  Nd3  1  0.000000  0.000000  0.387437  1
  Tc  Tc4  1  0.333333  0.666667  0.515189  1
  Tc  Tc5  1  0.666667  0.333333  0.485002  1
  Tc  Tc6  1  0.666667  0.333333  0.014480  1
  Tc  Tc7  1  0.333333  0.666667  0.983193  1
  I  I8  1  0.333333  0.666667  0.252403  1
  I  I9  1  0.666667  0.333333  0.749607  1
