# generated using pymatgen
data_Pr4Ho2(GaSn)5
_symmetry_space_group_name_H-M   'P 1'
_cell_length_a   6.40367043
_cell_length_b   6.40366971
_cell_length_c   10.07538700
_cell_angle_alpha   90.00000000
_cell_angle_beta   90.00000000
_cell_angle_gamma   102.49959561
_symmetry_Int_Tables_number   1
_chemical_formula_structural   Pr4Ho2(GaSn)5
_chemical_formula_sum   'Pr4 Ho2 Ga5 Sn5'
_cell_volume   403.36835647
_cell_formula_units_Z   1
loop_
 _symmetry_equiv_pos_site_id
 _symmetry_equiv_pos_as_xyz
  1  'x, y, z'
loop_
 _atom_site_type_symbol
 _atom_site_label
 _atom_site_symmetry_multiplicity
 _atom_site_fract_x
 _atom_site_fract_y
 _atom_site_fract_z
 _atom_site_occupancy
  Pr  Pr0  1  0.201108  0.798689  0.494977  1
  Pr  Pr1  1  0.201108  0.798689  0.005023  1
  Pr  Pr2  1  0.798689  0.201108  0.494977  1
  Pr  Pr3  1  0.798689  0.201108  0.005023  1
  Ho  Ho4  1  0.649583  0.649583  0.250000  1
  Ho  Ho5  1  0.364050  0.364050  0.750000  1
  Ga  Ga6  1  0.027358  0.027358  0.250000  1
  Ga  Ga7  1  0.314592  0.314592  0.044483  1
  Ga  Ga8  1  0.682586  0.682586  0.960055  1
  Ga  Ga9  1  0.314592  0.314592  0.455517  1
  Ga  Ga10  1  0.682586  0.682586  0.539945  1
  Sn  Sn11  1  0.978687  0.978687  0.750000  1
  Sn  Sn12  1  0.483450  0.088910  0.250000  1
  Sn  Sn13  1  0.908970  0.505042  0.750000  1
  Sn  Sn14  1  0.505042  0.908970  0.750000  1
  Sn  Sn15  1  0.088910  0.483450  0.250000  1
