# generated using pymatgen
data_La2Tb19Fe8Bi7C12
_symmetry_space_group_name_H-M   'P 1'
_cell_length_a   11.19498491
_cell_length_b   11.21357977
_cell_length_c   11.19439349
_cell_angle_alpha   59.98705088
_cell_angle_beta   59.93347468
_cell_angle_gamma   60.00256892
_symmetry_Int_Tables_number   1
_chemical_formula_structural   La2Tb19Fe8Bi7C12
_chemical_formula_sum   'La2 Tb19 Fe8 Bi7 C12'
_cell_volume   993.11714712
_cell_formula_units_Z   1
loop_
 _symmetry_equiv_pos_site_id
 _symmetry_equiv_pos_as_xyz
  1  'x, y, z'
loop_
 _atom_site_type_symbol
 _atom_site_label
 _atom_site_symmetry_multiplicity
 _atom_site_fract_x
 _atom_site_fract_y
 _atom_site_fract_z
 _atom_site_occupancy
  La  La0  1  0.330613  0.999856  0.669603  1
  La  La1  1  0.501617  0.499974  0.498267  1
  Tb  Tb2  1  0.998703  0.999849  0.656035  1
  Tb  Tb3  1  0.000326  0.657800  0.341874  1
  Tb  Tb4  1  0.640232  0.638577  0.639485  1
  Tb  Tb5  1  0.998484  0.345054  0.656712  1
  Tb  Tb6  1  0.657337  0.000289  0.999774  1
  Tb  Tb7  1  0.360454  0.360464  0.918256  1
  Tb  Tb8  1  0.640745  0.080942  0.639578  1
  Tb  Tb9  1  0.658312  0.000100  0.341445  1
  Tb  Tb10  1  0.000314  0.999917  0.342433  1
  Tb  Tb11  1  0.918378  0.360481  0.360113  1
  Tb  Tb12  1  0.000559  0.656863  0.999840  1
  Tb  Tb13  1  0.360244  0.919065  0.359347  1
  Tb  Tb14  1  0.658111  0.342214  0.999576  1
  Tb  Tb15  1  0.000125  0.343208  0.999447  1
  Tb  Tb16  1  0.639790  0.639592  0.081355  1
  Tb  Tb17  1  0.360669  0.361399  0.359649  1
  Tb  Tb18  1  0.343316  0.655018  0.001345  1
  Tb  Tb19  1  0.344107  0.000153  0.001165  1
  Tb  Tb20  1  0.082011  0.639459  0.639516  1
  Fe  Fe21  1  0.193477  0.422047  0.191993  1
  Fe  Fe22  1  0.807687  0.578311  0.807181  1
  Fe  Fe23  1  0.192895  0.193558  0.193251  1
  Fe  Fe24  1  0.808630  0.806227  0.578301  1
  Fe  Fe25  1  0.192926  0.193702  0.419769  1
  Fe  Fe26  1  0.579867  0.805838  0.807419  1
  Fe  Fe27  1  0.807549  0.805954  0.806831  1
  Fe  Fe28  1  0.421844  0.194045  0.191665  1
  Bi  Bi29  1  0.288051  0.292830  0.712009  1
  Bi  Bi30  1  0.288265  0.711990  0.288129  1
  Bi  Bi31  1  0.288082  0.707061  0.711777  1
  Bi  Bi32  1  0.712383  0.287675  0.287801  1
  Bi  Bi33  1  0.993289  0.000041  0.006494  1
  Bi  Bi34  1  0.711755  0.288136  0.711547  1
  Bi  Bi35  1  0.712146  0.712449  0.287515  1
  C  C36  1  0.395972  0.395384  0.103629  1
  C  C37  1  0.395963  0.105857  0.392536  1
  C  C38  1  0.605514  0.894747  0.895361  1
  C  C39  1  0.395278  0.105480  0.104150  1
  C  C40  1  0.896030  0.894656  0.604684  1
  C  C41  1  0.896378  0.604367  0.604160  1
  C  C42  1  0.605095  0.604177  0.895627  1
  C  C43  1  0.895459  0.604860  0.895211  1
  C  C44  1  0.104262  0.396097  0.394903  1
  C  C45  1  0.607348  0.894123  0.604103  1
  C  C46  1  0.104413  0.105029  0.394676  1
  C  C47  1  0.104992  0.395081  0.104465  1
