# generated using pymatgen
data_LiEr3Lu2(P2Ru3)6
_symmetry_space_group_name_H-M   'P 1'
_cell_length_a   12.59597926
_cell_length_b   12.59598030
_cell_length_c   3.95762100
_cell_angle_alpha   90.00000000
_cell_angle_beta   90.00000000
_cell_angle_gamma   121.07380111
_symmetry_Int_Tables_number   1
_chemical_formula_structural   LiEr3Lu2(P2Ru3)6
_chemical_formula_sum   'Li1 Er3 Lu2 P12 Ru18'
_cell_volume   537.80779516
_cell_formula_units_Z   1
loop_
 _symmetry_equiv_pos_site_id
 _symmetry_equiv_pos_as_xyz
  1  'x, y, z'
loop_
 _atom_site_type_symbol
 _atom_site_label
 _atom_site_symmetry_multiplicity
 _atom_site_fract_x
 _atom_site_fract_y
 _atom_site_fract_z
 _atom_site_occupancy
  Li  Li0  1  0.561393  0.561393  0.000000  1
  Er  Er1  1  0.181553  0.181553  0.500000  1
  Er  Er2  1  0.817239  0.999923  0.500000  1
  Er  Er3  1  0.999923  0.817239  0.500000  1
  Lu  Lu4  1  0.328997  0.668777  0.000000  1
  Lu  Lu5  1  0.668777  0.328997  0.000000  1
  P  P6  1  0.809681  0.809681  0.000000  1
  P  P7  1  0.182842  0.000864  0.000000  1
  P  P8  1  0.000864  0.182842  0.000000  1
  P  P9  1  0.173613  0.481717  0.500000  1
  P  P10  1  0.518150  0.698376  0.500000  1
  P  P11  1  0.307007  0.832106  0.500000  1
  P  P12  1  0.698376  0.518150  0.500000  1
  P  P13  1  0.832106  0.307007  0.500000  1
  P  P14  1  0.481717  0.173613  0.500000  1
  P  P15  1  0.366940  0.366940  0.000000  1
  P  P16  1  0.625781  0.998804  0.000000  1
  P  P17  1  0.998804  0.625781  0.000000  1
  Ru  Ru18  1  0.445027  0.000589  0.000000  1
  Ru  Ru19  1  0.000589  0.445027  0.000000  1
  Ru  Ru20  1  0.712493  0.712493  0.500000  1
  Ru  Ru21  1  0.283079  0.002364  0.500000  1
  Ru  Ru22  1  0.002364  0.283079  0.500000  1
  Ru  Ru23  1  0.186573  0.380675  0.000000  1
  Ru  Ru24  1  0.619136  0.806266  0.000000  1
  Ru  Ru25  1  0.188627  0.815357  0.000000  1
  Ru  Ru26  1  0.806266  0.619136  0.000000  1
  Ru  Ru27  1  0.815357  0.188627  0.000000  1
  Ru  Ru28  1  0.380675  0.186573  0.000000  1
  Ru  Ru29  1  0.367337  0.491789  0.500000  1
  Ru  Ru30  1  0.508011  0.876570  0.500000  1
  Ru  Ru31  1  0.129776  0.635553  0.500000  1
  Ru  Ru32  1  0.876570  0.508011  0.500000  1
  Ru  Ru33  1  0.635553  0.129776  0.500000  1
  Ru  Ru34  1  0.491789  0.367337  0.500000  1
  Ru  Ru35  1  0.997014  0.997014  0.000000  1
