# generated using pymatgen
data_Er16Cd4NiRh3
_symmetry_space_group_name_H-M   'P 1'
_cell_length_a   9.52917093
_cell_length_b   9.52917041
_cell_length_c   9.52339100
_cell_angle_alpha   59.97991376
_cell_angle_beta   59.97992252
_cell_angle_gamma   60.00000054
_symmetry_Int_Tables_number   1
_chemical_formula_structural   Er16Cd4NiRh3
_chemical_formula_sum   'Er16 Cd4 Ni1 Rh3'
_cell_volume   611.30076434
_cell_formula_units_Z   1
loop_
 _symmetry_equiv_pos_site_id
 _symmetry_equiv_pos_as_xyz
  1  'x, y, z'
loop_
 _atom_site_type_symbol
 _atom_site_label
 _atom_site_symmetry_multiplicity
 _atom_site_fract_x
 _atom_site_fract_y
 _atom_site_fract_z
 _atom_site_occupancy
  Er  Er0  1  0.936229  0.936229  0.563321  1
  Er  Er1  1  0.565188  0.565188  0.936609  1
  Er  Er2  1  0.687813  0.687813  0.311982  1
  Er  Er3  1  0.153382  0.547110  0.146125  1
  Er  Er4  1  0.686594  0.312055  0.689297  1
  Er  Er5  1  0.153382  0.153382  0.146125  1
  Er  Er6  1  0.547110  0.153382  0.146125  1
  Er  Er7  1  0.687813  0.312391  0.311982  1
  Er  Er8  1  0.149169  0.149169  0.552492  1
  Er  Er9  1  0.312391  0.687813  0.311982  1
  Er  Er10  1  0.312055  0.686594  0.689297  1
  Er  Er11  1  0.936229  0.564220  0.563321  1
  Er  Er12  1  0.933016  0.565188  0.936609  1
  Er  Er13  1  0.564220  0.936229  0.563321  1
  Er  Er14  1  0.565188  0.933016  0.936609  1
  Er  Er15  1  0.312055  0.312055  0.689297  1
  Cd  Cd16  1  0.918586  0.918586  0.244241  1
  Cd  Cd17  1  0.243442  0.918159  0.920238  1
  Cd  Cd18  1  0.918159  0.918159  0.920238  1
  Cd  Cd19  1  0.918159  0.243442  0.920238  1
  Ni  Ni20  1  0.358172  0.358172  0.925483  1
  Rh  Rh21  1  0.356362  0.928920  0.358356  1
  Rh  Rh22  1  0.928920  0.356362  0.358356  1
  Rh  Rh23  1  0.356362  0.356362  0.358356  1
