# generated using pymatgen
data_HoPdI18
_symmetry_space_group_name_H-M   'P 1'
_cell_length_a   10.22633095
_cell_length_b   10.23729683
_cell_length_c   10.14435538
_cell_angle_alpha   89.16930818
_cell_angle_beta   88.31037099
_cell_angle_gamma   88.28045455
_symmetry_Int_Tables_number   1
_chemical_formula_structural   HoPdI18
_chemical_formula_sum   'Ho1 Pd1 I18'
_cell_volume   1060.97413723
_cell_formula_units_Z   1
loop_
 _symmetry_equiv_pos_site_id
 _symmetry_equiv_pos_as_xyz
  1  'x, y, z'
loop_
 _atom_site_type_symbol
 _atom_site_label
 _atom_site_symmetry_multiplicity
 _atom_site_fract_x
 _atom_site_fract_y
 _atom_site_fract_z
 _atom_site_occupancy
  Ho  Ho0  1  0.000000  0.000000  0.000000  1
  Pd  Pd1  1  0.500000  0.500000  0.500000  1
  I  I2  1  0.773542  0.466963  0.500630  1
  I  I3  1  0.500243  0.776280  0.466912  1
  I  I4  1  0.469927  0.499569  0.764274  1
  I  I5  1  0.226458  0.533037  0.499370  1
  I  I6  1  0.499757  0.223720  0.533088  1
  I  I7  1  0.530073  0.500431  0.235726  1
  I  I8  1  0.886727  0.379839  0.745232  1
  I  I9  1  0.742501  0.888514  0.380662  1
  I  I10  1  0.381595  0.746131  0.882437  1
  I  I11  1  0.113273  0.620161  0.254768  1
  I  I12  1  0.257499  0.111486  0.619338  1
  I  I13  1  0.618405  0.253869  0.117563  1
  I  I14  1  0.015927  0.968610  0.704606  1
  I  I15  1  0.704035  0.019067  0.968302  1
  I  I16  1  0.969037  0.706011  0.015583  1
  I  I17  1  0.984073  0.031390  0.295394  1
  I  I18  1  0.295965  0.980933  0.031698  1
  I  I19  1  0.030963  0.293989  0.984417  1
