# generated using pymatgen
data_Zr6Sc8Al8Pt3Rh4
_symmetry_space_group_name_H-M   'P 1'
_cell_length_a   9.11771224
_cell_length_b   9.14312505
_cell_length_c   9.14312471
_cell_angle_alpha   59.79335627
_cell_angle_beta   59.76997042
_cell_angle_gamma   59.76997427
_symmetry_Int_Tables_number   1
_chemical_formula_structural   Zr6Sc8Al8Pt3Rh4
_chemical_formula_sum   'Zr6 Sc8 Al8 Pt3 Rh4'
_cell_volume   536.24508675
_cell_formula_units_Z   1
loop_
 _symmetry_equiv_pos_site_id
 _symmetry_equiv_pos_as_xyz
  1  'x, y, z'
loop_
 _atom_site_type_symbol
 _atom_site_label
 _atom_site_symmetry_multiplicity
 _atom_site_fract_x
 _atom_site_fract_y
 _atom_site_fract_z
 _atom_site_occupancy
  Zr  Zr0  1  0.678440  0.679637  0.321629  1
  Zr  Zr1  1  0.321560  0.678371  0.320363  1
  Zr  Zr2  1  0.679458  0.319101  0.319101  1
  Zr  Zr3  1  0.321560  0.320363  0.678371  1
  Zr  Zr4  1  0.678440  0.321629  0.679637  1
  Zr  Zr5  1  0.320542  0.680899  0.680899  1
  Sc  Sc6  1  0.875066  0.876293  0.366824  1
  Sc  Sc7  1  0.875066  0.366824  0.876293  1
  Sc  Sc8  1  0.369388  0.876464  0.876464  1
  Sc  Sc9  1  0.874713  0.880683  0.880683  1
  Sc  Sc10  1  0.124934  0.123707  0.633176  1
  Sc  Sc11  1  0.124934  0.633176  0.123707  1
  Sc  Sc12  1  0.630612  0.123536  0.123536  1
  Sc  Sc13  1  0.125287  0.119317  0.119317  1
  Al  Al14  1  0.661204  0.662339  0.014658  1
  Al  Al15  1  0.661204  0.014658  0.662339  1
  Al  Al16  1  0.014813  0.661357  0.661357  1
  Al  Al17  1  0.661901  0.661702  0.661702  1
  Al  Al18  1  0.338796  0.337661  0.985342  1
  Al  Al19  1  0.338796  0.985342  0.337661  1
  Al  Al20  1  0.985187  0.338643  0.338643  1
  Al  Al21  1  0.338099  0.338298  0.338298  1
  Pt  Pt22  1  0.000000  0.000000  0.000000  1
  Pt  Pt23  1  0.000000  0.000000  0.500000  1
  Pt  Pt24  1  0.000000  0.500000  0.000000  1
  Rh  Rh25  1  0.500000  0.000000  0.500000  1
  Rh  Rh26  1  0.000000  0.500000  0.500000  1
  Rh  Rh27  1  0.500000  0.500000  0.000000  1
  Rh  Rh28  1  0.500000  0.000000  0.000000  1
