# generated using pymatgen
data_Hf3Zr7Al2Sn5Sb
_symmetry_space_group_name_H-M   'P 1'
_cell_length_a   8.70000645
_cell_length_b   8.70798807
_cell_length_c   5.91004201
_cell_angle_alpha   89.99884163
_cell_angle_beta   89.99418487
_cell_angle_gamma   120.01616831
_symmetry_Int_Tables_number   1
_chemical_formula_structural   Hf3Zr7Al2Sn5Sb
_chemical_formula_sum   'Hf3 Zr7 Al2 Sn5 Sb1'
_cell_volume   387.69287219
_cell_formula_units_Z   1
loop_
 _symmetry_equiv_pos_site_id
 _symmetry_equiv_pos_as_xyz
  1  'x, y, z'
loop_
 _atom_site_type_symbol
 _atom_site_label
 _atom_site_symmetry_multiplicity
 _atom_site_fract_x
 _atom_site_fract_y
 _atom_site_fract_z
 _atom_site_occupancy
  Hf  Hf0  1  0.667273  0.333428  0.999440  1
  Hf  Hf1  1  0.332694  0.666098  0.999502  1
  Hf  Hf2  1  0.332728  0.666140  0.500527  1
  Zr  Zr3  1  0.729821  0.729480  0.750059  1
  Zr  Zr4  1  0.269999  0.999267  0.750022  1
  Zr  Zr5  1  0.000206  0.270691  0.750074  1
  Zr  Zr6  1  0.268443  0.270177  0.249960  1
  Zr  Zr7  1  0.731288  0.001254  0.249968  1
  Zr  Zr8  1  0.000209  0.729243  0.250010  1
  Zr  Zr9  1  0.667361  0.333404  0.500406  1
  Al  Al10  1  0.000001  0.999135  0.999088  1
  Al  Al11  1  0.000002  0.999141  0.500910  1
  Sn  Sn12  1  0.386475  0.386022  0.750340  1
  Sn  Sn13  1  0.613213  0.998904  0.750392  1
  Sn  Sn14  1  0.000319  0.615118  0.750368  1
  Sn  Sn15  1  0.613755  0.614299  0.249626  1
  Sn  Sn16  1  0.385894  0.999878  0.249636  1
  Sb  Sb17  1  0.000320  0.388318  0.249672  1
