# generated using pymatgen
data_Dy6Ti2Co16SiP11
_symmetry_space_group_name_H-M   'P 1'
_cell_length_a   3.69881200
_cell_length_b   10.61585775
_cell_length_c   12.29994168
_cell_angle_alpha   90.11938278
_cell_angle_beta   90.00000000
_cell_angle_gamma   90.00000000
_symmetry_Int_Tables_number   1
_chemical_formula_structural   Dy6Ti2Co16SiP11
_chemical_formula_sum   'Dy6 Ti2 Co16 Si1 P11'
_cell_volume   482.96922495
_cell_formula_units_Z   1
loop_
 _symmetry_equiv_pos_site_id
 _symmetry_equiv_pos_as_xyz
  1  'x, y, z'
loop_
 _atom_site_type_symbol
 _atom_site_label
 _atom_site_symmetry_multiplicity
 _atom_site_fract_x
 _atom_site_fract_y
 _atom_site_fract_z
 _atom_site_occupancy
  Dy  Dy0  1  0.000000  0.503218  0.524132  1
  Dy  Dy1  1  0.500000  0.999533  0.475385  1
  Dy  Dy2  1  0.500000  0.820761  0.204507  1
  Dy  Dy3  1  0.500000  0.179620  0.203483  1
  Dy  Dy4  1  0.000000  0.679613  0.796083  1
  Dy  Dy5  1  0.000000  0.320746  0.797759  1
  Ti  Ti6  1  0.500000  0.499882  0.153367  1
  Ti  Ti7  1  0.000000  0.999573  0.847615  1
  Co  Co8  1  0.500000  0.504763  0.704349  1
  Co  Co9  1  0.000000  0.999709  0.297027  1
  Co  Co10  1  0.000000  0.500066  0.988037  1
  Co  Co11  1  0.500000  0.999872  0.012890  1
  Co  Co12  1  0.500000  0.331948  0.994487  1
  Co  Co13  1  0.500000  0.668310  0.994886  1
  Co  Co14  1  0.000000  0.167631  0.006291  1
  Co  Co15  1  0.000000  0.831975  0.006378  1
  Co  Co16  1  0.500000  0.296328  0.427278  1
  Co  Co17  1  0.500000  0.704852  0.431268  1
  Co  Co18  1  0.000000  0.197526  0.565801  1
  Co  Co19  1  0.000000  0.796232  0.567731  1
  Co  Co20  1  0.500000  0.877613  0.706379  1
  Co  Co21  1  0.500000  0.117768  0.707865  1
  Co  Co22  1  0.000000  0.621834  0.293714  1
  Co  Co23  1  0.000000  0.379702  0.292980  1
  Si  Si24  1  0.500000  0.309013  0.614750  1
  P  P25  1  0.500000  0.500156  0.884281  1
  P  P26  1  0.000000  0.000189  0.116460  1
  P  P27  1  0.500000  0.499548  0.352294  1
  P  P28  1  0.000000  0.000308  0.648282  1
  P  P29  1  0.500000  0.691328  0.615568  1
  P  P30  1  0.000000  0.190652  0.383867  1
  P  P31  1  0.000000  0.810295  0.384010  1
  P  P32  1  0.500000  0.842662  0.892465  1
  P  P33  1  0.500000  0.156747  0.892134  1
  P  P34  1  0.000000  0.657195  0.108155  1
  P  P35  1  0.000000  0.342830  0.108043  1
