# generated using pymatgen
data_Dy2Ho(Cd2Sn)2
_symmetry_space_group_name_H-M   'P 1'
_cell_length_a   7.54193602
_cell_length_b   7.54193498
_cell_length_c   4.56829800
_cell_angle_alpha   90.00000000
_cell_angle_beta   90.00000000
_cell_angle_gamma   119.92753976
_symmetry_Int_Tables_number   1
_chemical_formula_structural   Dy2Ho(Cd2Sn)2
_chemical_formula_sum   'Dy2 Ho1 Cd4 Sn2'
_cell_volume   225.19945026
_cell_formula_units_Z   1
loop_
 _symmetry_equiv_pos_site_id
 _symmetry_equiv_pos_as_xyz
  1  'x, y, z'
loop_
 _atom_site_type_symbol
 _atom_site_label
 _atom_site_symmetry_multiplicity
 _atom_site_fract_x
 _atom_site_fract_y
 _atom_site_fract_z
 _atom_site_occupancy
  Dy  Dy0  1  0.576894  0.999927  0.000000  1
  Dy  Dy1  1  0.999927  0.576894  0.000000  1
  Ho  Ho2  1  0.422813  0.422813  0.000000  1
  Cd  Cd3  1  0.241098  0.000046  0.500000  1
  Cd  Cd4  1  0.000046  0.241098  0.500000  1
  Cd  Cd5  1  0.758793  0.758793  0.500000  1
  Cd  Cd6  1  0.000487  0.000487  0.000000  1
  Sn  Sn7  1  0.333272  0.666670  0.500000  1
  Sn  Sn8  1  0.666670  0.333272  0.500000  1
