# generated using pymatgen
data_Yb3YMnFe3B16
_symmetry_space_group_name_H-M   'P 1'
_cell_length_a   3.34906100
_cell_length_b   5.90227531
_cell_length_c   11.41544375
_cell_angle_alpha   89.97008151
_cell_angle_beta   90.00000000
_cell_angle_gamma   90.00000000
_symmetry_Int_Tables_number   1
_chemical_formula_structural   Yb3YMnFe3B16
_chemical_formula_sum   'Yb3 Y1 Mn1 Fe3 B16'
_cell_volume   225.64995958
_cell_formula_units_Z   1
loop_
 _symmetry_equiv_pos_site_id
 _symmetry_equiv_pos_as_xyz
  1  'x, y, z'
loop_
 _atom_site_type_symbol
 _atom_site_label
 _atom_site_symmetry_multiplicity
 _atom_site_fract_x
 _atom_site_fract_y
 _atom_site_fract_z
 _atom_site_occupancy
  Yb  Yb0  1  0.500000  0.374422  0.148819  1
  Yb  Yb1  1  0.500000  0.626424  0.849265  1
  Yb  Yb2  1  0.500000  0.125923  0.652429  1
  Y  Y3  1  0.500000  0.873266  0.348704  1
  Mn  Mn4  1  0.500000  0.371498  0.415341  1
  Fe  Fe5  1  0.500000  0.627375  0.583422  1
  Fe  Fe6  1  0.500000  0.127437  0.917178  1
  Fe  Fe7  1  0.500000  0.873530  0.082973  1
  B  B8  1  0.000000  0.112591  0.045937  1
  B  B9  1  0.000000  0.887835  0.953782  1
  B  B10  1  0.000000  0.388231  0.548018  1
  B  B11  1  0.000000  0.612675  0.454752  1
  B  B12  1  0.000000  0.138062  0.469041  1
  B  B13  1  0.000000  0.861118  0.533389  1
  B  B14  1  0.000000  0.360947  0.967589  1
  B  B15  1  0.000000  0.639131  0.031781  1
  B  B16  1  0.000000  0.024751  0.189127  1
  B  B17  1  0.000000  0.975555  0.810164  1
  B  B18  1  0.000000  0.476008  0.691029  1
  B  B19  1  0.000000  0.525604  0.308708  1
  B  B20  1  0.000000  0.219174  0.315718  1
  B  B21  1  0.000000  0.778935  0.683487  1
  B  B22  1  0.000000  0.279076  0.817974  1
  B  B23  1  0.000000  0.720434  0.181374  1
