# generated using pymatgen
data_La5(Yb2Pd3)2
_symmetry_space_group_name_H-M   'P 1'
_cell_length_a   7.76563683
_cell_length_b   7.74543839
_cell_length_c   7.73858794
_cell_angle_alpha   71.50188014
_cell_angle_beta   71.31334109
_cell_angle_gamma   71.09502329
_symmetry_Int_Tables_number   1
_chemical_formula_structural   La5(Yb2Pd3)2
_chemical_formula_sum   'La5 Yb4 Pd6'
_cell_volume   405.13457604
_cell_formula_units_Z   1
loop_
 _symmetry_equiv_pos_site_id
 _symmetry_equiv_pos_as_xyz
  1  'x, y, z'
loop_
 _atom_site_type_symbol
 _atom_site_label
 _atom_site_symmetry_multiplicity
 _atom_site_fract_x
 _atom_site_fract_y
 _atom_site_fract_z
 _atom_site_occupancy
  La  La0  1  0.667117  0.156951  0.396964  1
  La  La1  1  0.397026  0.669066  0.155510  1
  La  La2  1  0.845892  0.605648  0.333737  1
  La  La3  1  0.330447  0.840934  0.604929  1
  La  La4  1  0.600115  0.330739  0.842680  1
  Yb  Yb5  1  0.001006  0.005295  0.995576  1
  Yb  Yb6  1  0.805263  0.798817  0.801059  1
  Yb  Yb7  1  0.197581  0.196454  0.197306  1
  Yb  Yb8  1  0.158032  0.394729  0.671306  1
  Pd  Pd9  1  0.953366  0.166736  0.587971  1
  Pd  Pd10  1  0.584666  0.955988  0.167862  1
  Pd  Pd11  1  0.165435  0.582996  0.956757  1
  Pd  Pd12  1  0.044554  0.838834  0.411447  1
  Pd  Pd13  1  0.414591  0.041357  0.832545  1
  Pd  Pd14  1  0.834909  0.415458  0.044352  1
