# generated using pymatgen
data_Tb3YSn4Sb2Rh7
_symmetry_space_group_name_H-M   'P 1'
_cell_length_a   7.62735108
_cell_length_b   7.62421552
_cell_length_c   7.62421466
_cell_angle_alpha   109.32026778
_cell_angle_beta   109.53949956
_cell_angle_gamma   109.53950526
_symmetry_Int_Tables_number   1
_chemical_formula_structural   Tb3YSn4Sb2Rh7
_chemical_formula_sum   'Tb3 Y1 Sn4 Sb2 Rh7'
_cell_volume   341.36393584
_cell_formula_units_Z   1
loop_
 _symmetry_equiv_pos_site_id
 _symmetry_equiv_pos_as_xyz
  1  'x, y, z'
loop_
 _atom_site_type_symbol
 _atom_site_label
 _atom_site_symmetry_multiplicity
 _atom_site_fract_x
 _atom_site_fract_y
 _atom_site_fract_z
 _atom_site_occupancy
  Tb  Tb0  1  0.997809  0.498918  0.998912  1
  Tb  Tb1  1  0.997809  0.998912  0.498918  1
  Tb  Tb2  1  0.491995  0.493463  0.493463  1
  Y  Y3  1  0.492058  0.998589  0.998589  1
  Sn  Sn4  1  0.993965  0.314296  0.314296  1
  Sn  Sn5  1  0.686866  0.997139  0.690057  1
  Sn  Sn6  1  0.686866  0.690057  0.997139  1
  Sn  Sn7  1  0.994628  0.679988  0.679988  1
  Sb  Sb8  1  0.319748  0.997557  0.321890  1
  Sb  Sb9  1  0.319748  0.321890  0.997557  1
  Rh  Rh10  1  0.015389  0.007668  0.007668  1
  Rh  Rh11  1  0.502631  0.751283  0.251377  1
  Rh  Rh12  1  0.748550  0.501552  0.247079  1
  Rh  Rh13  1  0.250379  0.748998  0.501234  1
  Rh  Rh14  1  0.250379  0.501234  0.748998  1
  Rh  Rh15  1  0.502631  0.251377  0.751283  1
  Rh  Rh16  1  0.748550  0.247079  0.501552  1
