# generated using pymatgen
data_La12Ga4Ge4Ir3Rh5
_symmetry_space_group_name_H-M   'P 1'
_cell_length_a   5.82068588
_cell_length_b   8.30475661
_cell_length_c   13.61616041
_cell_angle_alpha   90.05043660
_cell_angle_beta   89.98777061
_cell_angle_gamma   90.17599629
_symmetry_Int_Tables_number   1
_chemical_formula_structural   La12Ga4Ge4Ir3Rh5
_chemical_formula_sum   'La12 Ga4 Ge4 Ir3 Rh5'
_cell_volume   658.19337150
_cell_formula_units_Z   1
loop_
 _symmetry_equiv_pos_site_id
 _symmetry_equiv_pos_as_xyz
  1  'x, y, z'
loop_
 _atom_site_type_symbol
 _atom_site_label
 _atom_site_symmetry_multiplicity
 _atom_site_fract_x
 _atom_site_fract_y
 _atom_site_fract_z
 _atom_site_occupancy
  La  La0  1  0.643327  0.253083  0.248740  1
  La  La1  1  0.357248  0.749061  0.750292  1
  La  La2  1  0.356860  0.755132  0.248966  1
  La  La3  1  0.642903  0.244400  0.750175  1
  La  La4  1  0.156061  0.396920  0.097635  1
  La  La5  1  0.843098  0.602309  0.901928  1
  La  La6  1  0.844453  0.601920  0.598192  1
  La  La7  1  0.844436  0.898079  0.402019  1
  La  La8  1  0.155101  0.399002  0.402047  1
  La  La9  1  0.152883  0.100831  0.597607  1
  La  La10  1  0.153589  0.101889  0.902089  1
  La  La11  1  0.846928  0.898664  0.098110  1
  Ga  Ga12  1  0.637276  0.250602  0.998887  1
  Ga  Ga13  1  0.362902  0.749326  0.000703  1
  Ga  Ga14  1  0.364503  0.749390  0.500155  1
  Ga  Ga15  1  0.636265  0.249403  0.500746  1
  Ge  Ge16  1  0.145183  0.109192  0.250659  1
  Ge  Ge17  1  0.855120  0.892286  0.750477  1
  Ge  Ge18  1  0.855857  0.607414  0.249805  1
  Ge  Ge19  1  0.145191  0.392995  0.749698  1
  Ir  Ir20  1  0.375249  0.032902  0.093089  1
  Ir  Ir21  1  0.624484  0.966884  0.907531  1
  Ir  Ir22  1  0.626866  0.967638  0.592645  1
  Rh  Rh23  1  0.624378  0.530726  0.407649  1
  Rh  Rh24  1  0.375209  0.031643  0.407419  1
  Rh  Rh25  1  0.375198  0.468430  0.592190  1
  Rh  Rh26  1  0.375583  0.469393  0.907564  1
  Rh  Rh27  1  0.623849  0.530487  0.092983  1
