# generated using pymatgen
data_HoTmTaB2Ru5
_symmetry_space_group_name_H-M   'P 1'
_cell_length_a   9.64468124
_cell_length_b   9.64468124
_cell_length_c   3.12747100
_cell_angle_alpha   90.00000000
_cell_angle_beta   90.00000000
_cell_angle_gamma   90.15859193
_symmetry_Int_Tables_number   1
_chemical_formula_structural   HoTmTaB2Ru5
_chemical_formula_sum   'Ho2 Tm2 Ta2 B4 Ru10'
_cell_volume   290.91585067
_cell_formula_units_Z   2
loop_
 _symmetry_equiv_pos_site_id
 _symmetry_equiv_pos_as_xyz
  1  'x, y, z'
loop_
 _atom_site_type_symbol
 _atom_site_label
 _atom_site_symmetry_multiplicity
 _atom_site_fract_x
 _atom_site_fract_y
 _atom_site_fract_z
 _atom_site_occupancy
  Ho  Ho0  1  0.825169  0.674831  0.000000  1
  Ho  Ho1  1  0.174831  0.325169  0.000000  1
  Tm  Tm2  1  0.325265  0.825265  0.000000  1
  Tm  Tm3  1  0.674735  0.174735  0.000000  1
  Ta  Ta4  1  0.500000  0.500000  0.000000  1
  Ta  Ta5  1  0.000000  0.000000  0.000000  1
  B  B6  1  0.620228  0.879772  0.000000  1
  B  B7  1  0.379772  0.120228  0.000000  1
  B  B8  1  0.120758  0.620758  0.000000  1
  B  B9  1  0.879242  0.379242  0.000000  1
  Ru  Ru10  1  0.570244  0.718452  0.500000  1
  Ru  Ru11  1  0.429756  0.281548  0.500000  1
  Ru  Ru12  1  0.072358  0.782014  0.500000  1
  Ru  Ru13  1  0.927642  0.217986  0.500000  1
  Ru  Ru14  1  0.282014  0.572358  0.500000  1
  Ru  Ru15  1  0.717986  0.427642  0.500000  1
  Ru  Ru16  1  0.218452  0.070244  0.500000  1
  Ru  Ru17  1  0.781548  0.929756  0.500000  1
  Ru  Ru18  1  0.500000  0.000000  0.500000  1
  Ru  Ru19  1  0.000000  0.500000  0.500000  1
