# generated using pymatgen
data_Tb5Nb3(Ni4P3)4
_symmetry_space_group_name_H-M   'P 1'
_cell_length_a   12.32515900
_cell_length_b   12.32515856
_cell_length_c   3.76536200
_cell_angle_alpha   90.00000000
_cell_angle_beta   90.00000000
_cell_angle_gamma   120.00000387
_symmetry_Int_Tables_number   1
_chemical_formula_structural   Tb5Nb3(Ni4P3)4
_chemical_formula_sum   'Tb5 Nb3 Ni16 P12'
_cell_volume   495.36166648
_cell_formula_units_Z   1
loop_
 _symmetry_equiv_pos_site_id
 _symmetry_equiv_pos_as_xyz
  1  'x, y, z'
loop_
 _atom_site_type_symbol
 _atom_site_label
 _atom_site_symmetry_multiplicity
 _atom_site_fract_x
 _atom_site_fract_y
 _atom_site_fract_z
 _atom_site_occupancy
  Tb  Tb0  1  0.185317  0.185317  0.500000  1
  Tb  Tb1  1  0.814683  0.000000  0.500000  1
  Tb  Tb2  1  0.000000  0.814683  0.500000  1
  Tb  Tb3  1  0.333333  0.666667  0.000000  1
  Tb  Tb4  1  0.666667  0.333333  0.000000  1
  Nb  Nb5  1  0.560318  0.560318  0.000000  1
  Nb  Nb6  1  0.439682  0.000000  0.000000  1
  Nb  Nb7  1  0.000000  0.439682  0.000000  1
  Ni  Ni8  1  0.722390  0.722390  0.500000  1
  Ni  Ni9  1  0.277610  0.000000  0.500000  1
  Ni  Ni10  1  0.000000  0.277610  0.500000  1
  Ni  Ni11  1  0.183558  0.375689  0.000000  1
  Ni  Ni12  1  0.624311  0.807869  0.000000  1
  Ni  Ni13  1  0.192131  0.816442  0.000000  1
  Ni  Ni14  1  0.807869  0.624311  0.000000  1
  Ni  Ni15  1  0.816442  0.192131  0.000000  1
  Ni  Ni16  1  0.375689  0.183558  0.000000  1
  Ni  Ni17  1  0.359563  0.483971  0.500000  1
  Ni  Ni18  1  0.516029  0.875592  0.500000  1
  Ni  Ni19  1  0.124408  0.640437  0.500000  1
  Ni  Ni20  1  0.875592  0.516029  0.500000  1
  Ni  Ni21  1  0.640437  0.124408  0.500000  1
  Ni  Ni22  1  0.483971  0.359563  0.500000  1
  Ni  Ni23  1  0.000000  0.000000  0.000000  1
  P  P24  1  0.821574  0.821574  0.000000  1
  P  P25  1  0.178426  0.000000  0.000000  1
  P  P26  1  0.000000  0.178426  0.000000  1
  P  P27  1  0.167383  0.477630  0.500000  1
  P  P28  1  0.522370  0.689753  0.500000  1
  P  P29  1  0.310247  0.832617  0.500000  1
  P  P30  1  0.689753  0.522370  0.500000  1
  P  P31  1  0.832617  0.310247  0.500000  1
  P  P32  1  0.477630  0.167383  0.500000  1
  P  P33  1  0.361759  0.361759  0.000000  1
  P  P34  1  0.638241  0.000000  0.000000  1
  P  P35  1  0.000000  0.638241  0.000000  1
