# generated using pymatgen
data_Ho2ErFe4Co5P6
_symmetry_space_group_name_H-M   'P 1'
_cell_length_a   3.69413000
_cell_length_b   10.50563900
_cell_length_c   12.09386900
_cell_angle_alpha   90.00000000
_cell_angle_beta   90.00000000
_cell_angle_gamma   90.00000000
_symmetry_Int_Tables_number   1
_chemical_formula_structural   Ho2ErFe4Co5P6
_chemical_formula_sum   'Ho4 Er2 Fe8 Co10 P12'
_cell_volume   469.35333483
_cell_formula_units_Z   2
loop_
 _symmetry_equiv_pos_site_id
 _symmetry_equiv_pos_as_xyz
  1  'x, y, z'
loop_
 _atom_site_type_symbol
 _atom_site_label
 _atom_site_symmetry_multiplicity
 _atom_site_fract_x
 _atom_site_fract_y
 _atom_site_fract_z
 _atom_site_occupancy
  Ho  Ho0  1  0.000000  0.500000  0.522823  1
  Ho  Ho1  1  0.500000  0.000000  0.476919  1
  Ho  Ho2  1  0.000000  0.681227  0.794867  1
  Ho  Ho3  1  0.000000  0.318773  0.794867  1
  Er  Er4  1  0.500000  0.818955  0.205151  1
  Er  Er5  1  0.500000  0.181045  0.205151  1
  Fe  Fe6  1  0.000000  0.500000  0.987682  1
  Fe  Fe7  1  0.500000  0.000000  0.012858  1
  Fe  Fe8  1  0.500000  0.298229  0.428784  1
  Fe  Fe9  1  0.500000  0.701771  0.428784  1
  Fe  Fe10  1  0.000000  0.201655  0.570871  1
  Fe  Fe11  1  0.000000  0.798345  0.570871  1
  Fe  Fe12  1  0.500000  0.500000  0.155597  1
  Fe  Fe13  1  0.000000  0.000000  0.844427  1
  Co  Co14  1  0.500000  0.880558  0.711644  1
  Co  Co15  1  0.500000  0.119442  0.711644  1
  Co  Co16  1  0.000000  0.619626  0.288238  1
  Co  Co17  1  0.000000  0.380374  0.288238  1
  Co  Co18  1  0.500000  0.331928  0.994181  1
  Co  Co19  1  0.500000  0.668072  0.994181  1
  Co  Co20  1  0.000000  0.167917  0.006220  1
  Co  Co21  1  0.000000  0.832083  0.006220  1
  Co  Co22  1  0.500000  0.500000  0.699688  1
  Co  Co23  1  0.000000  0.000000  0.300005  1
  P  P24  1  0.500000  0.307670  0.614521  1
  P  P25  1  0.500000  0.692330  0.614521  1
  P  P26  1  0.000000  0.192175  0.385113  1
  P  P27  1  0.000000  0.807825  0.385113  1
  P  P28  1  0.500000  0.500000  0.883241  1
  P  P29  1  0.000000  0.000000  0.117107  1
  P  P30  1  0.500000  0.848252  0.893981  1
  P  P31  1  0.500000  0.151748  0.893981  1
  P  P32  1  0.000000  0.652098  0.106308  1
  P  P33  1  0.000000  0.347902  0.106308  1
  P  P34  1  0.500000  0.500000  0.342752  1
  P  P35  1  0.000000  0.000000  0.657142  1
