# generated using pymatgen
data_Ti12SnPS15
_symmetry_space_group_name_H-M   'P 1'
_cell_length_a   6.83008006
_cell_length_b   9.55616868
_cell_length_c   10.10191300
_cell_angle_alpha   117.99982722
_cell_angle_beta   109.79140434
_cell_angle_gamma   90.00234248
_symmetry_Int_Tables_number   1
_chemical_formula_structural   Ti12SnPS15
_chemical_formula_sum   'Ti12 Sn1 P1 S15'
_cell_volume   537.65521421
_cell_formula_units_Z   1
loop_
 _symmetry_equiv_pos_site_id
 _symmetry_equiv_pos_as_xyz
  1  'x, y, z'
loop_
 _atom_site_type_symbol
 _atom_site_label
 _atom_site_symmetry_multiplicity
 _atom_site_fract_x
 _atom_site_fract_y
 _atom_site_fract_z
 _atom_site_occupancy
  Ti  Ti0  1  0.561446  0.356952  0.870989  1
  Ti  Ti1  1  0.065732  0.355530  0.872003  1
  Ti  Ti2  1  0.375922  0.132031  0.491314  1
  Ti  Ti3  1  0.871111  0.132339  0.490408  1
  Ti  Ti4  1  0.450710  0.508572  0.649185  1
  Ti  Ti5  1  0.953954  0.509058  0.649193  1
  Ti  Ti6  1  0.946318  0.648348  0.137120  1
  Ti  Ti7  1  0.446851  0.644891  0.136683  1
  Ti  Ti8  1  0.135989  0.859736  0.513245  1
  Ti  Ti9  1  0.636473  0.863414  0.512767  1
  Ti  Ti10  1  0.058709  0.489043  0.361262  1
  Ti  Ti11  1  0.556300  0.485650  0.355711  1
  Sn  Sn12  1  0.856549  0.026791  0.900155  1
  P  P13  1  0.987027  0.050923  0.697804  1
  S  S14  1  0.472295  0.048582  0.696289  1
  S  S15  1  0.809165  0.307159  0.361264  1
  S  S16  1  0.307962  0.306430  0.360513  1
  S  S17  1  0.105398  0.642143  0.953029  1
  S  S18  1  0.604082  0.642878  0.953054  1
  S  S19  1  0.532974  0.948638  0.309609  1
  S  S20  1  0.034548  0.948984  0.312026  1
  S  S21  1  0.698452  0.686714  0.643057  1
  S  S22  1  0.200990  0.690340  0.647396  1
  S  S23  1  0.405913  0.357977  0.054338  1
  S  S24  1  0.906063  0.364382  0.060141  1
  S  S25  1  0.796593  0.665239  0.335919  1
  S  S26  1  0.296565  0.664730  0.335518  1
  S  S27  1  0.713212  0.331911  0.670778  1
  S  S28  1  0.212697  0.330617  0.669228  1
