# generated using pymatgen
data_Cs2V3P5O19
_symmetry_space_group_name_H-M   'P 1'
_cell_length_a   9.61111876
_cell_length_b   14.50319500
_cell_length_c   6.44517600
_cell_angle_alpha   90.00000000
_cell_angle_beta   104.92270980
_cell_angle_gamma   90.00000000
_symmetry_Int_Tables_number   1
_chemical_formula_structural   Cs2V3P5O19
_chemical_formula_sum   'Cs4 V6 P10 O38'
_cell_volume   868.10597207
_cell_formula_units_Z   2
loop_
 _symmetry_equiv_pos_site_id
 _symmetry_equiv_pos_as_xyz
  1  'x, y, z'
loop_
 _atom_site_type_symbol
 _atom_site_label
 _atom_site_symmetry_multiplicity
 _atom_site_fract_x
 _atom_site_fract_y
 _atom_site_fract_z
 _atom_site_occupancy
  Cs  Cs0  1  0.500000  0.000000  0.000000  1
  Cs  Cs1  1  0.500000  0.500000  0.000000  1
  Cs  Cs2  1  0.874022  0.250000  0.049216  1
  Cs  Cs3  1  0.125978  0.750000  0.950785  1
  V  V4  1  0.855852  0.628416  0.285753  1
  V  V5  1  0.855852  0.871585  0.285753  1
  V  V6  1  0.534678  0.250000  0.369809  1
  V  V7  1  0.465322  0.750000  0.630191  1
  V  V8  1  0.144147  0.128415  0.714247  1
  V  V9  1  0.144147  0.371584  0.714247  1
  P  P10  1  0.555391  0.750000  0.170819  1
  P  P11  1  0.235475  0.104086  0.264499  1
  P  P12  1  0.235475  0.395914  0.264499  1
  P  P13  1  0.206944  0.566206  0.493897  1
  P  P14  1  0.206944  0.933794  0.493897  1
  P  P15  1  0.793056  0.066206  0.506104  1
  P  P16  1  0.793056  0.433795  0.506104  1
  P  P17  1  0.764525  0.604085  0.735500  1
  P  P18  1  0.764525  0.895914  0.735500  1
  P  P19  1  0.444609  0.250000  0.829182  1
  O  O20  1  0.152569  0.101980  0.027014  1
  O  O21  1  0.152569  0.398020  0.027014  1
  O  O22  1  0.542762  0.250000  0.060120  1
  O  O23  1  0.652206  0.662764  0.211075  1
  O  O24  1  0.652206  0.837236  0.211075  1
  O  O25  1  0.896968  0.750000  0.268150  1
  O  O26  1  0.380691  0.150722  0.305206  1
  O  O27  1  0.380691  0.349278  0.305206  1
  O  O28  1  0.451837  0.750000  0.318038  1
  O  O29  1  0.806641  0.002433  0.318548  1
  O  O30  1  0.806641  0.497567  0.318548  1
  O  O31  1  0.062081  0.597023  0.351365  1
  O  O32  1  0.062081  0.902978  0.351365  1
  O  O33  1  0.277398  0.503060  0.338172  1
  O  O34  1  0.277398  0.996940  0.338172  1
  O  O35  1  0.134083  0.138053  0.399501  1
  O  O36  1  0.134083  0.361947  0.399501  1
  O  O37  1  0.691340  0.144753  0.422274  1
  O  O38  1  0.691340  0.355247  0.422274  1
  O  O39  1  0.308661  0.644752  0.577727  1
  O  O40  1  0.308661  0.855247  0.577727  1
  O  O41  1  0.865918  0.638053  0.600500  1
  O  O42  1  0.865918  0.861947  0.600500  1
  O  O43  1  0.722602  0.003059  0.661828  1
  O  O44  1  0.722602  0.496941  0.661828  1
  O  O45  1  0.937919  0.097022  0.648636  1
  O  O46  1  0.937919  0.402978  0.648636  1
  O  O47  1  0.193359  0.502433  0.681453  1
  O  O48  1  0.193359  0.997567  0.681453  1
  O  O49  1  0.548164  0.250000  0.681961  1
  O  O50  1  0.619309  0.650722  0.694795  1
  O  O51  1  0.619309  0.849278  0.694795  1
  O  O52  1  0.103032  0.250000  0.731849  1
  O  O53  1  0.347793  0.162764  0.788926  1
  O  O54  1  0.347793  0.337236  0.788926  1
  O  O55  1  0.457238  0.750000  0.939881  1
  O  O56  1  0.847431  0.601980  0.972984  1
  O  O57  1  0.847431  0.898020  0.972984  1
