# generated using pymatgen
data_Nd2PdPtO7
_symmetry_space_group_name_H-M   'P 1'
_cell_length_a   7.42871889
_cell_length_b   7.42483839
_cell_length_c   7.42871735
_cell_angle_alpha   60.01727676
_cell_angle_beta   60.01678088
_cell_angle_gamma   60.01726999
_symmetry_Int_Tables_number   1
_chemical_formula_structural   Nd2PdPtO7
_chemical_formula_sum   'Nd4 Pd2 Pt2 O14'
_cell_volume   289.84658097
_cell_formula_units_Z   2
loop_
 _symmetry_equiv_pos_site_id
 _symmetry_equiv_pos_as_xyz
  1  'x, y, z'
loop_
 _atom_site_type_symbol
 _atom_site_label
 _atom_site_symmetry_multiplicity
 _atom_site_fract_x
 _atom_site_fract_y
 _atom_site_fract_z
 _atom_site_occupancy
  Nd  Nd0  1  0.625000  0.625000  0.125000  1
  Nd  Nd1  1  0.625000  0.125000  0.625000  1
  Nd  Nd2  1  0.125000  0.625000  0.625000  1
  Nd  Nd3  1  0.625000  0.625000  0.625000  1
  Pd  Pd4  1  0.125000  0.625000  0.125000  1
  Pd  Pd5  1  0.125000  0.125000  0.125000  1
  Pt  Pt6  1  0.125000  0.125000  0.625000  1
  Pt  Pt7  1  0.625000  0.125000  0.125000  1
  O  O8  1  0.500076  0.499924  0.500076  1
  O  O9  1  0.749924  0.750076  0.749924  1
  O  O10  1  0.460592  0.039408  0.460592  1
  O  O11  1  0.210168  0.789832  0.210168  1
  O  O12  1  0.461718  0.458812  0.039627  1
  O  O13  1  0.039627  0.458812  0.461718  1
  O  O14  1  0.461718  0.039844  0.039627  1
  O  O15  1  0.039627  0.039844  0.461718  1
  O  O16  1  0.039832  0.460168  0.039832  1
  O  O17  1  0.788282  0.210156  0.210373  1
  O  O18  1  0.210373  0.791188  0.788282  1
  O  O19  1  0.789408  0.210592  0.789408  1
  O  O20  1  0.210373  0.210156  0.788282  1
  O  O21  1  0.788282  0.791188  0.210373  1
