# generated using pymatgen
data_Yb(ScCu6)2
_symmetry_space_group_name_H-M   'P 1'
_cell_length_a   4.85972559
_cell_length_b   4.85972693
_cell_length_c   10.54055280
_cell_angle_alpha   94.96689712
_cell_angle_beta   94.96690124
_cell_angle_gamma   119.85739541
_symmetry_Int_Tables_number   1
_chemical_formula_structural   Yb(ScCu6)2
_chemical_formula_sum   'Yb1 Sc2 Cu12'
_cell_volume   212.64641960
_cell_formula_units_Z   1
loop_
 _symmetry_equiv_pos_site_id
 _symmetry_equiv_pos_as_xyz
  1  'x, y, z'
loop_
 _atom_site_type_symbol
 _atom_site_label
 _atom_site_symmetry_multiplicity
 _atom_site_fract_x
 _atom_site_fract_y
 _atom_site_fract_z
 _atom_site_occupancy
  Yb  Yb0  1  0.000000  0.000000  0.000000  1
  Sc  Sc1  1  0.135748  0.135748  0.364537  1
  Sc  Sc2  1  0.864252  0.864252  0.635463  1
  Cu  Cu3  1  0.663170  0.336831  0.000000  1
  Cu  Cu4  1  0.336831  0.663170  0.000000  1
  Cu  Cu5  1  0.569202  0.068937  0.199721  1
  Cu  Cu6  1  0.068937  0.569202  0.199721  1
  Cu  Cu7  1  0.570216  0.570216  0.204363  1
  Cu  Cu8  1  0.809365  0.480748  0.408323  1
  Cu  Cu9  1  0.480748  0.809365  0.408323  1
  Cu  Cu10  1  0.519254  0.190636  0.591677  1
  Cu  Cu11  1  0.190636  0.519254  0.591677  1
  Cu  Cu12  1  0.429783  0.429783  0.795637  1
  Cu  Cu13  1  0.931062  0.430797  0.800280  1
  Cu  Cu14  1  0.430797  0.931062  0.800280  1
