# generated using pymatgen
data_EuCdP2O7
_symmetry_space_group_name_H-M   'P 1'
_cell_length_a   6.93731451
_cell_length_b   6.88465474
_cell_length_c   6.93859588
_cell_angle_alpha   66.15950940
_cell_angle_beta   83.82192086
_cell_angle_gamma   88.40064093
_symmetry_Int_Tables_number   1
_chemical_formula_structural   EuCdP2O7
_chemical_formula_sum   'Eu2 Cd2 P4 O14'
_cell_volume   301.31318653
_cell_formula_units_Z   2
loop_
 _symmetry_equiv_pos_site_id
 _symmetry_equiv_pos_as_xyz
  1  'x, y, z'
loop_
 _atom_site_type_symbol
 _atom_site_label
 _atom_site_symmetry_multiplicity
 _atom_site_fract_x
 _atom_site_fract_y
 _atom_site_fract_z
 _atom_site_occupancy
  Eu  Eu0  1  0.869911  0.695999  0.265080  1
  Eu  Eu1  1  0.130089  0.304001  0.734920  1
  Cd  Cd2  1  0.350801  0.733309  0.893663  1
  Cd  Cd3  1  0.649199  0.266691  0.106337  1
  P  P4  1  0.854751  0.767847  0.768254  1
  P  P5  1  0.145249  0.232153  0.231746  1
  P  P6  1  0.359701  0.823411  0.362353  1
  P  P7  1  0.640299  0.176589  0.637647  1
  O  O8  1  0.013851  0.834877  0.870490  1
  O  O9  1  0.986149  0.165123  0.129510  1
  O  O10  1  0.757126  0.977954  0.606769  1
  O  O11  1  0.242874  0.022046  0.393231  1
  O  O12  1  0.566586  0.907926  0.264143  1
  O  O13  1  0.433414  0.092074  0.735857  1
  O  O14  1  0.928499  0.649280  0.632516  1
  O  O15  1  0.071501  0.350720  0.367484  1
  O  O16  1  0.691841  0.645353  0.949051  1
  O  O17  1  0.308159  0.354647  0.050949  1
  O  O18  1  0.752462  0.236457  0.784920  1
  O  O19  1  0.247538  0.763543  0.215080  1
  O  O20  1  0.354204  0.652221  0.589477  1
  O  O21  1  0.645796  0.347779  0.410523  1
