# generated using pymatgen
data_SmLuThZnAu5
_symmetry_space_group_name_H-M   'P 1'
_cell_length_a   8.43252300
_cell_length_b   8.43252248
_cell_length_c   13.60021500
_cell_angle_alpha   90.00000000
_cell_angle_beta   90.00000000
_cell_angle_gamma   127.12084956
_symmetry_Int_Tables_number   1
_chemical_formula_structural   SmLuThZnAu5
_chemical_formula_sum   'Sm4 Lu4 Th4 Zn4 Au20'
_cell_volume   771.11232221
_cell_formula_units_Z   4
loop_
 _symmetry_equiv_pos_site_id
 _symmetry_equiv_pos_as_xyz
  1  'x, y, z'
loop_
 _atom_site_type_symbol
 _atom_site_label
 _atom_site_symmetry_multiplicity
 _atom_site_fract_x
 _atom_site_fract_y
 _atom_site_fract_z
 _atom_site_occupancy
  Sm  Sm0  1  0.881490  0.118510  0.951639  1
  Sm  Sm1  1  0.118510  0.881490  0.048361  1
  Sm  Sm2  1  0.881490  0.118510  0.548361  1
  Sm  Sm3  1  0.118510  0.881490  0.451639  1
  Lu  Lu4  1  0.630196  0.369804  0.461486  1
  Lu  Lu5  1  0.369804  0.630196  0.538514  1
  Lu  Lu6  1  0.630196  0.369804  0.038514  1
  Lu  Lu7  1  0.369804  0.630196  0.961486  1
  Th  Th8  1  0.932165  0.067835  0.250000  1
  Th  Th9  1  0.067835  0.932165  0.750000  1
  Th  Th10  1  0.320074  0.679926  0.250000  1
  Th  Th11  1  0.679926  0.320074  0.750000  1
  Zn  Zn12  1  0.718603  0.281397  0.250000  1
  Zn  Zn13  1  0.281397  0.718603  0.750000  1
  Zn  Zn14  1  0.535432  0.464568  0.250000  1
  Zn  Zn15  1  0.464568  0.535432  0.750000  1
  Au  Au16  1  0.318916  0.065945  0.250000  1
  Au  Au17  1  0.065945  0.318916  0.750000  1
  Au  Au18  1  0.681084  0.934055  0.750000  1
  Au  Au19  1  0.934055  0.681084  0.250000  1
  Au  Au20  1  0.568559  0.006877  0.398026  1
  Au  Au21  1  0.006877  0.568559  0.601974  1
  Au  Au22  1  0.568559  0.006877  0.101974  1
  Au  Au23  1  0.006877  0.568559  0.898026  1
  Au  Au24  1  0.431441  0.993123  0.601974  1
  Au  Au25  1  0.993123  0.431441  0.398026  1
  Au  Au26  1  0.431441  0.993123  0.898026  1
  Au  Au27  1  0.993123  0.431441  0.101974  1
  Au  Au28  1  0.678882  0.735255  0.397078  1
  Au  Au29  1  0.735255  0.678882  0.602922  1
  Au  Au30  1  0.678882  0.735255  0.102922  1
  Au  Au31  1  0.735255  0.678882  0.897078  1
  Au  Au32  1  0.321118  0.264745  0.602922  1
  Au  Au33  1  0.264745  0.321118  0.397078  1
  Au  Au34  1  0.321118  0.264745  0.897078  1
  Au  Au35  1  0.264745  0.321118  0.102922  1
