# generated using pymatgen
data_U2CoNi(BC)2
_symmetry_space_group_name_H-M   'P 1'
_cell_length_a   3.51461800
_cell_length_b   3.51461800
_cell_length_c   7.42537900
_cell_angle_alpha   90.00000000
_cell_angle_beta   90.00000000
_cell_angle_gamma   90.00000000
_symmetry_Int_Tables_number   1
_chemical_formula_structural   U2CoNi(BC)2
_chemical_formula_sum   'U2 Co1 Ni1 B2 C2'
_cell_volume   91.72228878
_cell_formula_units_Z   1
loop_
 _symmetry_equiv_pos_site_id
 _symmetry_equiv_pos_as_xyz
  1  'x, y, z'
loop_
 _atom_site_type_symbol
 _atom_site_label
 _atom_site_symmetry_multiplicity
 _atom_site_fract_x
 _atom_site_fract_y
 _atom_site_fract_z
 _atom_site_occupancy
  U  U0  1  0.000000  0.500000  0.320795  1
  U  U1  1  0.500000  0.000000  0.679205  1
  Co  Co2  1  0.000000  0.000000  0.000000  1
  Ni  Ni3  1  0.500000  0.500000  0.000000  1
  B  B4  1  0.000000  0.500000  0.843756  1
  B  B5  1  0.500000  0.000000  0.156244  1
  C  C6  1  0.000000  0.500000  0.632030  1
  C  C7  1  0.500000  0.000000  0.367970  1
