# generated using pymatgen
data_Lu2CrB6Mo
_symmetry_space_group_name_H-M   'P 1'
_cell_length_a   5.30921594
_cell_length_b   3.11049200
_cell_length_c   6.62347102
_cell_angle_alpha   90.00000000
_cell_angle_beta   102.06337042
_cell_angle_gamma   90.00000000
_symmetry_Int_Tables_number   1
_chemical_formula_structural   Lu2CrB6Mo
_chemical_formula_sum   'Lu2 Cr1 B6 Mo1'
_cell_volume   106.96633996
_cell_formula_units_Z   1
loop_
 _symmetry_equiv_pos_site_id
 _symmetry_equiv_pos_as_xyz
  1  'x, y, z'
loop_
 _atom_site_type_symbol
 _atom_site_label
 _atom_site_symmetry_multiplicity
 _atom_site_fract_x
 _atom_site_fract_y
 _atom_site_fract_z
 _atom_site_occupancy
  Lu  Lu0  1  0.326768  0.750001  0.294154  1
  Lu  Lu1  1  0.678850  0.250000  0.710838  1
  Cr  Cr2  1  0.813106  0.250000  0.215404  1
  B  B3  1  0.089128  0.250000  0.011270  1
  B  B4  1  0.423786  0.250000  0.015230  1
  B  B5  1  0.903564  0.750001  0.462741  1
  B  B6  1  0.069362  0.250000  0.511381  1
  B  B7  1  0.589175  0.750001  0.000853  1
  B  B8  1  0.915829  0.750001  0.002826  1
  Mo  Mo9  1  0.190431  0.750001  0.775304  1
