# generated using pymatgen
data_Tb11Tm(LuPt2)8
_symmetry_space_group_name_H-M   'P 1'
_cell_length_a   7.45363203
_cell_length_b   7.53067237
_cell_length_c   14.62910600
_cell_angle_alpha   89.98577244
_cell_angle_beta   90.00519639
_cell_angle_gamma   89.98915943
_symmetry_Int_Tables_number   1
_chemical_formula_structural   Tb11Tm(LuPt2)8
_chemical_formula_sum   'Tb11 Tm1 Lu8 Pt16'
_cell_volume   821.14426864
_cell_formula_units_Z   1
loop_
 _symmetry_equiv_pos_site_id
 _symmetry_equiv_pos_as_xyz
  1  'x, y, z'
loop_
 _atom_site_type_symbol
 _atom_site_label
 _atom_site_symmetry_multiplicity
 _atom_site_fract_x
 _atom_site_fract_y
 _atom_site_fract_z
 _atom_site_occupancy
  Tb  Tb0  1  0.843902  0.332619  0.122442  1
  Tb  Tb1  1  0.156416  0.667399  0.621654  1
  Tb  Tb2  1  0.656053  0.832683  0.877824  1
  Tb  Tb3  1  0.997970  0.820883  0.405838  1
  Tb  Tb4  1  0.497451  0.679952  0.094435  1
  Tb  Tb5  1  0.502174  0.319927  0.593472  1
  Tb  Tb6  1  0.002534  0.179782  0.905894  1
  Tb  Tb7  1  0.001039  0.178097  0.593100  1
  Tb  Tb8  1  0.500781  0.321789  0.906699  1
  Tb  Tb9  1  0.498697  0.678327  0.406730  1
  Tb  Tb10  1  0.998967  0.821693  0.093502  1
  Tm  Tm11  1  0.344012  0.167078  0.377495  1
  Lu  Lu12  1  0.680457  0.990188  0.250417  1
  Lu  Lu13  1  0.181221  0.509849  0.250446  1
  Lu  Lu14  1  0.819120  0.489735  0.749880  1
  Lu  Lu15  1  0.319115  0.010305  0.749816  1
  Lu  Lu16  1  0.656522  0.832398  0.623128  1
  Lu  Lu17  1  0.156826  0.667940  0.876541  1
  Lu  Lu18  1  0.843308  0.332010  0.376721  1
  Lu  Lu19  1  0.343193  0.167820  0.123642  1
  Pt  Pt20  1  0.817047  0.643248  0.251379  1
  Pt  Pt21  1  0.318045  0.857531  0.250146  1
  Pt  Pt22  1  0.682188  0.143842  0.748723  1
  Pt  Pt23  1  0.182375  0.356259  0.750797  1
  Pt  Pt24  1  0.544246  0.383781  0.251413  1
  Pt  Pt25  1  0.046984  0.115257  0.251114  1
  Pt  Pt26  1  0.954725  0.885582  0.749615  1
  Pt  Pt27  1  0.454700  0.614406  0.749782  1
  Pt  Pt28  1  0.813411  0.533858  0.541097  1
  Pt  Pt29  1  0.313028  0.966428  0.958720  1
  Pt  Pt30  1  0.684542  0.034598  0.458205  1
  Pt  Pt31  1  0.187148  0.466285  0.041232  1
  Pt  Pt32  1  0.179061  0.464655  0.455093  1
  Pt  Pt33  1  0.677247  0.032234  0.044575  1
  Pt  Pt34  1  0.322567  0.969470  0.542989  1
  Pt  Pt35  1  0.822930  0.532094  0.955444  1
