# generated using pymatgen
data_NdEu2Y(Si5Pt3)2
_symmetry_space_group_name_H-M   'P 1'
_cell_length_a   8.27007382
_cell_length_b   8.27302746
_cell_length_c   8.27302888
_cell_angle_alpha   137.10008955
_cell_angle_beta   104.75323760
_cell_angle_gamma   90.73885127
_symmetry_Int_Tables_number   1
_chemical_formula_structural   NdEu2Y(Si5Pt3)2
_chemical_formula_sum   'Nd1 Eu2 Y1 Si10 Pt6'
_cell_volume   355.09083580
_cell_formula_units_Z   1
loop_
 _symmetry_equiv_pos_site_id
 _symmetry_equiv_pos_as_xyz
  1  'x, y, z'
loop_
 _atom_site_type_symbol
 _atom_site_label
 _atom_site_symmetry_multiplicity
 _atom_site_fract_x
 _atom_site_fract_y
 _atom_site_fract_z
 _atom_site_occupancy
  Nd  Nd0  1  0.895529  0.128585  0.766944  1
  Eu  Eu1  1  0.637611  0.370759  0.266852  1
  Eu  Eu2  1  0.362870  0.629187  0.733683  1
  Y  Y3  1  0.103327  0.871696  0.231631  1
  Si  Si4  1  0.000214  0.745895  0.745974  1
  Si  Si5  1  0.000214  0.254240  0.254319  1
  Si  Si6  1  0.272799  0.020763  0.750546  1
  Si  Si7  1  0.728197  0.477665  0.748108  1
  Si  Si8  1  0.728197  0.980088  0.250531  1
  Si  Si9  1  0.272799  0.522254  0.252036  1
  Si  Si10  1  0.761473  0.611968  0.149504  1
  Si  Si11  1  0.238871  0.388956  0.849915  1
  Si  Si12  1  0.457736  0.110433  0.347303  1
  Si  Si13  1  0.540082  0.887446  0.652636  1
  Pt  Pt14  1  0.498839  0.751802  0.251848  1
  Pt  Pt15  1  0.498839  0.246991  0.747036  1
  Pt  Pt16  1  0.025292  0.639501  0.385791  1
  Pt  Pt17  1  0.977120  0.362970  0.614149  1
  Pt  Pt18  1  0.244718  0.134284  0.110434  1
  Pt  Pt19  1  0.755272  0.864513  0.890759  1
