# generated using pymatgen
data_La18Pr2Ga7Sn5
_symmetry_space_group_name_H-M   'P 1'
_cell_length_a   8.35697448
_cell_length_b   8.35753625
_cell_length_c   14.41072708
_cell_angle_alpha   89.96167040
_cell_angle_beta   89.96655371
_cell_angle_gamma   90.52611731
_symmetry_Int_Tables_number   1
_chemical_formula_structural   La18Pr2Ga7Sn5
_chemical_formula_sum   'La18 Pr2 Ga7 Sn5'
_cell_volume   1006.45591397
_cell_formula_units_Z   1
loop_
 _symmetry_equiv_pos_site_id
 _symmetry_equiv_pos_as_xyz
  1  'x, y, z'
loop_
 _atom_site_type_symbol
 _atom_site_label
 _atom_site_symmetry_multiplicity
 _atom_site_fract_x
 _atom_site_fract_y
 _atom_site_fract_z
 _atom_site_occupancy
  La  La0  1  0.824299  0.833907  0.611371  1
  La  La1  1  0.169476  0.842894  0.099430  1
  La  La2  1  0.157369  0.830437  0.400410  1
  La  La3  1  0.994815  0.495593  0.724495  1
  La  La4  1  0.843282  0.164140  0.401211  1
  La  La5  1  0.681521  0.675250  0.395923  1
  La  La6  1  0.656297  0.330794  0.604121  1
  La  La7  1  0.340252  0.673223  0.603754  1
  La  La8  1  0.016203  0.512437  0.231495  1
  La  La9  1  0.669690  0.680461  0.105139  1
  La  La10  1  0.669386  0.343549  0.896035  1
  La  La11  1  0.835420  0.820791  0.890711  1
  La  La12  1  0.319432  0.330340  0.394826  1
  La  La13  1  0.179257  0.164801  0.609500  1
  La  La14  1  0.836224  0.156880  0.098659  1
  La  La15  1  0.326635  0.659928  0.896352  1
  La  La16  1  0.324681  0.318555  0.104103  1
  La  La17  1  0.487804  0.983897  0.268510  1
  Pr  Pr18  1  0.165572  0.175997  0.887907  1
  Pr  Pr19  1  0.504360  0.004997  0.775430  1
  Ga  Ga20  1  0.130496  0.870477  0.750395  1
  Ga  Ga21  1  0.375765  0.381088  0.750593  1
  Ga  Ga22  1  0.377109  0.622962  0.249999  1
  Ga  Ga23  1  0.878287  0.882989  0.249408  1
  Ga  Ga24  1  0.617636  0.623986  0.749951  1
  Ga  Ga25  1  0.872474  0.127732  0.750536  1
  Ga  Ga26  1  0.116970  0.121494  0.250587  1
  Sn  Sn27  1  0.630724  0.369114  0.249990  1
  Sn  Sn28  1  0.998166  0.499116  0.496314  1
  Sn  Sn29  1  0.500898  0.001526  0.502183  1
  Sn  Sn30  1  0.500640  0.002182  0.002805  1
  Sn  Sn31  1  0.998863  0.498461  0.997860  1
