# generated using pymatgen
data_Nd2Ga8SiRh3
_symmetry_space_group_name_H-M   'P 1'
_cell_length_a   7.63256213
_cell_length_b   7.59288295
_cell_length_c   9.61866244
_cell_angle_alpha   89.95043380
_cell_angle_beta   89.85259719
_cell_angle_gamma   119.70792870
_symmetry_Int_Tables_number   1
_chemical_formula_structural   Nd2Ga8SiRh3
_chemical_formula_sum   'Nd4 Ga16 Si2 Rh6'
_cell_volume   484.16152939
_cell_formula_units_Z   2
loop_
 _symmetry_equiv_pos_site_id
 _symmetry_equiv_pos_as_xyz
  1  'x, y, z'
loop_
 _atom_site_type_symbol
 _atom_site_label
 _atom_site_symmetry_multiplicity
 _atom_site_fract_x
 _atom_site_fract_y
 _atom_site_fract_z
 _atom_site_occupancy
  Nd  Nd0  1  0.996102  0.665820  0.746643  1
  Nd  Nd1  1  0.003898  0.334180  0.253357  1
  Nd  Nd2  1  0.674276  0.002191  0.747054  1
  Nd  Nd3  1  0.325724  0.997809  0.252946  1
  Ga  Ga4  1  0.130460  0.129811  0.750097  1
  Ga  Ga5  1  0.869540  0.870189  0.249903  1
  Ga  Ga6  1  0.997540  0.665088  0.073366  1
  Ga  Ga7  1  0.334870  0.000868  0.923282  1
  Ga  Ga8  1  0.002460  0.334912  0.926634  1
  Ga  Ga9  1  0.665130  0.999132  0.076718  1
  Ga  Ga10  1  0.661208  0.994831  0.420236  1
  Ga  Ga11  1  0.338792  0.005169  0.579764  1
  Ga  Ga12  1  0.333448  0.332372  0.059063  1
  Ga  Ga13  1  0.666552  0.667628  0.940937  1
  Ga  Ga14  1  0.661233  0.666104  0.561068  1
  Ga  Ga15  1  0.338767  0.333896  0.438932  1
  Ga  Ga16  1  0.339295  0.546377  0.750235  1
  Ga  Ga17  1  0.660705  0.453623  0.249765  1
  Ga  Ga18  1  0.547119  0.341866  0.750207  1
  Ga  Ga19  1  0.452881  0.658134  0.249793  1
  Si  Si20  1  0.004039  0.330593  0.573143  1
  Si  Si21  1  0.995961  0.669407  0.426857  1
  Rh  Rh22  1  0.694083  0.342253  0.500855  1
  Rh  Rh23  1  0.305917  0.657747  0.499145  1
  Rh  Rh24  1  0.329262  0.670773  0.999994  1
  Rh  Rh25  1  0.670738  0.329227  0.000006  1
  Rh  Rh26  1  0.000000  0.000000  0.500000  1
  Rh  Rh27  1  0.000000  0.000000  0.000000  1
