# generated using pymatgen
data_Dy3HoCo5Si10Os
_symmetry_space_group_name_H-M   'P 1'
_cell_length_a   7.90471744
_cell_length_b   7.90621925
_cell_length_c   8.01775098
_cell_angle_alpha   139.22037702
_cell_angle_beta   106.65893921
_cell_angle_gamma   86.66781150
_symmetry_Int_Tables_number   1
_chemical_formula_structural   Dy3HoCo5Si10Os
_chemical_formula_sum   'Dy3 Ho1 Co5 Si10 Os1'
_cell_volume   303.26003778
_cell_formula_units_Z   1
loop_
 _symmetry_equiv_pos_site_id
 _symmetry_equiv_pos_as_xyz
  1  'x, y, z'
loop_
 _atom_site_type_symbol
 _atom_site_label
 _atom_site_symmetry_multiplicity
 _atom_site_fract_x
 _atom_site_fract_y
 _atom_site_fract_z
 _atom_site_occupancy
  Dy  Dy0  1  0.599594  0.875480  0.745619  1
  Dy  Dy1  1  0.129719  0.353905  0.754326  1
  Dy  Dy2  1  0.868514  0.630946  0.228831  1
  Ho  Ho3  1  0.402231  0.139963  0.271460  1
  Co  Co4  1  0.993980  0.743829  0.749855  1
  Co  Co5  1  0.264435  0.832748  0.372836  1
  Co  Co6  1  0.537141  0.621343  0.881373  1
  Co  Co7  1  0.460031  0.391614  0.127382  1
  Co  Co8  1  0.739548  0.155756  0.618325  1
  Si  Si9  1  0.770494  0.020942  0.249985  1
  Si  Si10  1  0.233018  0.982988  0.750241  1
  Si  Si11  1  0.781289  0.531533  0.750088  1
  Si  Si12  1  0.935919  0.086201  0.821481  1
  Si  Si13  1  0.066165  0.888416  0.156911  1
  Si  Si14  1  0.491238  0.241460  0.749971  1
  Si  Si15  1  0.510639  0.760918  0.249649  1
  Si  Si16  1  0.731406  0.408556  0.342988  1
  Si  Si17  1  0.264899  0.614620  0.678765  1
  Si  Si18  1  0.217516  0.467097  0.249983  1
  Os  Os19  1  0.002223  0.251686  0.249931  1
