# generated using pymatgen
data_TbHfFe12P7
_symmetry_space_group_name_H-M   'P 1'
_cell_length_a   8.89621600
_cell_length_b   8.89621509
_cell_length_c   3.62543100
_cell_angle_alpha   90.00000000
_cell_angle_beta   90.00000000
_cell_angle_gamma   120.00000339
_symmetry_Int_Tables_number   1
_chemical_formula_structural   TbHfFe12P7
_chemical_formula_sum   'Tb1 Hf1 Fe12 P7'
_cell_volume   248.48538735
_cell_formula_units_Z   1
loop_
 _symmetry_equiv_pos_site_id
 _symmetry_equiv_pos_as_xyz
  1  'x, y, z'
loop_
 _atom_site_type_symbol
 _atom_site_label
 _atom_site_symmetry_multiplicity
 _atom_site_fract_x
 _atom_site_fract_y
 _atom_site_fract_z
 _atom_site_occupancy
  Tb  Tb0  1  0.333333  0.666667  0.000000  1
  Hf  Hf1  1  0.000000  0.000000  0.500000  1
  Fe  Fe2  1  0.730485  0.759803  0.000000  1
  Fe  Fe3  1  0.240197  0.970681  0.000000  1
  Fe  Fe4  1  0.029319  0.269515  0.000000  1
  Fe  Fe5  1  0.942108  0.490756  0.000000  1
  Fe  Fe6  1  0.509244  0.451351  0.000000  1
  Fe  Fe7  1  0.548649  0.057892  0.000000  1
  Fe  Fe8  1  0.099528  0.723570  0.500000  1
  Fe  Fe9  1  0.276430  0.375959  0.500000  1
  Fe  Fe10  1  0.624041  0.900472  0.500000  1
  Fe  Fe11  1  0.760985  0.544583  0.500000  1
  Fe  Fe12  1  0.455417  0.216403  0.500000  1
  Fe  Fe13  1  0.783597  0.239015  0.500000  1
  P  P14  1  0.969850  0.751113  0.000000  1
  P  P15  1  0.248887  0.218737  0.000000  1
  P  P16  1  0.781263  0.030150  0.000000  1
  P  P17  1  0.065843  0.446319  0.500000  1
  P  P18  1  0.553681  0.619522  0.500000  1
  P  P19  1  0.380478  0.934157  0.500000  1
  P  P20  1  0.666667  0.333333  0.000000  1
