# generated using pymatgen
data_LaLuReB6
_symmetry_space_group_name_H-M   'P 1'
_cell_length_a   3.73130900
_cell_length_b   9.22260700
_cell_length_c   11.73980100
_cell_angle_alpha   90.00000000
_cell_angle_beta   90.00000000
_cell_angle_gamma   90.00000000
_symmetry_Int_Tables_number   1
_chemical_formula_structural   LaLuReB6
_chemical_formula_sum   'La4 Lu4 Re4 B24'
_cell_volume   403.99468687
_cell_formula_units_Z   4
loop_
 _symmetry_equiv_pos_site_id
 _symmetry_equiv_pos_as_xyz
  1  'x, y, z'
loop_
 _atom_site_type_symbol
 _atom_site_label
 _atom_site_symmetry_multiplicity
 _atom_site_fract_x
 _atom_site_fract_y
 _atom_site_fract_z
 _atom_site_occupancy
  La  La0  1  0.000000  0.322501  0.414555  1
  La  La1  1  0.000000  0.677499  0.585445  1
  La  La2  1  0.000000  0.822501  0.085445  1
  La  La3  1  0.000000  0.177499  0.914555  1
  Lu  Lu4  1  0.000000  0.943112  0.368107  1
  Lu  Lu5  1  0.000000  0.056888  0.631893  1
  Lu  Lu6  1  0.000000  0.443112  0.131893  1
  Lu  Lu7  1  0.000000  0.556888  0.868107  1
  Re  Re8  1  0.000000  0.640819  0.317893  1
  Re  Re9  1  0.000000  0.359181  0.682107  1
  Re  Re10  1  0.000000  0.140819  0.182107  1
  Re  Re11  1  0.000000  0.859181  0.817893  1
  B  B12  1  0.500000  0.557140  0.428172  1
  B  B13  1  0.500000  0.442860  0.571828  1
  B  B14  1  0.500000  0.057140  0.071828  1
  B  B15  1  0.500000  0.942860  0.928172  1
  B  B16  1  0.500000  0.751800  0.414134  1
  B  B17  1  0.500000  0.248200  0.585866  1
  B  B18  1  0.500000  0.251800  0.085866  1
  B  B19  1  0.500000  0.748200  0.914134  1
  B  B20  1  0.500000  0.792484  0.265726  1
  B  B21  1  0.500000  0.207516  0.734274  1
  B  B22  1  0.500000  0.292484  0.234274  1
  B  B23  1  0.500000  0.707516  0.765726  1
  B  B24  1  0.500000  0.629015  0.186202  1
  B  B25  1  0.500000  0.370985  0.813798  1
  B  B26  1  0.500000  0.129015  0.313798  1
  B  B27  1  0.500000  0.870985  0.686202  1
  B  B28  1  0.500000  0.984778  0.214069  1
  B  B29  1  0.500000  0.015222  0.785931  1
  B  B30  1  0.500000  0.484778  0.285931  1
  B  B31  1  0.500000  0.515222  0.714069  1
  B  B32  1  0.500000  0.593102  0.025221  1
  B  B33  1  0.500000  0.406898  0.974779  1
  B  B34  1  0.500000  0.093102  0.474779  1
  B  B35  1  0.500000  0.906898  0.525221  1
