# generated using pymatgen
data_Ho5Tm2(LuPb2)3
_symmetry_space_group_name_H-M   'P 1'
_cell_length_a   6.51612800
_cell_length_b   8.97534077
_cell_length_c   8.98122500
_cell_angle_alpha   120.02301301
_cell_angle_beta   90.00142945
_cell_angle_gamma   89.99848091
_symmetry_Int_Tables_number   1
_chemical_formula_structural   Ho5Tm2(LuPb2)3
_chemical_formula_sum   'Ho5 Tm2 Lu3 Pb6'
_cell_volume   454.78486663
_cell_formula_units_Z   1
loop_
 _symmetry_equiv_pos_site_id
 _symmetry_equiv_pos_as_xyz
  1  'x, y, z'
loop_
 _atom_site_type_symbol
 _atom_site_label
 _atom_site_symmetry_multiplicity
 _atom_site_fract_x
 _atom_site_fract_y
 _atom_site_fract_z
 _atom_site_occupancy
  Ho  Ho0  1  0.750040  0.236970  0.999764  1
  Ho  Ho1  1  0.750046  0.763078  0.762764  1
  Ho  Ho2  1  0.750040  0.999996  0.237628  1
  Ho  Ho3  1  0.249976  0.762862  0.999851  1
  Ho  Ho4  1  0.249953  0.237137  0.236955  1
  Tm  Tm5  1  0.249958  0.999949  0.762872  1
  Tm  Tm6  1  0.499891  0.333325  0.666701  1
  Lu  Lu7  1  0.499897  0.666636  0.333338  1
  Lu  Lu8  1  0.000089  0.666685  0.333333  1
  Lu  Lu9  1  0.000093  0.333356  0.666697  1
  Pb  Pb10  1  0.750070  0.604184  0.000073  1
  Pb  Pb11  1  0.750107  0.395955  0.395821  1
  Pb  Pb12  1  0.750122  0.999880  0.603923  1
  Pb  Pb13  1  0.249919  0.394691  0.999319  1
  Pb  Pb14  1  0.249926  0.605370  0.604440  1
  Pb  Pb15  1  0.249875  0.999927  0.396518  1
