# generated using pymatgen
data_Ca2Ta3Ni9As7
_symmetry_space_group_name_H-M   'P 1'
_cell_length_a   3.82950400
_cell_length_b   9.66762352
_cell_length_c   9.66762300
_cell_angle_alpha   120.00000073
_cell_angle_beta   90.00000000
_cell_angle_gamma   90.00000000
_symmetry_Int_Tables_number   1
_chemical_formula_structural   Ca2Ta3Ni9As7
_chemical_formula_sum   'Ca2 Ta3 Ni9 As7'
_cell_volume   309.96495289
_cell_formula_units_Z   1
loop_
 _symmetry_equiv_pos_site_id
 _symmetry_equiv_pos_as_xyz
  1  'x, y, z'
loop_
 _atom_site_type_symbol
 _atom_site_label
 _atom_site_symmetry_multiplicity
 _atom_site_fract_x
 _atom_site_fract_y
 _atom_site_fract_z
 _atom_site_occupancy
  Ca  Ca0  1  0.000000  0.666667  0.333333  1
  Ca  Ca1  1  0.500000  0.333333  0.666667  1
  Ta  Ta2  1  0.500000  0.777418  0.894698  1
  Ta  Ta3  1  0.500000  0.117281  0.222582  1
  Ta  Ta4  1  0.500000  0.105302  0.882719  1
  Ni  Ni5  1  0.000000  0.576520  0.935024  1
  Ni  Ni6  1  0.000000  0.358504  0.423480  1
  Ni  Ni7  1  0.000000  0.064976  0.641496  1
  Ni  Ni8  1  0.000000  0.872986  0.153497  1
  Ni  Ni9  1  0.000000  0.280512  0.127014  1
  Ni  Ni10  1  0.000000  0.846503  0.719488  1
  Ni  Ni11  1  0.500000  0.940697  0.373111  1
  Ni  Ni12  1  0.500000  0.432413  0.059303  1
  Ni  Ni13  1  0.500000  0.626889  0.567587  1
  As  As14  1  0.500000  0.700763  0.115712  1
  As  As15  1  0.500000  0.414949  0.299237  1
  As  As16  1  0.500000  0.884288  0.585051  1
  As  As17  1  0.000000  0.000000  0.000000  1
  As  As18  1  0.000000  0.581597  0.690629  1
  As  As19  1  0.000000  0.109033  0.418403  1
  As  As20  1  0.000000  0.309371  0.890967  1
