# generated using pymatgen
data_Dy3ThAgOs
_symmetry_space_group_name_H-M   'P 1'
_cell_length_a   9.61342588
_cell_length_b   9.61342532
_cell_length_c   9.61342500
_cell_angle_alpha   59.99999767
_cell_angle_beta   59.99999960
_cell_angle_gamma   60.00000376
_symmetry_Int_Tables_number   1
_chemical_formula_structural   Dy3ThAgOs
_chemical_formula_sum   'Dy12 Th4 Ag4 Os4'
_cell_volume   628.23118038
_cell_formula_units_Z   4
loop_
 _symmetry_equiv_pos_site_id
 _symmetry_equiv_pos_as_xyz
  1  'x, y, z'
loop_
 _atom_site_type_symbol
 _atom_site_label
 _atom_site_symmetry_multiplicity
 _atom_site_fract_x
 _atom_site_fract_y
 _atom_site_fract_z
 _atom_site_occupancy
  Dy  Dy0  1  0.810744  0.189256  0.189256  1
  Dy  Dy1  1  0.189256  0.810744  0.810744  1
  Dy  Dy2  1  0.189256  0.810744  0.189256  1
  Dy  Dy3  1  0.810744  0.189256  0.810744  1
  Dy  Dy4  1  0.189256  0.189256  0.810744  1
  Dy  Dy5  1  0.810744  0.810744  0.189256  1
  Dy  Dy6  1  0.938025  0.561975  0.561975  1
  Dy  Dy7  1  0.561975  0.938025  0.938025  1
  Dy  Dy8  1  0.561975  0.938025  0.561975  1
  Dy  Dy9  1  0.938025  0.561975  0.938025  1
  Dy  Dy10  1  0.561975  0.561975  0.938025  1
  Dy  Dy11  1  0.938025  0.938025  0.561975  1
  Th  Th12  1  0.350727  0.350727  0.350727  1
  Th  Th13  1  0.350727  0.350727  0.947820  1
  Th  Th14  1  0.350727  0.947820  0.350727  1
  Th  Th15  1  0.947820  0.350727  0.350727  1
  Ag  Ag16  1  0.582696  0.582696  0.582696  1
  Ag  Ag17  1  0.582696  0.582696  0.251913  1
  Ag  Ag18  1  0.582696  0.251913  0.582696  1
  Ag  Ag19  1  0.251913  0.582696  0.582696  1
  Os  Os20  1  0.142739  0.142739  0.142739  1
  Os  Os21  1  0.142739  0.142739  0.571782  1
  Os  Os22  1  0.142739  0.571782  0.142739  1
  Os  Os23  1  0.571782  0.142739  0.142739  1
