# generated using pymatgen
data_Dy8Lu4InCo4Ru
_symmetry_space_group_name_H-M   'P 1'
_cell_length_a   8.23068608
_cell_length_b   8.23068669
_cell_length_c   8.23068671
_cell_angle_alpha   110.98430793
_cell_angle_beta   111.25689432
_cell_angle_gamma   106.22067114
_symmetry_Int_Tables_number   1
_chemical_formula_structural   Dy8Lu4InCo4Ru
_chemical_formula_sum   'Dy8 Lu4 In1 Co4 Ru1'
_cell_volume   428.19507865
_cell_formula_units_Z   1
loop_
 _symmetry_equiv_pos_site_id
 _symmetry_equiv_pos_as_xyz
  1  'x, y, z'
loop_
 _atom_site_type_symbol
 _atom_site_label
 _atom_site_symmetry_multiplicity
 _atom_site_fract_x
 _atom_site_fract_y
 _atom_site_fract_z
 _atom_site_occupancy
  Dy  Dy0  1  0.185928  0.283917  0.469845  1
  Dy  Dy1  1  0.814072  0.716083  0.530155  1
  Dy  Dy2  1  0.185928  0.716083  0.902011  1
  Dy  Dy3  1  0.814072  0.283917  0.097989  1
  Dy  Dy4  1  0.313113  0.618393  0.305281  1
  Dy  Dy5  1  0.686887  0.381607  0.694719  1
  Dy  Dy6  1  0.313113  0.007832  0.694719  1
  Dy  Dy7  1  0.686887  0.992168  0.305281  1
  Lu  Lu8  1  0.409620  0.217449  0.192172  1
  Lu  Lu9  1  0.590380  0.782551  0.807828  1
  Lu  Lu10  1  0.025277  0.217449  0.807828  1
  Lu  Lu11  1  0.974723  0.782551  0.192172  1
  In  In12  1  0.500000  0.500000  0.000000  1
  Co  Co13  1  0.374613  0.000000  0.374613  1
  Co  Co14  1  0.625387  0.000000  0.625387  1
  Co  Co15  1  0.111617  0.611617  0.500000  1
  Co  Co16  1  0.888383  0.388383  0.500000  1
  Ru  Ru17  1  0.000000  0.000000  0.000000  1
