# generated using pymatgen
data_Y4Al18CuRh5
_symmetry_space_group_name_H-M   'P 1'
_cell_length_a   7.57468776
_cell_length_b   7.57468885
_cell_length_c   9.47403673
_cell_angle_alpha   90.07810522
_cell_angle_beta   90.07810544
_cell_angle_gamma   119.64148655
_symmetry_Int_Tables_number   1
_chemical_formula_structural   Y4Al18CuRh5
_chemical_formula_sum   'Y4 Al18 Cu1 Rh5'
_cell_volume   472.44500737
_cell_formula_units_Z   1
loop_
 _symmetry_equiv_pos_site_id
 _symmetry_equiv_pos_as_xyz
  1  'x, y, z'
loop_
 _atom_site_type_symbol
 _atom_site_label
 _atom_site_symmetry_multiplicity
 _atom_site_fract_x
 _atom_site_fract_y
 _atom_site_fract_z
 _atom_site_occupancy
  Y  Y0  1  0.995066  0.671086  0.249764  1
  Y  Y1  1  0.004934  0.328914  0.750236  1
  Y  Y2  1  0.671086  0.995066  0.249764  1
  Y  Y3  1  0.328914  0.004934  0.750236  1
  Al  Al4  1  0.128457  0.128457  0.251452  1
  Al  Al5  1  0.871543  0.871543  0.748548  1
  Al  Al6  1  0.000819  0.337610  0.076019  1
  Al  Al7  1  0.999181  0.662390  0.923981  1
  Al  Al8  1  0.999879  0.665606  0.573598  1
  Al  Al9  1  0.334394  0.000121  0.426402  1
  Al  Al10  1  0.000121  0.334394  0.426402  1
  Al  Al11  1  0.665606  0.999879  0.573598  1
  Al  Al12  1  0.662390  0.999181  0.923981  1
  Al  Al13  1  0.337610  0.000819  0.076019  1
  Al  Al14  1  0.333383  0.333383  0.551359  1
  Al  Al15  1  0.666617  0.666617  0.448641  1
  Al  Al16  1  0.663901  0.663901  0.052576  1
  Al  Al17  1  0.336099  0.336099  0.947424  1
  Al  Al18  1  0.338572  0.548707  0.250294  1
  Al  Al19  1  0.661428  0.451293  0.749706  1
  Al  Al20  1  0.548707  0.338572  0.250294  1
  Al  Al21  1  0.451293  0.661428  0.749706  1
  Cu  Cu22  1  0.000000  0.000000  0.000000  1
  Rh  Rh23  1  0.671918  0.328082  0.000000  1
  Rh  Rh24  1  0.328082  0.671918  0.000000  1
  Rh  Rh25  1  0.327911  0.672089  0.500000  1
  Rh  Rh26  1  0.672089  0.327911  0.500000  1
  Rh  Rh27  1  0.000000  0.000000  0.500000  1
