# generated using pymatgen
data_Ho5Sn2(HgPt)2
_symmetry_space_group_name_H-M   'P 1'
_cell_length_a   3.64812400
_cell_length_b   8.03208300
_cell_length_c   18.04611000
_cell_angle_alpha   90.00000000
_cell_angle_beta   90.00000000
_cell_angle_gamma   90.00000000
_symmetry_Int_Tables_number   1
_chemical_formula_structural   Ho5Sn2(HgPt)2
_chemical_formula_sum   'Ho10 Sn4 Hg4 Pt4'
_cell_volume   528.78774254
_cell_formula_units_Z   2
loop_
 _symmetry_equiv_pos_site_id
 _symmetry_equiv_pos_as_xyz
  1  'x, y, z'
loop_
 _atom_site_type_symbol
 _atom_site_label
 _atom_site_symmetry_multiplicity
 _atom_site_fract_x
 _atom_site_fract_y
 _atom_site_fract_z
 _atom_site_occupancy
  Ho  Ho0  1  0.000000  0.112733  0.414801  1
  Ho  Ho1  1  0.000000  0.887267  0.585199  1
  Ho  Ho2  1  0.000000  0.387267  0.914801  1
  Ho  Ho3  1  0.000000  0.612733  0.085199  1
  Ho  Ho4  1  0.000000  0.242746  0.217425  1
  Ho  Ho5  1  0.000000  0.757254  0.782575  1
  Ho  Ho6  1  0.000000  0.257254  0.717425  1
  Ho  Ho7  1  0.000000  0.742746  0.282575  1
  Ho  Ho8  1  0.000000  0.000000  0.000000  1
  Ho  Ho9  1  0.000000  0.500000  0.500000  1
  Sn  Sn10  1  0.500000  0.422421  0.352689  1
  Sn  Sn11  1  0.500000  0.577579  0.647311  1
  Sn  Sn12  1  0.500000  0.077579  0.852689  1
  Sn  Sn13  1  0.500000  0.922421  0.147311  1
  Hg  Hg14  1  0.500000  0.292069  0.064192  1
  Hg  Hg15  1  0.500000  0.707931  0.935808  1
  Hg  Hg16  1  0.500000  0.207931  0.564192  1
  Hg  Hg17  1  0.500000  0.792069  0.435808  1
  Pt  Pt18  1  0.500000  0.027307  0.302137  1
  Pt  Pt19  1  0.500000  0.972693  0.697863  1
  Pt  Pt20  1  0.500000  0.472693  0.802137  1
  Pt  Pt21  1  0.500000  0.527307  0.197863  1
