# generated using pymatgen
data_Ac4Cd3In5
_symmetry_space_group_name_H-M   'P 1'
_cell_length_a   5.14493100
_cell_length_b   8.14341696
_cell_length_c   8.75823294
_cell_angle_alpha   89.90701823
_cell_angle_beta   90.00000000
_cell_angle_gamma   90.00000000
_symmetry_Int_Tables_number   1
_chemical_formula_structural   Ac4Cd3In5
_chemical_formula_sum   'Ac4 Cd3 In5'
_cell_volume   366.94599089
_cell_formula_units_Z   1
loop_
 _symmetry_equiv_pos_site_id
 _symmetry_equiv_pos_as_xyz
  1  'x, y, z'
loop_
 _atom_site_type_symbol
 _atom_site_label
 _atom_site_symmetry_multiplicity
 _atom_site_fract_x
 _atom_site_fract_y
 _atom_site_fract_z
 _atom_site_occupancy
  Ac  Ac0  1  0.500000  0.496273  0.789955  1
  Ac  Ac1  1  0.500000  0.000066  0.711628  1
  Ac  Ac2  1  0.000000  0.498723  0.210317  1
  Ac  Ac3  1  0.000000  0.003252  0.288454  1
  Cd  Cd4  1  0.500000  0.187197  0.082178  1
  Cd  Cd5  1  0.000000  0.311370  0.583630  1
  Cd  Cd6  1  0.000000  0.811779  0.918175  1
  In  In7  1  0.500000  0.795229  0.087921  1
  In  In8  1  0.500000  0.293524  0.408546  1
  In  In9  1  0.000000  0.205391  0.909606  1
  In  In10  1  0.000000  0.705628  0.593705  1
  In  In11  1  0.500000  0.691569  0.415887  1
