# generated using pymatgen
data_LaNd11Ga8IrRh7
_symmetry_space_group_name_H-M   'P 1'
_cell_length_a   5.69632087
_cell_length_b   8.21740742
_cell_length_c   13.69339901
_cell_angle_alpha   90.09435648
_cell_angle_beta   89.94450344
_cell_angle_gamma   90.00342628
_symmetry_Int_Tables_number   1
_chemical_formula_structural   LaNd11Ga8IrRh7
_chemical_formula_sum   'La1 Nd11 Ga8 Ir1 Rh7'
_cell_volume   640.97299767
_cell_formula_units_Z   1
loop_
 _symmetry_equiv_pos_site_id
 _symmetry_equiv_pos_as_xyz
  1  'x, y, z'
loop_
 _atom_site_type_symbol
 _atom_site_label
 _atom_site_symmetry_multiplicity
 _atom_site_fract_x
 _atom_site_fract_y
 _atom_site_fract_z
 _atom_site_occupancy
  La  La0  1  0.852109  0.902369  0.095698  1
  Nd  Nd1  1  0.633949  0.259028  0.250273  1
  Nd  Nd2  1  0.363967  0.740831  0.749667  1
  Nd  Nd3  1  0.364253  0.758938  0.249902  1
  Nd  Nd4  1  0.636461  0.240890  0.749563  1
  Nd  Nd5  1  0.148573  0.396514  0.098032  1
  Nd  Nd6  1  0.851463  0.599895  0.901314  1
  Nd  Nd7  1  0.851956  0.601283  0.597870  1
  Nd  Nd8  1  0.851360  0.898436  0.402765  1
  Nd  Nd9  1  0.148456  0.399415  0.402491  1
  Nd  Nd10  1  0.148568  0.100609  0.597958  1
  Nd  Nd11  1  0.149030  0.102683  0.900155  1
  Ga  Ga12  1  0.137804  0.110664  0.251875  1
  Ga  Ga13  1  0.862830  0.889065  0.750109  1
  Ga  Ga14  1  0.863107  0.608702  0.250448  1
  Ga  Ga15  1  0.137662  0.390201  0.749568  1
  Ga  Ga16  1  0.630798  0.251646  0.999380  1
  Ga  Ga17  1  0.367430  0.749293  0.000164  1
  Ga  Ga18  1  0.365982  0.749768  0.499847  1
  Ga  Ga19  1  0.634053  0.249755  0.499912  1
  Ir  Ir20  1  0.359204  0.032048  0.092803  1
  Rh  Rh21  1  0.641135  0.968248  0.908680  1
  Rh  Rh22  1  0.640085  0.967481  0.592372  1
  Rh  Rh23  1  0.640381  0.531817  0.408374  1
  Rh  Rh24  1  0.359901  0.032186  0.408831  1
  Rh  Rh25  1  0.360178  0.467818  0.592046  1
  Rh  Rh26  1  0.358143  0.469003  0.907852  1
  Rh  Rh27  1  0.641163  0.531414  0.092052  1
