# generated using pymatgen
data_Ho5BiIrPb
_symmetry_space_group_name_H-M   'P 1'
_cell_length_a   7.93244157
_cell_length_b   9.05378593
_cell_length_c   12.38469254
_cell_angle_alpha   90.09246112
_cell_angle_beta   90.07088025
_cell_angle_gamma   89.98552836
_symmetry_Int_Tables_number   1
_chemical_formula_structural   Ho5BiIrPb
_chemical_formula_sum   'Ho20 Bi4 Ir4 Pb4'
_cell_volume   889.44975818
_cell_formula_units_Z   4
loop_
 _symmetry_equiv_pos_site_id
 _symmetry_equiv_pos_as_xyz
  1  'x, y, z'
loop_
 _atom_site_type_symbol
 _atom_site_label
 _atom_site_symmetry_multiplicity
 _atom_site_fract_x
 _atom_site_fract_y
 _atom_site_fract_z
 _atom_site_occupancy
  Ho  Ho0  1  0.838870  0.746476  0.791756  1
  Ho  Ho1  1  0.164325  0.250647  0.208791  1
  Ho  Ho2  1  0.339398  0.253542  0.709065  1
  Ho  Ho3  1  0.657378  0.749815  0.291407  1
  Ho  Ho4  1  0.373720  0.746630  0.692982  1
  Ho  Ho5  1  0.621117  0.250318  0.305471  1
  Ho  Ho6  1  0.874148  0.252941  0.806260  1
  Ho  Ho7  1  0.131010  0.749498  0.192234  1
  Ho  Ho8  1  0.948138  0.747922  0.503535  1
  Ho  Ho9  1  0.052879  0.252062  0.499116  1
  Ho  Ho10  1  0.447505  0.251869  0.998888  1
  Ho  Ho11  1  0.551587  0.747900  0.003646  1
  Ho  Ho12  1  0.675646  0.042313  0.566821  1
  Ho  Ho13  1  0.324405  0.958591  0.430852  1
  Ho  Ho14  1  0.176633  0.958592  0.933812  1
  Ho  Ho15  1  0.324684  0.541185  0.431656  1
  Ho  Ho16  1  0.821882  0.040531  0.067299  1
  Ho  Ho17  1  0.676723  0.459766  0.569538  1
  Ho  Ho18  1  0.822106  0.459673  0.066772  1
  Ho  Ho19  1  0.177704  0.539614  0.931488  1
  Bi  Bi20  1  0.932345  0.491887  0.326916  1
  Bi  Bi21  1  0.567128  0.007552  0.826671  1
  Bi  Bi22  1  0.932656  0.007840  0.327859  1
  Bi  Bi23  1  0.066539  0.992562  0.672771  1
  Ir  Ir24  1  0.572566  0.750487  0.508859  1
  Ir  Ir25  1  0.426964  0.249833  0.491232  1
  Ir  Ir26  1  0.071389  0.249463  0.991205  1
  Ir  Ir27  1  0.929244  0.750182  0.008861  1
  Pb  Pb28  1  0.568251  0.492391  0.827930  1
  Pb  Pb29  1  0.432483  0.507479  0.172769  1
  Pb  Pb30  1  0.067958  0.507350  0.671810  1
  Pb  Pb31  1  0.432620  0.993092  0.171729  1
