# generated using pymatgen
data_Dy9TmZn3Bi2Au
_symmetry_space_group_name_H-M   'P 1'
_cell_length_a   8.66038137
_cell_length_b   8.66038206
_cell_length_c   8.66570847
_cell_angle_alpha   123.91212400
_cell_angle_beta   123.91448702
_cell_angle_gamma   83.30627700
_symmetry_Int_Tables_number   1
_chemical_formula_structural   Dy9TmZn3Bi2Au
_chemical_formula_sum   'Dy9 Tm1 Zn3 Bi2 Au1'
_cell_volume   429.35611485
_cell_formula_units_Z   1
loop_
 _symmetry_equiv_pos_site_id
 _symmetry_equiv_pos_as_xyz
  1  'x, y, z'
loop_
 _atom_site_type_symbol
 _atom_site_label
 _atom_site_symmetry_multiplicity
 _atom_site_fract_x
 _atom_site_fract_y
 _atom_site_fract_z
 _atom_site_occupancy
  Dy  Dy0  1  0.000189  0.000371  0.000560  1
  Dy  Dy1  1  0.509532  0.011742  0.805628  1
  Dy  Dy2  1  0.204636  0.705432  0.194357  1
  Dy  Dy3  1  0.012591  0.205374  0.500760  1
  Dy  Dy4  1  0.704801  0.511175  0.499371  1
  Dy  Dy5  1  0.488925  0.989721  0.194357  1
  Dy  Dy6  1  0.793886  0.296096  0.805628  1
  Dy  Dy7  1  0.988196  0.794571  0.499371  1
  Dy  Dy8  1  0.295386  0.488170  0.500760  1
  Tm  Tm9  1  0.499584  0.499596  0.999180  1
  Zn  Zn10  1  0.138557  0.639654  0.778212  1
  Zn  Zn11  1  0.859521  0.362157  0.221677  1
  Zn  Zn12  1  0.639759  0.859428  0.499187  1
  Bi  Bi13  1  0.249862  0.251662  0.000020  1
  Bi  Bi14  1  0.748358  0.750158  0.000020  1
  Au  Au15  1  0.366218  0.134694  0.500911  1
