# generated using pymatgen
data_Th3InGe2Ir3
_symmetry_space_group_name_H-M   'P 1'
_cell_length_a   7.41296137
_cell_length_b   7.41296058
_cell_length_c   4.04617600
_cell_angle_alpha   90.00000000
_cell_angle_beta   90.00000000
_cell_angle_gamma   119.27462668
_symmetry_Int_Tables_number   1
_chemical_formula_structural   Th3InGe2Ir3
_chemical_formula_sum   'Th3 In1 Ge2 Ir3'
_cell_volume   193.94878088
_cell_formula_units_Z   1
loop_
 _symmetry_equiv_pos_site_id
 _symmetry_equiv_pos_as_xyz
  1  'x, y, z'
loop_
 _atom_site_type_symbol
 _atom_site_label
 _atom_site_symmetry_multiplicity
 _atom_site_fract_x
 _atom_site_fract_y
 _atom_site_fract_z
 _atom_site_occupancy
  Th  Th0  1  0.419079  0.998209  0.500000  1
  Th  Th1  1  0.998209  0.419079  0.500000  1
  Th  Th2  1  0.591866  0.591866  0.500000  1
  In  In3  1  0.243677  0.243677  0.000000  1
  Ge  Ge4  1  0.758661  0.005253  0.000000  1
  Ge  Ge5  1  0.005253  0.758661  0.000000  1
  Ir  Ir6  1  0.331703  0.672587  0.000000  1
  Ir  Ir7  1  0.672587  0.331703  0.000000  1
  Ir  Ir8  1  0.978963  0.978963  0.500000  1
