# generated using pymatgen
data_Tm20SnBi7Ir4
_symmetry_space_group_name_H-M   'P 1'
_cell_length_a   7.90894259
_cell_length_b   8.99224262
_cell_length_c   12.33743700
_cell_angle_alpha   90.03375721
_cell_angle_beta   90.06810490
_cell_angle_gamma   90.06076488
_symmetry_Int_Tables_number   1
_chemical_formula_structural   Tm20SnBi7Ir4
_chemical_formula_sum   'Tm20 Sn1 Bi7 Ir4'
_cell_volume   877.42652761
_cell_formula_units_Z   1
loop_
 _symmetry_equiv_pos_site_id
 _symmetry_equiv_pos_as_xyz
  1  'x, y, z'
loop_
 _atom_site_type_symbol
 _atom_site_label
 _atom_site_symmetry_multiplicity
 _atom_site_fract_x
 _atom_site_fract_y
 _atom_site_fract_z
 _atom_site_occupancy
  Tm  Tm0  1  0.663414  0.754361  0.708833  1
  Tm  Tm1  1  0.340932  0.249075  0.294161  1
  Tm  Tm2  1  0.157209  0.246018  0.789713  1
  Tm  Tm3  1  0.840761  0.748975  0.207761  1
  Tm  Tm4  1  0.117889  0.754435  0.805186  1
  Tm  Tm5  1  0.878205  0.249985  0.192005  1
  Tm  Tm6  1  0.628824  0.245965  0.693033  1
  Tm  Tm7  1  0.377799  0.750620  0.307529  1
  Tm  Tm8  1  0.556264  0.749245  0.998568  1
  Tm  Tm9  1  0.441968  0.250785  0.001156  1
  Tm  Tm10  1  0.053891  0.246237  0.504004  1
  Tm  Tm11  1  0.943556  0.753609  0.500374  1
  Tm  Tm12  1  0.825016  0.456831  0.933453  1
  Tm  Tm13  1  0.173699  0.543861  0.065310  1
  Tm  Tm14  1  0.326388  0.542269  0.566475  1
  Tm  Tm15  1  0.173374  0.957466  0.065852  1
  Tm  Tm16  1  0.675103  0.458052  0.434886  1
  Tm  Tm17  1  0.827870  0.042135  0.928924  1
  Tm  Tm18  1  0.675816  0.042910  0.437286  1
  Tm  Tm19  1  0.321875  0.958099  0.566854  1
  Sn  Sn20  1  0.933208  0.007884  0.670126  1
  Bi  Bi21  1  0.068238  0.990527  0.326852  1
  Bi  Bi22  1  0.430662  0.990620  0.828890  1
  Bi  Bi23  1  0.069171  0.508778  0.329220  1
  Bi  Bi24  1  0.568714  0.009378  0.171791  1
  Bi  Bi25  1  0.931564  0.491667  0.671586  1
  Bi  Bi26  1  0.567517  0.490216  0.172767  1
  Bi  Bi27  1  0.431690  0.509042  0.826621  1
  Ir  Ir28  1  0.926143  0.750220  0.990707  1
  Ir  Ir29  1  0.072429  0.250441  0.007978  1
  Ir  Ir30  1  0.429105  0.250071  0.510310  1
  Ir  Ir31  1  0.571704  0.750228  0.491787  1
