# generated using pymatgen
data_Zr4CdC2S
_symmetry_space_group_name_H-M   'P 1'
_cell_length_a   3.38269300
_cell_length_b   3.38269319
_cell_length_c   13.85100500
_cell_angle_alpha   90.00000000
_cell_angle_beta   90.00000000
_cell_angle_gamma   120.00000794
_symmetry_Int_Tables_number   1
_chemical_formula_structural   Zr4CdC2S
_chemical_formula_sum   'Zr4 Cd1 C2 S1'
_cell_volume   137.25781358
_cell_formula_units_Z   1
loop_
 _symmetry_equiv_pos_site_id
 _symmetry_equiv_pos_as_xyz
  1  'x, y, z'
loop_
 _atom_site_type_symbol
 _atom_site_label
 _atom_site_symmetry_multiplicity
 _atom_site_fract_x
 _atom_site_fract_y
 _atom_site_fract_z
 _atom_site_occupancy
  Zr  Zr0  1  0.333333  0.666667  0.436479  1
  Zr  Zr1  1  0.666667  0.333333  0.882875  1
  Zr  Zr2  1  0.666667  0.333333  0.617125  1
  Zr  Zr3  1  0.333333  0.666667  0.063521  1
  Cd  Cd4  1  0.666667  0.333333  0.250000  1
  C  C5  1  0.000000  0.000000  0.524789  1
  C  C6  1  0.000000  0.000000  0.975211  1
  S  S7  1  0.333333  0.666667  0.750000  1
