# generated using pymatgen
data_Sm3Th11Os6
_symmetry_space_group_name_H-M   'P 1'
_cell_length_a   9.91311970
_cell_length_b   10.01681160
_cell_length_c   6.37487130
_cell_angle_alpha   89.84499525
_cell_angle_beta   90.16848635
_cell_angle_gamma   119.99198849
_symmetry_Int_Tables_number   1
_chemical_formula_structural   Sm3Th11Os6
_chemical_formula_sum   'Sm3 Th11 Os6'
_cell_volume   548.24495467
_cell_formula_units_Z   1
loop_
 _symmetry_equiv_pos_site_id
 _symmetry_equiv_pos_as_xyz
  1  'x, y, z'
loop_
 _atom_site_type_symbol
 _atom_site_label
 _atom_site_symmetry_multiplicity
 _atom_site_fract_x
 _atom_site_fract_y
 _atom_site_fract_z
 _atom_site_occupancy
  Sm  Sm0  1  0.462644  0.536844  0.297051  1
  Sm  Sm1  1  0.073674  0.536649  0.296245  1
  Sm  Sm2  1  0.926553  0.461760  0.795729  1
  Th  Th3  1  0.251316  0.127325  0.509954  1
  Th  Th4  1  0.540495  0.079478  0.797389  1
  Th  Th5  1  0.747207  0.872637  0.011426  1
  Th  Th6  1  0.666133  0.333434  0.276329  1
  Th  Th7  1  0.126640  0.871217  0.006048  1
  Th  Th8  1  0.461856  0.921265  0.298173  1
  Th  Th9  1  0.536832  0.463708  0.799741  1
  Th  Th10  1  0.874441  0.128731  0.510020  1
  Th  Th11  1  0.124389  0.251529  0.011221  1
  Th  Th12  1  0.874277  0.748624  0.508622  1
  Th  Th13  1  0.333932  0.666467  0.773884  1
  Os  Os14  1  0.811052  0.629386  0.047066  1
  Os  Os15  1  0.810645  0.180499  0.049925  1
  Os  Os16  1  0.630630  0.817316  0.549752  1
  Os  Os17  1  0.371659  0.185868  0.042761  1
  Os  Os18  1  0.186120  0.367610  0.557301  1
  Os  Os19  1  0.189506  0.819654  0.545361  1
