# generated using pymatgen
data_Er2Tm6Re3B24Rh
_symmetry_space_group_name_H-M   'P 1'
_cell_length_a   3.64300400
_cell_length_b   9.09714143
_cell_length_c   11.46758514
_cell_angle_alpha   90.13936503
_cell_angle_beta   90.00000000
_cell_angle_gamma   90.00000000
_symmetry_Int_Tables_number   1
_chemical_formula_structural   Er2Tm6Re3B24Rh
_chemical_formula_sum   'Er2 Tm6 Re3 B24 Rh1'
_cell_volume   380.04522749
_cell_formula_units_Z   1
loop_
 _symmetry_equiv_pos_site_id
 _symmetry_equiv_pos_as_xyz
  1  'x, y, z'
loop_
 _atom_site_type_symbol
 _atom_site_label
 _atom_site_symmetry_multiplicity
 _atom_site_fract_x
 _atom_site_fract_y
 _atom_site_fract_z
 _atom_site_occupancy
  Er  Er0  1  0.000000  0.317801  0.415419  1
  Er  Er1  1  0.000000  0.678743  0.591159  1
  Tm  Tm2  1  0.000000  0.826916  0.081104  1
  Tm  Tm3  1  0.000000  0.177662  0.912706  1
  Tm  Tm4  1  0.000000  0.943419  0.370264  1
  Tm  Tm5  1  0.000000  0.055738  0.628821  1
  Tm  Tm6  1  0.000000  0.441497  0.128651  1
  Tm  Tm7  1  0.000000  0.556596  0.871826  1
  Re  Re8  1  0.000000  0.362226  0.677899  1
  Re  Re9  1  0.000000  0.138283  0.179993  1
  Re  Re10  1  0.000000  0.861663  0.820916  1
  B  B11  1  0.500000  0.554043  0.433957  1
  B  B12  1  0.500000  0.446750  0.566308  1
  B  B13  1  0.500000  0.053220  0.066167  1
  B  B14  1  0.500000  0.947361  0.933124  1
  B  B15  1  0.500000  0.749551  0.420501  1
  B  B16  1  0.500000  0.249764  0.580674  1
  B  B17  1  0.500000  0.249966  0.080820  1
  B  B18  1  0.500000  0.751026  0.919376  1
  B  B19  1  0.500000  0.791630  0.264629  1
  B  B20  1  0.500000  0.207724  0.734503  1
  B  B21  1  0.500000  0.292525  0.235505  1
  B  B22  1  0.500000  0.707604  0.765668  1
  B  B23  1  0.500000  0.631881  0.183510  1
  B  B24  1  0.500000  0.369482  0.814822  1
  B  B25  1  0.500000  0.130557  0.315409  1
  B  B26  1  0.500000  0.868737  0.684979  1
  B  B27  1  0.500000  0.981905  0.212016  1
  B  B28  1  0.500000  0.018248  0.787014  1
  B  B29  1  0.500000  0.482767  0.287860  1
  B  B30  1  0.500000  0.518703  0.712597  1
  B  B31  1  0.500000  0.603400  0.029206  1
  B  B32  1  0.500000  0.397912  0.972276  1
  B  B33  1  0.500000  0.100931  0.471342  1
  B  B34  1  0.500000  0.895770  0.528009  1
  Rh  Rh35  1  0.000000  0.638000  0.320969  1
