# generated using pymatgen
data_LaInSn3Rh2
_symmetry_space_group_name_H-M   'P 1'
_cell_length_a   4.60976200
_cell_length_b   7.16735200
_cell_length_c   18.79977100
_cell_angle_alpha   90.00000000
_cell_angle_beta   90.00000000
_cell_angle_gamma   90.00000000
_symmetry_Int_Tables_number   1
_chemical_formula_structural   LaInSn3Rh2
_chemical_formula_sum   'La4 In4 Sn12 Rh8'
_cell_volume   621.14042743
_cell_formula_units_Z   4
loop_
 _symmetry_equiv_pos_site_id
 _symmetry_equiv_pos_as_xyz
  1  'x, y, z'
loop_
 _atom_site_type_symbol
 _atom_site_label
 _atom_site_symmetry_multiplicity
 _atom_site_fract_x
 _atom_site_fract_y
 _atom_site_fract_z
 _atom_site_occupancy
  La  La0  1  0.250000  0.001288  0.859438  1
  La  La1  1  0.250000  0.498712  0.359438  1
  La  La2  1  0.750000  0.998712  0.140562  1
  La  La3  1  0.750000  0.501288  0.640562  1
  In  In4  1  0.250000  0.309124  0.180011  1
  In  In5  1  0.250000  0.190876  0.680011  1
  In  In6  1  0.750000  0.690876  0.819989  1
  In  In7  1  0.750000  0.809124  0.319989  1
  Sn  Sn8  1  0.250000  0.723898  0.198621  1
  Sn  Sn9  1  0.250000  0.776102  0.698621  1
  Sn  Sn10  1  0.750000  0.276102  0.801379  1
  Sn  Sn11  1  0.750000  0.223898  0.301379  1
  Sn  Sn12  1  0.250000  0.862188  0.032542  1
  Sn  Sn13  1  0.250000  0.637812  0.532542  1
  Sn  Sn14  1  0.750000  0.137812  0.967458  1
  Sn  Sn15  1  0.750000  0.362188  0.467458  1
  Sn  Sn16  1  0.250000  0.522372  0.928144  1
  Sn  Sn17  1  0.250000  0.977628  0.428144  1
  Sn  Sn18  1  0.750000  0.477628  0.071856  1
  Sn  Sn19  1  0.750000  0.022372  0.571856  1
  Rh  Rh20  1  0.250000  0.254346  0.031800  1
  Rh  Rh21  1  0.250000  0.245654  0.531800  1
  Rh  Rh22  1  0.750000  0.745654  0.968200  1
  Rh  Rh23  1  0.750000  0.754346  0.468200  1
  Rh  Rh24  1  0.250000  0.028303  0.284406  1
  Rh  Rh25  1  0.250000  0.471697  0.784406  1
  Rh  Rh26  1  0.750000  0.971697  0.715594  1
  Rh  Rh27  1  0.750000  0.528303  0.215594  1
