# generated using pymatgen
data_Tb8Ti12Si15Ge
_symmetry_space_group_name_H-M   'P 1'
_cell_length_a   6.91230523
_cell_length_b   7.08153333
_cell_length_c   13.36703991
_cell_angle_alpha   89.98315660
_cell_angle_beta   89.91368471
_cell_angle_gamma   90.03068671
_symmetry_Int_Tables_number   1
_chemical_formula_structural   Tb8Ti12Si15Ge
_chemical_formula_sum   'Tb8 Ti12 Si15 Ge1'
_cell_volume   654.31199377
_cell_formula_units_Z   1
loop_
 _symmetry_equiv_pos_site_id
 _symmetry_equiv_pos_as_xyz
  1  'x, y, z'
loop_
 _atom_site_type_symbol
 _atom_site_label
 _atom_site_symmetry_multiplicity
 _atom_site_fract_x
 _atom_site_fract_y
 _atom_site_fract_z
 _atom_site_occupancy
  Tb  Tb0  1  0.996490  0.171183  0.403925  1
  Tb  Tb1  1  0.497431  0.329342  0.096708  1
  Tb  Tb2  1  0.504037  0.671048  0.595869  1
  Tb  Tb3  1  0.000842  0.826925  0.903048  1
  Tb  Tb4  1  0.003554  0.828970  0.595944  1
  Tb  Tb5  1  0.503773  0.670515  0.903489  1
  Tb  Tb6  1  0.496102  0.328402  0.404011  1
  Tb  Tb7  1  0.995933  0.172199  0.097063  1
  Ti  Ti8  1  0.338771  0.824100  0.128755  1
  Ti  Ti9  1  0.837703  0.674330  0.372796  1
  Ti  Ti10  1  0.662562  0.173805  0.627336  1
  Ti  Ti11  1  0.159260  0.329473  0.871157  1
  Ti  Ti12  1  0.163193  0.325476  0.627558  1
  Ti  Ti13  1  0.665836  0.174867  0.872369  1
  Ti  Ti14  1  0.335998  0.010059  0.747370  1
  Ti  Ti15  1  0.837812  0.673634  0.128125  1
  Ti  Ti16  1  0.663820  0.989789  0.250265  1
  Ti  Ti17  1  0.164116  0.509979  0.250174  1
  Ti  Ti18  1  0.836307  0.489949  0.749912  1
  Ti  Ti19  1  0.337116  0.825974  0.372467  1
  Si  Si20  1  0.341681  0.039398  0.541921  1
  Si  Si21  1  0.840604  0.459690  0.958401  1
  Si  Si22  1  0.662434  0.958989  0.043403  1
  Si  Si23  1  0.158269  0.539677  0.457842  1
  Si  Si24  1  0.158910  0.540064  0.042100  1
  Si  Si25  1  0.658498  0.960474  0.457735  1
  Si  Si26  1  0.842256  0.459982  0.542559  1
  Si  Si27  1  0.798204  0.378693  0.250581  1
  Si  Si28  1  0.298351  0.121196  0.250109  1
  Si  Si29  1  0.700771  0.879073  0.749774  1
  Si  Si30  1  0.202309  0.622349  0.749342  1
  Si  Si31  1  0.040683  0.871914  0.250261  1
  Si  Si32  1  0.541074  0.627758  0.250842  1
  Si  Si33  1  0.459847  0.371481  0.750058  1
  Si  Si34  1  0.959651  0.127958  0.749508  1
  Ge  Ge35  1  0.335802  0.041285  0.957219  1
