# generated using pymatgen
data_YHoTm2Al18(PdRh)3
_symmetry_space_group_name_H-M   'P 1'
_cell_length_a   7.52728100
_cell_length_b   7.52709210
_cell_length_c   9.43374700
_cell_angle_alpha   90.00000000
_cell_angle_beta   90.00000000
_cell_angle_gamma   119.32395593
_symmetry_Int_Tables_number   1
_chemical_formula_structural   YHoTm2Al18(PdRh)3
_chemical_formula_sum   'Y1 Ho1 Tm2 Al18 Pd3 Rh3'
_cell_volume   466.01362972
_cell_formula_units_Z   1
loop_
 _symmetry_equiv_pos_site_id
 _symmetry_equiv_pos_as_xyz
  1  'x, y, z'
loop_
 _atom_site_type_symbol
 _atom_site_label
 _atom_site_symmetry_multiplicity
 _atom_site_fract_x
 _atom_site_fract_y
 _atom_site_fract_z
 _atom_site_occupancy
  Y  Y0  1  0.669511  0.994327  0.250013  1
  Ho  Ho1  1  0.996197  0.671071  0.250303  1
  Tm  Tm2  1  0.005561  0.329779  0.749781  1
  Tm  Tm3  1  0.328507  0.003751  0.749531  1
  Al  Al4  1  0.126427  0.127016  0.250655  1
  Al  Al5  1  0.873810  0.874501  0.749337  1
  Al  Al6  1  0.000665  0.331890  0.075316  1
  Al  Al7  1  0.999613  0.668357  0.921551  1
  Al  Al8  1  0.997349  0.664233  0.576777  1
  Al  Al9  1  0.335175  0.003576  0.425912  1
  Al  Al10  1  0.996358  0.331323  0.425955  1
  Al  Al11  1  0.668596  0.004438  0.577108  1
  Al  Al12  1  0.668088  0.000417  0.921538  1
  Al  Al13  1  0.330991  0.001245  0.075750  1
  Al  Al14  1  0.331968  0.328928  0.554371  1
  Al  Al15  1  0.670867  0.667371  0.449538  1
  Al  Al16  1  0.669529  0.669317  0.054410  1
  Al  Al17  1  0.330098  0.330166  0.941715  1
  Al  Al18  1  0.339560  0.546006  0.250661  1
  Al  Al19  1  0.659042  0.449602  0.747005  1
  Al  Al20  1  0.549470  0.341515  0.253407  1
  Al  Al21  1  0.452553  0.659709  0.749329  1
  Pd  Pd22  1  0.672241  0.327890  0.999571  1
  Pd  Pd23  1  0.327243  0.672681  0.999459  1
  Pd  Pd24  1  0.327433  0.672625  0.500405  1
  Rh  Rh25  1  0.671993  0.327669  0.500718  1
  Rh  Rh26  1  0.000255  0.000617  0.998985  1
  Rh  Rh27  1  0.000898  0.999976  0.500897  1
