# generated using pymatgen
data_Dy2LuNi12B2Ir
_symmetry_space_group_name_H-M   'P 1'
_cell_length_a   4.90854300
_cell_length_b   4.96584888
_cell_length_c   10.95775200
_cell_angle_alpha   90.00000000
_cell_angle_beta   90.00000000
_cell_angle_gamma   119.61899520
_symmetry_Int_Tables_number   1
_chemical_formula_structural   Dy2LuNi12B2Ir
_chemical_formula_sum   'Dy2 Lu1 Ni12 B2 Ir1'
_cell_volume   232.19496375
_cell_formula_units_Z   1
loop_
 _symmetry_equiv_pos_site_id
 _symmetry_equiv_pos_as_xyz
  1  'x, y, z'
loop_
 _atom_site_type_symbol
 _atom_site_label
 _atom_site_symmetry_multiplicity
 _atom_site_fract_x
 _atom_site_fract_y
 _atom_site_fract_z
 _atom_site_occupancy
  Dy  Dy0  1  0.500000  0.000000  0.672916  1
  Dy  Dy1  1  0.500000  0.000000  0.327084  1
  Lu  Lu2  1  0.500000  0.000000  0.000000  1
  Ni  Ni3  1  0.500000  0.500000  0.500000  1
  Ni  Ni4  1  0.000000  0.500000  0.500000  1
  Ni  Ni5  1  0.830421  0.660841  0.685050  1
  Ni  Ni6  1  0.169579  0.339159  0.685050  1
  Ni  Ni7  1  0.169579  0.339159  0.314950  1
  Ni  Ni8  1  0.830421  0.660841  0.314950  1
  Ni  Ni9  1  0.000000  0.000000  0.867878  1
  Ni  Ni10  1  0.500000  0.500000  0.870441  1
  Ni  Ni11  1  0.000000  0.500000  0.870441  1
  Ni  Ni12  1  0.000000  0.000000  0.132122  1
  Ni  Ni13  1  0.500000  0.500000  0.129559  1
  Ni  Ni14  1  0.000000  0.500000  0.129559  1
  B  B15  1  0.836629  0.673257  0.000000  1
  B  B16  1  0.163371  0.326743  0.000000  1
  Ir  Ir17  1  0.000000  0.000000  0.500000  1
