# generated using pymatgen
data_Tb3Dy5Hf11Si16Au
_symmetry_space_group_name_H-M   'P 1'
_cell_length_a   7.29656121
_cell_length_b   7.29632712
_cell_length_c   13.27161904
_cell_angle_alpha   89.75736494
_cell_angle_beta   90.23033073
_cell_angle_gamma   89.81514267
_symmetry_Int_Tables_number   1
_chemical_formula_structural   Tb3Dy5Hf11Si16Au
_chemical_formula_sum   'Tb3 Dy5 Hf11 Si16 Au1'
_cell_volume   706.53998676
_cell_formula_units_Z   1
loop_
 _symmetry_equiv_pos_site_id
 _symmetry_equiv_pos_as_xyz
  1  'x, y, z'
loop_
 _atom_site_type_symbol
 _atom_site_label
 _atom_site_symmetry_multiplicity
 _atom_site_fract_x
 _atom_site_fract_y
 _atom_site_fract_z
 _atom_site_occupancy
  Tb  Tb0  1  0.495373  0.155095  0.535149  1
  Tb  Tb1  1  0.345723  0.997839  0.789550  1
  Tb  Tb2  1  0.655066  0.005077  0.283371  1
  Dy  Dy3  1  0.998047  0.345942  0.210523  1
  Dy  Dy4  1  0.004963  0.654873  0.716552  1
  Dy  Dy5  1  0.154879  0.495623  0.464713  1
  Dy  Dy6  1  0.498191  0.848381  0.032740  1
  Dy  Dy7  1  0.848450  0.498213  0.967311  1
  Hf  Hf8  1  0.824904  0.824614  0.500050  1
  Hf  Hf9  1  0.322765  0.676956  0.249006  1
  Hf  Hf10  1  0.677144  0.322967  0.751001  1
  Hf  Hf11  1  0.145465  0.996525  0.373877  1
  Hf  Hf12  1  0.857177  0.003113  0.878987  1
  Hf  Hf13  1  0.504248  0.646737  0.626477  1
  Hf  Hf14  1  0.355447  0.491764  0.877767  1
  Hf  Hf15  1  0.491655  0.355566  0.122192  1
  Hf  Hf16  1  0.646769  0.504302  0.373513  1
  Hf  Hf17  1  0.996604  0.145485  0.626145  1
  Hf  Hf18  1  0.003127  0.857147  0.120979  1
  Si  Si19  1  0.359422  0.296302  0.316341  1
  Si  Si20  1  0.640224  0.704177  0.819906  1
  Si  Si21  1  0.206851  0.860949  0.568619  1
  Si  Si22  1  0.131390  0.774519  0.927157  1
  Si  Si23  1  0.774898  0.131634  0.072881  1
  Si  Si24  1  0.861455  0.207212  0.431388  1
  Si  Si25  1  0.295852  0.359972  0.683683  1
  Si  Si26  1  0.704356  0.639825  0.180044  1
  Si  Si27  1  0.294916  0.052214  0.188763  1
  Si  Si28  1  0.705230  0.950119  0.686916  1
  Si  Si29  1  0.449817  0.795171  0.435549  1
  Si  Si30  1  0.210112  0.566439  0.064244  1
  Si  Si31  1  0.566665  0.210273  0.935851  1
  Si  Si32  1  0.795658  0.450165  0.564420  1
  Si  Si33  1  0.052086  0.295350  0.811165  1
  Si  Si34  1  0.950498  0.704773  0.313108  1
  Au  Au35  1  0.174566  0.174685  0.000062  1
