# generated using pymatgen
data_Th4Sc4Re(B8Ru)3
_symmetry_space_group_name_H-M   'P 1'
_cell_length_a   3.67568100
_cell_length_b   9.09671000
_cell_length_c   11.51383601
_cell_angle_alpha   90.00352121
_cell_angle_beta   90.00000000
_cell_angle_gamma   90.00000000
_symmetry_Int_Tables_number   1
_chemical_formula_structural   Th4Sc4Re(B8Ru)3
_chemical_formula_sum   'Th4 Sc4 Re1 B24 Ru3'
_cell_volume   384.98357575
_cell_formula_units_Z   1
loop_
 _symmetry_equiv_pos_site_id
 _symmetry_equiv_pos_as_xyz
  1  'x, y, z'
loop_
 _atom_site_type_symbol
 _atom_site_label
 _atom_site_symmetry_multiplicity
 _atom_site_fract_x
 _atom_site_fract_y
 _atom_site_fract_z
 _atom_site_occupancy
  Th  Th0  1  0.000000  0.320424  0.414438  1
  Th  Th1  1  0.000000  0.680362  0.586665  1
  Th  Th2  1  0.000000  0.820277  0.084850  1
  Th  Th3  1  0.000000  0.178574  0.913741  1
  Sc  Sc4  1  0.000000  0.945446  0.375607  1
  Sc  Sc5  1  0.000000  0.052723  0.624904  1
  Sc  Sc6  1  0.000000  0.445709  0.124449  1
  Sc  Sc7  1  0.000000  0.555965  0.875792  1
  Re  Re8  1  0.000000  0.858347  0.817155  1
  B  B9  1  0.500000  0.557216  0.429877  1
  B  B10  1  0.500000  0.442904  0.570136  1
  B  B11  1  0.500000  0.057386  0.070699  1
  B  B12  1  0.500000  0.943070  0.929752  1
  B  B13  1  0.500000  0.755085  0.416318  1
  B  B14  1  0.500000  0.245099  0.583349  1
  B  B15  1  0.500000  0.255039  0.083477  1
  B  B16  1  0.500000  0.745657  0.916595  1
  B  B17  1  0.500000  0.793793  0.266095  1
  B  B18  1  0.500000  0.206362  0.733402  1
  B  B19  1  0.500000  0.294235  0.233756  1
  B  B20  1  0.500000  0.705502  0.766025  1
  B  B21  1  0.500000  0.628258  0.182870  1
  B  B22  1  0.500000  0.371812  0.816983  1
  B  B23  1  0.500000  0.128718  0.317321  1
  B  B24  1  0.500000  0.871011  0.683327  1
  B  B25  1  0.500000  0.984432  0.216491  1
  B  B26  1  0.500000  0.016335  0.783605  1
  B  B27  1  0.500000  0.484295  0.283616  1
  B  B28  1  0.500000  0.515421  0.716246  1
  B  B29  1  0.500000  0.597538  0.026907  1
  B  B30  1  0.500000  0.401544  0.973981  1
  B  B31  1  0.500000  0.098270  0.473503  1
  B  B32  1  0.500000  0.901850  0.525371  1
  Ru  Ru33  1  0.000000  0.641533  0.317350  1
  Ru  Ru34  1  0.000000  0.358417  0.682643  1
  Ru  Ru35  1  0.000000  0.141393  0.182704  1
