# generated using pymatgen
data_MnH8
_symmetry_space_group_name_H-M   'P 1'
_cell_length_a   2.70953613
_cell_length_b   4.69378653
_cell_length_c   13.94831027
_cell_angle_alpha   74.66211987
_cell_angle_beta   72.40755953
_cell_angle_gamma   30.03105263
_symmetry_Int_Tables_number   1
_chemical_formula_structural   MnH8
_chemical_formula_sum   'Mn1 H8'
_cell_volume   84.62673017
_cell_formula_units_Z   1
loop_
 _symmetry_equiv_pos_site_id
 _symmetry_equiv_pos_as_xyz
  1  'x, y, z'
loop_
 _atom_site_type_symbol
 _atom_site_label
 _atom_site_symmetry_multiplicity
 _atom_site_fract_x
 _atom_site_fract_y
 _atom_site_fract_z
 _atom_site_occupancy
  Mn  Mn0  1  0.509092  0.890402  0.480951  1
  H  H1  1  0.822620  0.198763  0.758366  1
  H  H2  1  0.153240  0.974249  0.796909  1
  H  H3  1  0.606171  0.225581  0.415644  1
  H  H4  1  0.411381  0.555409  0.546010  1
  H  H5  1  0.145751  0.650299  0.180622  1
  H  H6  1  0.255204  0.192351  0.033642  1
  H  H7  1  0.880610  0.745185  0.233473  1
  H  H8  1  0.112941  0.376264  0.989558  1
