# generated using pymatgen
data_NpTlBr6
_symmetry_space_group_name_H-M   'P 1'
_cell_length_a   8.04060068
_cell_length_b   8.00660144
_cell_length_c   7.40176603
_cell_angle_alpha   99.84632599
_cell_angle_beta   100.94607084
_cell_angle_gamma   119.92850652
_symmetry_Int_Tables_number   1
_chemical_formula_structural   NpTlBr6
_chemical_formula_sum   'Np1 Tl1 Br6'
_cell_volume   385.17198076
_cell_formula_units_Z   1
loop_
 _symmetry_equiv_pos_site_id
 _symmetry_equiv_pos_as_xyz
  1  'x, y, z'
loop_
 _atom_site_type_symbol
 _atom_site_label
 _atom_site_symmetry_multiplicity
 _atom_site_fract_x
 _atom_site_fract_y
 _atom_site_fract_z
 _atom_site_occupancy
  Np  Np0  1  0.833627  0.166500  0.000044  1
  Tl  Tl1  1  0.167642  0.832858  0.999543  1
  Br  Br2  1  0.907795  0.516385  0.223008  1
  Br  Br3  1  0.630300  0.966075  0.222510  1
  Br  Br4  1  0.179872  0.234389  0.227165  1
  Br  Br5  1  0.764624  0.821482  0.774241  1
  Br  Br6  1  0.481863  0.091565  0.776112  1
  Br  Br7  1  0.034274  0.370746  0.777376  1
