# generated using pymatgen
data_Re7Tc7B6
_symmetry_space_group_name_H-M   'P 1'
_cell_length_a   7.52423384
_cell_length_b   7.52423402
_cell_length_c   4.90604335
_cell_angle_alpha   90.03771129
_cell_angle_beta   89.96228331
_cell_angle_gamma   119.90783892
_symmetry_Int_Tables_number   1
_chemical_formula_structural   Re7Tc7B6
_chemical_formula_sum   'Re7 Tc7 B6'
_cell_volume   240.76260692
_cell_formula_units_Z   1
loop_
 _symmetry_equiv_pos_site_id
 _symmetry_equiv_pos_as_xyz
  1  'x, y, z'
loop_
 _atom_site_type_symbol
 _atom_site_label
 _atom_site_symmetry_multiplicity
 _atom_site_fract_x
 _atom_site_fract_y
 _atom_site_fract_z
 _atom_site_occupancy
  Re  Re0  1  0.545663  0.454337  0.047982  1
  Re  Re1  1  0.454186  0.545814  0.549224  1
  Re  Re2  1  0.546148  0.092128  0.048868  1
  Re  Re3  1  0.907872  0.453852  0.048868  1
  Re  Re4  1  0.091347  0.545865  0.549336  1
  Re  Re5  1  0.454135  0.908653  0.549336  1
  Re  Re6  1  0.122300  0.877700  0.252526  1
  Tc  Tc7  1  0.877429  0.122571  0.751995  1
  Tc  Tc8  1  0.123237  0.245636  0.252288  1
  Tc  Tc9  1  0.754364  0.876763  0.252288  1
  Tc  Tc10  1  0.245480  0.122718  0.752627  1
  Tc  Tc11  1  0.877282  0.754520  0.752627  1
  Tc  Tc12  1  0.333317  0.666683  0.084481  1
  Tc  Tc13  1  0.666711  0.333289  0.585384  1
  B  B14  1  0.810501  0.621365  0.340719  1
  B  B15  1  0.189136  0.810864  0.841321  1
  B  B16  1  0.811356  0.188644  0.340972  1
  B  B17  1  0.378635  0.189499  0.340719  1
  B  B18  1  0.622167  0.811266  0.841197  1
  B  B19  1  0.188734  0.377833  0.841197  1
