# generated using pymatgen
data_DyEr4Hf5(Si5Ir2)4
_symmetry_space_group_name_H-M   'P 1'
_cell_length_a   12.47387643
_cell_length_b   12.47405243
_cell_length_c   4.16052200
_cell_angle_alpha   90.00000000
_cell_angle_beta   90.00000000
_cell_angle_gamma   90.03014077
_symmetry_Int_Tables_number   1
_chemical_formula_structural   DyEr4Hf5(Si5Ir2)4
_chemical_formula_sum   'Dy1 Er4 Hf5 Si20 Ir8'
_cell_volume   647.37625422
_cell_formula_units_Z   1
loop_
 _symmetry_equiv_pos_site_id
 _symmetry_equiv_pos_as_xyz
  1  'x, y, z'
loop_
 _atom_site_type_symbol
 _atom_site_label
 _atom_site_symmetry_multiplicity
 _atom_site_fract_x
 _atom_site_fract_y
 _atom_site_fract_z
 _atom_site_occupancy
  Dy  Dy0  1  0.884111  0.384467  0.500000  1
  Er  Er1  1  0.000004  0.999972  0.000000  1
  Er  Er2  1  0.115845  0.615572  0.500000  1
  Er  Er3  1  0.384474  0.115890  0.500000  1
  Er  Er4  1  0.615542  0.884121  0.500000  1
  Hf  Hf5  1  0.499987  0.500000  0.000000  1
  Hf  Hf6  1  0.673437  0.174964  0.500000  1
  Hf  Hf7  1  0.326527  0.824980  0.500000  1
  Hf  Hf8  1  0.175098  0.326524  0.500000  1
  Hf  Hf9  1  0.824989  0.673570  0.500000  1
  Si  Si10  1  0.565626  0.067527  0.000000  1
  Si  Si11  1  0.434375  0.932470  0.000000  1
  Si  Si12  1  0.067667  0.434379  0.000000  1
  Si  Si13  1  0.932472  0.565777  0.000000  1
  Si  Si14  1  0.665781  0.701424  0.000000  1
  Si  Si15  1  0.334197  0.298607  0.000000  1
  Si  Si16  1  0.164185  0.800736  0.000000  1
  Si  Si17  1  0.835801  0.199135  0.000000  1
  Si  Si18  1  0.298619  0.665796  0.000000  1
  Si  Si19  1  0.701249  0.334196  0.000000  1
  Si  Si20  1  0.199308  0.164160  0.000000  1
  Si  Si21  1  0.800723  0.835813  0.000000  1
  Si  Si22  1  0.651173  0.507620  0.500000  1
  Si  Si23  1  0.348764  0.492365  0.500000  1
  Si  Si24  1  0.156130  0.992818  0.500000  1
  Si  Si25  1  0.843891  0.007173  0.500000  1
  Si  Si26  1  0.492381  0.651246  0.500000  1
  Si  Si27  1  0.507606  0.348760  0.500000  1
  Si  Si28  1  0.007198  0.156032  0.500000  1
  Si  Si29  1  0.992794  0.843883  0.500000  1
  Ir  Ir30  1  0.742023  0.521637  0.000000  1
  Ir  Ir31  1  0.257684  0.478712  0.000000  1
  Ir  Ir32  1  0.246587  0.978329  0.000000  1
  Ir  Ir33  1  0.753415  0.021647  0.000000  1
  Ir  Ir34  1  0.478700  0.742339  0.000000  1
  Ir  Ir35  1  0.521258  0.257646  0.000000  1
  Ir  Ir36  1  0.022046  0.246250  0.000000  1
  Ir  Ir37  1  0.978333  0.753465  0.000000  1
