# generated using pymatgen
data_Tb12Nd4Cd4Ni3Os
_symmetry_space_group_name_H-M   'P 1'
_cell_length_a   9.69328821
_cell_length_b   9.69885400
_cell_length_c   9.69885385
_cell_angle_alpha   59.75362078
_cell_angle_beta   59.55011459
_cell_angle_gamma   59.55012085
_symmetry_Int_Tables_number   1
_chemical_formula_structural   Tb12Nd4Cd4Ni3Os
_chemical_formula_sum   'Tb12 Nd4 Cd4 Ni3 Os1'
_cell_volume   639.15474098
_cell_formula_units_Z   1
loop_
 _symmetry_equiv_pos_site_id
 _symmetry_equiv_pos_as_xyz
  1  'x, y, z'
loop_
 _atom_site_type_symbol
 _atom_site_label
 _atom_site_symmetry_multiplicity
 _atom_site_fract_x
 _atom_site_fract_y
 _atom_site_fract_z
 _atom_site_occupancy
  Tb  Tb0  1  0.597558  0.598276  0.598276  1
  Tb  Tb1  1  0.599725  0.599362  0.207557  1
  Tb  Tb2  1  0.599725  0.207557  0.599362  1
  Tb  Tb3  1  0.207288  0.599357  0.599357  1
  Tb  Tb4  1  0.062274  0.436778  0.436778  1
  Tb  Tb5  1  0.436192  0.061270  0.061270  1
  Tb  Tb6  1  0.436999  0.061410  0.437817  1
  Tb  Tb7  1  0.061088  0.434673  0.061034  1
  Tb  Tb8  1  0.436999  0.437817  0.061410  1
  Tb  Tb9  1  0.061088  0.061034  0.434673  1
  Tb  Tb10  1  0.189360  0.810907  0.810907  1
  Tb  Tb11  1  0.801110  0.193349  0.193349  1
  Nd  Nd12  1  0.814871  0.186549  0.815476  1
  Nd  Nd13  1  0.189694  0.806441  0.188195  1
  Nd  Nd14  1  0.814871  0.815476  0.186549  1
  Nd  Nd15  1  0.189694  0.188195  0.806441  1
  Cd  Cd16  1  0.831696  0.828528  0.828528  1
  Cd  Cd17  1  0.827979  0.831818  0.509202  1
  Cd  Cd18  1  0.827979  0.509202  0.831818  1
  Cd  Cd19  1  0.509240  0.828206  0.828206  1
  Ni  Ni20  1  0.391703  0.394631  0.825986  1
  Ni  Ni21  1  0.391703  0.825986  0.394631  1
  Ni  Ni22  1  0.825846  0.392033  0.392033  1
  Os  Os23  1  0.395319  0.391145  0.391145  1
