# generated using pymatgen
data_Hf3Nb2GaSi2
_symmetry_space_group_name_H-M   'P 1'
_cell_length_a   7.85193048
_cell_length_b   7.87305420
_cell_length_c   5.38429800
_cell_angle_alpha   90.00000000
_cell_angle_beta   90.00000000
_cell_angle_gamma   120.08903027
_symmetry_Int_Tables_number   1
_chemical_formula_structural   Hf3Nb2GaSi2
_chemical_formula_sum   'Hf6 Nb4 Ga2 Si4'
_cell_volume   287.99774666
_cell_formula_units_Z   2
loop_
 _symmetry_equiv_pos_site_id
 _symmetry_equiv_pos_as_xyz
  1  'x, y, z'
loop_
 _atom_site_type_symbol
 _atom_site_label
 _atom_site_symmetry_multiplicity
 _atom_site_fract_x
 _atom_site_fract_y
 _atom_site_fract_z
 _atom_site_occupancy
  Hf  Hf0  1  0.749109  0.749174  0.250000  1
  Hf  Hf1  1  0.749109  0.999935  0.750000  1
  Hf  Hf2  1  0.997188  0.253139  0.250000  1
  Hf  Hf3  1  0.248839  0.251927  0.750000  1
  Hf  Hf4  1  0.248839  0.996912  0.250000  1
  Hf  Hf5  1  0.997188  0.744050  0.750000  1
  Nb  Nb6  1  0.672847  0.336423  0.000000  1
  Nb  Nb7  1  0.672847  0.336423  0.500000  1
  Nb  Nb8  1  0.331370  0.665685  0.500000  1
  Nb  Nb9  1  0.331370  0.665685  0.000000  1
  Ga  Ga10  1  0.396016  0.393854  0.250000  1
  Ga  Ga11  1  0.396016  0.002161  0.750000  1
  Si  Si12  1  0.603339  0.999361  0.250000  1
  Si  Si13  1  0.603339  0.603977  0.750000  1
  Si  Si14  1  0.001293  0.394443  0.750000  1
  Si  Si15  1  0.001293  0.606850  0.250000  1
