# generated using pymatgen
data_Rb2YbZr3Se8
_symmetry_space_group_name_H-M   'P 1'
_cell_length_a   6.83629200
_cell_length_b   7.93846800
_cell_length_c   16.87426800
_cell_angle_alpha   90.00000000
_cell_angle_beta   90.00000000
_cell_angle_gamma   90.00000000
_symmetry_Int_Tables_number   1
_chemical_formula_structural   Rb2YbZr3Se8
_chemical_formula_sum   'Rb4 Yb2 Zr6 Se16'
_cell_volume   915.76121370
_cell_formula_units_Z   2
loop_
 _symmetry_equiv_pos_site_id
 _symmetry_equiv_pos_as_xyz
  1  'x, y, z'
loop_
 _atom_site_type_symbol
 _atom_site_label
 _atom_site_symmetry_multiplicity
 _atom_site_fract_x
 _atom_site_fract_y
 _atom_site_fract_z
 _atom_site_occupancy
  Rb  Rb0  1  0.324958  0.000000  0.000000  1
  Rb  Rb1  1  0.641399  0.500000  0.500000  1
  Rb  Rb2  1  0.017603  0.000000  0.500000  1
  Rb  Rb3  1  0.980097  0.500000  0.000000  1
  Yb  Yb4  1  0.002805  0.000000  0.247075  1
  Yb  Yb5  1  0.002805  0.000000  0.752925  1
  Zr  Zr6  1  0.996862  0.500000  0.253851  1
  Zr  Zr7  1  0.996862  0.500000  0.746149  1
  Zr  Zr8  1  0.498729  0.245422  0.250502  1
  Zr  Zr9  1  0.498729  0.754578  0.749498  1
  Zr  Zr10  1  0.498729  0.754578  0.250502  1
  Zr  Zr11  1  0.498729  0.245422  0.749498  1
  Se  Se12  1  0.827485  0.260969  0.343365  1
  Se  Se13  1  0.827485  0.739031  0.656635  1
  Se  Se14  1  0.179578  0.731530  0.157368  1
  Se  Se15  1  0.179578  0.268470  0.842632  1
  Se  Se16  1  0.179578  0.268470  0.157368  1
  Se  Se17  1  0.179578  0.731530  0.842632  1
  Se  Se18  1  0.827485  0.739031  0.343365  1
  Se  Se19  1  0.827485  0.260969  0.656635  1
  Se  Se20  1  0.643286  0.000000  0.156775  1
  Se  Se21  1  0.643286  0.000000  0.843225  1
  Se  Se22  1  0.330395  0.500000  0.341452  1
  Se  Se23  1  0.330395  0.500000  0.658548  1
  Se  Se24  1  0.362091  0.000000  0.345010  1
  Se  Se25  1  0.362091  0.000000  0.654990  1
  Se  Se26  1  0.670949  0.500000  0.161357  1
  Se  Se27  1  0.670949  0.500000  0.838643  1
