# generated using pymatgen
data_KScCr2O8
_symmetry_space_group_name_H-M   'P 1'
_cell_length_a   5.68913602
_cell_length_b   9.39181367
_cell_length_c   9.09854806
_cell_angle_alpha   64.59706232
_cell_angle_beta   90.00744712
_cell_angle_gamma   107.63100708
_symmetry_Int_Tables_number   1
_chemical_formula_structural   KScCr2O8
_chemical_formula_sum   'K2 Sc2 Cr4 O16'
_cell_volume   413.73075668
_cell_formula_units_Z   2
loop_
 _symmetry_equiv_pos_site_id
 _symmetry_equiv_pos_as_xyz
  1  'x, y, z'
loop_
 _atom_site_type_symbol
 _atom_site_label
 _atom_site_symmetry_multiplicity
 _atom_site_fract_x
 _atom_site_fract_y
 _atom_site_fract_z
 _atom_site_occupancy
  K  K0  1  0.500013  0.999971  0.500061  1
  K  K1  1  0.000024  0.000017  0.999990  1
  Sc  Sc2  1  0.749995  0.499996  0.250007  1
  Sc  Sc3  1  0.250000  0.499990  0.750000  1
  Cr  Cr4  1  0.644270  0.288444  0.987399  1
  Cr  Cr5  1  0.144200  0.288364  0.487321  1
  Cr  Cr6  1  0.855742  0.711564  0.512600  1
  Cr  Cr7  1  0.355794  0.711651  0.012654  1
  O  O8  1  0.550487  0.100973  0.138680  1
  O  O9  1  0.050404  0.100770  0.638492  1
  O  O10  1  0.949514  0.899047  0.361336  1
  O  O11  1  0.449592  0.899229  0.861492  1
  O  O12  1  0.715128  0.430290  0.058545  1
  O  O13  1  0.214943  0.430017  0.558694  1
  O  O14  1  0.784885  0.569736  0.441435  1
  O  O15  1  0.285014  0.569968  0.941281  1
  O  O16  1  0.900602  0.313389  0.872863  1
  O  O17  1  0.400523  0.313407  0.372763  1
  O  O18  1  0.599416  0.686598  0.627160  1
  O  O19  1  0.099455  0.686595  0.127235  1
  O  O20  1  0.412994  0.313448  0.872738  1
  O  O21  1  0.912945  0.313409  0.372690  1
  O  O22  1  0.087024  0.686551  0.627259  1
  O  O23  1  0.587039  0.686574  0.127302  1
