# generated using pymatgen
data_La4Cd3Pt4Au
_symmetry_space_group_name_H-M   'P 1'
_cell_length_a   7.56265960
_cell_length_b   4.19445000
_cell_length_c   9.01196846
_cell_angle_alpha   90.00000000
_cell_angle_beta   88.78912235
_cell_angle_gamma   90.00000000
_symmetry_Int_Tables_number   1
_chemical_formula_structural   La4Cd3Pt4Au
_chemical_formula_sum   'La4 Cd3 Pt4 Au1'
_cell_volume   285.80659404
_cell_formula_units_Z   1
loop_
 _symmetry_equiv_pos_site_id
 _symmetry_equiv_pos_as_xyz
  1  'x, y, z'
loop_
 _atom_site_type_symbol
 _atom_site_label
 _atom_site_symmetry_multiplicity
 _atom_site_fract_x
 _atom_site_fract_y
 _atom_site_fract_z
 _atom_site_occupancy
  La  La0  1  0.062279  0.250001  0.178266  1
  La  La1  1  0.542566  0.250001  0.304432  1
  La  La2  1  0.452595  0.750000  0.691366  1
  La  La3  1  0.950663  0.750000  0.818729  1
  Cd  Cd4  1  0.862485  0.750000  0.439650  1
  Cd  Cd5  1  0.132736  0.250001  0.558625  1
  Cd  Cd6  1  0.626509  0.250001  0.944074  1
  Pt  Pt7  1  0.769634  0.750000  0.132752  1
  Pt  Pt8  1  0.262596  0.750000  0.375424  1
  Pt  Pt9  1  0.737987  0.250001  0.633901  1
  Pt  Pt10  1  0.234560  0.250001  0.861119  1
  Au  Au11  1  0.365390  0.750000  0.061664  1
