# generated using pymatgen
data_HoEr7Cd2IrPt
_symmetry_space_group_name_H-M   'P 1'
_cell_length_a   9.58101722
_cell_length_b   9.58101830
_cell_length_c   9.56331000
_cell_angle_alpha   60.06112145
_cell_angle_beta   60.06111771
_cell_angle_gamma   60.14370671
_symmetry_Int_Tables_number   1
_chemical_formula_structural   HoEr7Cd2IrPt
_chemical_formula_sum   'Ho2 Er14 Cd4 Ir2 Pt2'
_cell_volume   621.99578885
_cell_formula_units_Z   2
loop_
 _symmetry_equiv_pos_site_id
 _symmetry_equiv_pos_as_xyz
  1  'x, y, z'
loop_
 _atom_site_type_symbol
 _atom_site_label
 _atom_site_symmetry_multiplicity
 _atom_site_fract_x
 _atom_site_fract_y
 _atom_site_fract_z
 _atom_site_occupancy
  Ho  Ho0  1  0.814207  0.814207  0.185793  1
  Ho  Ho1  1  0.186458  0.186458  0.813542  1
  Er  Er2  1  0.600699  0.600699  0.596157  1
  Er  Er3  1  0.600699  0.600699  0.202447  1
  Er  Er4  1  0.606032  0.194480  0.599744  1
  Er  Er5  1  0.194480  0.606032  0.599744  1
  Er  Er6  1  0.057018  0.439807  0.440421  1
  Er  Er7  1  0.439807  0.057018  0.062756  1
  Er  Er8  1  0.439807  0.057018  0.440421  1
  Er  Er9  1  0.057018  0.439807  0.062756  1
  Er  Er10  1  0.440919  0.440919  0.059081  1
  Er  Er11  1  0.061248  0.061248  0.438752  1
  Er  Er12  1  0.186985  0.815191  0.812115  1
  Er  Er13  1  0.815191  0.186985  0.185709  1
  Er  Er14  1  0.815191  0.186985  0.812115  1
  Er  Er15  1  0.186985  0.815191  0.185709  1
  Cd  Cd16  1  0.831410  0.831410  0.832013  1
  Cd  Cd17  1  0.831410  0.831410  0.505167  1
  Cd  Cd18  1  0.830545  0.505387  0.832034  1
  Cd  Cd19  1  0.505387  0.830545  0.832034  1
  Ir  Ir20  1  0.390613  0.823962  0.392714  1
  Ir  Ir21  1  0.823962  0.390613  0.392714  1
  Pt  Pt22  1  0.391966  0.391966  0.394567  1
  Pt  Pt23  1  0.391966  0.391966  0.821500  1
