# generated using pymatgen
data_ZnCd(In5Ir2)2
_symmetry_space_group_name_H-M   'P 1'
_cell_length_a   7.12841149
_cell_length_b   7.02411028
_cell_length_c   7.29340200
_cell_angle_alpha   90.00000000
_cell_angle_beta   90.00000000
_cell_angle_gamma   88.98942120
_symmetry_Int_Tables_number   1
_chemical_formula_structural   ZnCd(In5Ir2)2
_chemical_formula_sum   'Zn1 Cd1 In10 Ir4'
_cell_volume   365.12929392
_cell_formula_units_Z   1
loop_
 _symmetry_equiv_pos_site_id
 _symmetry_equiv_pos_as_xyz
  1  'x, y, z'
loop_
 _atom_site_type_symbol
 _atom_site_label
 _atom_site_symmetry_multiplicity
 _atom_site_fract_x
 _atom_site_fract_y
 _atom_site_fract_z
 _atom_site_occupancy
  Zn  Zn0  1  0.000000  0.500000  0.000000  1
  Cd  Cd1  1  0.500000  0.000000  0.000000  1
  In  In2  1  0.344848  0.349469  0.253713  1
  In  In3  1  0.159578  0.838533  0.772642  1
  In  In4  1  0.159578  0.838533  0.227358  1
  In  In5  1  0.840422  0.161467  0.227358  1
  In  In6  1  0.840422  0.161467  0.772642  1
  In  In7  1  0.655152  0.650531  0.253713  1
  In  In8  1  0.655152  0.650531  0.746287  1
  In  In9  1  0.000000  0.500000  0.500000  1
  In  In10  1  0.344848  0.349469  0.746287  1
  In  In11  1  0.500000  0.000000  0.500000  1
  Ir  Ir12  1  0.146710  0.162231  0.000000  1
  Ir  Ir13  1  0.658050  0.341735  0.500000  1
  Ir  Ir14  1  0.341950  0.658265  0.500000  1
  Ir  Ir15  1  0.853290  0.837769  0.000000  1
