# generated using pymatgen
data_Sc2Co4Ni8P7
_symmetry_space_group_name_H-M   'P 1'
_cell_length_a   9.00422583
_cell_length_b   8.94598082
_cell_length_c   3.56164000
_cell_angle_alpha   90.00018346
_cell_angle_beta   89.99990091
_cell_angle_gamma   120.10981788
_symmetry_Int_Tables_number   1
_chemical_formula_structural   Sc2Co4Ni8P7
_chemical_formula_sum   'Sc2 Co4 Ni8 P7'
_cell_volume   248.18374843
_cell_formula_units_Z   1
loop_
 _symmetry_equiv_pos_site_id
 _symmetry_equiv_pos_as_xyz
  1  'x, y, z'
loop_
 _atom_site_type_symbol
 _atom_site_label
 _atom_site_symmetry_multiplicity
 _atom_site_fract_x
 _atom_site_fract_y
 _atom_site_fract_z
 _atom_site_occupancy
  Sc  Sc0  1  0.334347  0.667502  0.000000  1
  Sc  Sc1  1  0.663770  0.332550  0.499999  1
  Co  Co2  1  0.157162  0.276497  0.000000  1
  Co  Co3  1  0.724460  0.881454  0.999999  1
  Co  Co4  1  0.385509  0.437110  0.500003  1
  Co  Co5  1  0.566620  0.951619  0.499999  1
  Ni  Ni6  1  0.118814  0.842340  0.000000  1
  Ni  Ni7  1  0.052152  0.613889  0.499999  1
  Ni  Ni8  1  0.436109  0.063817  0.000002  1
  Ni  Ni9  1  0.934581  0.372015  0.999999  1
  Ni  Ni10  1  0.625906  0.562838  0.000000  1
  Ni  Ni11  1  0.217733  0.089878  0.500000  1
  Ni  Ni12  1  0.910112  0.127578  0.499995  1
  Ni  Ni13  1  0.872597  0.780524  0.500000  1
  P  P14  1  0.123451  0.408725  0.500000  1
  P  P15  1  0.590569  0.712140  0.500000  1
  P  P16  1  0.295597  0.881457  0.500000  1
  P  P17  1  0.997981  0.001355  0.999996  1
  P  P18  1  0.409718  0.295616  0.000000  1
  P  P19  1  0.703892  0.115078  0.000000  1
  P  P20  1  0.878918  0.586017  0.000000  1
