# generated using pymatgen
data_Fe3BiCl7O
_symmetry_space_group_name_H-M   'P 1'
_cell_length_a   7.43892893
_cell_length_b   7.74904225
_cell_length_c   7.43895300
_cell_angle_alpha   58.35768679
_cell_angle_beta   56.36993602
_cell_angle_gamma   58.35826067
_symmetry_Int_Tables_number   1
_chemical_formula_structural   Fe3BiCl7O
_chemical_formula_sum   'Fe3 Bi1 Cl7 O1'
_cell_volume   286.91772171
_cell_formula_units_Z   1
loop_
 _symmetry_equiv_pos_site_id
 _symmetry_equiv_pos_as_xyz
  1  'x, y, z'
loop_
 _atom_site_type_symbol
 _atom_site_label
 _atom_site_symmetry_multiplicity
 _atom_site_fract_x
 _atom_site_fract_y
 _atom_site_fract_z
 _atom_site_occupancy
  Fe  Fe0  1  0.477691  0.519669  0.011196  1
  Fe  Fe1  1  0.498638  0.001178  0.498614  1
  Fe  Fe2  1  0.011225  0.519633  0.477694  1
  Bi  Bi3  1  0.471807  0.519920  0.471832  1
  Cl  Cl4  1  0.751062  0.300077  0.751154  1
  Cl  Cl5  1  0.758175  0.772251  0.246499  1
  Cl  Cl6  1  0.261491  0.250231  0.261493  1
  Cl  Cl7  1  0.246513  0.772441  0.758114  1
  Cl  Cl8  1  0.756892  0.231689  0.250894  1
  Cl  Cl9  1  0.738029  0.750613  0.738021  1
  Cl  Cl10  1  0.250782  0.231889  0.756929  1
  O  O11  1  0.277696  0.630408  0.277561  1
