# generated using pymatgen
data_Er16In6FeRh
_symmetry_space_group_name_H-M   'P 1'
_cell_length_a   10.31835900
_cell_length_b   10.31835737
_cell_length_c   6.98239700
_cell_angle_alpha   90.00000000
_cell_angle_beta   90.00000000
_cell_angle_gamma   119.99999562
_symmetry_Int_Tables_number   1
_chemical_formula_structural   Er16In6FeRh
_chemical_formula_sum   'Er16 In6 Fe1 Rh1'
_cell_volume   643.80802821
_cell_formula_units_Z   1
loop_
 _symmetry_equiv_pos_site_id
 _symmetry_equiv_pos_as_xyz
  1  'x, y, z'
loop_
 _atom_site_type_symbol
 _atom_site_label
 _atom_site_symmetry_multiplicity
 _atom_site_fract_x
 _atom_site_fract_y
 _atom_site_fract_z
 _atom_site_occupancy
  Er  Er0  1  0.535514  0.071027  0.792409  1
  Er  Er1  1  0.928973  0.464486  0.792409  1
  Er  Er2  1  0.535514  0.464486  0.792409  1
  Er  Er3  1  0.468009  0.936019  0.293981  1
  Er  Er4  1  0.063981  0.531991  0.293981  1
  Er  Er5  1  0.468009  0.531991  0.293981  1
  Er  Er6  1  0.821267  0.642534  0.499893  1
  Er  Er7  1  0.357466  0.178733  0.499893  1
  Er  Er8  1  0.821267  0.178733  0.499893  1
  Er  Er9  1  0.176646  0.353292  0.997098  1
  Er  Er10  1  0.646708  0.823354  0.997098  1
  Er  Er11  1  0.176646  0.823354  0.997098  1
  Er  Er12  1  0.666667  0.333333  0.179886  1
  Er  Er13  1  0.333333  0.666667  0.671909  1
  Er  Er14  1  0.000000  0.000000  0.778276  1
  Er  Er15  1  0.000000  0.000000  0.278888  1
  In  In16  1  0.836892  0.673785  0.040464  1
  In  In17  1  0.326215  0.163108  0.040464  1
  In  In18  1  0.836892  0.163108  0.040464  1
  In  In19  1  0.162514  0.325026  0.539288  1
  In  In20  1  0.674974  0.837486  0.539288  1
  In  In21  1  0.162514  0.837486  0.539288  1
  Fe  Fe22  1  0.666667  0.333333  0.568439  1
  Rh  Rh23  1  0.333333  0.666667  0.069107  1
