# generated using pymatgen
data_Er5Tm7Os3Ru
_symmetry_space_group_name_H-M   'P 1'
_cell_length_a   7.34640829
_cell_length_b   8.93683935
_cell_length_c   6.24865429
_cell_angle_alpha   89.96977614
_cell_angle_beta   89.89540782
_cell_angle_gamma   89.98983904
_symmetry_Int_Tables_number   1
_chemical_formula_structural   Er5Tm7Os3Ru
_chemical_formula_sum   'Er5 Tm7 Os3 Ru1'
_cell_volume   410.24634366
_cell_formula_units_Z   1
loop_
 _symmetry_equiv_pos_site_id
 _symmetry_equiv_pos_as_xyz
  1  'x, y, z'
loop_
 _atom_site_type_symbol
 _atom_site_label
 _atom_site_symmetry_multiplicity
 _atom_site_fract_x
 _atom_site_fract_y
 _atom_site_fract_z
 _atom_site_occupancy
  Er  Er0  1  0.040968  0.250284  0.629813  1
  Er  Er1  1  0.960020  0.749727  0.370274  1
  Er  Er2  1  0.460632  0.749732  0.130013  1
  Er  Er3  1  0.540094  0.250184  0.868499  1
  Er  Er4  1  0.174318  0.062192  0.166220  1
  Tm  Tm5  1  0.825190  0.937266  0.832661  1
  Tm  Tm6  1  0.324922  0.936082  0.667994  1
  Tm  Tm7  1  0.825282  0.562660  0.832808  1
  Tm  Tm8  1  0.675004  0.062687  0.333503  1
  Tm  Tm9  1  0.174226  0.437981  0.166078  1
  Tm  Tm10  1  0.675022  0.437340  0.333448  1
  Tm  Tm11  1  0.324865  0.563817  0.667996  1
  Os  Os12  1  0.616720  0.750004  0.539376  1
  Os  Os13  1  0.116976  0.749758  0.960229  1
  Os  Os14  1  0.882471  0.250149  0.039415  1
  Ru  Ru15  1  0.383290  0.250139  0.461676  1
