# generated using pymatgen
data_Sm3Ho4FeBr12
_symmetry_space_group_name_H-M   'P 1'
_cell_length_a   9.27235660
_cell_length_b   9.19485039
_cell_length_c   9.35318428
_cell_angle_alpha   107.08759748
_cell_angle_beta   106.63391966
_cell_angle_gamma   107.07617872
_symmetry_Int_Tables_number   1
_chemical_formula_structural   Sm3Ho4FeBr12
_chemical_formula_sum   'Sm3 Ho4 Fe1 Br12'
_cell_volume   665.31734466
_cell_formula_units_Z   1
loop_
 _symmetry_equiv_pos_site_id
 _symmetry_equiv_pos_as_xyz
  1  'x, y, z'
loop_
 _atom_site_type_symbol
 _atom_site_label
 _atom_site_symmetry_multiplicity
 _atom_site_fract_x
 _atom_site_fract_y
 _atom_site_fract_z
 _atom_site_occupancy
  Sm  Sm0  1  0.479858  0.400369  0.189823  1
  Sm  Sm1  1  0.594848  0.797414  0.521973  1
  Sm  Sm2  1  0.405977  0.202784  0.475488  1
  Ho  Ho3  1  0.806600  0.525118  0.599892  1
  Ho  Ho4  1  0.520795  0.597469  0.800334  1
  Ho  Ho5  1  0.195111  0.476342  0.403740  1
  Ho  Ho6  1  0.998433  0.999916  0.001920  1
  Fe  Fe7  1  0.500810  0.500206  0.498732  1
  Br  Br8  1  0.732531  0.190091  0.577348  1
  Br  Br9  1  0.966790  0.887113  0.675175  1
  Br  Br10  1  0.572593  0.726731  0.177580  1
  Br  Br11  1  0.108434  0.333198  0.042095  1
  Br  Br12  1  0.667813  0.961009  0.890329  1
  Br  Br13  1  0.882355  0.665024  0.958611  1
  Br  Br14  1  0.033943  0.113486  0.329157  1
  Br  Br15  1  0.829112  0.432217  0.287392  1
  Br  Br16  1  0.325947  0.030283  0.108220  1
  Br  Br17  1  0.268686  0.810825  0.424642  1
  Br  Br18  1  0.181704  0.570773  0.721787  1
  Br  Br19  1  0.427661  0.279633  0.815760  1
