# generated using pymatgen
data_Hf3TiGa2GeMo
_symmetry_space_group_name_H-M   'P 1'
_cell_length_a   7.88699219
_cell_length_b   7.85181751
_cell_length_c   5.32717913
_cell_angle_alpha   89.98732497
_cell_angle_beta   90.02523700
_cell_angle_gamma   120.14830203
_symmetry_Int_Tables_number   1
_chemical_formula_structural   Hf3TiGa2GeMo
_chemical_formula_sum   'Hf6 Ti2 Ga4 Ge2 Mo2'
_cell_volume   285.27160865
_cell_formula_units_Z   2
loop_
 _symmetry_equiv_pos_site_id
 _symmetry_equiv_pos_as_xyz
  1  'x, y, z'
loop_
 _atom_site_type_symbol
 _atom_site_label
 _atom_site_symmetry_multiplicity
 _atom_site_fract_x
 _atom_site_fract_y
 _atom_site_fract_z
 _atom_site_occupancy
  Hf  Hf0  1  0.250673  0.000000  0.243933  1
  Hf  Hf1  1  0.749327  0.000000  0.756067  1
  Hf  Hf2  1  0.002153  0.247168  0.242932  1
  Hf  Hf3  1  0.997847  0.752832  0.757068  1
  Hf  Hf4  1  0.754985  0.752832  0.242932  1
  Hf  Hf5  1  0.245015  0.247168  0.757068  1
  Ti  Ti6  1  0.665608  0.331214  0.500000  1
  Ti  Ti7  1  0.334392  0.668786  0.500000  1
  Ga  Ga8  1  0.999800  0.598916  0.249067  1
  Ga  Ga9  1  0.000200  0.401084  0.750933  1
  Ga  Ga10  1  0.400884  0.401084  0.249067  1
  Ga  Ga11  1  0.599116  0.598916  0.750933  1
  Ge  Ge12  1  0.605498  0.000000  0.249405  1
  Ge  Ge13  1  0.394502  0.000000  0.750595  1
  Mo  Mo14  1  0.335254  0.670510  0.000000  1
  Mo  Mo15  1  0.664746  0.329490  0.000000  1
