# generated using pymatgen
data_Eu4YTa2VO12
_symmetry_space_group_name_H-M   'P 1'
_cell_length_a   5.87247068
_cell_length_b   5.71889033
_cell_length_c   10.00213579
_cell_angle_alpha   55.17205796
_cell_angle_beta   89.59596026
_cell_angle_gamma   89.89083072
_symmetry_Int_Tables_number   1
_chemical_formula_structural   Eu4YTa2VO12
_chemical_formula_sum   'Eu4 Y1 Ta2 V1 O12'
_cell_volume   275.73247682
_cell_formula_units_Z   1
loop_
 _symmetry_equiv_pos_site_id
 _symmetry_equiv_pos_as_xyz
  1  'x, y, z'
loop_
 _atom_site_type_symbol
 _atom_site_label
 _atom_site_symmetry_multiplicity
 _atom_site_fract_x
 _atom_site_fract_y
 _atom_site_fract_z
 _atom_site_occupancy
  Eu  Eu0  1  0.445336  0.248455  0.763916  1
  Eu  Eu1  1  0.956445  0.725407  0.760969  1
  Eu  Eu2  1  0.043555  0.274593  0.239031  1
  Eu  Eu3  1  0.554664  0.751545  0.236084  1
  Y  Y4  1  0.500000  0.000000  0.500000  1
  Ta  Ta5  1  0.500000  0.500000  0.000000  1
  Ta  Ta6  1  0.000000  0.500000  0.500000  1
  V  V7  1  0.000000  0.000000  0.000000  1
  O  O8  1  0.717354  0.627032  0.557498  1
  O  O9  1  0.222547  0.351851  0.950734  1
  O  O10  1  0.282646  0.372968  0.442502  1
  O  O11  1  0.777453  0.648149  0.049266  1
  O  O12  1  0.188843  0.731512  0.552221  1
  O  O13  1  0.699981  0.262903  0.957320  1
  O  O14  1  0.811157  0.268488  0.447779  1
  O  O15  1  0.300019  0.737097  0.042680  1
  O  O16  1  0.031873  0.168604  0.736563  1
  O  O17  1  0.532628  0.830294  0.764783  1
  O  O18  1  0.968127  0.831396  0.263437  1
  O  O19  1  0.467372  0.169706  0.235217  1
