# generated using pymatgen
data_Y5Tm5(InSb)3
_symmetry_space_group_name_H-M   'P 1'
_cell_length_a   6.47958700
_cell_length_b   8.92003856
_cell_length_c   8.93322101
_cell_angle_alpha   59.95022503
_cell_angle_beta   90.00422263
_cell_angle_gamma   90.00347357
_symmetry_Int_Tables_number   1
_chemical_formula_structural   Y5Tm5(InSb)3
_chemical_formula_sum   'Y5 Tm5 In3 Sb3'
_cell_volume   446.92507407
_cell_formula_units_Z   1
loop_
 _symmetry_equiv_pos_site_id
 _symmetry_equiv_pos_as_xyz
  1  'x, y, z'
loop_
 _atom_site_type_symbol
 _atom_site_label
 _atom_site_symmetry_multiplicity
 _atom_site_fract_x
 _atom_site_fract_y
 _atom_site_fract_z
 _atom_site_occupancy
  Y  Y0  1  0.749956  0.238261  0.761850  1
  Y  Y1  1  0.750019  0.761725  0.000140  1
  Y  Y2  1  0.250029  0.761356  0.239028  1
  Y  Y3  1  0.249982  0.238769  0.000318  1
  Y  Y4  1  0.249990  0.000066  0.760611  1
  Tm  Tm5  1  0.502865  0.333160  0.333103  1
  Tm  Tm6  1  0.502845  0.666811  0.666354  1
  Tm  Tm7  1  0.997157  0.666726  0.666364  1
  Tm  Tm8  1  0.997143  0.333232  0.333125  1
  Tm  Tm9  1  0.750039  0.999976  0.238460  1
  In  In10  1  0.749921  0.606190  0.394481  1
  In  In11  1  0.750042  0.393765  0.000687  1
  In  In12  1  0.750008  0.000011  0.605167  1
  Sb  Sb13  1  0.250048  0.396350  0.603841  1
  Sb  Sb14  1  0.249992  0.603654  0.000240  1
  Sb  Sb15  1  0.249965  0.999948  0.396228  1
