# generated using pymatgen
data_Hf2ZrAl3Mo2N
_symmetry_space_group_name_H-M   'P 1'
_cell_length_a   7.93066560
_cell_length_b   7.93066673
_cell_length_c   5.35647500
_cell_angle_alpha   90.00000000
_cell_angle_beta   90.00000000
_cell_angle_gamma   120.15865593
_symmetry_Int_Tables_number   1
_chemical_formula_structural   Hf2ZrAl3Mo2N
_chemical_formula_sum   'Hf4 Zr2 Al6 Mo4 N2'
_cell_volume   291.29465338
_cell_formula_units_Z   2
loop_
 _symmetry_equiv_pos_site_id
 _symmetry_equiv_pos_as_xyz
  1  'x, y, z'
loop_
 _atom_site_type_symbol
 _atom_site_label
 _atom_site_symmetry_multiplicity
 _atom_site_fract_x
 _atom_site_fract_y
 _atom_site_fract_z
 _atom_site_occupancy
  Hf  Hf0  1  0.770263  0.770263  0.250000  1
  Hf  Hf1  1  0.768988  0.999438  0.750000  1
  Hf  Hf2  1  0.999438  0.768988  0.750000  1
  Hf  Hf3  1  0.228916  0.228916  0.750000  1
  Zr  Zr4  1  0.232717  0.000334  0.250000  1
  Zr  Zr5  1  0.000334  0.232717  0.250000  1
  Al  Al6  1  0.585428  0.000283  0.250000  1
  Al  Al7  1  0.000283  0.585428  0.250000  1
  Al  Al8  1  0.415753  0.415753  0.250000  1
  Al  Al9  1  0.415094  0.000305  0.750000  1
  Al  Al10  1  0.000305  0.415094  0.750000  1
  Al  Al11  1  0.584582  0.584582  0.750000  1
  Mo  Mo12  1  0.667196  0.334744  0.998531  1
  Mo  Mo13  1  0.334744  0.667196  0.998531  1
  Mo  Mo14  1  0.667196  0.334744  0.501469  1
  Mo  Mo15  1  0.334744  0.667196  0.501469  1
  N  N16  1  0.997009  0.997009  0.996971  1
  N  N17  1  0.997009  0.997009  0.503029  1
