# generated using pymatgen
data_Be6V3Si2Mo
_symmetry_space_group_name_H-M   'P 1'
_cell_length_a   4.42186200
_cell_length_b   4.42186179
_cell_length_c   7.41321400
_cell_angle_alpha   90.00000000
_cell_angle_beta   90.00000000
_cell_angle_gamma   120.00001656
_symmetry_Int_Tables_number   1
_chemical_formula_structural   Be6V3Si2Mo
_chemical_formula_sum   'Be6 V3 Si2 Mo1'
_cell_volume   125.52997576
_cell_formula_units_Z   1
loop_
 _symmetry_equiv_pos_site_id
 _symmetry_equiv_pos_as_xyz
  1  'x, y, z'
loop_
 _atom_site_type_symbol
 _atom_site_label
 _atom_site_symmetry_multiplicity
 _atom_site_fract_x
 _atom_site_fract_y
 _atom_site_fract_z
 _atom_site_occupancy
  Be  Be0  1  0.826130  0.173870  0.252017  1
  Be  Be1  1  0.826130  0.652260  0.252017  1
  Be  Be2  1  0.347740  0.173870  0.252017  1
  Be  Be3  1  0.173945  0.826055  0.748280  1
  Be  Be4  1  0.173945  0.347891  0.748280  1
  Be  Be5  1  0.652109  0.826055  0.748280  1
  V  V6  1  0.333333  0.666667  0.439997  1
  V  V7  1  0.666667  0.333333  0.561563  1
  V  V8  1  0.666667  0.333333  0.937276  1
  Si  Si9  1  0.000000  0.000000  0.500759  1
  Si  Si10  1  0.000000  0.000000  0.998540  1
  Mo  Mo11  1  0.333333  0.666667  0.060974  1
