# generated using pymatgen
data_Lu8Hf11Si16Ag
_symmetry_space_group_name_H-M   'P 1'
_cell_length_a   7.23533894
_cell_length_b   7.23533847
_cell_length_c   13.16814617
_cell_angle_alpha   89.86678546
_cell_angle_beta   90.13321472
_cell_angle_gamma   89.95019041
_symmetry_Int_Tables_number   1
_chemical_formula_structural   Lu8Hf11Si16Ag
_chemical_formula_sum   'Lu8 Hf11 Si16 Ag1'
_cell_volume   689.35012238
_cell_formula_units_Z   1
loop_
 _symmetry_equiv_pos_site_id
 _symmetry_equiv_pos_as_xyz
  1  'x, y, z'
loop_
 _atom_site_type_symbol
 _atom_site_label
 _atom_site_symmetry_multiplicity
 _atom_site_fract_x
 _atom_site_fract_y
 _atom_site_fract_z
 _atom_site_occupancy
  Lu  Lu0  1  0.997561  0.345542  0.211758  1
  Lu  Lu1  1  0.004377  0.655692  0.716604  1
  Lu  Lu2  1  0.155060  0.495909  0.464928  1
  Lu  Lu3  1  0.499298  0.847321  0.033229  1
  Lu  Lu4  1  0.847321  0.499298  0.966771  1
  Lu  Lu5  1  0.495909  0.155060  0.535072  1
  Lu  Lu6  1  0.345542  0.997561  0.788242  1
  Lu  Lu7  1  0.655692  0.004377  0.283396  1
  Hf  Hf8  1  0.824839  0.824839  0.500000  1
  Hf  Hf9  1  0.324019  0.676215  0.249384  1
  Hf  Hf10  1  0.676215  0.324019  0.750616  1
  Hf  Hf11  1  0.145219  0.997550  0.374453  1
  Hf  Hf12  1  0.856742  0.002314  0.878216  1
  Hf  Hf13  1  0.503283  0.645705  0.625984  1
  Hf  Hf14  1  0.355730  0.493402  0.877111  1
  Hf  Hf15  1  0.493402  0.355730  0.122889  1
  Hf  Hf16  1  0.645705  0.503283  0.374016  1
  Hf  Hf17  1  0.997550  0.145219  0.625547  1
  Hf  Hf18  1  0.002314  0.856742  0.121784  1
  Si  Si19  1  0.357590  0.295562  0.317739  1
  Si  Si20  1  0.641847  0.704647  0.820442  1
  Si  Si21  1  0.206911  0.859144  0.569684  1
  Si  Si22  1  0.133441  0.777542  0.926562  1
  Si  Si23  1  0.777542  0.133441  0.073438  1
  Si  Si24  1  0.859144  0.206911  0.430316  1
  Si  Si25  1  0.295562  0.357590  0.682261  1
  Si  Si26  1  0.704647  0.641847  0.179558  1
  Si  Si27  1  0.298640  0.050659  0.188977  1
  Si  Si28  1  0.701999  0.951682  0.686347  1
  Si  Si29  1  0.451030  0.798562  0.435537  1
  Si  Si30  1  0.207379  0.562797  0.064275  1
  Si  Si31  1  0.562797  0.207379  0.935725  1
  Si  Si32  1  0.798562  0.451030  0.564463  1
  Si  Si33  1  0.050659  0.298640  0.811023  1
  Si  Si34  1  0.951682  0.701999  0.313653  1
  Ag  Ag35  1  0.174790  0.174790  0.000000  1
