# generated using pymatgen
data_Cs6In2SnPbBr12
_symmetry_space_group_name_H-M   'P 1'
_cell_length_a   9.85783262
_cell_length_b   9.85783280
_cell_length_c   9.85783303
_cell_angle_alpha   91.48534322
_cell_angle_beta   91.48534071
_cell_angle_gamma   91.48534533
_symmetry_Int_Tables_number   1
_chemical_formula_structural   Cs6In2SnPbBr12
_chemical_formula_sum   'Cs6 In2 Sn1 Pb1 Br12'
_cell_volume   956.97064046
_cell_formula_units_Z   1
loop_
 _symmetry_equiv_pos_site_id
 _symmetry_equiv_pos_as_xyz
  1  'x, y, z'
loop_
 _atom_site_type_symbol
 _atom_site_label
 _atom_site_symmetry_multiplicity
 _atom_site_fract_x
 _atom_site_fract_y
 _atom_site_fract_z
 _atom_site_occupancy
  Cs  Cs0  1  0.249811  0.626199  0.874028  1
  Cs  Cs1  1  0.874028  0.249811  0.626199  1
  Cs  Cs2  1  0.626199  0.874028  0.249811  1
  Cs  Cs3  1  0.750189  0.373801  0.125972  1
  Cs  Cs4  1  0.125972  0.750189  0.373801  1
  Cs  Cs5  1  0.373801  0.125972  0.750189  1
  In  In6  1  0.249666  0.249666  0.249666  1
  In  In7  1  0.750334  0.750334  0.750334  1
  Sn  Sn8  1  0.000000  0.000000  0.000000  1
  Pb  Pb9  1  0.500000  0.500000  0.500000  1
  Br  Br10  1  0.548823  0.203663  0.417709  1
  Br  Br11  1  0.417709  0.548823  0.203663  1
  Br  Br12  1  0.203663  0.417709  0.548823  1
  Br  Br13  1  0.951937  0.081190  0.292516  1
  Br  Br14  1  0.292516  0.951937  0.081190  1
  Br  Br15  1  0.081190  0.292516  0.951937  1
  Br  Br16  1  0.451177  0.796337  0.582291  1
  Br  Br17  1  0.582291  0.451177  0.796337  1
  Br  Br18  1  0.796337  0.582291  0.451177  1
  Br  Br19  1  0.048063  0.918810  0.707484  1
  Br  Br20  1  0.918810  0.707484  0.048063  1
  Br  Br21  1  0.707484  0.048063  0.918810  1
