# generated using pymatgen
data_La2GeAuI2
_symmetry_space_group_name_H-M   'P 1'
_cell_length_a   4.48361100
_cell_length_b   4.48361123
_cell_length_c   11.77605200
_cell_angle_alpha   90.00000000
_cell_angle_beta   90.00000000
_cell_angle_gamma   120.00000570
_symmetry_Int_Tables_number   1
_chemical_formula_structural   La2GeAuI2
_chemical_formula_sum   'La2 Ge1 Au1 I2'
_cell_volume   205.01526335
_cell_formula_units_Z   1
loop_
 _symmetry_equiv_pos_site_id
 _symmetry_equiv_pos_as_xyz
  1  'x, y, z'
loop_
 _atom_site_type_symbol
 _atom_site_label
 _atom_site_symmetry_multiplicity
 _atom_site_fract_x
 _atom_site_fract_y
 _atom_site_fract_z
 _atom_site_occupancy
  La  La0  1  0.000000  0.000000  0.171247  1
  La  La1  1  0.000000  0.000000  0.828821  1
  Ge  Ge2  1  0.666667  0.333333  0.021810  1
  Au  Au3  1  0.333333  0.666667  0.980845  1
  I  I4  1  0.666667  0.333333  0.651131  1
  I  I5  1  0.333333  0.666667  0.346147  1
