# generated using pymatgen
data_Nd6Al24Ru3Pt3Rh2
_symmetry_space_group_name_H-M   'P 1'
_cell_length_a   8.93029100
_cell_length_b   8.93400984
_cell_length_c   9.64629623
_cell_angle_alpha   89.94763588
_cell_angle_beta   90.00000000
_cell_angle_gamma   119.98624239
_symmetry_Int_Tables_number   1
_chemical_formula_structural   Nd6Al24Ru3Pt3Rh2
_chemical_formula_sum   'Nd6 Al24 Ru3 Pt3 Rh2'
_cell_volume   666.59678115
_cell_formula_units_Z   1
loop_
 _symmetry_equiv_pos_site_id
 _symmetry_equiv_pos_as_xyz
  1  'x, y, z'
loop_
 _atom_site_type_symbol
 _atom_site_label
 _atom_site_symmetry_multiplicity
 _atom_site_fract_x
 _atom_site_fract_y
 _atom_site_fract_z
 _atom_site_occupancy
  Nd  Nd0  1  0.190183  0.380364  0.252129  1
  Nd  Nd1  1  0.809817  0.619636  0.747871  1
  Nd  Nd2  1  0.619542  0.810649  0.248950  1
  Nd  Nd3  1  0.380458  0.189351  0.751050  1
  Nd  Nd4  1  0.191108  0.810649  0.248950  1
  Nd  Nd5  1  0.808892  0.189351  0.751050  1
  Al  Al6  1  0.331099  0.662200  0.026540  1
  Al  Al7  1  0.668901  0.337800  0.973460  1
  Al  Al8  1  0.663821  0.327641  0.526339  1
  Al  Al9  1  0.336179  0.672359  0.473661  1
  Al  Al10  1  0.162436  0.324872  0.575378  1
  Al  Al11  1  0.837564  0.675128  0.424622  1
  Al  Al12  1  0.673696  0.841631  0.575474  1
  Al  Al13  1  0.836851  0.673702  0.073934  1
  Al  Al14  1  0.326304  0.158369  0.424526  1
  Al  Al15  1  0.163149  0.326298  0.926066  1
  Al  Al16  1  0.167935  0.841631  0.575474  1
  Al  Al17  1  0.326264  0.166948  0.075926  1
  Al  Al18  1  0.832065  0.158369  0.424526  1
  Al  Al19  1  0.673736  0.833052  0.924074  1
  Al  Al20  1  0.840686  0.166948  0.075926  1
  Al  Al21  1  0.159314  0.833052  0.924074  1
  Al  Al22  1  0.563755  0.127511  0.254171  1
  Al  Al23  1  0.436245  0.872489  0.745829  1
  Al  Al24  1  0.873908  0.436997  0.246809  1
  Al  Al25  1  0.126092  0.563003  0.753191  1
  Al  Al26  1  0.563089  0.436997  0.246809  1
  Al  Al27  1  0.436911  0.563003  0.753191  1
  Al  Al28  1  0.001038  0.002076  0.250020  1
  Al  Al29  1  0.998962  0.997924  0.749980  1
  Ru  Ru30  1  0.500000  0.000000  0.500000  1
  Ru  Ru31  1  0.000000  0.000000  0.000000  1
  Ru  Ru32  1  0.000000  0.000000  0.500000  1
  Pt  Pt33  1  0.500000  0.000000  0.000000  1
  Pt  Pt34  1  0.000000  0.500000  0.500000  1
  Pt  Pt35  1  0.500000  0.500000  0.500000  1
  Rh  Rh36  1  0.000000  0.500000  0.000000  1
  Rh  Rh37  1  0.500000  0.500000  0.000000  1
