# generated using pymatgen
data_Na9Rh7O16
_symmetry_space_group_name_H-M   'P 1'
_cell_length_a   7.12872127
_cell_length_b   7.11760107
_cell_length_c   8.37683724
_cell_angle_alpha   65.12864052
_cell_angle_beta   75.44477501
_cell_angle_gamma   72.02458362
_symmetry_Int_Tables_number   1
_chemical_formula_structural   Na9Rh7O16
_chemical_formula_sum   'Na9 Rh7 O16'
_cell_volume   363.13851875
_cell_formula_units_Z   1
loop_
 _symmetry_equiv_pos_site_id
 _symmetry_equiv_pos_as_xyz
  1  'x, y, z'
loop_
 _atom_site_type_symbol
 _atom_site_label
 _atom_site_symmetry_multiplicity
 _atom_site_fract_x
 _atom_site_fract_y
 _atom_site_fract_z
 _atom_site_occupancy
  Na  Na0  1  0.426588  0.562005  0.812387  1
  Na  Na1  1  0.317138  0.688582  0.429639  1
  Na  Na2  1  0.682862  0.311418  0.570361  1
  Na  Na3  1  0.059425  0.934773  0.690029  1
  Na  Na4  1  0.186678  0.801531  0.062457  1
  Na  Na5  1  0.573412  0.437995  0.187613  1
  Na  Na6  1  0.000000  0.500000  0.000000  1
  Na  Na7  1  0.940575  0.065227  0.309971  1
  Na  Na8  1  0.813322  0.198469  0.937543  1
  Rh  Rh9  1  0.625749  0.874080  0.874993  1
  Rh  Rh10  1  0.875360  0.625196  0.625470  1
  Rh  Rh11  1  0.248434  0.249840  0.751424  1
  Rh  Rh12  1  0.751566  0.750160  0.248576  1
  Rh  Rh13  1  0.124640  0.374804  0.374530  1
  Rh  Rh14  1  0.500000  0.000000  0.500000  1
  Rh  Rh15  1  0.374251  0.125920  0.125007  1
  O  O16  1  0.141368  0.568192  0.709617  1
  O  O17  1  0.990905  0.310553  0.641302  1
  O  O18  1  0.506317  0.190733  0.860782  1
  O  O19  1  0.009095  0.689447  0.358698  1
  O  O20  1  0.619372  0.687083  0.515214  1
  O  O21  1  0.493683  0.809267  0.139218  1
  O  O22  1  0.368645  0.934070  0.764781  1
  O  O23  1  0.380628  0.312917  0.484786  1
  O  O24  1  0.866570  0.843679  0.983151  1
  O  O25  1  0.858632  0.431808  0.290383  1
  O  O26  1  0.757289  0.941684  0.607914  1
  O  O27  1  0.242711  0.058316  0.392086  1
  O  O28  1  0.631355  0.065930  0.235219  1
  O  O29  1  0.720988  0.571796  0.876008  1
  O  O30  1  0.279012  0.428204  0.123992  1
  O  O31  1  0.133430  0.156321  0.016849  1
