# generated using pymatgen
data_Tm2GaCo2Si
_symmetry_space_group_name_H-M   'P 1'
_cell_length_a   4.23819800
_cell_length_b   6.80643100
_cell_length_c   6.93703900
_cell_angle_alpha   90.00000000
_cell_angle_beta   90.00000000
_cell_angle_gamma   90.00000000
_symmetry_Int_Tables_number   1
_chemical_formula_structural   Tm2GaCo2Si
_chemical_formula_sum   'Tm4 Ga2 Co4 Si2'
_cell_volume   200.11277965
_cell_formula_units_Z   2
loop_
 _symmetry_equiv_pos_site_id
 _symmetry_equiv_pos_as_xyz
  1  'x, y, z'
loop_
 _atom_site_type_symbol
 _atom_site_label
 _atom_site_symmetry_multiplicity
 _atom_site_fract_x
 _atom_site_fract_y
 _atom_site_fract_z
 _atom_site_occupancy
  Tm  Tm0  1  0.750000  0.516560  0.807325  1
  Tm  Tm1  1  0.750000  0.016560  0.692675  1
  Tm  Tm2  1  0.250000  0.488632  0.195547  1
  Tm  Tm3  1  0.250000  0.988632  0.304453  1
  Ga  Ga4  1  0.750000  0.201160  0.104493  1
  Ga  Ga5  1  0.750000  0.701160  0.395507  1
  Co  Co6  1  0.750000  0.339684  0.445940  1
  Co  Co7  1  0.750000  0.839684  0.054060  1
  Co  Co8  1  0.250000  0.649730  0.574391  1
  Co  Co9  1  0.250000  0.149730  0.925609  1
  Si  Si10  1  0.250000  0.804233  0.893855  1
  Si  Si11  1  0.250000  0.304233  0.606145  1
