# generated using pymatgen
data_Tm6Al24Ru6PtAu
_symmetry_space_group_name_H-M   'P 1'
_cell_length_a   8.82633655
_cell_length_b   8.83793675
_cell_length_c   9.50576326
_cell_angle_alpha   89.79564769
_cell_angle_beta   90.47257453
_cell_angle_gamma   119.96700013
_symmetry_Int_Tables_number   1
_chemical_formula_structural   Tm6Al24Ru6PtAu
_chemical_formula_sum   'Tm6 Al24 Ru6 Pt1 Au1'
_cell_volume   642.35995137
_cell_formula_units_Z   1
loop_
 _symmetry_equiv_pos_site_id
 _symmetry_equiv_pos_as_xyz
  1  'x, y, z'
loop_
 _atom_site_type_symbol
 _atom_site_label
 _atom_site_symmetry_multiplicity
 _atom_site_fract_x
 _atom_site_fract_y
 _atom_site_fract_z
 _atom_site_occupancy
  Tm  Tm0  1  0.803558  0.192704  0.746573  1
  Tm  Tm1  1  0.196442  0.807296  0.253427  1
  Tm  Tm2  1  0.388775  0.192114  0.749921  1
  Tm  Tm3  1  0.611225  0.807886  0.250079  1
  Tm  Tm4  1  0.806743  0.612736  0.750509  1
  Tm  Tm5  1  0.193257  0.387264  0.249491  1
  Al  Al6  1  0.671684  0.328039  0.974154  1
  Al  Al7  1  0.328316  0.671961  0.025846  1
  Al  Al8  1  0.338408  0.668931  0.476546  1
  Al  Al9  1  0.661592  0.331069  0.523454  1
  Al  Al10  1  0.833783  0.158724  0.421240  1
  Al  Al11  1  0.166217  0.841276  0.578760  1
  Al  Al12  1  0.325146  0.162598  0.423124  1
  Al  Al13  1  0.162617  0.837179  0.921385  1
  Al  Al14  1  0.674854  0.837402  0.576876  1
  Al  Al15  1  0.837383  0.162821  0.078615  1
  Al  Al16  1  0.834188  0.676309  0.422328  1
  Al  Al17  1  0.677638  0.848594  0.919599  1
  Al  Al18  1  0.165812  0.323691  0.577672  1
  Al  Al19  1  0.322362  0.151406  0.080401  1
  Al  Al20  1  0.150582  0.321743  0.918958  1
  Al  Al21  1  0.849418  0.678257  0.081042  1
  Al  Al22  1  0.436323  0.563410  0.742538  1
  Al  Al23  1  0.563677  0.436590  0.257462  1
  Al  Al24  1  0.123586  0.561902  0.753883  1
  Al  Al25  1  0.876414  0.438098  0.246117  1
  Al  Al26  1  0.439158  0.878893  0.750017  1
  Al  Al27  1  0.560842  0.121107  0.249983  1
  Al  Al28  1  0.999927  0.998935  0.749770  1
  Al  Al29  1  0.000073  0.001065  0.250230  1
  Ru  Ru30  1  0.000000  0.500000  0.000000  1
  Ru  Ru31  1  0.500000  0.500000  0.500000  1
  Ru  Ru32  1  0.500000  0.000000  0.000000  1
  Ru  Ru33  1  0.500000  0.000000  0.500000  1
  Ru  Ru34  1  0.000000  0.000000  0.000000  1
  Ru  Ru35  1  0.000000  0.000000  0.500000  1
  Pt  Pt36  1  0.000000  0.500000  0.500000  1
  Au  Au37  1  0.500000  0.500000  0.000000  1
