# generated using pymatgen
data_AcErCu2Ni5
_symmetry_space_group_name_H-M   'P 1'
_cell_length_a   5.12900428
_cell_length_b   5.12900221
_cell_length_c   12.38576642
_cell_angle_alpha   78.05033577
_cell_angle_beta   78.05032848
_cell_angle_gamma   59.99999326
_symmetry_Int_Tables_number   1
_chemical_formula_structural   AcErCu2Ni5
_chemical_formula_sum   'Ac2 Er2 Cu4 Ni10'
_cell_volume   273.99221835
_cell_formula_units_Z   2
loop_
 _symmetry_equiv_pos_site_id
 _symmetry_equiv_pos_as_xyz
  1  'x, y, z'
loop_
 _atom_site_type_symbol
 _atom_site_label
 _atom_site_symmetry_multiplicity
 _atom_site_fract_x
 _atom_site_fract_y
 _atom_site_fract_z
 _atom_site_occupancy
  Ac  Ac0  1  0.947505  0.947505  0.157485  1
  Ac  Ac1  1  0.052495  0.052495  0.842515  1
  Er  Er2  1  0.850878  0.850878  0.447368  1
  Er  Er3  1  0.149122  0.149122  0.552632  1
  Cu  Cu4  1  0.722919  0.722919  0.831245  1
  Cu  Cu5  1  0.277081  0.277081  0.168755  1
  Cu  Cu6  1  0.610101  0.610101  0.169696  1
  Cu  Cu7  1  0.389899  0.389899  0.830304  1
  Ni  Ni8  1  0.500000  0.500000  0.500000  1
  Ni  Ni9  1  0.000000  0.500000  0.000000  1
  Ni  Ni10  1  0.500000  0.000000  0.000000  1
  Ni  Ni11  1  0.500000  0.500000  0.000000  1
  Ni  Ni12  1  0.385244  0.385244  0.338333  1
  Ni  Ni13  1  0.891179  0.385244  0.338333  1
  Ni  Ni14  1  0.385244  0.891179  0.338333  1
  Ni  Ni15  1  0.614756  0.614756  0.661667  1
  Ni  Ni16  1  0.108821  0.614756  0.661667  1
  Ni  Ni17  1  0.614756  0.108821  0.661667  1
