# generated using pymatgen
data_NdYCo9Tc3As7
_symmetry_space_group_name_H-M   'P 1'
_cell_length_a   3.85596700
_cell_length_b   9.40772712
_cell_length_c   9.40772800
_cell_angle_alpha   120.00000216
_cell_angle_beta   90.00000000
_cell_angle_gamma   90.00000000
_symmetry_Int_Tables_number   1
_chemical_formula_structural   NdYCo9Tc3As7
_chemical_formula_sum   'Nd1 Y1 Co9 Tc3 As7'
_cell_volume   295.55165453
_cell_formula_units_Z   1
loop_
 _symmetry_equiv_pos_site_id
 _symmetry_equiv_pos_as_xyz
  1  'x, y, z'
loop_
 _atom_site_type_symbol
 _atom_site_label
 _atom_site_symmetry_multiplicity
 _atom_site_fract_x
 _atom_site_fract_y
 _atom_site_fract_z
 _atom_site_occupancy
  Nd  Nd0  1  0.500000  0.333333  0.666667  1
  Y  Y1  1  0.000000  0.666667  0.333333  1
  Co  Co2  1  0.000000  0.570688  0.943376  1
  Co  Co3  1  0.000000  0.372688  0.429312  1
  Co  Co4  1  0.000000  0.056624  0.627312  1
  Co  Co5  1  0.000000  0.874799  0.155580  1
  Co  Co6  1  0.000000  0.280780  0.125201  1
  Co  Co7  1  0.000000  0.844420  0.719220  1
  Co  Co8  1  0.500000  0.944986  0.379085  1
  Co  Co9  1  0.500000  0.434098  0.055014  1
  Co  Co10  1  0.500000  0.620915  0.565902  1
  Tc  Tc11  1  0.500000  0.783664  0.900729  1
  Tc  Tc12  1  0.500000  0.117065  0.216336  1
  Tc  Tc13  1  0.500000  0.099271  0.882935  1
  As  As14  1  0.000000  0.000000  0.000000  1
  As  As15  1  0.500000  0.705979  0.115793  1
  As  As16  1  0.500000  0.409815  0.294021  1
  As  As17  1  0.500000  0.884207  0.590185  1
  As  As18  1  0.000000  0.591306  0.702057  1
  As  As19  1  0.000000  0.110751  0.408694  1
  As  As20  1  0.000000  0.297943  0.889249  1
