# generated using pymatgen
data_La20Ir7Ru4Rh
_symmetry_space_group_name_H-M   'P 1'
_cell_length_a   11.40424938
_cell_length_b   11.40425004
_cell_length_c   6.70398203
_cell_angle_alpha   89.98914288
_cell_angle_beta   89.98913881
_cell_angle_gamma   89.98496931
_symmetry_Int_Tables_number   1
_chemical_formula_structural   La20Ir7Ru4Rh
_chemical_formula_sum   'La20 Ir7 Ru4 Rh1'
_cell_volume   871.89913557
_cell_formula_units_Z   1
loop_
 _symmetry_equiv_pos_site_id
 _symmetry_equiv_pos_as_xyz
  1  'x, y, z'
loop_
 _atom_site_type_symbol
 _atom_site_label
 _atom_site_symmetry_multiplicity
 _atom_site_fract_x
 _atom_site_fract_y
 _atom_site_fract_z
 _atom_site_occupancy
  La  La0  1  0.294516  0.090123  0.388156  1
  La  La1  1  0.293667  0.910065  0.888317  1
  La  La2  1  0.705116  0.089733  0.887322  1
  La  La3  1  0.704988  0.908993  0.388578  1
  La  La4  1  0.589867  0.794616  0.888180  1
  La  La5  1  0.589211  0.205502  0.388745  1
  La  La6  1  0.409888  0.794420  0.388093  1
  La  La7  1  0.410173  0.205302  0.887766  1
  La  La8  1  0.205384  0.410133  0.611820  1
  La  La9  1  0.205580  0.590112  0.111907  1
  La  La10  1  0.794498  0.410789  0.111255  1
  La  La11  1  0.794698  0.589827  0.612234  1
  La  La12  1  0.909877  0.705484  0.111844  1
  La  La13  1  0.910267  0.294884  0.612678  1
  La  La14  1  0.089935  0.706333  0.611683  1
  La  La15  1  0.091007  0.295012  0.111422  1
  La  La16  1  0.999999  0.000424  0.500164  1
  La  La17  1  0.999576  0.000001  0.999836  1
  La  La18  1  0.499891  0.499867  0.000318  1
  La  La19  1  0.500133  0.500109  0.499682  1
  Ir  Ir20  1  0.847377  0.847599  0.749782  1
  Ir  Ir21  1  0.152401  0.152623  0.750218  1
  Ir  Ir22  1  0.152377  0.847623  0.250000  1
  Ir  Ir23  1  0.652590  0.347410  0.750000  1
  Ir  Ir24  1  0.652792  0.652621  0.250112  1
  Ir  Ir25  1  0.347379  0.347208  0.249888  1
  Ir  Ir26  1  0.347591  0.652409  0.750000  1
  Ru  Ru27  1  0.500746  0.000340  0.117013  1
  Ru  Ru28  1  0.500408  0.000401  0.617519  1
  Ru  Ru29  1  0.999599  0.499592  0.882481  1
  Ru  Ru30  1  0.999660  0.499254  0.382987  1
  Rh  Rh31  1  0.848807  0.151193  0.250000  1
