# generated using pymatgen
data_NaNd4Si12Ir19
_symmetry_space_group_name_H-M   'P 1'
_cell_length_a   12.90334825
_cell_length_b   12.88318619
_cell_length_c   4.02638000
_cell_angle_alpha   90.00000000
_cell_angle_beta   90.00000000
_cell_angle_gamma   119.94832749
_symmetry_Int_Tables_number   1
_chemical_formula_structural   NaNd4Si12Ir19
_chemical_formula_sum   'Na1 Nd4 Si12 Ir19'
_cell_volume   579.95859578
_cell_formula_units_Z   1
loop_
 _symmetry_equiv_pos_site_id
 _symmetry_equiv_pos_as_xyz
  1  'x, y, z'
loop_
 _atom_site_type_symbol
 _atom_site_label
 _atom_site_symmetry_multiplicity
 _atom_site_fract_x
 _atom_site_fract_y
 _atom_site_fract_z
 _atom_site_occupancy
  Na  Na0  1  0.000000  0.813850  0.500000  1
  Nd  Nd1  1  0.183028  0.182309  0.500000  1
  Nd  Nd2  1  0.816972  0.999281  0.500000  1
  Nd  Nd3  1  0.334669  0.667499  0.000000  1
  Nd  Nd4  1  0.665331  0.332829  0.000000  1
  Si  Si5  1  0.000000  0.183082  0.000000  1
  Si  Si6  1  0.819332  0.814742  0.000000  1
  Si  Si7  1  0.180668  0.995410  0.000000  1
  Si  Si8  1  0.522885  0.688292  0.500000  1
  Si  Si9  1  0.309584  0.832216  0.500000  1
  Si  Si10  1  0.167441  0.479472  0.500000  1
  Si  Si11  1  0.477115  0.165408  0.500000  1
  Si  Si12  1  0.690416  0.522632  0.500000  1
  Si  Si13  1  0.832559  0.312031  0.500000  1
  Si  Si14  1  0.000000  0.631761  0.000000  1
  Si  Si15  1  0.370044  0.370472  0.000000  1
  Si  Si16  1  0.629956  0.000428  0.000000  1
  Ir  Ir17  1  0.000000  0.284402  0.500000  1
  Ir  Ir18  1  0.717947  0.717986  0.500000  1
  Ir  Ir19  1  0.282053  0.000039  0.500000  1
  Ir  Ir20  1  0.623109  0.806102  0.000000  1
  Ir  Ir21  1  0.194569  0.814802  0.000000  1
  Ir  Ir22  1  0.182328  0.377492  0.000000  1
  Ir  Ir23  1  0.376891  0.182993  0.000000  1
  Ir  Ir24  1  0.805431  0.620233  0.000000  1
  Ir  Ir25  1  0.817672  0.195165  0.000000  1
  Ir  Ir26  1  0.511652  0.874507  0.500000  1
  Ir  Ir27  1  0.124718  0.637461  0.500000  1
  Ir  Ir28  1  0.361610  0.487646  0.500000  1
  Ir  Ir29  1  0.488348  0.362854  0.500000  1
  Ir  Ir30  1  0.875282  0.512742  0.500000  1
  Ir  Ir31  1  0.638390  0.126035  0.500000  1
  Ir  Ir32  1  0.000000  0.001098  0.000000  1
  Ir  Ir33  1  0.000000  0.447130  0.000000  1
  Ir  Ir34  1  0.550564  0.555081  0.000000  1
  Ir  Ir35  1  0.449436  0.004517  0.000000  1
