# generated using pymatgen
data_Ho5Er5(TlSb)3
_symmetry_space_group_name_H-M   'P 1'
_cell_length_a   8.92343300
_cell_length_b   8.90117544
_cell_length_c   6.50504900
_cell_angle_alpha   90.00000000
_cell_angle_beta   90.00000000
_cell_angle_gamma   120.08273988
_symmetry_Int_Tables_number   1
_chemical_formula_structural   Ho5Er5(TlSb)3
_chemical_formula_sum   'Ho5 Er5 Tl3 Sb3'
_cell_volume   447.09296727
_cell_formula_units_Z   1
loop_
 _symmetry_equiv_pos_site_id
 _symmetry_equiv_pos_as_xyz
  1  'x, y, z'
loop_
 _atom_site_type_symbol
 _atom_site_label
 _atom_site_symmetry_multiplicity
 _atom_site_fract_x
 _atom_site_fract_y
 _atom_site_fract_z
 _atom_site_occupancy
  Ho  Ho0  1  0.002756  0.763626  0.750000  1
  Ho  Ho1  1  0.003450  0.239072  0.250000  1
  Ho  Ho2  1  0.764378  0.760928  0.250000  1
  Ho  Ho3  1  0.761844  0.000000  0.750000  1
  Ho  Ho4  1  0.239130  0.236374  0.750000  1
  Er  Er5  1  0.237844  0.000000  0.250000  1
  Er  Er6  1  0.330560  0.666176  0.499155  1
  Er  Er7  1  0.664385  0.333824  0.000845  1
  Er  Er8  1  0.664385  0.333824  0.499155  1
  Er  Er9  1  0.330560  0.666176  0.000845  1
  Tl  Tl10  1  0.397087  0.000000  0.750000  1
  Tl  Tl11  1  0.395561  0.397408  0.250000  1
  Tl  Tl12  1  0.998153  0.602592  0.250000  1
  Sb  Sb13  1  0.997306  0.391769  0.750000  1
  Sb  Sb14  1  0.605537  0.608231  0.750000  1
  Sb  Sb15  1  0.607065  0.000000  0.250000  1
