# generated using pymatgen
data_La4Ga24CoRh
_symmetry_space_group_name_H-M   'P 1'
_cell_length_a   6.12254700
_cell_length_b   6.12254700
_cell_length_c   15.79096400
_cell_angle_alpha   90.00000000
_cell_angle_beta   90.00000000
_cell_angle_gamma   90.00000000
_symmetry_Int_Tables_number   1
_chemical_formula_structural   La4Ga24CoRh
_chemical_formula_sum   'La4 Ga24 Co1 Rh1'
_cell_volume   591.93347221
_cell_formula_units_Z   1
loop_
 _symmetry_equiv_pos_site_id
 _symmetry_equiv_pos_as_xyz
  1  'x, y, z'
loop_
 _atom_site_type_symbol
 _atom_site_label
 _atom_site_symmetry_multiplicity
 _atom_site_fract_x
 _atom_site_fract_y
 _atom_site_fract_z
 _atom_site_occupancy
  La  La0  1  0.500000  0.000000  0.243102  1
  La  La1  1  0.000000  0.500000  0.241096  1
  La  La2  1  0.000000  0.500000  0.758904  1
  La  La3  1  0.500000  0.000000  0.756898  1
  Ga  Ga4  1  0.500000  0.500000  0.815785  1
  Ga  Ga5  1  0.000000  0.000000  0.815785  1
  Ga  Ga6  1  0.743540  0.756460  0.916605  1
  Ga  Ga7  1  0.256640  0.756640  0.916479  1
  Ga  Ga8  1  0.000000  0.000000  0.342902  1
  Ga  Ga9  1  0.256460  0.756460  0.083395  1
  Ga  Ga10  1  0.827197  0.327197  0.569637  1
  Ga  Ga11  1  0.500000  0.500000  0.342902  1
  Ga  Ga12  1  0.256460  0.243540  0.916605  1
  Ga  Ga13  1  0.743360  0.756640  0.083521  1
  Ga  Ga14  1  0.325945  0.174055  0.568892  1
  Ga  Ga15  1  0.674055  0.174055  0.431108  1
  Ga  Ga16  1  0.000000  0.000000  0.657098  1
  Ga  Ga17  1  0.172803  0.327197  0.430363  1
  Ga  Ga18  1  0.256640  0.243360  0.083521  1
  Ga  Ga19  1  0.827197  0.672803  0.430363  1
  Ga  Ga20  1  0.674055  0.825945  0.568892  1
  Ga  Ga21  1  0.000000  0.000000  0.184215  1
  Ga  Ga22  1  0.172803  0.672803  0.569637  1
  Ga  Ga23  1  0.500000  0.500000  0.657098  1
  Ga  Ga24  1  0.743360  0.243360  0.916479  1
  Ga  Ga25  1  0.500000  0.500000  0.184215  1
  Ga  Ga26  1  0.325945  0.825945  0.431108  1
  Ga  Ga27  1  0.743540  0.243540  0.083395  1
  Co  Co28  1  0.500000  0.000000  0.000000  1
  Rh  Rh29  1  0.000000  0.500000  0.000000  1
