# generated using pymatgen
data_Sr8BiSb7O20
_symmetry_space_group_name_H-M   'P 1'
_cell_length_a   6.15758100
_cell_length_b   7.70239184
_cell_length_c   14.51153059
_cell_angle_alpha   89.59031758
_cell_angle_beta   90.00000000
_cell_angle_gamma   90.00000000
_symmetry_Int_Tables_number   1
_chemical_formula_structural   Sr8BiSb7O20
_chemical_formula_sum   'Sr8 Bi1 Sb7 O20'
_cell_volume   688.23675379
_cell_formula_units_Z   1
loop_
 _symmetry_equiv_pos_site_id
 _symmetry_equiv_pos_as_xyz
  1  'x, y, z'
loop_
 _atom_site_type_symbol
 _atom_site_label
 _atom_site_symmetry_multiplicity
 _atom_site_fract_x
 _atom_site_fract_y
 _atom_site_fract_z
 _atom_site_occupancy
  Sr  Sr0  1  0.250000  0.372351  0.430006  1
  Sr  Sr1  1  0.750000  0.874760  0.070356  1
  Sr  Sr2  1  0.750000  0.623381  0.566907  1
  Sr  Sr3  1  0.250000  0.129480  0.929944  1
  Sr  Sr4  1  0.750000  0.376072  0.060123  1
  Sr  Sr5  1  0.250000  0.874182  0.442263  1
  Sr  Sr6  1  0.750000  0.121443  0.557692  1
  Sr  Sr7  1  0.250000  0.624405  0.944237  1
  Bi  Bi8  1  0.250000  0.871698  0.689397  1
  Sb  Sb9  1  0.750000  0.877999  0.821772  1
  Sb  Sb10  1  0.750000  0.122611  0.315331  1
  Sb  Sb11  1  0.750000  0.380495  0.817391  1
  Sb  Sb12  1  0.250000  0.621517  0.184785  1
  Sb  Sb13  1  0.750000  0.624336  0.320543  1
  Sb  Sb14  1  0.250000  0.379160  0.677405  1
  Sb  Sb15  1  0.250000  0.122835  0.177681  1
  O  O16  1  0.516726  0.118630  0.407362  1
  O  O17  1  0.515171  0.869176  0.912675  1
  O  O18  1  0.482978  0.620112  0.092300  1
  O  O19  1  0.009752  0.875918  0.588680  1
  O  O20  1  0.250000  0.369819  0.227828  1
  O  O21  1  0.983274  0.118630  0.407362  1
  O  O22  1  0.983528  0.629554  0.412323  1
  O  O23  1  0.750000  0.631510  0.771500  1
  O  O24  1  0.490248  0.875918  0.588680  1
  O  O25  1  0.517568  0.384368  0.909806  1
  O  O26  1  0.482952  0.130913  0.085516  1
  O  O27  1  0.984829  0.869176  0.912675  1
  O  O28  1  0.017022  0.620112  0.092300  1
  O  O29  1  0.017048  0.130913  0.085516  1
  O  O30  1  0.482948  0.365496  0.585794  1
  O  O31  1  0.250000  0.140964  0.735834  1
  O  O32  1  0.017052  0.365496  0.585794  1
  O  O33  1  0.982432  0.384368  0.909806  1
  O  O34  1  0.516472  0.629554  0.412323  1
  O  O35  1  0.750000  0.872649  0.270094  1
