# generated using pymatgen
data_Dy4Er8Tc3Os
_symmetry_space_group_name_H-M   'P 1'
_cell_length_a   6.25675936
_cell_length_b   7.40115553
_cell_length_c   9.04732700
_cell_angle_alpha   90.00000000
_cell_angle_beta   90.00000000
_cell_angle_gamma   90.04389446
_symmetry_Int_Tables_number   1
_chemical_formula_structural   Dy4Er8Tc3Os
_chemical_formula_sum   'Dy4 Er8 Tc3 Os1'
_cell_volume   418.95670289
_cell_formula_units_Z   1
loop_
 _symmetry_equiv_pos_site_id
 _symmetry_equiv_pos_as_xyz
  1  'x, y, z'
loop_
 _atom_site_type_symbol
 _atom_site_label
 _atom_site_symmetry_multiplicity
 _atom_site_fract_x
 _atom_site_fract_y
 _atom_site_fract_z
 _atom_site_occupancy
  Dy  Dy0  1  0.875485  0.540545  0.250000  1
  Dy  Dy1  1  0.626030  0.038920  0.250000  1
  Dy  Dy2  1  0.127145  0.458781  0.750000  1
  Dy  Dy3  1  0.374891  0.960428  0.750000  1
  Er  Er4  1  0.338375  0.675183  0.061373  1
  Er  Er5  1  0.159637  0.175467  0.437629  1
  Er  Er6  1  0.660960  0.325648  0.562737  1
  Er  Er7  1  0.838028  0.823514  0.936908  1
  Er  Er8  1  0.660960  0.325648  0.937263  1
  Er  Er9  1  0.838028  0.823514  0.563092  1
  Er  Er10  1  0.338375  0.675183  0.438627  1
  Er  Er11  1  0.159637  0.175467  0.062371  1
  Tc  Tc12  1  0.042341  0.883644  0.250000  1
  Tc  Tc13  1  0.459881  0.385250  0.250000  1
  Tc  Tc14  1  0.958502  0.116050  0.750000  1
  Os  Os15  1  0.541725  0.616756  0.750000  1
