# generated using pymatgen
data_Ti2CO
_symmetry_space_group_name_H-M   'P 1'
_cell_length_a   5.37614690
_cell_length_b   5.37614719
_cell_length_c   5.37614693
_cell_angle_alpha   32.83244925
_cell_angle_beta   32.83244696
_cell_angle_gamma   32.83243889
_symmetry_Int_Tables_number   1
_chemical_formula_structural   Ti2CO
_chemical_formula_sum   'Ti2 C1 O1'
_cell_volume   40.63846953
_cell_formula_units_Z   1
loop_
 _symmetry_equiv_pos_site_id
 _symmetry_equiv_pos_as_xyz
  1  'x, y, z'
loop_
 _atom_site_type_symbol
 _atom_site_label
 _atom_site_symmetry_multiplicity
 _atom_site_fract_x
 _atom_site_fract_y
 _atom_site_fract_z
 _atom_site_occupancy
  Ti  Ti0  1  0.742177  0.742177  0.742177  1
  Ti  Ti1  1  0.257721  0.257721  0.257721  1
  C  C2  1  0.000047  0.000047  0.000047  1
  O  O3  1  0.500055  0.500055  0.500055  1
