# generated using pymatgen
data_Dy3Mg2PaIr3
_symmetry_space_group_name_H-M   'P 1'
_cell_length_a   7.56028138
_cell_length_b   7.48233700
_cell_length_c   4.01571100
_cell_angle_alpha   90.00000000
_cell_angle_beta   90.00000000
_cell_angle_gamma   119.65953279
_symmetry_Int_Tables_number   1
_chemical_formula_structural   Dy3Mg2PaIr3
_chemical_formula_sum   'Dy3 Mg2 Pa1 Ir3'
_cell_volume   197.40041969
_cell_formula_units_Z   1
loop_
 _symmetry_equiv_pos_site_id
 _symmetry_equiv_pos_as_xyz
  1  'x, y, z'
loop_
 _atom_site_type_symbol
 _atom_site_label
 _atom_site_symmetry_multiplicity
 _atom_site_fract_x
 _atom_site_fract_y
 _atom_site_fract_z
 _atom_site_occupancy
  Dy  Dy0  1  0.557885  0.590750  0.000000  1
  Dy  Dy1  1  0.442115  0.032866  0.000000  1
  Dy  Dy2  1  0.000000  0.378357  0.000000  1
  Mg  Mg3  1  0.252122  0.248590  0.500000  1
  Mg  Mg4  1  0.747878  0.996468  0.500000  1
  Pa  Pa5  1  0.000000  0.736931  0.500000  1
  Ir  Ir6  1  0.000000  0.983789  0.000000  1
  Ir  Ir7  1  0.683034  0.357642  0.500000  1
  Ir  Ir8  1  0.316966  0.674608  0.500000  1
