# generated using pymatgen
data_Lu10In8AgRh3
_symmetry_space_group_name_H-M   'P 1'
_cell_length_a   3.53572100
_cell_length_b   8.03255087
_cell_length_c   18.05644970
_cell_angle_alpha   89.85723236
_cell_angle_beta   90.00000000
_cell_angle_gamma   90.00000000
_symmetry_Int_Tables_number   1
_chemical_formula_structural   Lu10In8AgRh3
_chemical_formula_sum   'Lu10 In8 Ag1 Rh3'
_cell_volume   512.81708665
_cell_formula_units_Z   1
loop_
 _symmetry_equiv_pos_site_id
 _symmetry_equiv_pos_as_xyz
  1  'x, y, z'
loop_
 _atom_site_type_symbol
 _atom_site_label
 _atom_site_symmetry_multiplicity
 _atom_site_fract_x
 _atom_site_fract_y
 _atom_site_fract_z
 _atom_site_occupancy
  Lu  Lu0  1  0.000000  0.502340  0.501023  1
  Lu  Lu1  1  0.000000  0.000243  0.999333  1
  Lu  Lu2  1  0.000000  0.720277  0.278165  1
  Lu  Lu3  1  0.000000  0.256339  0.722664  1
  Lu  Lu4  1  0.000000  0.754128  0.777830  1
  Lu  Lu5  1  0.000000  0.262752  0.216560  1
  Lu  Lu6  1  0.000000  0.617385  0.083831  1
  Lu  Lu7  1  0.000000  0.382389  0.911550  1
  Lu  Lu8  1  0.000000  0.884188  0.589157  1
  Lu  Lu9  1  0.000000  0.123017  0.421207  1
  In  In10  1  0.500000  0.706895  0.932085  1
  In  In11  1  0.500000  0.293944  0.065221  1
  In  In12  1  0.500000  0.794923  0.435161  1
  In  In13  1  0.500000  0.209723  0.569841  1
  In  In14  1  0.500000  0.573599  0.649536  1
  In  In15  1  0.500000  0.421417  0.351888  1
  In  In16  1  0.500000  0.919949  0.147464  1
  In  In17  1  0.500000  0.070709  0.850839  1
  Ag  Ag18  1  0.500000  0.022992  0.301469  1
  Rh  Rh19  1  0.500000  0.526753  0.194127  1
  Rh  Rh20  1  0.500000  0.477867  0.804521  1
  Rh  Rh21  1  0.500000  0.978172  0.696530  1
