# generated using pymatgen
data_YbEuNpO6
_symmetry_space_group_name_H-M   'P 1'
_cell_length_a   5.57402500
_cell_length_b   7.87801652
_cell_length_c   11.83788700
_cell_angle_alpha   74.10913681
_cell_angle_beta   90.00000000
_cell_angle_gamma   90.00000000
_symmetry_Int_Tables_number   1
_chemical_formula_structural   YbEuNpO6
_chemical_formula_sum   'Yb4 Eu4 Np4 O24'
_cell_volume   499.96313449
_cell_formula_units_Z   4
loop_
 _symmetry_equiv_pos_site_id
 _symmetry_equiv_pos_as_xyz
  1  'x, y, z'
loop_
 _atom_site_type_symbol
 _atom_site_label
 _atom_site_symmetry_multiplicity
 _atom_site_fract_x
 _atom_site_fract_y
 _atom_site_fract_z
 _atom_site_occupancy
  Yb  Yb0  1  0.185715  0.204841  0.420064  1
  Yb  Yb1  1  0.185715  0.795159  0.079936  1
  Yb  Yb2  1  0.814285  0.795159  0.579936  1
  Yb  Yb3  1  0.814285  0.204841  0.920064  1
  Eu  Eu4  1  0.687572  0.500000  0.250000  1
  Eu  Eu5  1  0.312428  0.500000  0.750000  1
  Eu  Eu6  1  0.746122  0.000000  0.250000  1
  Eu  Eu7  1  0.253878  0.000000  0.750000  1
  Np  Np8  1  0.252642  0.276409  0.112807  1
  Np  Np9  1  0.252642  0.723591  0.387193  1
  Np  Np10  1  0.747358  0.723591  0.887193  1
  Np  Np11  1  0.747358  0.276409  0.612807  1
  O  O12  1  0.448405  0.208035  0.267827  1
  O  O13  1  0.448405  0.791965  0.232173  1
  O  O14  1  0.551595  0.791965  0.732173  1
  O  O15  1  0.551595  0.208035  0.767827  1
  O  O16  1  0.053160  0.063379  0.103382  1
  O  O17  1  0.053160  0.936621  0.396618  1
  O  O18  1  0.946840  0.936621  0.896618  1
  O  O19  1  0.946840  0.063379  0.603382  1
  O  O20  1  0.972096  0.285336  0.229908  1
  O  O21  1  0.972096  0.714664  0.270092  1
  O  O22  1  0.027904  0.714664  0.770092  1
  O  O23  1  0.027904  0.285336  0.729908  1
  O  O24  1  0.865655  0.370893  0.448416  1
  O  O25  1  0.865655  0.629107  0.051584  1
  O  O26  1  0.134345  0.629107  0.551584  1
  O  O27  1  0.134345  0.370893  0.948416  1
  O  O28  1  0.624479  0.513626  0.610508  1
  O  O29  1  0.624479  0.486374  0.889492  1
  O  O30  1  0.375521  0.486374  0.389492  1
  O  O31  1  0.375521  0.513626  0.110508  1
  O  O32  1  0.463001  0.150833  0.567433  1
  O  O33  1  0.463001  0.849167  0.932567  1
  O  O34  1  0.536999  0.849167  0.432567  1
  O  O35  1  0.536999  0.150833  0.067433  1
