# generated using pymatgen
data_Nd4DyTl3(TeO6)4
_symmetry_space_group_name_H-M   'P 1'
_cell_length_a   5.38581519
_cell_length_b   9.20939399
_cell_length_c   10.45187625
_cell_angle_alpha   89.99201709
_cell_angle_beta   90.26195188
_cell_angle_gamma   89.72384540
_symmetry_Int_Tables_number   1
_chemical_formula_structural   Nd4DyTl3(TeO6)4
_chemical_formula_sum   'Nd4 Dy1 Tl3 Te4 O24'
_cell_volume   518.40259898
_cell_formula_units_Z   1
loop_
 _symmetry_equiv_pos_site_id
 _symmetry_equiv_pos_as_xyz
  1  'x, y, z'
loop_
 _atom_site_type_symbol
 _atom_site_label
 _atom_site_symmetry_multiplicity
 _atom_site_fract_x
 _atom_site_fract_y
 _atom_site_fract_z
 _atom_site_occupancy
  Nd  Nd0  1  0.016414  0.215858  0.858843  1
  Nd  Nd1  1  0.513866  0.284611  0.138154  1
  Nd  Nd2  1  0.988910  0.719943  0.643492  1
  Nd  Nd3  1  0.487651  0.780021  0.359192  1
  Dy  Dy4  1  0.480494  0.886722  0.945609  1
  Tl  Tl5  1  0.016743  0.118224  0.432120  1
  Tl  Tl6  1  0.520699  0.378025  0.569668  1
  Tl  Tl7  1  0.981517  0.612414  0.064624  1
  Te  Te8  1  0.534736  0.006254  0.644125  1
  Te  Te9  1  0.037145  0.491007  0.358474  1
  Te  Te10  1  0.469367  0.511047  0.858088  1
  Te  Te11  1  0.960053  0.991059  0.138956  1
  O  O12  1  0.234382  0.439401  0.992946  1
  O  O13  1  0.746180  0.069986  0.001695  1
  O  O14  1  0.767738  0.942902  0.507117  1
  O  O15  1  0.274685  0.555561  0.493025  1
  O  O16  1  0.213975  0.113901  0.057682  1
  O  O17  1  0.683666  0.365670  0.937103  1
  O  O18  1  0.829243  0.640061  0.437252  1
  O  O19  1  0.322648  0.861885  0.562410  1
  O  O20  1  0.251952  0.331426  0.312632  1
  O  O21  1  0.753084  0.165581  0.686026  1
  O  O22  1  0.695686  0.852504  0.169751  1
  O  O23  1  0.252130  0.673053  0.820356  1
  O  O24  1  0.172171  0.951176  0.285422  1
  O  O25  1  0.700060  0.536178  0.717678  1
  O  O26  1  0.799031  0.468202  0.218981  1
  O  O27  1  0.308121  0.031762  0.786448  1
  O  O28  1  0.215422  0.624130  0.247102  1
  O  O29  1  0.709635  0.872241  0.756219  1
  O  O30  1  0.799585  0.135652  0.247012  1
  O  O31  1  0.284713  0.378652  0.748433  1
  O  O32  1  0.108689  0.840039  0.031572  1
  O  O33  1  0.629353  0.655563  0.968355  1
  O  O34  1  0.873008  0.347060  0.469607  1
  O  O35  1  0.367246  0.152231  0.533830  1
