# generated using pymatgen
data_Ba3GdCrO6
_symmetry_space_group_name_H-M   'P 1'
_cell_length_a   7.18989077
_cell_length_b   7.18988143
_cell_length_c   7.19022450
_cell_angle_alpha   93.17794303
_cell_angle_beta   93.17793212
_cell_angle_gamma   93.18118086
_symmetry_Int_Tables_number   1
_chemical_formula_structural   Ba3GdCrO6
_chemical_formula_sum   'Ba6 Gd2 Cr2 O12'
_cell_volume   369.91248347
_cell_formula_units_Z   2
loop_
 _symmetry_equiv_pos_site_id
 _symmetry_equiv_pos_as_xyz
  1  'x, y, z'
loop_
 _atom_site_type_symbol
 _atom_site_label
 _atom_site_symmetry_multiplicity
 _atom_site_fract_x
 _atom_site_fract_y
 _atom_site_fract_z
 _atom_site_occupancy
  Ba  Ba0  1  0.614615  0.885343  0.250017  1
  Ba  Ba1  1  0.885350  0.249992  0.614694  1
  Ba  Ba2  1  0.250022  0.614663  0.885279  1
  Ba  Ba3  1  0.114643  0.749954  0.385425  1
  Ba  Ba4  1  0.749999  0.385391  0.114577  1
  Ba  Ba5  1  0.385346  0.114644  0.749981  1
  Gd  Gd6  1  0.249994  0.250022  0.250000  1
  Gd  Gd7  1  0.749987  0.750027  0.750001  1
  Cr  Cr8  1  0.500152  0.500176  0.500142  1
  Cr  Cr9  1  0.999812  0.999852  0.999872  1
  O  O10  1  0.537605  0.223567  0.409381  1
  O  O11  1  0.223596  0.409423  0.537498  1
  O  O12  1  0.409465  0.537563  0.223502  1
  O  O13  1  0.037627  0.909412  0.723510  1
  O  O14  1  0.909382  0.723453  0.037711  1
  O  O15  1  0.723421  0.037619  0.909471  1
  O  O16  1  0.462404  0.776526  0.590518  1
  O  O17  1  0.776559  0.590558  0.462284  1
  O  O18  1  0.590605  0.462334  0.776465  1
  O  O19  1  0.962429  0.090584  0.276520  1
  O  O20  1  0.090562  0.276462  0.962510  1
  O  O21  1  0.276421  0.962434  0.090641  1
