# generated using pymatgen
data_LaMg3P6N13
_symmetry_space_group_name_H-M   'P 1'
_cell_length_a   7.14816240
_cell_length_b   7.14816339
_cell_length_c   7.14816200
_cell_angle_alpha   109.25536077
_cell_angle_beta   109.25536352
_cell_angle_gamma   109.25535814
_symmetry_Int_Tables_number   1
_chemical_formula_structural   LaMg3P6N13
_chemical_formula_sum   'La1 Mg3 P6 N13'
_cell_volume   283.38987346
_cell_formula_units_Z   1
loop_
 _symmetry_equiv_pos_site_id
 _symmetry_equiv_pos_as_xyz
  1  'x, y, z'
loop_
 _atom_site_type_symbol
 _atom_site_label
 _atom_site_symmetry_multiplicity
 _atom_site_fract_x
 _atom_site_fract_y
 _atom_site_fract_z
 _atom_site_occupancy
  La  La0  1  0.268096  0.268096  0.268096  1
  Mg  Mg1  1  0.983315  0.683263  0.983315  1
  Mg  Mg2  1  0.683263  0.983315  0.983315  1
  Mg  Mg3  1  0.983315  0.983315  0.683263  1
  P  P4  1  0.508062  0.255569  0.760805  1
  P  P5  1  0.508062  0.760805  0.255569  1
  P  P6  1  0.760805  0.255569  0.508062  1
  P  P7  1  0.255569  0.508062  0.760805  1
  P  P8  1  0.760805  0.508062  0.255569  1
  P  P9  1  0.255569  0.760805  0.508062  1
  N  N10  1  0.960009  0.960009  0.960009  1
  N  N11  1  0.005039  0.736081  0.447977  1
  N  N12  1  0.275381  0.720039  0.275381  1
  N  N13  1  0.285919  0.569109  0.569109  1
  N  N14  1  0.569109  0.569109  0.285919  1
  N  N15  1  0.569109  0.285919  0.569109  1
  N  N16  1  0.736081  0.005039  0.447977  1
  N  N17  1  0.447977  0.005039  0.736081  1
  N  N18  1  0.736081  0.447977  0.005039  1
  N  N19  1  0.275381  0.275381  0.720039  1
  N  N20  1  0.720039  0.275381  0.275381  1
  N  N21  1  0.005039  0.447977  0.736081  1
  N  N22  1  0.447977  0.736081  0.005039  1
