# generated using pymatgen
data_DyPaTeN2
_symmetry_space_group_name_H-M   'P 1'
_cell_length_a   6.89370708
_cell_length_b   6.89370817
_cell_length_c   6.89370833
_cell_angle_alpha   146.41177377
_cell_angle_beta   146.41177239
_cell_angle_gamma   48.23554181
_symmetry_Int_Tables_number   1
_chemical_formula_structural   DyPaTeN2
_chemical_formula_sum   'Dy1 Pa1 Te1 N2'
_cell_volume   99.84948936
_cell_formula_units_Z   1
loop_
 _symmetry_equiv_pos_site_id
 _symmetry_equiv_pos_as_xyz
  1  'x, y, z'
loop_
 _atom_site_type_symbol
 _atom_site_label
 _atom_site_symmetry_multiplicity
 _atom_site_fract_x
 _atom_site_fract_y
 _atom_site_fract_z
 _atom_site_occupancy
  Dy  Dy0  1  0.338168  0.338168  0.000000  1
  Pa  Pa1  1  0.669411  0.669411  0.000000  1
  Te  Te2  1  0.003361  0.003361  0.000000  1
  N  N3  1  0.744530  0.244530  0.500000  1
  N  N4  1  0.244530  0.744530  0.500000  1
