# generated using pymatgen
data_Y2ErTa3(B2Ru5)2
_symmetry_space_group_name_H-M   'P 1'
_cell_length_a   9.60259647
_cell_length_b   9.60259661
_cell_length_c   3.11990600
_cell_angle_alpha   90.00000000
_cell_angle_beta   90.00000000
_cell_angle_gamma   90.49743971
_symmetry_Int_Tables_number   1
_chemical_formula_structural   Y2ErTa3(B2Ru5)2
_chemical_formula_sum   'Y2 Er1 Ta3 B4 Ru10'
_cell_volume   287.67525405
_cell_formula_units_Z   1
loop_
 _symmetry_equiv_pos_site_id
 _symmetry_equiv_pos_as_xyz
  1  'x, y, z'
loop_
 _atom_site_type_symbol
 _atom_site_label
 _atom_site_symmetry_multiplicity
 _atom_site_fract_x
 _atom_site_fract_y
 _atom_site_fract_z
 _atom_site_occupancy
  Y  Y0  1  0.823576  0.675374  0.000000  1
  Y  Y1  1  0.175374  0.323576  0.000000  1
  Er  Er2  1  0.325810  0.825810  0.000000  1
  Ta  Ta3  1  0.675546  0.175546  0.000000  1
  Ta  Ta4  1  0.498068  0.503034  0.000000  1
  Ta  Ta5  1  0.003034  0.998068  0.000000  1
  B  B6  1  0.622983  0.881665  0.000000  1
  B  B7  1  0.381665  0.122983  0.000000  1
  B  B8  1  0.119295  0.619295  0.000000  1
  B  B9  1  0.875892  0.375892  0.000000  1
  Ru  Ru10  1  0.569541  0.722626  0.500000  1
  Ru  Ru11  1  0.441571  0.280046  0.500000  1
  Ru  Ru12  1  0.070642  0.780925  0.500000  1
  Ru  Ru13  1  0.915078  0.213053  0.500000  1
  Ru  Ru14  1  0.280925  0.570642  0.500000  1
  Ru  Ru15  1  0.713053  0.415078  0.500000  1
  Ru  Ru16  1  0.222626  0.069541  0.500000  1
  Ru  Ru17  1  0.780046  0.941571  0.500000  1
  Ru  Ru18  1  0.509338  0.009338  0.500000  1
  Ru  Ru19  1  0.995938  0.495938  0.500000  1
