# generated using pymatgen
data_Ge(S4I)4
_symmetry_space_group_name_H-M   'P 1'
_cell_length_a   12.35157329
_cell_length_b   13.07209306
_cell_length_c   13.33430781
_cell_angle_alpha   102.63920515
_cell_angle_beta   62.40943305
_cell_angle_gamma   118.19283624
_symmetry_Int_Tables_number   1
_chemical_formula_structural   Ge(S4I)4
_chemical_formula_sum   'Ge2 S32 I8'
_cell_volume   1681.75737755
_cell_formula_units_Z   2
loop_
 _symmetry_equiv_pos_site_id
 _symmetry_equiv_pos_as_xyz
  1  'x, y, z'
loop_
 _atom_site_type_symbol
 _atom_site_label
 _atom_site_symmetry_multiplicity
 _atom_site_fract_x
 _atom_site_fract_y
 _atom_site_fract_z
 _atom_site_occupancy
  Ge  Ge0  1  0.002403  0.000000  0.000000  1
  Ge  Ge1  1  0.252402  0.500000  0.500001  1
  S  S2  1  0.474154  0.221479  0.002799  1
  S  S3  1  0.394985  0.330683  0.005519  1
  S  S4  1  0.654791  0.318111  0.018010  1
  S  S5  1  0.323975  0.651942  0.140829  1
  S  S6  1  0.922718  0.636400  0.158432  1
  S  S7  1  0.542632  0.009478  0.198700  1
  S  S8  1  0.166706  0.490595  0.196494  1
  S  S9  1  0.882077  0.479761  0.210341  1
  S  S10  1  0.342419  0.979761  0.289659  1
  S  S11  1  0.613200  0.990595  0.303506  1
  S  S12  1  0.991333  0.509479  0.301300  1
  S  S13  1  0.331149  0.136399  0.341568  1
  S  S14  1  0.714807  0.151943  0.359171  1
  S  S15  1  0.922802  0.818112  0.481990  1
  S  S16  1  0.650502  0.830682  0.494482  1
  S  S17  1  0.726952  0.721479  0.497201  1
  S  S18  1  0.502675  0.278521  0.502799  1
  S  S19  1  0.314302  0.169317  0.505518  1
  S  S20  1  0.586681  0.181888  0.518010  1
  S  S21  1  0.922035  0.848058  0.640829  1
  S  S22  1  0.536318  0.863600  0.658431  1
  S  S23  1  0.783154  0.490522  0.698700  1
  S  S24  1  0.926113  0.009405  0.696493  1
  S  S25  1  0.652314  0.020238  0.710342  1
  S  S26  1  0.612657  0.520239  0.789659  1
  S  S27  1  0.872606  0.509405  0.803506  1
  S  S28  1  0.731853  0.990522  0.801300  1
  S  S29  1  0.444750  0.363601  0.841568  1
  S  S30  1  0.812864  0.348057  0.859171  1
  S  S31  1  0.354690  0.681888  0.981990  1
  S  S32  1  0.069821  0.669317  0.994482  1
  S  S33  1  0.255472  0.778521  0.997201  1
  I  I34  1  0.792764  0.819241  0.001929  1
  I  I35  1  0.033743  0.002295  0.176036  1
  I  I36  1  0.459778  0.502295  0.323965  1
  I  I37  1  0.044692  0.319241  0.498072  1
  I  I38  1  0.223522  0.680759  0.501929  1
  I  I39  1  0.281449  0.497705  0.676035  1
  I  I40  1  0.207484  0.997705  0.823965  1
  I  I41  1  0.975452  0.180759  0.998071  1
