# generated using pymatgen
data_DyPaBRh6
_symmetry_space_group_name_H-M   'P 1'
_cell_length_a   5.83703287
_cell_length_b   5.83703227
_cell_length_c   5.83703300
_cell_angle_alpha   60.00000153
_cell_angle_beta   60.00000493
_cell_angle_gamma   60.00000315
_symmetry_Int_Tables_number   1
_chemical_formula_structural   DyPaBRh6
_chemical_formula_sum   'Dy1 Pa1 B1 Rh6'
_cell_volume   140.62463739
_cell_formula_units_Z   1
loop_
 _symmetry_equiv_pos_site_id
 _symmetry_equiv_pos_as_xyz
  1  'x, y, z'
loop_
 _atom_site_type_symbol
 _atom_site_label
 _atom_site_symmetry_multiplicity
 _atom_site_fract_x
 _atom_site_fract_y
 _atom_site_fract_z
 _atom_site_occupancy
  Dy  Dy0  1  0.750000  0.750000  0.750000  1
  Pa  Pa1  1  0.250000  0.250000  0.250000  1
  B  B2  1  0.000000  0.000000  0.000000  1
  Rh  Rh3  1  0.744127  0.255874  0.255874  1
  Rh  Rh4  1  0.255874  0.744127  0.255874  1
  Rh  Rh5  1  0.744126  0.744126  0.255875  1
  Rh  Rh6  1  0.255874  0.255874  0.744127  1
  Rh  Rh7  1  0.744126  0.255875  0.744126  1
  Rh  Rh8  1  0.255875  0.744126  0.744126  1
