# generated using pymatgen
data_Li3Sc5VTc11Ge16
_symmetry_space_group_name_H-M   'P 1'
_cell_length_a   6.71141718
_cell_length_b   6.82481748
_cell_length_c   12.52258728
_cell_angle_alpha   90.00327124
_cell_angle_beta   89.94867287
_cell_angle_gamma   90.55487110
_symmetry_Int_Tables_number   1
_chemical_formula_structural   Li3Sc5VTc11Ge16
_chemical_formula_sum   'Li3 Sc5 V1 Tc11 Ge16'
_cell_volume   573.55993034
_cell_formula_units_Z   1
loop_
 _symmetry_equiv_pos_site_id
 _symmetry_equiv_pos_as_xyz
  1  'x, y, z'
loop_
 _atom_site_type_symbol
 _atom_site_label
 _atom_site_symmetry_multiplicity
 _atom_site_fract_x
 _atom_site_fract_y
 _atom_site_fract_z
 _atom_site_occupancy
  Li  Li0  1  0.026542  0.174661  0.087522  1
  Li  Li1  1  0.530207  0.325474  0.411195  1
  Li  Li2  1  0.473262  0.671348  0.918426  1
  Sc  Sc3  1  0.983907  0.828525  0.592816  1
  Sc  Sc4  1  0.986782  0.830190  0.910105  1
  Sc  Sc5  1  0.484430  0.672663  0.585967  1
  Sc  Sc6  1  0.513109  0.330169  0.087472  1
  Sc  Sc7  1  0.012719  0.170486  0.409390  1
  V  V8  1  0.334157  0.009274  0.749450  1
  Tc  Tc9  1  0.663701  0.003612  0.248891  1
  Tc  Tc10  1  0.168533  0.500137  0.249464  1
  Tc  Tc11  1  0.836240  0.499861  0.747664  1
  Tc  Tc12  1  0.823182  0.643683  0.124856  1
  Tc  Tc13  1  0.301327  0.859490  0.372624  1
  Tc  Tc14  1  0.669125  0.141725  0.871903  1
  Tc  Tc15  1  0.184660  0.359350  0.627114  1
  Tc  Tc16  1  0.182642  0.350198  0.872626  1
  Tc  Tc17  1  0.678003  0.137319  0.626675  1
  Tc  Tc18  1  0.320260  0.850256  0.129493  1
  Tc  Tc19  1  0.834870  0.650125  0.373259  1
  Ge  Ge20  1  0.815555  0.341777  0.246154  1
  Ge  Ge21  1  0.316691  0.164711  0.252755  1
  Ge  Ge22  1  0.672202  0.832363  0.756568  1
  Ge  Ge23  1  0.198798  0.660084  0.754998  1
  Ge  Ge24  1  0.015173  0.881260  0.241988  1
  Ge  Ge25  1  0.523307  0.630304  0.258777  1
  Ge  Ge26  1  0.483339  0.375652  0.751188  1
  Ge  Ge27  1  0.977522  0.129080  0.750150  1
  Ge  Ge28  1  0.827034  0.449545  0.949802  1
  Ge  Ge29  1  0.324914  0.050465  0.548113  1
  Ge  Ge30  1  0.670895  0.951157  0.048031  1
  Ge  Ge31  1  0.180615  0.541709  0.450593  1
  Ge  Ge32  1  0.171321  0.541178  0.046876  1
  Ge  Ge33  1  0.662439  0.955409  0.448726  1
  Ge  Ge34  1  0.324969  0.038499  0.953578  1
  Ge  Ge35  1  0.827572  0.448264  0.544792  1
