# generated using pymatgen
data_Nb4Tl2Fe2O13
_symmetry_space_group_name_H-M   'P 1'
_cell_length_a   8.58643104
_cell_length_b   8.58642964
_cell_length_c   9.63887300
_cell_angle_alpha   79.85346696
_cell_angle_beta   79.85346863
_cell_angle_gamma   26.74461194
_symmetry_Int_Tables_number   1
_chemical_formula_structural   Nb4Tl2Fe2O13
_chemical_formula_sum   'Nb4 Tl2 Fe2 O13'
_cell_volume   314.51313569
_cell_formula_units_Z   1
loop_
 _symmetry_equiv_pos_site_id
 _symmetry_equiv_pos_as_xyz
  1  'x, y, z'
loop_
 _atom_site_type_symbol
 _atom_site_label
 _atom_site_symmetry_multiplicity
 _atom_site_fract_x
 _atom_site_fract_y
 _atom_site_fract_z
 _atom_site_occupancy
  Nb  Nb0  1  0.833107  0.833107  0.934234  1
  Nb  Nb1  1  0.882460  0.882460  0.583695  1
  Nb  Nb2  1  0.166893  0.166893  0.065766  1
  Nb  Nb3  1  0.117540  0.117540  0.416305  1
  Tl  Tl4  1  0.549865  0.549865  0.758024  1
  Tl  Tl5  1  0.450135  0.450135  0.241976  1
  Fe  Fe6  1  0.762997  0.762997  0.278982  1
  Fe  Fe7  1  0.237003  0.237003  0.721018  1
  O  O8  1  0.624753  0.624753  0.385843  1
  O  O9  1  0.375247  0.375247  0.614157  1
  O  O10  1  0.000000  0.000000  0.500000  1
  O  O11  1  0.700530  0.700530  0.062030  1
  O  O12  1  0.299470  0.299470  0.937970  1
  O  O13  1  0.163784  0.163784  0.576151  1
  O  O14  1  0.836216  0.836216  0.423849  1
  O  O15  1  0.071285  0.071285  0.197120  1
  O  O16  1  0.777970  0.777970  0.740455  1
  O  O17  1  0.222030  0.222030  0.259545  1
  O  O18  1  0.928715  0.928715  0.802880  1
  O  O19  1  0.134756  0.134756  0.891578  1
  O  O20  1  0.865244  0.865244  0.108422  1
