# generated using pymatgen
data_HoTmU2As6Ru7
_symmetry_space_group_name_H-M   'P 1'
_cell_length_a   7.24271451
_cell_length_b   7.16650832
_cell_length_c   7.24271491
_cell_angle_alpha   109.24949085
_cell_angle_beta   110.18635023
_cell_angle_gamma   109.24948443
_symmetry_Int_Tables_number   1
_chemical_formula_structural   HoTmU2As6Ru7
_chemical_formula_sum   'Ho1 Tm1 U2 As6 Ru7'
_cell_volume   288.39967017
_cell_formula_units_Z   1
loop_
 _symmetry_equiv_pos_site_id
 _symmetry_equiv_pos_as_xyz
  1  'x, y, z'
loop_
 _atom_site_type_symbol
 _atom_site_label
 _atom_site_symmetry_multiplicity
 _atom_site_fract_x
 _atom_site_fract_y
 _atom_site_fract_z
 _atom_site_occupancy
  Ho  Ho0  1  0.000000  0.500000  0.000000  1
  Tm  Tm1  1  0.500000  0.500000  0.500000  1
  U  U2  1  0.000000  0.000000  0.500000  1
  U  U3  1  0.500000  0.000000  0.000000  1
  As  As4  1  0.312840  0.000740  0.312840  1
  As  As5  1  0.004672  0.316544  0.312806  1
  As  As6  1  0.995328  0.683456  0.687194  1
  As  As7  1  0.312806  0.316544  0.004672  1
  As  As8  1  0.687194  0.683456  0.995328  1
  As  As9  1  0.687160  0.999260  0.687160  1
  Ru  Ru10  1  0.749451  0.500000  0.250549  1
  Ru  Ru11  1  0.507694  0.757143  0.250274  1
  Ru  Ru12  1  0.492306  0.242857  0.749726  1
  Ru  Ru13  1  0.749726  0.242857  0.492306  1
  Ru  Ru14  1  0.250274  0.757143  0.507694  1
  Ru  Ru15  1  0.250549  0.500000  0.749451  1
  Ru  Ru16  1  0.000000  0.000000  0.000000  1
