# generated using pymatgen
data_Tb2UO6
_symmetry_space_group_name_H-M   'P 1'
_cell_length_a   6.52837925
_cell_length_b   6.52837900
_cell_length_c   6.67246031
_cell_angle_alpha   80.61707704
_cell_angle_beta   80.61707776
_cell_angle_gamma   120.57756858
_symmetry_Int_Tables_number   1
_chemical_formula_structural   Tb2UO6
_chemical_formula_sum   'Tb4 U2 O12'
_cell_volume   231.20843838
_cell_formula_units_Z   2
loop_
 _symmetry_equiv_pos_site_id
 _symmetry_equiv_pos_as_xyz
  1  'x, y, z'
loop_
 _atom_site_type_symbol
 _atom_site_label
 _atom_site_symmetry_multiplicity
 _atom_site_fract_x
 _atom_site_fract_y
 _atom_site_fract_z
 _atom_site_occupancy
  Tb  Tb0  1  0.915105  0.084895  0.750000  1
  Tb  Tb1  1  0.250020  0.749980  0.750000  1
  Tb  Tb2  1  0.084895  0.915105  0.250000  1
  Tb  Tb3  1  0.749980  0.250020  0.250000  1
  U  U4  1  0.585578  0.414422  0.750000  1
  U  U5  1  0.414422  0.585578  0.250000  1
  O  O6  1  0.932518  0.769698  0.628655  1
  O  O7  1  0.627214  0.142394  0.625752  1
  O  O8  1  0.689041  0.534760  0.379985  1
  O  O9  1  0.465240  0.310959  0.120015  1
  O  O10  1  0.310959  0.465240  0.620015  1
  O  O11  1  0.142394  0.627214  0.125752  1
  O  O12  1  0.372786  0.857606  0.374248  1
  O  O13  1  0.230302  0.067482  0.871345  1
  O  O14  1  0.067482  0.230302  0.371345  1
  O  O15  1  0.769698  0.932518  0.128655  1
  O  O16  1  0.857606  0.372786  0.874248  1
  O  O17  1  0.534760  0.689041  0.879985  1
