# generated using pymatgen
data_Sc6Ta3NbAl12Ru7
_symmetry_space_group_name_H-M   'P 1'
_cell_length_a   8.87064772
_cell_length_b   8.87051000
_cell_length_c   8.87078902
_cell_angle_alpha   60.00181602
_cell_angle_beta   60.00091398
_cell_angle_gamma   59.99997330
_symmetry_Int_Tables_number   1
_chemical_formula_structural   Sc6Ta3NbAl12Ru7
_chemical_formula_sum   'Sc6 Ta3 Nb1 Al12 Ru7'
_cell_volume   493.58283434
_cell_formula_units_Z   1
loop_
 _symmetry_equiv_pos_site_id
 _symmetry_equiv_pos_as_xyz
  1  'x, y, z'
loop_
 _atom_site_type_symbol
 _atom_site_label
 _atom_site_symmetry_multiplicity
 _atom_site_fract_x
 _atom_site_fract_y
 _atom_site_fract_z
 _atom_site_occupancy
  Sc  Sc0  1  0.709644  0.709646  0.290940  1
  Sc  Sc1  1  0.289772  0.709644  0.290941  1
  Sc  Sc2  1  0.709641  0.289774  0.290944  1
  Sc  Sc3  1  0.291188  0.291185  0.708190  1
  Sc  Sc4  1  0.709437  0.291184  0.708195  1
  Sc  Sc5  1  0.291189  0.709437  0.708188  1
  Ta  Ta6  1  0.879626  0.361186  0.879566  1
  Ta  Ta7  1  0.361186  0.879624  0.879561  1
  Ta  Ta8  1  0.879632  0.879622  0.879561  1
  Nb  Nb9  1  0.879541  0.879542  0.361375  1
  Al  Al10  1  0.120784  0.120786  0.637644  1
  Al  Al11  1  0.121304  0.637240  0.120152  1
  Al  Al12  1  0.637240  0.121305  0.120151  1
  Al  Al13  1  0.121305  0.121305  0.120151  1
  Al  Al14  1  0.662683  0.662687  0.011946  1
  Al  Al15  1  0.662965  0.010634  0.663436  1
  Al  Al16  1  0.010635  0.662965  0.663433  1
  Al  Al17  1  0.662968  0.662965  0.663435  1
  Al  Al18  1  0.334452  0.334454  0.996642  1
  Al  Al19  1  0.334250  0.997246  0.334255  1
  Al  Al20  1  0.997244  0.334250  0.334256  1
  Al  Al21  1  0.334250  0.334250  0.334255  1
  Ru  Ru22  1  0.000203  0.000202  0.999393  1
  Ru  Ru23  1  0.996484  0.996479  0.504706  1
  Ru  Ru24  1  0.502333  0.996479  0.504703  1
  Ru  Ru25  1  0.996479  0.502331  0.504708  1
  Ru  Ru26  1  0.503667  0.503673  0.996426  1
  Ru  Ru27  1  0.996234  0.503675  0.996424  1
  Ru  Ru28  1  0.503670  0.996235  0.996426  1
