# generated using pymatgen
data_KBaAs4Ir3Rh
_symmetry_space_group_name_H-M   'P 1'
_cell_length_a   7.21063090
_cell_length_b   7.20509147
_cell_length_c   5.75583700
_cell_angle_alpha   90.00000000
_cell_angle_beta   90.00000000
_cell_angle_gamma   132.82954200
_symmetry_Int_Tables_number   1
_chemical_formula_structural   KBaAs4Ir3Rh
_chemical_formula_sum   'K1 Ba1 As4 Ir3 Rh1'
_cell_volume   219.30573208
_cell_formula_units_Z   1
loop_
 _symmetry_equiv_pos_site_id
 _symmetry_equiv_pos_as_xyz
  1  'x, y, z'
loop_
 _atom_site_type_symbol
 _atom_site_label
 _atom_site_symmetry_multiplicity
 _atom_site_fract_x
 _atom_site_fract_y
 _atom_site_fract_z
 _atom_site_occupancy
  K  K0  1  0.000000  0.000000  0.000497  1
  Ba  Ba1  1  0.500000  0.500000  0.500369  1
  As  As2  1  0.643776  0.359021  0.998986  1
  As  As3  1  0.143786  0.854802  0.500935  1
  As  As4  1  0.856214  0.145198  0.500935  1
  As  As5  1  0.356224  0.640979  0.998986  1
  Ir  Ir6  1  0.500000  0.000000  0.750679  1
  Ir  Ir7  1  0.000000  0.500000  0.248953  1
  Ir  Ir8  1  0.000000  0.500000  0.750846  1
  Rh  Rh9  1  0.500000  0.000000  0.248811  1
