# generated using pymatgen
data_Ho7Tm3(Pb3Cl)2
_symmetry_space_group_name_H-M   'P 1'
_cell_length_a   9.14128000
_cell_length_b   9.14127889
_cell_length_c   6.53551600
_cell_angle_alpha   90.00000000
_cell_angle_beta   90.00000000
_cell_angle_gamma   119.99999678
_symmetry_Int_Tables_number   1
_chemical_formula_structural   Ho7Tm3(Pb3Cl)2
_chemical_formula_sum   'Ho7 Tm3 Pb6 Cl2'
_cell_volume   472.96009407
_cell_formula_units_Z   1
loop_
 _symmetry_equiv_pos_site_id
 _symmetry_equiv_pos_as_xyz
  1  'x, y, z'
loop_
 _atom_site_type_symbol
 _atom_site_label
 _atom_site_symmetry_multiplicity
 _atom_site_fract_x
 _atom_site_fract_y
 _atom_site_fract_z
 _atom_site_occupancy
  Ho  Ho0  1  0.261062  0.999885  0.749889  1
  Ho  Ho1  1  0.738824  0.999885  0.250111  1
  Ho  Ho2  1  0.000115  0.261176  0.749889  1
  Ho  Ho3  1  0.000115  0.738938  0.250111  1
  Ho  Ho4  1  0.738824  0.738938  0.749889  1
  Ho  Ho5  1  0.261062  0.261176  0.250111  1
  Ho  Ho6  1  0.333333  0.666667  0.000000  1
  Tm  Tm7  1  0.333333  0.666667  0.500000  1
  Tm  Tm8  1  0.666667  0.333333  0.500000  1
  Tm  Tm9  1  0.666667  0.333333  0.000000  1
  Pb  Pb10  1  0.610740  0.000764  0.749381  1
  Pb  Pb11  1  0.390024  0.000764  0.250619  1
  Pb  Pb12  1  0.999236  0.609976  0.749381  1
  Pb  Pb13  1  0.999236  0.389260  0.250619  1
  Pb  Pb14  1  0.390024  0.389260  0.749381  1
  Pb  Pb15  1  0.610740  0.609976  0.250619  1
  Cl  Cl16  1  0.000000  0.000000  0.500000  1
  Cl  Cl17  1  0.000000  0.000000  0.000000  1
