# generated using pymatgen
data_Rb4GaSnAu7
_symmetry_space_group_name_H-M   'P 1'
_cell_length_a   10.53356799
_cell_length_b   10.53356849
_cell_length_c   10.53356887
_cell_angle_alpha   38.04422297
_cell_angle_beta   38.04422036
_cell_angle_gamma   38.04421818
_symmetry_Int_Tables_number   1
_chemical_formula_structural   Rb4GaSnAu7
_chemical_formula_sum   'Rb4 Ga1 Sn1 Au7'
_cell_volume   398.48118116
_cell_formula_units_Z   1
loop_
 _symmetry_equiv_pos_site_id
 _symmetry_equiv_pos_as_xyz
  1  'x, y, z'
loop_
 _atom_site_type_symbol
 _atom_site_label
 _atom_site_symmetry_multiplicity
 _atom_site_fract_x
 _atom_site_fract_y
 _atom_site_fract_z
 _atom_site_occupancy
  Rb  Rb0  1  0.684704  0.684704  0.684704  1
  Rb  Rb1  1  0.316664  0.316664  0.316664  1
  Rb  Rb2  1  0.811200  0.811200  0.811200  1
  Rb  Rb3  1  0.187591  0.187591  0.187591  1
  Ga  Ga4  1  0.447293  0.447293  0.447293  1
  Sn  Sn5  1  0.545070  0.545070  0.545070  1
  Au  Au6  1  0.001244  0.001244  0.001244  1
  Au  Au7  1  0.197316  0.784839  0.784839  1
  Au  Au8  1  0.784839  0.784839  0.197316  1
  Au  Au9  1  0.784839  0.197316  0.784839  1
  Au  Au10  1  0.219345  0.800550  0.219345  1
  Au  Au11  1  0.800550  0.219345  0.219345  1
  Au  Au12  1  0.219345  0.219345  0.800550  1
