# generated using pymatgen
data_Er5Bi2Au
_symmetry_space_group_name_H-M   'P 1'
_cell_length_a   8.01089400
_cell_length_b   9.27567700
_cell_length_c   12.10578800
_cell_angle_alpha   90.00000000
_cell_angle_beta   90.00000000
_cell_angle_gamma   90.00000000
_symmetry_Int_Tables_number   1
_chemical_formula_structural   Er5Bi2Au
_chemical_formula_sum   'Er20 Bi8 Au4'
_cell_volume   899.53831505
_cell_formula_units_Z   4
loop_
 _symmetry_equiv_pos_site_id
 _symmetry_equiv_pos_as_xyz
  1  'x, y, z'
loop_
 _atom_site_type_symbol
 _atom_site_label
 _atom_site_symmetry_multiplicity
 _atom_site_fract_x
 _atom_site_fract_y
 _atom_site_fract_z
 _atom_site_occupancy
  Er  Er0  1  0.819932  0.553488  0.065139  1
  Er  Er1  1  0.680068  0.946512  0.565139  1
  Er  Er2  1  0.180068  0.053488  0.934861  1
  Er  Er3  1  0.319932  0.446512  0.434861  1
  Er  Er4  1  0.180068  0.446512  0.934861  1
  Er  Er5  1  0.319932  0.053488  0.434861  1
  Er  Er6  1  0.819932  0.946512  0.065139  1
  Er  Er7  1  0.680068  0.553488  0.565139  1
  Er  Er8  1  0.175227  0.750000  0.218904  1
  Er  Er9  1  0.324773  0.750000  0.718904  1
  Er  Er10  1  0.824773  0.250000  0.781096  1
  Er  Er11  1  0.675227  0.250000  0.281096  1
  Er  Er12  1  0.457574  0.750000  0.001903  1
  Er  Er13  1  0.042426  0.750000  0.501903  1
  Er  Er14  1  0.542426  0.250000  0.998097  1
  Er  Er15  1  0.957574  0.250000  0.498097  1
  Er  Er16  1  0.634890  0.750000  0.297427  1
  Er  Er17  1  0.865110  0.750000  0.797427  1
  Er  Er18  1  0.365110  0.250000  0.702573  1
  Er  Er19  1  0.134890  0.250000  0.202573  1
  Bi  Bi20  1  0.934380  0.510313  0.326217  1
  Bi  Bi21  1  0.565620  0.989687  0.826217  1
  Bi  Bi22  1  0.065620  0.010313  0.673783  1
  Bi  Bi23  1  0.434380  0.489687  0.173783  1
  Bi  Bi24  1  0.065620  0.489687  0.673783  1
  Bi  Bi25  1  0.434380  0.010313  0.173783  1
  Bi  Bi26  1  0.934380  0.989687  0.326217  1
  Bi  Bi27  1  0.565620  0.510313  0.826217  1
  Au  Au28  1  0.408854  0.750000  0.483483  1
  Au  Au29  1  0.091146  0.750000  0.983483  1
  Au  Au30  1  0.591146  0.250000  0.516517  1
  Au  Au31  1  0.908854  0.250000  0.016517  1
