# generated using pymatgen
data_LiLaThZn4Sn
_symmetry_space_group_name_H-M   'P 1'
_cell_length_a   8.75285789
_cell_length_b   8.75285897
_cell_length_c   9.08185300
_cell_angle_alpha   90.00000000
_cell_angle_beta   90.00000000
_cell_angle_gamma   149.99682096
_symmetry_Int_Tables_number   1
_chemical_formula_structural   LiLaThZn4Sn
_chemical_formula_sum   'Li2 La2 Th2 Zn8 Sn2'
_cell_volume   347.92530321
_cell_formula_units_Z   2
loop_
 _symmetry_equiv_pos_site_id
 _symmetry_equiv_pos_as_xyz
  1  'x, y, z'
loop_
 _atom_site_type_symbol
 _atom_site_label
 _atom_site_symmetry_multiplicity
 _atom_site_fract_x
 _atom_site_fract_y
 _atom_site_fract_z
 _atom_site_occupancy
  Li  Li0  1  0.398880  0.601120  0.250000  1
  Li  Li1  1  0.601120  0.398880  0.750000  1
  La  La2  1  0.000000  0.000000  0.500000  1
  La  La3  1  0.000000  0.000000  0.000000  1
  Th  Th4  1  0.208032  0.791968  0.250000  1
  Th  Th5  1  0.791968  0.208032  0.750000  1
  Zn  Zn6  1  0.814556  0.185444  0.390899  1
  Zn  Zn7  1  0.185444  0.814556  0.609101  1
  Zn  Zn8  1  0.814556  0.185444  0.109101  1
  Zn  Zn9  1  0.185444  0.814556  0.890899  1
  Zn  Zn10  1  0.660164  0.339836  0.484413  1
  Zn  Zn11  1  0.339836  0.660164  0.515587  1
  Zn  Zn12  1  0.660164  0.339836  0.015587  1
  Zn  Zn13  1  0.339836  0.660164  0.984413  1
  Sn  Sn14  1  0.559723  0.440277  0.250000  1
  Sn  Sn15  1  0.440277  0.559723  0.750000  1
