# generated using pymatgen
data_Dy3MnCoP6Ir7
_symmetry_space_group_name_H-M   'P 1'
_cell_length_a   3.90808600
_cell_length_b   11.11571000
_cell_length_c   12.74259600
_cell_angle_alpha   90.00000000
_cell_angle_beta   90.00000000
_cell_angle_gamma   90.00000000
_symmetry_Int_Tables_number   1
_chemical_formula_structural   Dy3MnCoP6Ir7
_chemical_formula_sum   'Dy6 Mn2 Co2 P12 Ir14'
_cell_volume   553.55303227
_cell_formula_units_Z   2
loop_
 _symmetry_equiv_pos_site_id
 _symmetry_equiv_pos_as_xyz
  1  'x, y, z'
loop_
 _atom_site_type_symbol
 _atom_site_label
 _atom_site_symmetry_multiplicity
 _atom_site_fract_x
 _atom_site_fract_y
 _atom_site_fract_z
 _atom_site_occupancy
  Dy  Dy0  1  0.000000  0.500000  0.518945  1
  Dy  Dy1  1  0.500000  0.000000  0.481055  1
  Dy  Dy2  1  0.500000  0.817754  0.200763  1
  Dy  Dy3  1  0.500000  0.182246  0.200763  1
  Dy  Dy4  1  0.000000  0.682246  0.799237  1
  Dy  Dy5  1  0.000000  0.317754  0.799237  1
  Mn  Mn6  1  0.500000  0.500000  0.168843  1
  Mn  Mn7  1  0.000000  0.000000  0.831157  1
  Co  Co8  1  0.000000  0.500000  0.983189  1
  Co  Co9  1  0.500000  0.000000  0.016811  1
  P  P10  1  0.500000  0.500000  0.882269  1
  P  P11  1  0.000000  0.000000  0.117731  1
  P  P12  1  0.500000  0.500000  0.347695  1
  P  P13  1  0.000000  0.000000  0.652305  1
  P  P14  1  0.500000  0.314777  0.619233  1
  P  P15  1  0.500000  0.685223  0.619233  1
  P  P16  1  0.000000  0.185223  0.380767  1
  P  P17  1  0.000000  0.814777  0.380767  1
  P  P18  1  0.500000  0.851398  0.895513  1
  P  P19  1  0.500000  0.148602  0.895513  1
  P  P20  1  0.000000  0.648602  0.104487  1
  P  P21  1  0.000000  0.351398  0.104487  1
  Ir  Ir22  1  0.500000  0.500000  0.702264  1
  Ir  Ir23  1  0.000000  0.000000  0.297736  1
  Ir  Ir24  1  0.500000  0.337463  0.997529  1
  Ir  Ir25  1  0.500000  0.662537  0.997529  1
  Ir  Ir26  1  0.000000  0.162537  0.002471  1
  Ir  Ir27  1  0.000000  0.837463  0.002471  1
  Ir  Ir28  1  0.500000  0.292867  0.429240  1
  Ir  Ir29  1  0.500000  0.707133  0.429240  1
  Ir  Ir30  1  0.000000  0.207133  0.570760  1
  Ir  Ir31  1  0.000000  0.792867  0.570760  1
  Ir  Ir32  1  0.500000  0.872764  0.715922  1
  Ir  Ir33  1  0.500000  0.127236  0.715922  1
  Ir  Ir34  1  0.000000  0.627236  0.284078  1
  Ir  Ir35  1  0.000000  0.372764  0.284078  1
