# generated using pymatgen
data_ErTm5(Si3Ru2)2
_symmetry_space_group_name_H-M   'P 1'
_cell_length_a   5.68238202
_cell_length_b   5.68238168
_cell_length_c   13.63910900
_cell_angle_alpha   90.00000000
_cell_angle_beta   90.00000000
_cell_angle_gamma   137.16223199
_symmetry_Int_Tables_number   1
_chemical_formula_structural   ErTm5(Si3Ru2)2
_chemical_formula_sum   'Er1 Tm5 Si6 Ru4'
_cell_volume   299.43855643
_cell_formula_units_Z   1
loop_
 _symmetry_equiv_pos_site_id
 _symmetry_equiv_pos_as_xyz
  1  'x, y, z'
loop_
 _atom_site_type_symbol
 _atom_site_label
 _atom_site_symmetry_multiplicity
 _atom_site_fract_x
 _atom_site_fract_y
 _atom_site_fract_z
 _atom_site_occupancy
  Er  Er0  1  0.643703  0.356297  0.250000  1
  Tm  Tm1  1  0.924582  0.075418  0.385653  1
  Tm  Tm2  1  0.075434  0.924566  0.614372  1
  Tm  Tm3  1  0.924582  0.075418  0.114347  1
  Tm  Tm4  1  0.075434  0.924566  0.885628  1
  Tm  Tm5  1  0.355989  0.644011  0.750000  1
  Si  Si6  1  0.615952  0.384048  0.461664  1
  Si  Si7  1  0.384033  0.615967  0.538448  1
  Si  Si8  1  0.615952  0.384048  0.038336  1
  Si  Si9  1  0.384033  0.615967  0.961552  1
  Si  Si10  1  0.332675  0.667325  0.250000  1
  Si  Si11  1  0.667504  0.332496  0.750000  1
  Ru  Ru12  1  0.787202  0.212798  0.917905  1
  Ru  Ru13  1  0.212863  0.787137  0.081939  1
  Ru  Ru14  1  0.787202  0.212798  0.582095  1
  Ru  Ru15  1  0.212863  0.787137  0.418061  1
