# generated using pymatgen
data_Ho5Er11(ZnRh)4
_symmetry_space_group_name_H-M   'P 1'
_cell_length_a   9.41288484
_cell_length_b   9.41288479
_cell_length_c   9.41511900
_cell_angle_alpha   59.99215150
_cell_angle_beta   59.99215170
_cell_angle_gamma   60.05467392
_symmetry_Int_Tables_number   1
_chemical_formula_structural   Ho5Er11(ZnRh)4
_chemical_formula_sum   'Ho5 Er11 Zn4 Rh4'
_cell_volume   590.04326862
_cell_formula_units_Z   1
loop_
 _symmetry_equiv_pos_site_id
 _symmetry_equiv_pos_as_xyz
  1  'x, y, z'
loop_
 _atom_site_type_symbol
 _atom_site_label
 _atom_site_symmetry_multiplicity
 _atom_site_fract_x
 _atom_site_fract_y
 _atom_site_fract_z
 _atom_site_occupancy
  Ho  Ho0  1  0.934973  0.564833  0.564778  1
  Ho  Ho1  1  0.934973  0.564833  0.935416  1
  Ho  Ho2  1  0.564833  0.934973  0.564778  1
  Ho  Ho3  1  0.564833  0.934973  0.935416  1
  Ho  Ho4  1  0.309832  0.309832  0.690168  1
  Er  Er5  1  0.935951  0.935951  0.564049  1
  Er  Er6  1  0.563522  0.563522  0.936478  1
  Er  Er7  1  0.690095  0.690095  0.309905  1
  Er  Er8  1  0.144716  0.563220  0.146031  1
  Er  Er9  1  0.690527  0.309545  0.690716  1
  Er  Er10  1  0.145901  0.145901  0.145617  1
  Er  Er11  1  0.563220  0.144716  0.146031  1
  Er  Er12  1  0.690527  0.309545  0.309212  1
  Er  Er13  1  0.145901  0.145901  0.562580  1
  Er  Er14  1  0.309545  0.690527  0.309212  1
  Er  Er15  1  0.309545  0.690527  0.690716  1
  Zn  Zn16  1  0.921839  0.921839  0.235983  1
  Zn  Zn17  1  0.236673  0.920851  0.921238  1
  Zn  Zn18  1  0.921839  0.921839  0.920339  1
  Zn  Zn19  1  0.920851  0.236673  0.921238  1
  Rh  Rh20  1  0.356675  0.356675  0.932096  1
  Rh  Rh21  1  0.355672  0.930879  0.356724  1
  Rh  Rh22  1  0.930879  0.355672  0.356724  1
  Rh  Rh23  1  0.356675  0.356675  0.354553  1
