# generated using pymatgen
data_ScPa8S17
_symmetry_space_group_name_H-M   'P 1'
_cell_length_a   7.89819696
_cell_length_b   7.89819580
_cell_length_c   10.54015057
_cell_angle_alpha   80.36986200
_cell_angle_beta   80.36986280
_cell_angle_gamma   64.97972826
_symmetry_Int_Tables_number   1
_chemical_formula_structural   ScPa8S17
_chemical_formula_sum   'Sc1 Pa8 S17'
_cell_volume   583.97313621
_cell_formula_units_Z   1
loop_
 _symmetry_equiv_pos_site_id
 _symmetry_equiv_pos_as_xyz
  1  'x, y, z'
loop_
 _atom_site_type_symbol
 _atom_site_label
 _atom_site_symmetry_multiplicity
 _atom_site_fract_x
 _atom_site_fract_y
 _atom_site_fract_z
 _atom_site_occupancy
  Sc  Sc0  1  0.000000  0.000000  0.000000  1
  Pa  Pa1  1  0.796083  0.796083  0.459519  1
  Pa  Pa2  1  0.203917  0.203917  0.540481  1
  Pa  Pa3  1  0.698442  0.183179  0.698631  1
  Pa  Pa4  1  0.183179  0.698442  0.698631  1
  Pa  Pa5  1  0.816821  0.301558  0.301369  1
  Pa  Pa6  1  0.681454  0.681454  0.982795  1
  Pa  Pa7  1  0.318546  0.318546  0.017205  1
  Pa  Pa8  1  0.301558  0.816821  0.301369  1
  S  S9  1  0.479079  0.479079  0.168583  1
  S  S10  1  0.696747  0.696747  0.246021  1
  S  S11  1  0.567004  0.179137  0.465219  1
  S  S12  1  0.057790  0.669993  0.964088  1
  S  S13  1  0.212377  0.212377  0.277706  1
  S  S14  1  0.432996  0.820863  0.534781  1
  S  S15  1  0.520921  0.520921  0.831417  1
  S  S16  1  0.669993  0.057790  0.964088  1
  S  S17  1  0.938121  0.938121  0.234371  1
  S  S18  1  0.061879  0.061879  0.765629  1
  S  S19  1  0.303253  0.303253  0.753979  1
  S  S20  1  0.330007  0.942210  0.035912  1
  S  S21  1  0.820863  0.432996  0.534781  1
  S  S22  1  0.942210  0.330007  0.035912  1
  S  S23  1  0.179137  0.567004  0.465219  1
  S  S24  1  0.000000  0.000000  0.500000  1
  S  S25  1  0.787623  0.787623  0.722294  1
