# generated using pymatgen
data_Lu7Pa(MnB6)4
_symmetry_space_group_name_H-M   'P 1'
_cell_length_a   3.51298800
_cell_length_b   8.98658231
_cell_length_c   11.34585400
_cell_angle_alpha   90.13751125
_cell_angle_beta   90.00000000
_cell_angle_gamma   90.00000000
_symmetry_Int_Tables_number   1
_chemical_formula_structural   Lu7Pa(MnB6)4
_chemical_formula_sum   'Lu7 Pa1 Mn4 B24'
_cell_volume   358.18480880
_cell_formula_units_Z   1
loop_
 _symmetry_equiv_pos_site_id
 _symmetry_equiv_pos_as_xyz
  1  'x, y, z'
loop_
 _atom_site_type_symbol
 _atom_site_label
 _atom_site_symmetry_multiplicity
 _atom_site_fract_x
 _atom_site_fract_y
 _atom_site_fract_z
 _atom_site_occupancy
  Lu  Lu0  1  0.000000  0.678027  0.587009  1
  Lu  Lu1  1  0.000000  0.823967  0.084366  1
  Lu  Lu2  1  0.000000  0.175229  0.914372  1
  Lu  Lu3  1  0.000000  0.941313  0.369134  1
  Lu  Lu4  1  0.000000  0.055774  0.632095  1
  Lu  Lu5  1  0.000000  0.442828  0.129282  1
  Lu  Lu6  1  0.000000  0.558153  0.868635  1
  Pa  Pa7  1  0.000000  0.324336  0.414431  1
  Mn  Mn8  1  0.000000  0.636292  0.320861  1
  Mn  Mn9  1  0.000000  0.361590  0.676991  1
  Mn  Mn10  1  0.000000  0.141250  0.182491  1
  Mn  Mn11  1  0.000000  0.861439  0.820177  1
  B  B12  1  0.500000  0.555163  0.431918  1
  B  B13  1  0.500000  0.446371  0.568885  1
  B  B14  1  0.500000  0.054138  0.067408  1
  B  B15  1  0.500000  0.946222  0.933224  1
  B  B16  1  0.500000  0.748177  0.417895  1
  B  B17  1  0.500000  0.251638  0.583761  1
  B  B18  1  0.500000  0.247646  0.080517  1
  B  B19  1  0.500000  0.752245  0.918348  1
  B  B20  1  0.500000  0.790799  0.265005  1
  B  B21  1  0.500000  0.208568  0.736098  1
  B  B22  1  0.500000  0.290323  0.233170  1
  B  B23  1  0.500000  0.709032  0.765531  1
  B  B24  1  0.500000  0.631784  0.184336  1
  B  B25  1  0.500000  0.369399  0.814125  1
  B  B26  1  0.500000  0.130538  0.313754  1
  B  B27  1  0.500000  0.868701  0.686387  1
  B  B28  1  0.500000  0.983273  0.210842  1
  B  B29  1  0.500000  0.016212  0.789329  1
  B  B30  1  0.500000  0.485736  0.287377  1
  B  B31  1  0.500000  0.516948  0.712294  1
  B  B32  1  0.500000  0.602649  0.027662  1
  B  B33  1  0.500000  0.397667  0.970932  1
  B  B34  1  0.500000  0.100841  0.472370  1
  B  B35  1  0.500000  0.895731  0.528988  1
