# generated using pymatgen
data_TbHoFe9Ni3P7
_symmetry_space_group_name_H-M   'P 1'
_cell_length_a   3.63554700
_cell_length_b   8.99990152
_cell_length_c   9.00907806
_cell_angle_alpha   119.71037298
_cell_angle_beta   90.00000000
_cell_angle_gamma   90.00000000
_symmetry_Int_Tables_number   1
_chemical_formula_structural   TbHoFe9Ni3P7
_chemical_formula_sum   'Tb1 Ho1 Fe9 Ni3 P7'
_cell_volume   256.02277202
_cell_formula_units_Z   1
loop_
 _symmetry_equiv_pos_site_id
 _symmetry_equiv_pos_as_xyz
  1  'x, y, z'
loop_
 _atom_site_type_symbol
 _atom_site_label
 _atom_site_symmetry_multiplicity
 _atom_site_fract_x
 _atom_site_fract_y
 _atom_site_fract_z
 _atom_site_occupancy
  Tb  Tb0  1  0.000000  0.664597  0.332063  1
  Ho  Ho1  1  0.500000  0.337507  0.668611  1
  Fe  Fe2  1  0.000000  0.571289  0.632581  1
  Fe  Fe3  1  0.000000  0.880518  0.724663  1
  Fe  Fe4  1  0.000000  0.270716  0.154780  1
  Fe  Fe5  1  0.000000  0.846711  0.119827  1
  Fe  Fe6  1  0.500000  0.431967  0.385165  1
  Fe  Fe7  1  0.500000  0.613141  0.048183  1
  Fe  Fe8  1  0.500000  0.125410  0.901542  1
  Fe  Fe9  1  0.500000  0.096607  0.214766  1
  Fe  Fe10  1  0.500000  0.780125  0.877908  1
  Ni  Ni11  1  0.000000  0.371392  0.939565  1
  Ni  Ni12  1  0.000000  0.062694  0.433938  1
  Ni  Ni13  1  0.500000  0.948837  0.563287  1
  P  P14  1  0.000000  0.112287  0.706372  1
  P  P15  1  0.000000  0.303635  0.411408  1
  P  P16  1  0.000000  0.596781  0.890662  1
  P  P17  1  0.500000  0.705235  0.601092  1
  P  P18  1  0.500000  0.401502  0.118288  1
  P  P19  1  0.500000  0.880715  0.278118  1
  P  P20  1  0.000000  0.998334  0.997179  1
