# generated using pymatgen
data_Ce12Si5Ru6Au
_symmetry_space_group_name_H-M   'P 1'
_cell_length_a   7.70313800
_cell_length_b   7.70313733
_cell_length_c   9.69160100
_cell_angle_alpha   90.00000000
_cell_angle_beta   90.00000000
_cell_angle_gamma   119.99999429
_symmetry_Int_Tables_number   1
_chemical_formula_structural   Ce12Si5Ru6Au
_chemical_formula_sum   'Ce12 Si5 Ru6 Au1'
_cell_volume   498.03687726
_cell_formula_units_Z   1
loop_
 _symmetry_equiv_pos_site_id
 _symmetry_equiv_pos_as_xyz
  1  'x, y, z'
loop_
 _atom_site_type_symbol
 _atom_site_label
 _atom_site_symmetry_multiplicity
 _atom_site_fract_x
 _atom_site_fract_y
 _atom_site_fract_z
 _atom_site_occupancy
  Ce  Ce0  1  0.000000  0.592830  0.503613  1
  Ce  Ce1  1  0.592830  0.000000  0.503613  1
  Ce  Ce2  1  0.407170  0.407170  0.503613  1
  Ce  Ce3  1  0.000000  0.411508  0.005132  1
  Ce  Ce4  1  0.411508  0.000000  0.005132  1
  Ce  Ce5  1  0.588492  0.588492  0.005132  1
  Ce  Ce6  1  0.000000  0.734505  0.176507  1
  Ce  Ce7  1  0.734505  0.000000  0.176507  1
  Ce  Ce8  1  0.265495  0.265495  0.176507  1
  Ce  Ce9  1  0.000000  0.261575  0.672642  1
  Ce  Ce10  1  0.261575  0.000000  0.672642  1
  Ce  Ce11  1  0.738425  0.738425  0.672642  1
  Si  Si12  1  0.666667  0.333333  0.274263  1
  Si  Si13  1  0.333333  0.666667  0.274263  1
  Si  Si14  1  0.333333  0.666667  0.769033  1
  Si  Si15  1  0.666667  0.333333  0.769033  1
  Si  Si16  1  0.000000  0.000000  0.419711  1
  Ru  Ru17  1  0.000000  0.339772  0.339561  1
  Ru  Ru18  1  0.339772  0.000000  0.339561  1
  Ru  Ru19  1  0.660228  0.660228  0.339561  1
  Ru  Ru20  1  0.000000  0.640310  0.834075  1
  Ru  Ru21  1  0.640310  0.000000  0.834075  1
  Ru  Ru22  1  0.359690  0.359690  0.834075  1
  Au  Au23  1  0.000000  0.000000  0.928356  1
