# generated using pymatgen
data_Er7Tm3(GePb3)2
_symmetry_space_group_name_H-M   'P 1'
_cell_length_a   9.25947000
_cell_length_b   9.25946942
_cell_length_c   6.47469300
_cell_angle_alpha   90.00000000
_cell_angle_beta   90.00000000
_cell_angle_gamma   120.00000921
_symmetry_Int_Tables_number   1
_chemical_formula_structural   Er7Tm3(GePb3)2
_chemical_formula_sum   'Er7 Tm3 Ge2 Pb6'
_cell_volume   480.75300013
_cell_formula_units_Z   1
loop_
 _symmetry_equiv_pos_site_id
 _symmetry_equiv_pos_as_xyz
  1  'x, y, z'
loop_
 _atom_site_type_symbol
 _atom_site_label
 _atom_site_symmetry_multiplicity
 _atom_site_fract_x
 _atom_site_fract_y
 _atom_site_fract_z
 _atom_site_occupancy
  Er  Er0  1  0.251530  0.000043  0.250043  1
  Er  Er1  1  0.748514  0.000043  0.749957  1
  Er  Er2  1  0.999957  0.251486  0.250043  1
  Er  Er3  1  0.999957  0.748470  0.749957  1
  Er  Er4  1  0.748514  0.748470  0.250043  1
  Er  Er5  1  0.251530  0.251486  0.749957  1
  Er  Er6  1  0.333333  0.666667  0.500000  1
  Tm  Tm7  1  0.333333  0.666667  0.000000  1
  Tm  Tm8  1  0.666667  0.333333  0.000000  1
  Tm  Tm9  1  0.666667  0.333333  0.500000  1
  Ge  Ge10  1  0.000000  0.000000  0.000000  1
  Ge  Ge11  1  0.000000  0.000000  0.500000  1
  Pb  Pb12  1  0.607179  0.000115  0.249967  1
  Pb  Pb13  1  0.392936  0.000115  0.750033  1
  Pb  Pb14  1  0.999885  0.607064  0.249967  1
  Pb  Pb15  1  0.999885  0.392821  0.750033  1
  Pb  Pb16  1  0.392936  0.392821  0.249967  1
  Pb  Pb17  1  0.607179  0.607064  0.750033  1
