# generated using pymatgen
data_TbSmB6Ru
_symmetry_space_group_name_H-M   'P 1'
_cell_length_a   3.70952500
_cell_length_b   9.23036100
_cell_length_c   11.62446800
_cell_angle_alpha   90.00000000
_cell_angle_beta   90.00000000
_cell_angle_gamma   90.00000000
_symmetry_Int_Tables_number   1
_chemical_formula_structural   TbSmB6Ru
_chemical_formula_sum   'Tb4 Sm4 B24 Ru4'
_cell_volume   398.02474726
_cell_formula_units_Z   4
loop_
 _symmetry_equiv_pos_site_id
 _symmetry_equiv_pos_as_xyz
  1  'x, y, z'
loop_
 _atom_site_type_symbol
 _atom_site_label
 _atom_site_symmetry_multiplicity
 _atom_site_fract_x
 _atom_site_fract_y
 _atom_site_fract_z
 _atom_site_occupancy
  Tb  Tb0  1  0.000000  0.943855  0.372110  1
  Tb  Tb1  1  0.000000  0.056145  0.627890  1
  Tb  Tb2  1  0.000000  0.443855  0.127890  1
  Tb  Tb3  1  0.000000  0.556145  0.872110  1
  Sm  Sm4  1  0.000000  0.323913  0.413724  1
  Sm  Sm5  1  0.000000  0.676087  0.586276  1
  Sm  Sm6  1  0.000000  0.823913  0.086276  1
  Sm  Sm7  1  0.000000  0.176087  0.913724  1
  B  B8  1  0.500000  0.555039  0.431508  1
  B  B9  1  0.500000  0.444961  0.568492  1
  B  B10  1  0.500000  0.055039  0.068492  1
  B  B11  1  0.500000  0.944961  0.931508  1
  B  B12  1  0.500000  0.747829  0.418799  1
  B  B13  1  0.500000  0.252171  0.581201  1
  B  B14  1  0.500000  0.247829  0.081201  1
  B  B15  1  0.500000  0.752171  0.918799  1
  B  B16  1  0.500000  0.790180  0.267350  1
  B  B17  1  0.500000  0.209820  0.732650  1
  B  B18  1  0.500000  0.290180  0.232650  1
  B  B19  1  0.500000  0.709820  0.767350  1
  B  B20  1  0.500000  0.632036  0.185860  1
  B  B21  1  0.500000  0.367964  0.814140  1
  B  B22  1  0.500000  0.132036  0.314140  1
  B  B23  1  0.500000  0.867964  0.685860  1
  B  B24  1  0.500000  0.985672  0.213402  1
  B  B25  1  0.500000  0.014328  0.786598  1
  B  B26  1  0.500000  0.485672  0.286598  1
  B  B27  1  0.500000  0.514328  0.713402  1
  B  B28  1  0.500000  0.607995  0.029876  1
  B  B29  1  0.500000  0.392005  0.970124  1
  B  B30  1  0.500000  0.107995  0.470124  1
  B  B31  1  0.500000  0.892005  0.529876  1
  Ru  Ru32  1  0.000000  0.638585  0.320729  1
  Ru  Ru33  1  0.000000  0.361415  0.679271  1
  Ru  Ru34  1  0.000000  0.138585  0.179271  1
  Ru  Ru35  1  0.000000  0.861415  0.820729  1
