# generated using pymatgen
data_HoPa3(GeIr)4
_symmetry_space_group_name_H-M   'P 1'
_cell_length_a   4.33883000
_cell_length_b   6.94595011
_cell_length_c   7.66579236
_cell_angle_alpha   90.46735822
_cell_angle_beta   90.00000000
_cell_angle_gamma   90.00000000
_symmetry_Int_Tables_number   1
_chemical_formula_structural   HoPa3(GeIr)4
_chemical_formula_sum   'Ho1 Pa3 Ge4 Ir4'
_cell_volume   231.01857326
_cell_formula_units_Z   1
loop_
 _symmetry_equiv_pos_site_id
 _symmetry_equiv_pos_as_xyz
  1  'x, y, z'
loop_
 _atom_site_type_symbol
 _atom_site_label
 _atom_site_symmetry_multiplicity
 _atom_site_fract_x
 _atom_site_fract_y
 _atom_site_fract_z
 _atom_site_occupancy
  Ho  Ho0  1  0.750000  0.508009  0.798254  1
  Pa  Pa1  1  0.250000  0.994038  0.297131  1
  Pa  Pa2  1  0.250000  0.494973  0.203974  1
  Pa  Pa3  1  0.750000  0.007214  0.700154  1
  Ge  Ge4  1  0.250000  0.320533  0.591354  1
  Ge  Ge5  1  0.250000  0.812300  0.913478  1
  Ge  Ge6  1  0.750000  0.678422  0.418175  1
  Ge  Ge7  1  0.750000  0.190503  0.080147  1
  Ir  Ir8  1  0.250000  0.210410  0.912991  1
  Ir  Ir9  1  0.250000  0.731934  0.580824  1
  Ir  Ir10  1  0.750000  0.779878  0.092991  1
  Ir  Ir11  1  0.750000  0.271786  0.410527  1
