# generated using pymatgen
data_RbLi3Er2S5
_symmetry_space_group_name_H-M   'P 1'
_cell_length_a   4.00152900
_cell_length_b   7.52594096
_cell_length_c   16.64149200
_cell_angle_alpha   90.00000000
_cell_angle_beta   90.00000000
_cell_angle_gamma   74.58257662
_symmetry_Int_Tables_number   1
_chemical_formula_structural   RbLi3Er2S5
_chemical_formula_sum   'Rb2 Li6 Er4 S10'
_cell_volume   483.12849136
_cell_formula_units_Z   2
loop_
 _symmetry_equiv_pos_site_id
 _symmetry_equiv_pos_as_xyz
  1  'x, y, z'
loop_
 _atom_site_type_symbol
 _atom_site_label
 _atom_site_symmetry_multiplicity
 _atom_site_fract_x
 _atom_site_fract_y
 _atom_site_fract_z
 _atom_site_occupancy
  Rb  Rb0  1  0.567549  0.864902  0.250000  1
  Rb  Rb1  1  0.432453  0.135097  0.750000  1
  Li  Li2  1  0.079717  0.840568  0.041744  1
  Li  Li3  1  0.851007  0.297988  0.250000  1
  Li  Li4  1  0.079717  0.840568  0.458256  1
  Li  Li5  1  0.920284  0.159433  0.541744  1
  Li  Li6  1  0.148994  0.702013  0.750000  1
  Li  Li7  1  0.920284  0.159433  0.958256  1
  Er  Er8  1  0.304309  0.391384  0.095082  1
  Er  Er9  1  0.304309  0.391384  0.404918  1
  Er  Er10  1  0.695693  0.608615  0.595082  1
  Er  Er11  1  0.695693  0.608615  0.904918  1
  S  S12  1  0.674485  0.651033  0.067496  1
  S  S13  1  0.929460  0.141081  0.112303  1
  S  S14  1  0.260879  0.478242  0.250000  1
  S  S15  1  0.929460  0.141081  0.387697  1
  S  S16  1  0.674485  0.651033  0.432504  1
  S  S17  1  0.325517  0.348966  0.567496  1
  S  S18  1  0.070542  0.858918  0.612303  1
  S  S19  1  0.739122  0.521758  0.750000  1
  S  S20  1  0.070542  0.858918  0.887697  1
  S  S21  1  0.325517  0.348966  0.932504  1
