# generated using pymatgen
data_Hf4Zr6ZnPPb6
_symmetry_space_group_name_H-M   'P 1'
_cell_length_a   8.76291200
_cell_length_b   8.76291252
_cell_length_c   5.97270500
_cell_angle_alpha   90.00000000
_cell_angle_beta   90.00000000
_cell_angle_gamma   119.99999805
_symmetry_Int_Tables_number   1
_chemical_formula_structural   Hf4Zr6ZnPPb6
_chemical_formula_sum   'Hf4 Zr6 Zn1 P1 Pb6'
_cell_volume   397.19029790
_cell_formula_units_Z   1
loop_
 _symmetry_equiv_pos_site_id
 _symmetry_equiv_pos_as_xyz
  1  'x, y, z'
loop_
 _atom_site_type_symbol
 _atom_site_label
 _atom_site_symmetry_multiplicity
 _atom_site_fract_x
 _atom_site_fract_y
 _atom_site_fract_z
 _atom_site_occupancy
  Hf  Hf0  1  0.333333  0.666667  0.000000  1
  Hf  Hf1  1  0.666667  0.333333  0.500000  1
  Hf  Hf2  1  0.666667  0.333333  0.000000  1
  Hf  Hf3  1  0.333333  0.666667  0.500000  1
  Zr  Zr4  1  0.255050  0.000000  0.236875  1
  Zr  Zr5  1  0.255050  0.255050  0.763125  1
  Zr  Zr6  1  0.000000  0.744950  0.763125  1
  Zr  Zr7  1  0.000000  0.255050  0.236875  1
  Zr  Zr8  1  0.744950  0.744950  0.236875  1
  Zr  Zr9  1  0.744950  0.000000  0.763125  1
  Zn  Zn10  1  0.000000  0.000000  0.500000  1
  P  P11  1  0.000000  0.000000  0.000000  1
  Pb  Pb12  1  0.607695  0.000000  0.255036  1
  Pb  Pb13  1  0.607695  0.607695  0.744964  1
  Pb  Pb14  1  0.000000  0.392305  0.744964  1
  Pb  Pb15  1  0.000000  0.607695  0.255036  1
  Pb  Pb16  1  0.392305  0.392305  0.255036  1
  Pb  Pb17  1  0.392305  0.000000  0.744964  1
