# generated using pymatgen
data_Tb9Er3In20
_symmetry_space_group_name_H-M   'P 1'
_cell_length_a   6.52622728
_cell_length_b   10.42000300
_cell_length_c   12.28139600
_cell_angle_alpha   90.00000000
_cell_angle_beta   90.01792051
_cell_angle_gamma   90.00000000
_symmetry_Int_Tables_number   1
_chemical_formula_structural   Tb9Er3In20
_chemical_formula_sum   'Tb9 Er3 In20'
_cell_volume   835.17551242
_cell_formula_units_Z   1
loop_
 _symmetry_equiv_pos_site_id
 _symmetry_equiv_pos_as_xyz
  1  'x, y, z'
loop_
 _atom_site_type_symbol
 _atom_site_label
 _atom_site_symmetry_multiplicity
 _atom_site_fract_x
 _atom_site_fract_y
 _atom_site_fract_z
 _atom_site_occupancy
  Tb  Tb0  1  0.851113  0.250000  0.443782  1
  Tb  Tb1  1  0.890116  0.492394  0.141955  1
  Tb  Tb2  1  0.609532  0.007053  0.642324  1
  Tb  Tb3  1  0.110062  0.992063  0.858343  1
  Tb  Tb4  1  0.389781  0.507190  0.358138  1
  Tb  Tb5  1  0.110062  0.507937  0.858343  1
  Tb  Tb6  1  0.389781  0.992810  0.358138  1
  Tb  Tb7  1  0.890116  0.007606  0.141955  1
  Tb  Tb8  1  0.609532  0.492947  0.642324  1
  Er  Er9  1  0.350326  0.750000  0.055380  1
  Er  Er10  1  0.149607  0.750000  0.555725  1
  Er  Er11  1  0.649725  0.250000  0.944796  1
  In  In12  1  0.614849  0.750000  0.504989  1
  In  In13  1  0.884923  0.750000  0.005221  1
  In  In14  1  0.383160  0.250000  0.495597  1
  In  In15  1  0.115362  0.250000  0.994355  1
  In  In16  1  0.650994  0.750000  0.244488  1
  In  In17  1  0.848932  0.750000  0.744887  1
  In  In18  1  0.348984  0.250000  0.755728  1
  In  In19  1  0.153059  0.250000  0.254187  1
  In  In20  1  0.124413  0.750000  0.283139  1
  In  In21  1  0.376411  0.750000  0.783336  1
  In  In22  1  0.876002  0.250000  0.717267  1
  In  In23  1  0.623874  0.250000  0.215329  1
  In  In24  1  0.874980  0.544876  0.401183  1
  In  In25  1  0.624904  0.956246  0.901257  1
  In  In26  1  0.124620  0.043485  0.599249  1
  In  In27  1  0.375139  0.456400  0.098448  1
  In  In28  1  0.124620  0.456515  0.599249  1
  In  In29  1  0.375139  0.043600  0.098448  1
  In  In30  1  0.874980  0.955124  0.401183  1
  In  In31  1  0.624904  0.543754  0.901257  1
