# generated using pymatgen
data_Y5TmAl23VOs8
_symmetry_space_group_name_H-M   'P 1'
_cell_length_a   8.84569700
_cell_length_b   8.84915321
_cell_length_c   9.53423701
_cell_angle_alpha   89.99665589
_cell_angle_beta   90.00024325
_cell_angle_gamma   119.98654249
_symmetry_Int_Tables_number   1
_chemical_formula_structural   Y5TmAl23VOs8
_chemical_formula_sum   'Y5 Tm1 Al23 V1 Os8'
_cell_volume   646.41172432
_cell_formula_units_Z   1
loop_
 _symmetry_equiv_pos_site_id
 _symmetry_equiv_pos_as_xyz
  1  'x, y, z'
loop_
 _atom_site_type_symbol
 _atom_site_label
 _atom_site_symmetry_multiplicity
 _atom_site_fract_x
 _atom_site_fract_y
 _atom_site_fract_z
 _atom_site_occupancy
  Y  Y0  1  0.807388  0.614774  0.750643  1
  Y  Y1  1  0.609449  0.804549  0.247107  1
  Y  Y2  1  0.385177  0.192598  0.750550  1
  Y  Y3  1  0.195101  0.804548  0.247107  1
  Y  Y4  1  0.807422  0.192599  0.750550  1
  Tm  Tm5  1  0.196358  0.392730  0.246270  1
  Al  Al6  1  0.666595  0.333191  0.978383  1
  Al  Al7  1  0.666663  0.333326  0.519109  1
  Al  Al8  1  0.333007  0.666013  0.481943  1
  Al  Al9  1  0.162295  0.324586  0.574432  1
  Al  Al10  1  0.836919  0.673841  0.425058  1
  Al  Al11  1  0.675264  0.837646  0.575167  1
  Al  Al12  1  0.835656  0.671313  0.076781  1
  Al  Al13  1  0.325727  0.163331  0.424804  1
  Al  Al14  1  0.160371  0.320740  0.926337  1
  Al  Al15  1  0.162385  0.837647  0.575166  1
  Al  Al16  1  0.328189  0.164464  0.077014  1
  Al  Al17  1  0.837603  0.163330  0.424805  1
  Al  Al18  1  0.678888  0.839502  0.925621  1
  Al  Al19  1  0.836276  0.164463  0.077015  1
  Al  Al20  1  0.160615  0.839504  0.925621  1
  Al  Al21  1  0.562160  0.124321  0.253258  1
  Al  Al22  1  0.441495  0.882986  0.750496  1
  Al  Al23  1  0.876606  0.437592  0.253369  1
  Al  Al24  1  0.116960  0.558408  0.750418  1
  Al  Al25  1  0.560986  0.437591  0.253369  1
  Al  Al26  1  0.441452  0.558409  0.750417  1
  Al  Al27  1  0.000966  0.001932  0.250450  1
  Al  Al28  1  0.000021  0.000037  0.749664  1
  V  V29  1  0.333147  0.666313  0.983306  1
  Os  Os30  1  0.495634  0.991265  0.005036  1
  Os  Os31  1  0.009292  0.503908  0.005772  1
  Os  Os32  1  0.499316  0.998631  0.503226  1
  Os  Os33  1  0.494615  0.503908  0.005773  1
  Os  Os34  1  0.001393  0.500176  0.502836  1
  Os  Os35  1  0.498783  0.500176  0.502835  1
  Os  Os36  1  0.999904  0.999806  0.000627  1
  Os  Os37  1  0.999923  0.999846  0.499662  1
