# generated using pymatgen
data_Na2CuAs2O7
_symmetry_space_group_name_H-M   'P 1'
_cell_length_a   6.02847200
_cell_length_b   8.33370712
_cell_length_c   8.37773499
_cell_angle_alpha   113.33626461
_cell_angle_beta   90.00000000
_cell_angle_gamma   111.20414987
_symmetry_Int_Tables_number   1
_chemical_formula_structural   Na2CuAs2O7
_chemical_formula_sum   'Na4 Cu2 As4 O14'
_cell_volume   355.21567284
_cell_formula_units_Z   2
loop_
 _symmetry_equiv_pos_site_id
 _symmetry_equiv_pos_as_xyz
  1  'x, y, z'
loop_
 _atom_site_type_symbol
 _atom_site_label
 _atom_site_symmetry_multiplicity
 _atom_site_fract_x
 _atom_site_fract_y
 _atom_site_fract_z
 _atom_site_occupancy
  Na  Na0  1  0.637741  0.553857  0.205191  1
  Na  Na1  1  0.083884  0.446143  0.294809  1
  Na  Na2  1  0.916115  0.553858  0.705191  1
  Na  Na3  1  0.362260  0.446143  0.794809  1
  Cu  Cu4  1  0.000000  0.000000  0.000000  1
  Cu  Cu5  1  0.000000  0.000000  0.500000  1
  As  As6  1  0.238385  0.786968  0.155235  1
  As  As7  1  0.451416  0.213032  0.344764  1
  As  As8  1  0.548584  0.786969  0.655236  1
  As  As9  1  0.761616  0.213031  0.844765  1
  O  O10  1  0.891447  0.197701  0.017746  1
  O  O11  1  0.316637  0.599209  0.092015  1
  O  O12  1  0.269753  0.215446  0.186908  1
  O  O13  1  0.510478  0.000000  0.249999  1
  O  O14  1  0.054306  0.784554  0.313092  1
  O  O15  1  0.717427  0.400791  0.407985  1
  O  O16  1  0.693747  0.802299  0.482254  1
  O  O17  1  0.306254  0.197701  0.517746  1
  O  O18  1  0.282572  0.599210  0.592015  1
  O  O19  1  0.945693  0.215445  0.686908  1
  O  O20  1  0.489522  0.000000  0.750000  1
  O  O21  1  0.730248  0.784554  0.813092  1
  O  O22  1  0.683364  0.400791  0.907985  1
  O  O23  1  0.108552  0.802298  0.982254  1
