# generated using pymatgen
data_Sr6Dy2CrCoO12
_symmetry_space_group_name_H-M   'P 1'
_cell_length_a   6.82383441
_cell_length_b   6.82308157
_cell_length_c   6.82297270
_cell_angle_alpha   92.37909756
_cell_angle_beta   92.40244760
_cell_angle_gamma   92.38525234
_symmetry_Int_Tables_number   1
_chemical_formula_structural   Sr6Dy2CrCoO12
_chemical_formula_sum   'Sr6 Dy2 Cr1 Co1 O12'
_cell_volume   316.82265918
_cell_formula_units_Z   1
loop_
 _symmetry_equiv_pos_site_id
 _symmetry_equiv_pos_as_xyz
  1  'x, y, z'
loop_
 _atom_site_type_symbol
 _atom_site_label
 _atom_site_symmetry_multiplicity
 _atom_site_fract_x
 _atom_site_fract_y
 _atom_site_fract_z
 _atom_site_occupancy
  Sr  Sr0  1  0.881404  0.250987  0.615757  1
  Sr  Sr1  1  0.251078  0.616144  0.880874  1
  Sr  Sr2  1  0.615750  0.881204  0.251325  1
  Sr  Sr3  1  0.748955  0.383979  0.118941  1
  Sr  Sr4  1  0.384141  0.118788  0.748646  1
  Sr  Sr5  1  0.118698  0.749037  0.384162  1
  Dy  Dy6  1  0.746617  0.746371  0.747099  1
  Dy  Dy7  1  0.253494  0.253725  0.252757  1
  Cr  Cr8  1  0.999823  0.000085  0.000075  1
  Co  Co9  1  0.500133  0.499876  0.499999  1
  O  O10  1  0.220066  0.414987  0.544773  1
  O  O11  1  0.415367  0.545590  0.219747  1
  O  O12  1  0.545248  0.219825  0.414662  1
  O  O13  1  0.909691  0.713751  0.044271  1
  O  O14  1  0.713434  0.043292  0.910035  1
  O  O15  1  0.043234  0.909432  0.713815  1
  O  O16  1  0.780310  0.584816  0.455263  1
  O  O17  1  0.584931  0.454293  0.780159  1
  O  O18  1  0.454800  0.779873  0.585324  1
  O  O19  1  0.090029  0.286459  0.955923  1
  O  O20  1  0.286235  0.956669  0.090127  1
  O  O21  1  0.956560  0.090815  0.286267  1
