# generated using pymatgen
data_Zr(NbSe2)5
_symmetry_space_group_name_H-M   'P 1'
_cell_length_a   6.11171337
_cell_length_b   7.71424634
_cell_length_c   8.52303620
_cell_angle_alpha   110.15703382
_cell_angle_beta   97.13373350
_cell_angle_gamma   105.02932293
_symmetry_Int_Tables_number   1
_chemical_formula_structural   Zr(NbSe2)5
_chemical_formula_sum   'Zr1 Nb5 Se10'
_cell_volume   354.07255290
_cell_formula_units_Z   1
loop_
 _symmetry_equiv_pos_site_id
 _symmetry_equiv_pos_as_xyz
  1  'x, y, z'
loop_
 _atom_site_type_symbol
 _atom_site_label
 _atom_site_symmetry_multiplicity
 _atom_site_fract_x
 _atom_site_fract_y
 _atom_site_fract_z
 _atom_site_occupancy
  Zr  Zr0  1  0.669067  0.516942  0.989008  1
  Nb  Nb1  1  0.002088  0.994392  0.001405  1
  Nb  Nb2  1  0.599633  0.208253  0.201131  1
  Nb  Nb3  1  0.198014  0.399975  0.397478  1
  Nb  Nb4  1  0.794762  0.597437  0.605296  1
  Nb  Nb5  1  0.404685  0.792166  0.800437  1
  Se  Se6  1  0.236039  0.050391  0.301218  1
  Se  Se7  1  0.052325  0.642894  0.903588  1
  Se  Se8  1  0.831568  0.247956  0.498052  1
  Se  Se9  1  0.633905  0.863699  0.117029  1
  Se  Se10  1  0.414785  0.424989  0.686159  1
  Se  Se11  1  0.903233  0.563384  0.306476  1
  Se  Se12  1  0.700990  0.145846  0.894271  1
  Se  Se13  1  0.500462  0.751613  0.502078  1
  Se  Se14  1  0.290590  0.352141  0.095528  1
  Se  Se15  1  0.100655  0.945523  0.702448  1
