# generated using pymatgen
data_Tb4Nd2CrCo16TcP12
_symmetry_space_group_name_H-M   'P 1'
_cell_length_a   3.72192200
_cell_length_b   10.58748100
_cell_length_c   12.28004900
_cell_angle_alpha   90.00000000
_cell_angle_beta   90.00000000
_cell_angle_gamma   90.00000000
_symmetry_Int_Tables_number   1
_chemical_formula_structural   Tb4Nd2CrCo16TcP12
_chemical_formula_sum   'Tb4 Nd2 Cr1 Co16 Tc1 P12'
_cell_volume   483.90489035
_cell_formula_units_Z   1
loop_
 _symmetry_equiv_pos_site_id
 _symmetry_equiv_pos_as_xyz
  1  'x, y, z'
loop_
 _atom_site_type_symbol
 _atom_site_label
 _atom_site_symmetry_multiplicity
 _atom_site_fract_x
 _atom_site_fract_y
 _atom_site_fract_z
 _atom_site_occupancy
  Tb  Tb0  1  0.500000  0.818272  0.204247  1
  Tb  Tb1  1  0.500000  0.181728  0.204247  1
  Tb  Tb2  1  0.000000  0.682313  0.795604  1
  Tb  Tb3  1  0.000000  0.317687  0.795604  1
  Nd  Nd4  1  0.000000  0.500000  0.524010  1
  Nd  Nd5  1  0.500000  0.000000  0.477751  1
  Cr  Cr6  1  0.000000  0.000000  0.845812  1
  Co  Co7  1  0.500000  0.500000  0.705549  1
  Co  Co8  1  0.000000  0.000000  0.294487  1
  Co  Co9  1  0.000000  0.500000  0.987522  1
  Co  Co10  1  0.500000  0.000000  0.012917  1
  Co  Co11  1  0.500000  0.331863  0.990884  1
  Co  Co12  1  0.500000  0.668137  0.990884  1
  Co  Co13  1  0.000000  0.167136  0.006876  1
  Co  Co14  1  0.000000  0.832864  0.006876  1
  Co  Co15  1  0.500000  0.296068  0.429382  1
  Co  Co16  1  0.500000  0.703932  0.429382  1
  Co  Co17  1  0.000000  0.204511  0.570299  1
  Co  Co18  1  0.000000  0.795489  0.570299  1
  Co  Co19  1  0.500000  0.879868  0.711460  1
  Co  Co20  1  0.500000  0.120132  0.711460  1
  Co  Co21  1  0.000000  0.620156  0.289590  1
  Co  Co22  1  0.000000  0.379844  0.289590  1
  Tc  Tc23  1  0.500000  0.500000  0.154168  1
  P  P24  1  0.500000  0.500000  0.883405  1
  P  P25  1  0.000000  0.000000  0.115889  1
  P  P26  1  0.500000  0.500000  0.343810  1
  P  P27  1  0.000000  0.000000  0.659981  1
  P  P28  1  0.500000  0.307853  0.617227  1
  P  P29  1  0.500000  0.692147  0.617227  1
  P  P30  1  0.000000  0.191726  0.382891  1
  P  P31  1  0.000000  0.808274  0.382891  1
  P  P32  1  0.500000  0.848334  0.893152  1
  P  P33  1  0.500000  0.151666  0.893152  1
  P  P34  1  0.000000  0.654596  0.105739  1
  P  P35  1  0.000000  0.345404  0.105739  1
