# generated using pymatgen
data_Hf18Re7MoAu2
_symmetry_space_group_name_H-M   'P 1'
_cell_length_a   8.72210900
_cell_length_b   8.72210978
_cell_length_c   8.53852900
_cell_angle_alpha   90.00000000
_cell_angle_beta   90.00000000
_cell_angle_gamma   120.00000843
_symmetry_Int_Tables_number   1
_chemical_formula_structural   Hf18Re7MoAu2
_chemical_formula_sum   'Hf18 Re7 Mo1 Au2'
_cell_volume   562.54427698
_cell_formula_units_Z   1
loop_
 _symmetry_equiv_pos_site_id
 _symmetry_equiv_pos_as_xyz
  1  'x, y, z'
loop_
 _atom_site_type_symbol
 _atom_site_label
 _atom_site_symmetry_multiplicity
 _atom_site_fract_x
 _atom_site_fract_y
 _atom_site_fract_z
 _atom_site_occupancy
  Hf  Hf0  1  0.192922  0.807078  0.451776  1
  Hf  Hf1  1  0.192922  0.385846  0.451776  1
  Hf  Hf2  1  0.614154  0.807078  0.451776  1
  Hf  Hf3  1  0.807078  0.192922  0.548224  1
  Hf  Hf4  1  0.807078  0.614154  0.548224  1
  Hf  Hf5  1  0.385846  0.192922  0.548224  1
  Hf  Hf6  1  0.807882  0.192118  0.951851  1
  Hf  Hf7  1  0.807882  0.615763  0.951851  1
  Hf  Hf8  1  0.384237  0.192118  0.951851  1
  Hf  Hf9  1  0.192118  0.807882  0.048149  1
  Hf  Hf10  1  0.192118  0.384237  0.048149  1
  Hf  Hf11  1  0.615763  0.807882  0.048149  1
  Hf  Hf12  1  0.541452  0.458548  0.249960  1
  Hf  Hf13  1  0.541452  0.082902  0.249960  1
  Hf  Hf14  1  0.917098  0.458548  0.249960  1
  Hf  Hf15  1  0.458548  0.541452  0.750040  1
  Hf  Hf16  1  0.458548  0.917098  0.750040  1
  Hf  Hf17  1  0.082902  0.541452  0.750040  1
  Re  Re18  1  0.889679  0.110321  0.249968  1
  Re  Re19  1  0.889679  0.779357  0.249968  1
  Re  Re20  1  0.220643  0.110321  0.249968  1
  Re  Re21  1  0.110321  0.889679  0.750032  1
  Re  Re22  1  0.110321  0.220643  0.750032  1
  Re  Re23  1  0.779357  0.889679  0.750032  1
  Re  Re24  1  0.000000  0.000000  0.000000  1
  Mo  Mo25  1  0.000000  0.000000  0.500000  1
  Au  Au26  1  0.333333  0.666667  0.249574  1
  Au  Au27  1  0.666667  0.333333  0.750426  1
