# generated using pymatgen
data_Er20Os4RuAu7
_symmetry_space_group_name_H-M   'P 1'
_cell_length_a   11.15801818
_cell_length_b   11.15801860
_cell_length_c   6.35562200
_cell_angle_alpha   89.80117464
_cell_angle_beta   89.80117464
_cell_angle_gamma   90.84115760
_symmetry_Int_Tables_number   1
_chemical_formula_structural   Er20Os4RuAu7
_chemical_formula_sum   'Er20 Os4 Ru1 Au7'
_cell_volume   791.18873354
_cell_formula_units_Z   1
loop_
 _symmetry_equiv_pos_site_id
 _symmetry_equiv_pos_as_xyz
  1  'x, y, z'
loop_
 _atom_site_type_symbol
 _atom_site_label
 _atom_site_symmetry_multiplicity
 _atom_site_fract_x
 _atom_site_fract_y
 _atom_site_fract_z
 _atom_site_occupancy
  Er  Er0  1  0.302818  0.079763  0.361032  1
  Er  Er1  1  0.300981  0.907195  0.862763  1
  Er  Er2  1  0.696888  0.081957  0.860841  1
  Er  Er3  1  0.696575  0.916139  0.359804  1
  Er  Er4  1  0.574521  0.795470  0.858511  1
  Er  Er5  1  0.582771  0.199573  0.362793  1
  Er  Er6  1  0.411857  0.794280  0.371715  1
  Er  Er7  1  0.416796  0.195503  0.863846  1
  Er  Er8  1  0.204530  0.425479  0.641489  1
  Er  Er9  1  0.205720  0.588143  0.128285  1
  Er  Er10  1  0.800427  0.417229  0.137207  1
  Er  Er11  1  0.804497  0.583204  0.636154  1
  Er  Er12  1  0.920237  0.697182  0.138968  1
  Er  Er13  1  0.918043  0.303112  0.639159  1
  Er  Er14  1  0.092805  0.699019  0.637237  1
  Er  Er15  1  0.083861  0.303425  0.140196  1
  Er  Er16  1  0.998696  0.000471  0.499987  1
  Er  Er17  1  0.999529  0.001304  0.000013  1
  Er  Er18  1  0.492040  0.504065  0.997665  1
  Er  Er19  1  0.495935  0.507960  0.502335  1
  Os  Os20  1  0.499436  0.998775  0.117766  1
  Os  Os21  1  0.499469  0.999366  0.614859  1
  Os  Os22  1  0.000634  0.500531  0.885141  1
  Os  Os23  1  0.001225  0.500564  0.382234  1
  Ru  Ru24  1  0.349603  0.650397  0.750000  1
  Au  Au25  1  0.845166  0.154834  0.250000  1
  Au  Au26  1  0.844123  0.844640  0.751271  1
  Au  Au27  1  0.155360  0.155877  0.748729  1
  Au  Au28  1  0.153539  0.846461  0.250000  1
  Au  Au29  1  0.652085  0.347915  0.750000  1
  Au  Au30  1  0.655729  0.655895  0.246756  1
  Au  Au31  1  0.344105  0.344271  0.253244  1
