# generated using pymatgen
data_La12PrNd7Ir12
_symmetry_space_group_name_H-M   'P 1'
_cell_length_a   11.37727914
_cell_length_b   11.37900508
_cell_length_c   6.63927304
_cell_angle_alpha   90.00539566
_cell_angle_beta   90.01211169
_cell_angle_gamma   89.98709851
_symmetry_Int_Tables_number   1
_chemical_formula_structural   La12PrNd7Ir12
_chemical_formula_sum   'La12 Pr1 Nd7 Ir12'
_cell_volume   859.53429977
_cell_formula_units_Z   1
loop_
 _symmetry_equiv_pos_site_id
 _symmetry_equiv_pos_as_xyz
  1  'x, y, z'
loop_
 _atom_site_type_symbol
 _atom_site_label
 _atom_site_symmetry_multiplicity
 _atom_site_fract_x
 _atom_site_fract_y
 _atom_site_fract_z
 _atom_site_occupancy
  La  La0  1  0.090829  0.291168  0.113820  1
  La  La1  1  0.791177  0.409160  0.113871  1
  La  La2  1  0.208965  0.590634  0.113829  1
  La  La3  1  0.908945  0.708793  0.113907  1
  La  La4  1  0.408780  0.790675  0.386681  1
  La  La5  1  0.591337  0.209359  0.386888  1
  La  La6  1  0.290619  0.091349  0.386808  1
  La  La7  1  0.709364  0.908656  0.386740  1
  La  La8  1  0.408645  0.209917  0.885412  1
  La  La9  1  0.709935  0.091342  0.885392  1
  La  La10  1  0.290260  0.908848  0.885586  1
  La  La11  1  0.591383  0.790072  0.885331  1
  Pr  Pr12  1  0.088833  0.707772  0.614491  1
  Nd  Nd13  1  0.911204  0.292730  0.613848  1
  Nd  Nd14  1  0.207271  0.410973  0.613795  1
  Nd  Nd15  1  0.792567  0.588649  0.613826  1
  Nd  Nd16  1  0.999990  0.000023  0.999427  1
  Nd  Nd17  1  0.500051  0.499978  0.999424  1
  Nd  Nd18  1  0.500019  0.499955  0.501021  1
  Nd  Nd19  1  0.999858  0.000317  0.500962  1
  Ir  Ir20  1  0.153943  0.847290  0.248955  1
  Ir  Ir21  1  0.346945  0.346235  0.249853  1
  Ir  Ir22  1  0.653074  0.653804  0.249931  1
  Ir  Ir23  1  0.846214  0.153010  0.249918  1
  Ir  Ir24  1  0.346253  0.653050  0.749407  1
  Ir  Ir25  1  0.153156  0.154256  0.749136  1
  Ir  Ir26  1  0.846460  0.845940  0.749455  1
  Ir  Ir27  1  0.654256  0.346832  0.749172  1
  Ir  Ir28  1  0.999781  0.499482  0.378451  1
  Ir  Ir29  1  0.499979  0.999992  0.121269  1
  Ir  Ir30  1  0.500033  0.000031  0.620933  1
  Ir  Ir31  1  0.999874  0.499705  0.882460  1
