# generated using pymatgen
data_Er7Sn23(IrOs2)2
_symmetry_space_group_name_H-M   'P 1'
_cell_length_a   9.86487945
_cell_length_b   9.89059424
_cell_length_c   10.11169900
_cell_angle_alpha   90.00000579
_cell_angle_beta   89.88623752
_cell_angle_gamma   120.08627452
_symmetry_Int_Tables_number   1
_chemical_formula_structural   Er7Sn23(IrOs2)2
_chemical_formula_sum   'Er7 Sn23 Ir2 Os4'
_cell_volume   853.66912521
_cell_formula_units_Z   1
loop_
 _symmetry_equiv_pos_site_id
 _symmetry_equiv_pos_as_xyz
  1  'x, y, z'
loop_
 _atom_site_type_symbol
 _atom_site_label
 _atom_site_symmetry_multiplicity
 _atom_site_fract_x
 _atom_site_fract_y
 _atom_site_fract_z
 _atom_site_occupancy
  Er  Er0  1  0.000000  0.000000  0.000000  1
  Er  Er1  1  0.485165  0.516539  0.304597  1
  Er  Er2  1  0.514835  0.483461  0.695403  1
  Er  Er3  1  0.485165  0.968627  0.304597  1
  Er  Er4  1  0.514835  0.031373  0.695403  1
  Er  Er5  1  0.031656  0.515828  0.303836  1
  Er  Er6  1  0.968344  0.484172  0.696164  1
  Sn  Sn7  1  0.349703  0.997464  0.000400  1
  Sn  Sn8  1  0.650297  0.002536  0.999600  1
  Sn  Sn9  1  0.000000  0.349608  0.000000  1
  Sn  Sn10  1  0.000000  0.650392  0.000000  1
  Sn  Sn11  1  0.650297  0.647760  0.999600  1
  Sn  Sn12  1  0.349703  0.352240  0.000400  1
  Sn  Sn13  1  0.330910  0.665456  0.824525  1
  Sn  Sn14  1  0.669090  0.334544  0.175475  1
  Sn  Sn15  1  0.000000  0.000000  0.500000  1
  Sn  Sn16  1  0.778681  0.220909  0.461061  1
  Sn  Sn17  1  0.221319  0.779091  0.538939  1
  Sn  Sn18  1  0.778681  0.557773  0.461061  1
  Sn  Sn19  1  0.221319  0.442227  0.538939  1
  Sn  Sn20  1  0.442389  0.221194  0.461399  1
  Sn  Sn21  1  0.557611  0.778806  0.538601  1
  Sn  Sn22  1  0.334458  0.667229  0.128559  1
  Sn  Sn23  1  0.665542  0.332771  0.871441  1
  Sn  Sn24  1  0.116415  0.882650  0.281448  1
  Sn  Sn25  1  0.883585  0.117350  0.718552  1
  Sn  Sn26  1  0.116415  0.233765  0.281448  1
  Sn  Sn27  1  0.883585  0.766235  0.718552  1
  Sn  Sn28  1  0.766200  0.883100  0.275780  1
  Sn  Sn29  1  0.233800  0.116900  0.724220  1
  Ir  Ir30  1  0.340001  0.170000  0.200200  1
  Ir  Ir31  1  0.659999  0.830000  0.799800  1
  Os  Os32  1  0.829908  0.169584  0.201212  1
  Os  Os33  1  0.170092  0.830416  0.798788  1
  Os  Os34  1  0.829908  0.660325  0.201212  1
  Os  Os35  1  0.170092  0.339675  0.798788  1
