# generated using pymatgen
data_KSr(Si2Pd3)2
_symmetry_space_group_name_H-M   'P 1'
_cell_length_a   6.95136177
_cell_length_b   6.95133912
_cell_length_c   6.95135528
_cell_angle_alpha   129.82065243
_cell_angle_beta   118.81838176
_cell_angle_gamma   82.96822260
_symmetry_Int_Tables_number   1
_chemical_formula_structural   KSr(Si2Pd3)2
_chemical_formula_sum   'K1 Sr1 Si4 Pd6'
_cell_volume   217.20446506
_cell_formula_units_Z   1
loop_
 _symmetry_equiv_pos_site_id
 _symmetry_equiv_pos_as_xyz
  1  'x, y, z'
loop_
 _atom_site_type_symbol
 _atom_site_label
 _atom_site_symmetry_multiplicity
 _atom_site_fract_x
 _atom_site_fract_y
 _atom_site_fract_z
 _atom_site_occupancy
  K  K0  1  0.500000  0.021927  0.521927  1
  Sr  Sr1  1  0.000001  0.963049  0.963049  1
  Si  Si2  1  0.321474  0.381663  0.060189  1
  Si  Si3  1  0.834664  0.276452  0.441788  1
  Si  Si4  1  0.678527  0.738713  0.060188  1
  Si  Si5  1  0.165336  0.607123  0.441788  1
  Pd  Pd6  1  0.956189  0.499481  0.953308  1
  Pd  Pd7  1  0.546175  0.499483  0.543294  1
  Pd  Pd8  1  0.043810  0.997120  0.543294  1
  Pd  Pd9  1  0.732337  0.501435  0.233773  1
  Pd  Pd10  1  0.267662  0.501435  0.769097  1
  Pd  Pd11  1  0.453826  0.997119  0.953309  1
