# generated using pymatgen
data_Ti8SiBi4Os
_symmetry_space_group_name_H-M   'P 1'
_cell_length_a   7.90703080
_cell_length_b   7.90796713
_cell_length_c   7.90703219
_cell_angle_alpha   95.84080937
_cell_angle_beta   95.83280445
_cell_angle_gamma   142.79743021
_symmetry_Int_Tables_number   1
_chemical_formula_structural   Ti8SiBi4Os
_chemical_formula_sum   'Ti8 Si1 Bi4 Os1'
_cell_volume   283.34113510
_cell_formula_units_Z   1
loop_
 _symmetry_equiv_pos_site_id
 _symmetry_equiv_pos_as_xyz
  1  'x, y, z'
loop_
 _atom_site_type_symbol
 _atom_site_label
 _atom_site_symmetry_multiplicity
 _atom_site_fract_x
 _atom_site_fract_y
 _atom_site_fract_z
 _atom_site_occupancy
  Ti  Ti0  1  0.086814  0.202084  0.281763  1
  Ti  Ti1  1  0.920344  0.805056  0.718223  1
  Ti  Ti2  1  0.805050  0.086821  0.884711  1
  Ti  Ti3  1  0.413167  0.694944  0.115288  1
  Ti  Ti4  1  0.202129  0.920408  0.115307  1
  Ti  Ti5  1  0.579679  0.297916  0.884728  1
  Ti  Ti6  1  0.694898  0.579592  0.281721  1
  Ti  Ti7  1  0.297891  0.413179  0.718229  1
  Si  Si8  1  0.250019  0.250000  0.000019  1
  Bi  Bi9  1  0.139686  0.639706  0.779400  1
  Bi  Bi10  1  0.860297  0.360322  0.220623  1
  Bi  Bi11  1  0.360300  0.139678  0.499974  1
  Bi  Bi12  1  0.639694  0.860294  0.499980  1
  Os  Os13  1  0.750032  0.750000  0.000032  1
