# generated using pymatgen
data_TbYb2(HoIr)2
_symmetry_space_group_name_H-M   'P 1'
_cell_length_a   6.52181208
_cell_length_b   7.26751506
_cell_length_c   8.48804837
_cell_angle_alpha   97.02552562
_cell_angle_beta   112.59260183
_cell_angle_gamma   90.00000395
_symmetry_Int_Tables_number   1
_chemical_formula_structural   TbYb2(HoIr)2
_chemical_formula_sum   'Tb2 Yb4 Ho4 Ir4'
_cell_volume   368.16385414
_cell_formula_units_Z   2
loop_
 _symmetry_equiv_pos_site_id
 _symmetry_equiv_pos_as_xyz
  1  'x, y, z'
loop_
 _atom_site_type_symbol
 _atom_site_label
 _atom_site_symmetry_multiplicity
 _atom_site_fract_x
 _atom_site_fract_y
 _atom_site_fract_z
 _atom_site_occupancy
  Tb  Tb0  1  0.651020  0.817697  0.439926  1
  Tb  Tb1  1  0.211094  0.682303  0.560074  1
  Yb  Yb2  1  0.973686  0.921200  0.182800  1
  Yb  Yb3  1  0.790885  0.578800  0.817200  1
  Yb  Yb4  1  0.026380  0.079263  0.817259  1
  Yb  Yb5  1  0.209121  0.420737  0.182741  1
  Ho  Ho6  1  0.349420  0.182407  0.560365  1
  Ho  Ho7  1  0.789055  0.317593  0.439635  1
  Ho  Ho8  1  0.431233  0.750000  0.000000  1
  Ho  Ho9  1  0.568911  0.250000  0.000000  1
  Ir  Ir10  1  0.814786  0.571583  0.225621  1
  Ir  Ir11  1  0.589166  0.928417  0.774379  1
  Ir  Ir12  1  0.184549  0.427271  0.773857  1
  Ir  Ir13  1  0.410693  0.072729  0.226143  1
