# generated using pymatgen
data_KSn2(Sb5Pd2)2
_symmetry_space_group_name_H-M   'P 1'
_cell_length_a   8.31215887
_cell_length_b   8.31216060
_cell_length_c   8.33078430
_cell_angle_alpha   108.97010247
_cell_angle_beta   109.89665903
_cell_angle_gamma   109.45762843
_symmetry_Int_Tables_number   1
_chemical_formula_structural   KSn2(Sb5Pd2)2
_chemical_formula_sum   'K1 Sn2 Sb10 Pd4'
_cell_volume   443.55552974
_cell_formula_units_Z   1
loop_
 _symmetry_equiv_pos_site_id
 _symmetry_equiv_pos_as_xyz
  1  'x, y, z'
loop_
 _atom_site_type_symbol
 _atom_site_label
 _atom_site_symmetry_multiplicity
 _atom_site_fract_x
 _atom_site_fract_y
 _atom_site_fract_z
 _atom_site_occupancy
  K  K0  1  0.000000  0.000000  0.000000  1
  Sn  Sn1  1  0.844386  0.652974  0.497360  1
  Sn  Sn2  1  0.155614  0.347026  0.502640  1
  Sb  Sb3  1  0.155508  0.653085  0.808596  1
  Sb  Sb4  1  0.844492  0.346915  0.191404  1
  Sb  Sb5  1  0.652069  0.495132  0.841069  1
  Sb  Sb6  1  0.347931  0.504868  0.158931  1
  Sb  Sb7  1  0.654062  0.811001  0.158931  1
  Sb  Sb8  1  0.345938  0.188999  0.841069  1
  Sb  Sb9  1  0.496220  0.842334  0.651673  1
  Sb  Sb10  1  0.503780  0.157666  0.348327  1
  Sb  Sb11  1  0.190659  0.844547  0.348327  1
  Sb  Sb12  1  0.809341  0.155453  0.651673  1
  Pd  Pd13  1  0.500000  0.500000  0.500000  1
  Pd  Pd14  1  0.500000  0.000000  0.000000  1
  Pd  Pd15  1  0.000000  0.500000  0.000000  1
  Pd  Pd16  1  0.000000  0.000000  0.500000  1
