# generated using pymatgen
data_Nd7Eu(MoO6)4
_symmetry_space_group_name_H-M   'P 1'
_cell_length_a   5.57232749
_cell_length_b   10.19726551
_cell_length_c   10.23583982
_cell_angle_alpha   68.60300912
_cell_angle_beta   75.20326881
_cell_angle_gamma   75.31534776
_symmetry_Int_Tables_number   1
_chemical_formula_structural   Nd7Eu(MoO6)4
_chemical_formula_sum   'Nd7 Eu1 Mo4 O24'
_cell_volume   515.20820557
_cell_formula_units_Z   1
loop_
 _symmetry_equiv_pos_site_id
 _symmetry_equiv_pos_as_xyz
  1  'x, y, z'
loop_
 _atom_site_type_symbol
 _atom_site_label
 _atom_site_symmetry_multiplicity
 _atom_site_fract_x
 _atom_site_fract_y
 _atom_site_fract_z
 _atom_site_occupancy
  Nd  Nd0  1  0.249422  0.367166  0.633415  1
  Nd  Nd1  1  0.750362  0.632345  0.368010  1
  Nd  Nd2  1  0.249357  0.889560  0.110700  1
  Nd  Nd3  1  0.748467  0.110470  0.890581  1
  Nd  Nd4  1  0.383826  0.942964  0.711449  1
  Nd  Nd5  1  0.617812  0.056229  0.287641  1
  Nd  Nd6  1  0.117602  0.289056  0.055740  1
  Eu  Eu7  1  0.883594  0.711788  0.945226  1
  Mo  Mo8  1  0.060657  0.797538  0.508047  1
  Mo  Mo9  1  0.940002  0.201769  0.492736  1
  Mo  Mo10  1  0.441557  0.493717  0.202099  1
  Mo  Mo11  1  0.558708  0.509294  0.797778  1
  O  O12  1  0.083908  0.161942  0.686237  1
  O  O13  1  0.915611  0.837294  0.314072  1
  O  O14  1  0.413249  0.312925  0.837645  1
  O  O15  1  0.586125  0.685718  0.163245  1
  O  O16  1  0.363288  0.826218  0.384060  1
  O  O17  1  0.636520  0.172758  0.615555  1
  O  O18  1  0.138187  0.615620  0.175206  1
  O  O19  1  0.860645  0.384551  0.826433  1
  O  O20  1  0.139169  0.786916  0.675088  1
  O  O21  1  0.863872  0.213126  0.324264  1
  O  O22  1  0.366676  0.324861  0.211501  1
  O  O23  1  0.636866  0.677189  0.785069  1
  O  O24  1  0.234661  0.069516  0.473857  1
  O  O25  1  0.766294  0.930093  0.526129  1
  O  O26  1  0.263660  0.527149  0.929811  1
  O  O27  1  0.733731  0.477495  0.066564  1
  O  O28  1  0.018769  0.615466  0.545171  1
  O  O29  1  0.981760  0.383870  0.455160  1
  O  O30  1  0.482237  0.454603  0.384392  1
  O  O31  1  0.518257  0.544903  0.616098  1
  O  O32  1  0.576802  0.921535  0.893675  1
  O  O33  1  0.420893  0.076126  0.108846  1
  O  O34  1  0.922155  0.107991  0.075867  1
  O  O35  1  0.075298  0.890239  0.922633  1
