# generated using pymatgen
data_Dy5Lu5(SiHg)4
_symmetry_space_group_name_H-M   'P 1'
_cell_length_a   8.55885144
_cell_length_b   8.86484903
_cell_length_c   7.45896846
_cell_angle_alpha   90.09053045
_cell_angle_beta   90.04715889
_cell_angle_gamma   129.35716958
_symmetry_Int_Tables_number   1
_chemical_formula_structural   Dy5Lu5(SiHg)4
_chemical_formula_sum   'Dy5 Lu5 Si4 Hg4'
_cell_volume   437.58265492
_cell_formula_units_Z   1
loop_
 _symmetry_equiv_pos_site_id
 _symmetry_equiv_pos_as_xyz
  1  'x, y, z'
loop_
 _atom_site_type_symbol
 _atom_site_label
 _atom_site_symmetry_multiplicity
 _atom_site_fract_x
 _atom_site_fract_y
 _atom_site_fract_z
 _atom_site_occupancy
  Dy  Dy0  1  0.824989  0.561509  0.177320  1
  Dy  Dy1  1  0.545332  0.795938  0.177709  1
  Dy  Dy2  1  0.175798  0.437995  0.822951  1
  Dy  Dy3  1  0.675090  0.938671  0.675678  1
  Dy  Dy4  1  0.326017  0.060944  0.324121  1
  Lu  Lu5  1  0.043876  0.290716  0.324917  1
  Lu  Lu6  1  0.953389  0.706789  0.675534  1
  Lu  Lu7  1  0.455674  0.208358  0.824465  1
  Lu  Lu8  1  0.000748  0.999705  0.999682  1
  Lu  Lu9  1  0.499897  0.498652  0.500098  1
  Si  Si10  1  0.379537  0.377835  0.123507  1
  Si  Si11  1  0.619703  0.620497  0.876414  1
  Si  Si12  1  0.120195  0.120152  0.622986  1
  Si  Si13  1  0.882548  0.879604  0.378084  1
  Hg  Hg14  1  0.764139  0.201448  0.011530  1
  Hg  Hg15  1  0.237323  0.804709  0.981052  1
  Hg  Hg16  1  0.740756  0.303988  0.516317  1
  Hg  Hg17  1  0.254989  0.692491  0.487635  1
