# generated using pymatgen
data_La3Nd2Ta2BiO14
_symmetry_space_group_name_H-M   'P 1'
_cell_length_a   6.71985289
_cell_length_b   6.81085649
_cell_length_c   7.76945900
_cell_angle_alpha   90.00000000
_cell_angle_beta   90.00000000
_cell_angle_gamma   109.36615939
_symmetry_Int_Tables_number   1
_chemical_formula_structural   La3Nd2Ta2BiO14
_chemical_formula_sum   'La3 Nd2 Ta2 Bi1 O14'
_cell_volume   335.47236041
_cell_formula_units_Z   1
loop_
 _symmetry_equiv_pos_site_id
 _symmetry_equiv_pos_as_xyz
  1  'x, y, z'
loop_
 _atom_site_type_symbol
 _atom_site_label
 _atom_site_symmetry_multiplicity
 _atom_site_fract_x
 _atom_site_fract_y
 _atom_site_fract_z
 _atom_site_occupancy
  La  La0  1  0.532995  0.522633  0.501941  1
  La  La1  1  0.532995  0.522633  0.998059  1
  La  La2  1  0.455242  0.998832  0.250000  1
  Nd  Nd3  1  0.009548  0.464189  0.750000  1
  Nd  Nd4  1  0.532059  0.002722  0.750000  1
  Ta  Ta5  1  0.995077  0.994485  0.501906  1
  Ta  Ta6  1  0.995077  0.994485  0.998094  1
  Bi  Bi7  1  0.012901  0.501819  0.250000  1
  O  O8  1  0.939811  0.068870  0.750000  1
  O  O9  1  0.041830  0.963714  0.250000  1
  O  O10  1  0.370247  0.630259  0.250000  1
  O  O11  1  0.644135  0.363042  0.750000  1
  O  O12  1  0.378200  0.631740  0.750000  1
  O  O13  1  0.633052  0.361712  0.250000  1
  O  O14  1  0.300692  0.059266  0.966150  1
  O  O15  1  0.678376  0.924277  0.475706  1
  O  O16  1  0.300692  0.059266  0.533850  1
  O  O17  1  0.678376  0.924277  0.024294  1
  O  O18  1  0.053535  0.310334  0.468723  1
  O  O19  1  0.930812  0.695554  0.958970  1
  O  O20  1  0.930812  0.695554  0.541030  1
  O  O21  1  0.053535  0.310334  0.031277  1
