# generated using pymatgen
data_Tm16In4RuRh3
_symmetry_space_group_name_H-M   'P 1'
_cell_length_a   9.51634207
_cell_length_b   9.51634215
_cell_length_c   9.52895517
_cell_angle_alpha   60.04378009
_cell_angle_beta   60.04377830
_cell_angle_gamma   60.00000246
_symmetry_Int_Tables_number   1
_chemical_formula_structural   Tm16In4RuRh3
_chemical_formula_sum   'Tm16 In4 Ru1 Rh3'
_cell_volume   610.60091735
_cell_formula_units_Z   1
loop_
 _symmetry_equiv_pos_site_id
 _symmetry_equiv_pos_as_xyz
  1  'x, y, z'
loop_
 _atom_site_type_symbol
 _atom_site_label
 _atom_site_symmetry_multiplicity
 _atom_site_fract_x
 _atom_site_fract_y
 _atom_site_fract_z
 _atom_site_occupancy
  Tm  Tm0  1  0.059940  0.059940  0.437671  1
  Tm  Tm1  1  0.442450  0.059940  0.437671  1
  Tm  Tm2  1  0.062000  0.438464  0.061072  1
  Tm  Tm3  1  0.047743  0.651360  0.649538  1
  Tm  Tm4  1  0.438464  0.438464  0.061072  1
  Tm  Tm5  1  0.651360  0.047743  0.649538  1
  Tm  Tm6  1  0.188455  0.809516  0.192514  1
  Tm  Tm7  1  0.190667  0.190667  0.809227  1
  Tm  Tm8  1  0.809516  0.809516  0.192514  1
  Tm  Tm9  1  0.438464  0.062000  0.061072  1
  Tm  Tm10  1  0.809516  0.188455  0.192514  1
  Tm  Tm11  1  0.059940  0.442450  0.437671  1
  Tm  Tm12  1  0.809439  0.190667  0.809227  1
  Tm  Tm13  1  0.190667  0.809439  0.809227  1
  Tm  Tm14  1  0.650459  0.650459  0.048623  1
  Tm  Tm15  1  0.651360  0.651360  0.649538  1
  In  In16  1  0.416723  0.416723  0.416513  1
  In  In17  1  0.750041  0.416723  0.416513  1
  In  In18  1  0.416723  0.750041  0.416513  1
  In  In19  1  0.416852  0.416852  0.749443  1
  Ru  Ru20  1  0.858354  0.858354  0.424937  1
  Rh  Rh21  1  0.858563  0.858563  0.859132  1
  Rh  Rh22  1  0.423743  0.858563  0.859132  1
  Rh  Rh23  1  0.858563  0.423743  0.859132  1
