# generated using pymatgen
data_LaPr(In2Br5)2
_symmetry_space_group_name_H-M   'P 1'
_cell_length_a   8.71856000
_cell_length_b   9.25350300
_cell_length_c   13.54510100
_cell_angle_alpha   90.00000000
_cell_angle_beta   90.00000000
_cell_angle_gamma   90.00000000
_symmetry_Int_Tables_number   1
_chemical_formula_structural   LaPr(In2Br5)2
_chemical_formula_sum   'La2 Pr2 In8 Br20'
_cell_volume   1092.78110841
_cell_formula_units_Z   2
loop_
 _symmetry_equiv_pos_site_id
 _symmetry_equiv_pos_as_xyz
  1  'x, y, z'
loop_
 _atom_site_type_symbol
 _atom_site_label
 _atom_site_symmetry_multiplicity
 _atom_site_fract_x
 _atom_site_fract_y
 _atom_site_fract_z
 _atom_site_occupancy
  La  La0  1  0.924002  0.750000  0.506217  1
  La  La1  1  0.575998  0.750000  0.006217  1
  Pr  Pr2  1  0.078035  0.250000  0.493808  1
  Pr  Pr3  1  0.421965  0.250000  0.993808  1
  In  In4  1  0.942530  0.004699  0.828716  1
  In  In5  1  0.056904  0.994120  0.171166  1
  In  In6  1  0.557470  0.495301  0.328716  1
  In  In7  1  0.056904  0.505880  0.171166  1
  In  In8  1  0.942530  0.495301  0.828716  1
  In  In9  1  0.443096  0.505880  0.671166  1
  In  In10  1  0.557470  0.004699  0.328716  1
  In  In11  1  0.443096  0.994120  0.671166  1
  Br  Br12  1  0.574275  0.750000  0.505073  1
  Br  Br13  1  0.171866  0.954410  0.426158  1
  Br  Br14  1  0.829669  0.047919  0.573278  1
  Br  Br15  1  0.328134  0.545590  0.926158  1
  Br  Br16  1  0.171866  0.545590  0.426158  1
  Br  Br17  1  0.343216  0.250000  0.207192  1
  Br  Br18  1  0.328134  0.954410  0.926158  1
  Br  Br19  1  0.829669  0.452081  0.573278  1
  Br  Br20  1  0.389222  0.750000  0.191360  1
  Br  Br21  1  0.670331  0.047919  0.073278  1
  Br  Br22  1  0.156784  0.250000  0.707192  1
  Br  Br23  1  0.609890  0.250000  0.810827  1
  Br  Br24  1  0.424516  0.250000  0.495408  1
  Br  Br25  1  0.110778  0.750000  0.691360  1
  Br  Br26  1  0.670331  0.452081  0.073278  1
  Br  Br27  1  0.075484  0.250000  0.995408  1
  Br  Br28  1  0.925725  0.750000  0.005073  1
  Br  Br29  1  0.842028  0.750000  0.291480  1
  Br  Br30  1  0.657972  0.750000  0.791480  1
  Br  Br31  1  0.890110  0.250000  0.310827  1
