# generated using pymatgen
data_NdCdCuPt3
_symmetry_space_group_name_H-M   'P 1'
_cell_length_a   5.26287423
_cell_length_b   5.26287352
_cell_length_c   5.26287431
_cell_angle_alpha   62.97667713
_cell_angle_beta   62.97667185
_cell_angle_gamma   62.97667185
_symmetry_Int_Tables_number   1
_chemical_formula_structural   NdCdCuPt3
_chemical_formula_sum   'Nd1 Cd1 Cu1 Pt3'
_cell_volume   109.88795552
_cell_formula_units_Z   1
loop_
 _symmetry_equiv_pos_site_id
 _symmetry_equiv_pos_as_xyz
  1  'x, y, z'
loop_
 _atom_site_type_symbol
 _atom_site_label
 _atom_site_symmetry_multiplicity
 _atom_site_fract_x
 _atom_site_fract_y
 _atom_site_fract_z
 _atom_site_occupancy
  Nd  Nd0  1  0.249008  0.249008  0.249008  1
  Cd  Cd1  1  0.997048  0.997048  0.997048  1
  Cu  Cu2  1  0.626408  0.626408  0.626408  1
  Pt  Pt3  1  0.626849  0.626849  0.123838  1
  Pt  Pt4  1  0.626849  0.123838  0.626849  1
  Pt  Pt5  1  0.123838  0.626849  0.626849  1
