# generated using pymatgen
data_Hf8Ti9Si3Ge13Mo3
_symmetry_space_group_name_H-M   'P 1'
_cell_length_a   6.69332105
_cell_length_b   6.82380564
_cell_length_c   13.08494400
_cell_angle_alpha   90.00000000
_cell_angle_beta   90.00000000
_cell_angle_gamma   89.96822859
_symmetry_Int_Tables_number   1
_chemical_formula_structural   Hf8Ti9Si3Ge13Mo3
_chemical_formula_sum   'Hf8 Ti9 Si3 Ge13 Mo3'
_cell_volume   597.64061870
_cell_formula_units_Z   1
loop_
 _symmetry_equiv_pos_site_id
 _symmetry_equiv_pos_as_xyz
  1  'x, y, z'
loop_
 _atom_site_type_symbol
 _atom_site_label
 _atom_site_symmetry_multiplicity
 _atom_site_fract_x
 _atom_site_fract_y
 _atom_site_fract_z
 _atom_site_occupancy
  Hf  Hf0  1  0.990400  0.177796  0.096661  1
  Hf  Hf1  1  0.008238  0.826257  0.907544  1
  Hf  Hf2  1  0.508283  0.675241  0.907795  1
  Hf  Hf3  1  0.008238  0.826257  0.592456  1
  Hf  Hf4  1  0.492939  0.325863  0.095804  1
  Hf  Hf5  1  0.990400  0.177796  0.403339  1
  Hf  Hf6  1  0.492939  0.325863  0.404196  1
  Hf  Hf7  1  0.508283  0.675241  0.592205  1
  Ti  Ti8  1  0.164463  0.492255  0.750000  1
  Ti  Ti9  1  0.338644  0.165073  0.625294  1
  Ti  Ti10  1  0.657706  0.833831  0.372871  1
  Ti  Ti11  1  0.165608  0.662697  0.373022  1
  Ti  Ti12  1  0.657706  0.833831  0.127129  1
  Ti  Ti13  1  0.835630  0.334309  0.624388  1
  Ti  Ti14  1  0.338644  0.165073  0.874706  1
  Ti  Ti15  1  0.835630  0.334309  0.875612  1
  Ti  Ti16  1  0.165608  0.662697  0.126978  1
  Si  Si17  1  0.463154  0.614835  0.250000  1
  Si  Si18  1  0.696177  0.142281  0.250000  1
  Si  Si19  1  0.200847  0.359413  0.250000  1
  Ge  Ge20  1  0.035606  0.121213  0.750000  1
  Ge  Ge21  1  0.963012  0.881997  0.250000  1
  Ge  Ge22  1  0.534099  0.382601  0.750000  1
  Ge  Ge23  1  0.303288  0.850997  0.750000  1
  Ge  Ge24  1  0.808126  0.645461  0.750000  1
  Ge  Ge25  1  0.180743  0.459345  0.539902  1
  Ge  Ge26  1  0.819966  0.542640  0.459532  1
  Ge  Ge27  1  0.317733  0.959586  0.459812  1
  Ge  Ge28  1  0.819966  0.542640  0.040468  1
  Ge  Ge29  1  0.681175  0.041055  0.538608  1
  Ge  Ge30  1  0.180743  0.459345  0.960098  1
  Ge  Ge31  1  0.681175  0.041055  0.961392  1
  Ge  Ge32  1  0.317733  0.959586  0.040188  1
  Mo  Mo33  1  0.834478  0.501469  0.250000  1
  Mo  Mo34  1  0.338863  0.993501  0.250000  1
  Mo  Mo35  1  0.663757  0.006590  0.750000  1
