# generated using pymatgen
data_Pm4MoSe5O24
_symmetry_space_group_name_H-M   'P 1'
_cell_length_a   7.02876875
_cell_length_b   6.90864981
_cell_length_c   11.58850926
_cell_angle_alpha   80.99009831
_cell_angle_beta   80.12330572
_cell_angle_gamma   116.38643820
_symmetry_Int_Tables_number   1
_chemical_formula_structural   Pm4MoSe5O24
_chemical_formula_sum   'Pm4 Mo1 Se5 O24'
_cell_volume   479.03638600
_cell_formula_units_Z   1
loop_
 _symmetry_equiv_pos_site_id
 _symmetry_equiv_pos_as_xyz
  1  'x, y, z'
loop_
 _atom_site_type_symbol
 _atom_site_label
 _atom_site_symmetry_multiplicity
 _atom_site_fract_x
 _atom_site_fract_y
 _atom_site_fract_z
 _atom_site_occupancy
  Pm  Pm0  1  0.201108  0.449803  0.591748  1
  Pm  Pm1  1  0.802373  0.548296  0.407235  1
  Pm  Pm2  1  0.546219  0.803689  0.904513  1
  Pm  Pm3  1  0.450933  0.196378  0.095909  1
  Mo  Mo4  1  0.033616  0.286005  0.927757  1
  Se  Se5  1  0.956535  0.716292  0.075117  1
  Se  Se6  1  0.712821  0.952892  0.575714  1
  Se  Se7  1  0.287603  0.045984  0.424429  1
  Se  Se8  1  0.631142  0.367982  0.749241  1
  Se  Se9  1  0.368825  0.628761  0.251865  1
  O  O10  1  0.562684  0.456008  0.625205  1
  O  O11  1  0.443552  0.545990  0.374536  1
  O  O12  1  0.549456  0.447745  0.871145  1
  O  O13  1  0.453282  0.554368  0.128017  1
  O  O14  1  0.500730  0.090736  0.785779  1
  O  O15  1  0.490841  0.905641  0.214833  1
  O  O16  1  0.904819  0.483657  0.714502  1
  O  O17  1  0.095076  0.505047  0.291156  1
  O  O18  1  0.724017  0.138682  0.965617  1
  O  O19  1  0.236152  0.840500  0.044094  1
  O  O20  1  0.840145  0.239143  0.539253  1
  O  O21  1  0.159587  0.759721  0.461350  1
  O  O22  1  0.437998  0.823250  0.605373  1
  O  O23  1  0.563146  0.176637  0.392576  1
  O  O24  1  0.190222  0.584820  0.885947  1
  O  O25  1  0.839360  0.438340  0.092952  1
  O  O26  1  0.119712  0.231926  0.787851  1
  O  O27  1  0.872312  0.756008  0.208778  1
  O  O28  1  0.768159  0.883862  0.706025  1
  O  O29  1  0.230490  0.115837  0.295116  1
  O  O30  1  0.882157  0.825425  0.964392  1
  O  O31  1  0.142621  0.201276  0.041546  1
  O  O32  1  0.192664  0.123415  0.539715  1
  O  O33  1  0.809644  0.875885  0.460715  1
