# generated using pymatgen
data_Ac4Zn5Ni3
_symmetry_space_group_name_H-M   'P 1'
_cell_length_a   4.39705600
_cell_length_b   8.03378588
_cell_length_c   7.72053733
_cell_angle_alpha   90.02261241
_cell_angle_beta   90.00000000
_cell_angle_gamma   90.00000000
_symmetry_Int_Tables_number   1
_chemical_formula_structural   Ac4Zn5Ni3
_chemical_formula_sum   'Ac4 Zn5 Ni3'
_cell_volume   272.72800948
_cell_formula_units_Z   1
loop_
 _symmetry_equiv_pos_site_id
 _symmetry_equiv_pos_as_xyz
  1  'x, y, z'
loop_
 _atom_site_type_symbol
 _atom_site_label
 _atom_site_symmetry_multiplicity
 _atom_site_fract_x
 _atom_site_fract_y
 _atom_site_fract_z
 _atom_site_occupancy
  Ac  Ac0  1  0.250000  0.993305  0.261074  1
  Ac  Ac1  1  0.250000  0.509129  0.256124  1
  Ac  Ac2  1  0.750000  0.992770  0.741867  1
  Ac  Ac3  1  0.750000  0.505504  0.746076  1
  Zn  Zn4  1  0.250000  0.747127  0.584537  1
  Zn  Zn5  1  0.250000  0.246523  0.908134  1
  Zn  Zn6  1  0.750000  0.253222  0.425042  1
  Zn  Zn7  1  0.750000  0.753541  0.081607  1
  Zn  Zn8  1  0.750000  0.247905  0.085089  1
  Ni  Ni9  1  0.250000  0.250393  0.584313  1
  Ni  Ni10  1  0.250000  0.751685  0.913504  1
  Ni  Ni11  1  0.750000  0.748894  0.412632  1
