# generated using pymatgen
data_PrNd4NbRuO12
_symmetry_space_group_name_H-M   'P 1'
_cell_length_a   7.07420339
_cell_length_b   7.07420325
_cell_length_c   7.79661042
_cell_angle_alpha   74.01545159
_cell_angle_beta   74.01544985
_cell_angle_gamma   50.25960266
_symmetry_Int_Tables_number   1
_chemical_formula_structural   PrNd4NbRuO12
_chemical_formula_sum   'Pr1 Nd4 Nb1 Ru1 O12'
_cell_volume   285.80996900
_cell_formula_units_Z   1
loop_
 _symmetry_equiv_pos_site_id
 _symmetry_equiv_pos_as_xyz
  1  'x, y, z'
loop_
 _atom_site_type_symbol
 _atom_site_label
 _atom_site_symmetry_multiplicity
 _atom_site_fract_x
 _atom_site_fract_y
 _atom_site_fract_z
 _atom_site_occupancy
  Pr  Pr0  1  0.998060  0.001940  0.500000  1
  Nd  Nd1  1  0.301409  0.312377  0.358529  1
  Nd  Nd2  1  0.687623  0.698591  0.641471  1
  Nd  Nd3  1  0.684002  0.695428  0.170008  1
  Nd  Nd4  1  0.304572  0.315998  0.829992  1
  Nb  Nb5  1  0.792501  0.207499  0.000000  1
  Ru  Ru6  1  0.247700  0.752300  0.000000  1
  O  O7  1  0.090930  0.595108  0.578160  1
  O  O8  1  0.004071  0.994148  0.192344  1
  O  O9  1  0.404892  0.909070  0.421840  1
  O  O10  1  0.504593  0.495876  0.173503  1
  O  O11  1  0.093890  0.586515  0.079515  1
  O  O12  1  0.899320  0.412090  0.421394  1
  O  O13  1  0.005852  0.995929  0.807656  1
  O  O14  1  0.587910  0.100679  0.578606  1
  O  O15  1  0.504124  0.495407  0.826497  1
  O  O16  1  0.576940  0.101875  0.079242  1
  O  O17  1  0.413485  0.906110  0.920485  1
  O  O18  1  0.898125  0.423060  0.920758  1
