# generated using pymatgen
data_Cd2AsBrO4
_symmetry_space_group_name_H-M   'P 1'
_cell_length_a   5.35317000
_cell_length_b   8.86806400
_cell_length_c   12.20937900
_cell_angle_alpha   90.00000000
_cell_angle_beta   90.00000000
_cell_angle_gamma   90.00000000
_symmetry_Int_Tables_number   1
_chemical_formula_structural   Cd2AsBrO4
_chemical_formula_sum   'Cd8 As4 Br4 O16'
_cell_volume   579.60674306
_cell_formula_units_Z   4
loop_
 _symmetry_equiv_pos_site_id
 _symmetry_equiv_pos_as_xyz
  1  'x, y, z'
loop_
 _atom_site_type_symbol
 _atom_site_label
 _atom_site_symmetry_multiplicity
 _atom_site_fract_x
 _atom_site_fract_y
 _atom_site_fract_z
 _atom_site_occupancy
  Cd  Cd0  1  0.505276  0.158731  0.624016  1
  Cd  Cd1  1  0.005276  0.841269  0.375984  1
  Cd  Cd2  1  0.002217  0.398570  0.381772  1
  Cd  Cd3  1  0.005276  0.658731  0.875984  1
  Cd  Cd4  1  0.505276  0.341269  0.124016  1
  Cd  Cd5  1  0.502217  0.898570  0.118228  1
  Cd  Cd6  1  0.002217  0.101430  0.881772  1
  Cd  Cd7  1  0.502217  0.601430  0.618228  1
  As  As8  1  0.956137  0.120591  0.164792  1
  As  As9  1  0.456137  0.879409  0.835208  1
  As  As10  1  0.956137  0.379409  0.664792  1
  As  As11  1  0.456137  0.620591  0.335208  1
  Br  Br12  1  0.255308  0.376024  0.933973  1
  Br  Br13  1  0.755308  0.623976  0.066027  1
  Br  Br14  1  0.755308  0.876024  0.566027  1
  Br  Br15  1  0.255308  0.123976  0.433973  1
  O  O16  1  0.347782  0.458388  0.273162  1
  O  O17  1  0.348569  0.781420  0.270707  1
  O  O18  1  0.775214  0.619056  0.350101  1
  O  O19  1  0.848569  0.218580  0.729293  1
  O  O20  1  0.788397  0.122206  0.042409  1
  O  O21  1  0.275214  0.380944  0.649899  1
  O  O22  1  0.775214  0.880944  0.850101  1
  O  O23  1  0.847782  0.541612  0.726838  1
  O  O24  1  0.788397  0.377794  0.542409  1
  O  O25  1  0.348569  0.718580  0.770707  1
  O  O26  1  0.288397  0.622206  0.457591  1
  O  O27  1  0.275214  0.119056  0.149899  1
  O  O28  1  0.288397  0.877794  0.957591  1
  O  O29  1  0.847782  0.958388  0.226838  1
  O  O30  1  0.848569  0.281420  0.229293  1
  O  O31  1  0.347782  0.041612  0.773162  1
