# generated using pymatgen
data_LiTh4Ru11C10
_symmetry_space_group_name_H-M   'P 1'
_cell_length_a   9.16844800
_cell_length_b   9.16844800
_cell_length_c   4.20315100
_cell_angle_alpha   90.00000000
_cell_angle_beta   90.00000000
_cell_angle_gamma   90.00000000
_symmetry_Int_Tables_number   1
_chemical_formula_structural   LiTh4Ru11C10
_chemical_formula_sum   'Li1 Th4 Ru11 C10'
_cell_volume   353.31871710
_cell_formula_units_Z   1
loop_
 _symmetry_equiv_pos_site_id
 _symmetry_equiv_pos_as_xyz
  1  'x, y, z'
loop_
 _atom_site_type_symbol
 _atom_site_label
 _atom_site_symmetry_multiplicity
 _atom_site_fract_x
 _atom_site_fract_y
 _atom_site_fract_z
 _atom_site_occupancy
  Li  Li0  1  0.000000  0.000000  0.500000  1
  Th  Th1  1  0.342805  0.814119  0.500000  1
  Th  Th2  1  0.814119  0.657195  0.500000  1
  Th  Th3  1  0.185881  0.342805  0.500000  1
  Th  Th4  1  0.657195  0.185881  0.500000  1
  Ru  Ru5  1  0.711877  0.425025  0.000000  1
  Ru  Ru6  1  0.425025  0.288123  0.000000  1
  Ru  Ru7  1  0.500000  0.000000  0.000000  1
  Ru  Ru8  1  0.000000  0.500000  0.000000  1
  Ru  Ru9  1  0.500000  0.500000  0.500000  1
  Ru  Ru10  1  0.792212  0.931078  0.000000  1
  Ru  Ru11  1  0.931078  0.207788  0.000000  1
  Ru  Ru12  1  0.068922  0.792212  0.000000  1
  Ru  Ru13  1  0.207788  0.068922  0.000000  1
  Ru  Ru14  1  0.574975  0.711877  0.000000  1
  Ru  Ru15  1  0.288123  0.574975  0.000000  1
  C  C16  1  0.500000  0.500000  0.000000  1
  C  C17  1  0.000000  0.000000  0.000000  1
  C  C18  1  0.879118  0.367438  0.673619  1
  C  C19  1  0.120882  0.632562  0.673619  1
  C  C20  1  0.879118  0.367438  0.326381  1
  C  C21  1  0.367438  0.120882  0.326381  1
  C  C22  1  0.632562  0.879118  0.326381  1
  C  C23  1  0.120882  0.632562  0.326381  1
  C  C24  1  0.632562  0.879118  0.673619  1
  C  C25  1  0.367438  0.120882  0.673619  1
