# generated using pymatgen
data_Tm3Tc2P6Rh7
_symmetry_space_group_name_H-M   'P 1'
_cell_length_a   3.94457900
_cell_length_b   11.18389800
_cell_length_c   12.62080500
_cell_angle_alpha   90.00000000
_cell_angle_beta   90.00000000
_cell_angle_gamma   90.00000000
_symmetry_Int_Tables_number   1
_chemical_formula_structural   Tm3Tc2P6Rh7
_chemical_formula_sum   'Tm6 Tc4 P12 Rh14'
_cell_volume   556.77652036
_cell_formula_units_Z   2
loop_
 _symmetry_equiv_pos_site_id
 _symmetry_equiv_pos_as_xyz
  1  'x, y, z'
loop_
 _atom_site_type_symbol
 _atom_site_label
 _atom_site_symmetry_multiplicity
 _atom_site_fract_x
 _atom_site_fract_y
 _atom_site_fract_z
 _atom_site_occupancy
  Tm  Tm0  1  0.000000  0.500000  0.520565  1
  Tm  Tm1  1  0.500000  0.000000  0.479435  1
  Tm  Tm2  1  0.500000  0.816062  0.203016  1
  Tm  Tm3  1  0.500000  0.183938  0.203016  1
  Tm  Tm4  1  0.000000  0.683938  0.796984  1
  Tm  Tm5  1  0.000000  0.316062  0.796984  1
  Tc  Tc6  1  0.500000  0.500000  0.159106  1
  Tc  Tc7  1  0.000000  0.000000  0.840894  1
  Tc  Tc8  1  0.000000  0.500000  0.985242  1
  Tc  Tc9  1  0.500000  0.000000  0.014758  1
  P  P10  1  0.500000  0.500000  0.876311  1
  P  P11  1  0.000000  0.000000  0.123689  1
  P  P12  1  0.500000  0.500000  0.345439  1
  P  P13  1  0.000000  0.000000  0.654561  1
  P  P14  1  0.500000  0.312991  0.619263  1
  P  P15  1  0.500000  0.687009  0.619263  1
  P  P16  1  0.000000  0.187009  0.380737  1
  P  P17  1  0.000000  0.812991  0.380737  1
  P  P18  1  0.500000  0.850711  0.891395  1
  P  P19  1  0.500000  0.149289  0.891395  1
  P  P20  1  0.000000  0.649289  0.108605  1
  P  P21  1  0.000000  0.350711  0.108605  1
  Rh  Rh22  1  0.500000  0.500000  0.694259  1
  Rh  Rh23  1  0.000000  0.000000  0.305741  1
  Rh  Rh24  1  0.500000  0.329651  0.982060  1
  Rh  Rh25  1  0.500000  0.670349  0.982060  1
  Rh  Rh26  1  0.000000  0.170349  0.017940  1
  Rh  Rh27  1  0.000000  0.829651  0.017940  1
  Rh  Rh28  1  0.500000  0.295171  0.430958  1
  Rh  Rh29  1  0.500000  0.704829  0.430958  1
  Rh  Rh30  1  0.000000  0.204829  0.569042  1
  Rh  Rh31  1  0.000000  0.795171  0.569042  1
  Rh  Rh32  1  0.500000  0.875269  0.709038  1
  Rh  Rh33  1  0.500000  0.124731  0.709038  1
  Rh  Rh34  1  0.000000  0.624731  0.290962  1
  Rh  Rh35  1  0.000000  0.375269  0.290962  1
