# generated using pymatgen
data_Dy2Ho3Tm3(Si3Rh)4
_symmetry_space_group_name_H-M   'P 1'
_cell_length_a   8.15040600
_cell_length_b   8.15040631
_cell_length_c   7.83091000
_cell_angle_alpha   90.00000000
_cell_angle_beta   90.00000000
_cell_angle_gamma   119.99999876
_symmetry_Int_Tables_number   1
_chemical_formula_structural   Dy2Ho3Tm3(Si3Rh)4
_chemical_formula_sum   'Dy2 Ho3 Tm3 Si12 Rh4'
_cell_volume   450.50682222
_cell_formula_units_Z   1
loop_
 _symmetry_equiv_pos_site_id
 _symmetry_equiv_pos_as_xyz
  1  'x, y, z'
loop_
 _atom_site_type_symbol
 _atom_site_label
 _atom_site_symmetry_multiplicity
 _atom_site_fract_x
 _atom_site_fract_y
 _atom_site_fract_z
 _atom_site_occupancy
  Dy  Dy0  1  0.000000  0.000000  0.250000  1
  Dy  Dy1  1  0.000000  0.000000  0.750000  1
  Ho  Ho2  1  0.491076  0.508924  0.750000  1
  Ho  Ho3  1  0.491076  0.982152  0.750000  1
  Ho  Ho4  1  0.017848  0.508924  0.750000  1
  Tm  Tm5  1  0.509074  0.490926  0.250000  1
  Tm  Tm6  1  0.509074  0.018148  0.250000  1
  Tm  Tm7  1  0.981852  0.490926  0.250000  1
  Si  Si8  1  0.167279  0.832721  0.498945  1
  Si  Si9  1  0.167279  0.334557  0.498945  1
  Si  Si10  1  0.665443  0.832721  0.498945  1
  Si  Si11  1  0.832836  0.167164  0.498529  1
  Si  Si12  1  0.832836  0.665673  0.498529  1
  Si  Si13  1  0.334327  0.167164  0.498529  1
  Si  Si14  1  0.832836  0.167164  0.001471  1
  Si  Si15  1  0.832836  0.665673  0.001471  1
  Si  Si16  1  0.334327  0.167164  0.001471  1
  Si  Si17  1  0.167279  0.832721  0.001055  1
  Si  Si18  1  0.167279  0.334557  0.001055  1
  Si  Si19  1  0.665443  0.832721  0.001055  1
  Rh  Rh20  1  0.333333  0.666667  0.461838  1
  Rh  Rh21  1  0.666667  0.333333  0.531090  1
  Rh  Rh22  1  0.666667  0.333333  0.968910  1
  Rh  Rh23  1  0.333333  0.666667  0.038162  1
