# generated using pymatgen
data_Th14Tc5Pd
_symmetry_space_group_name_H-M   'P 1'
_cell_length_a   9.99026834
_cell_length_b   9.99026956
_cell_length_c   6.34620487
_cell_angle_alpha   90.10946381
_cell_angle_beta   89.89053212
_cell_angle_gamma   119.74479618
_symmetry_Int_Tables_number   1
_chemical_formula_structural   Th14Tc5Pd
_chemical_formula_sum   'Th14 Tc5 Pd1'
_cell_volume   549.93216137
_cell_formula_units_Z   1
loop_
 _symmetry_equiv_pos_site_id
 _symmetry_equiv_pos_as_xyz
  1  'x, y, z'
loop_
 _atom_site_type_symbol
 _atom_site_label
 _atom_site_symmetry_multiplicity
 _atom_site_fract_x
 _atom_site_fract_y
 _atom_site_fract_z
 _atom_site_occupancy
  Th  Th0  1  0.333441  0.666559  0.025731  1
  Th  Th1  1  0.663635  0.336365  0.535982  1
  Th  Th2  1  0.125135  0.874865  0.255854  1
  Th  Th3  1  0.249344  0.125390  0.756173  1
  Th  Th4  1  0.874610  0.750656  0.756173  1
  Th  Th5  1  0.136586  0.256550  0.256605  1
  Th  Th6  1  0.743450  0.863414  0.256605  1
  Th  Th7  1  0.875863  0.124137  0.762464  1
  Th  Th8  1  0.540971  0.459029  0.048067  1
  Th  Th9  1  0.082110  0.544045  0.544920  1
  Th  Th10  1  0.455955  0.917890  0.544920  1
  Th  Th11  1  0.531430  0.074821  0.043283  1
  Th  Th12  1  0.925179  0.468570  0.043283  1
  Th  Th13  1  0.458601  0.541399  0.548081  1
  Tc  Tc14  1  0.632393  0.819647  0.796804  1
  Tc  Tc15  1  0.180353  0.367607  0.796804  1
  Tc  Tc16  1  0.816202  0.624625  0.294936  1
  Tc  Tc17  1  0.375375  0.183798  0.294936  1
  Tc  Tc18  1  0.185342  0.814658  0.795372  1
  Pd  Pd19  1  0.814026  0.185974  0.302999  1
