# generated using pymatgen
data_Gd16Ho(LuIr4)3
_symmetry_space_group_name_H-M   'P 1'
_cell_length_a   11.06005500
_cell_length_b   11.06005500
_cell_length_c   6.35876100
_cell_angle_alpha   90.00000000
_cell_angle_beta   90.00000000
_cell_angle_gamma   90.00000000
_symmetry_Int_Tables_number   1
_chemical_formula_structural   Gd16Ho(LuIr4)3
_chemical_formula_sum   'Gd16 Ho1 Lu3 Ir12'
_cell_volume   777.83427315
_cell_formula_units_Z   1
loop_
 _symmetry_equiv_pos_site_id
 _symmetry_equiv_pos_as_xyz
  1  'x, y, z'
loop_
 _atom_site_type_symbol
 _atom_site_label
 _atom_site_symmetry_multiplicity
 _atom_site_fract_x
 _atom_site_fract_y
 _atom_site_fract_z
 _atom_site_occupancy
  Gd  Gd0  1  0.289495  0.087367  0.386677  1
  Gd  Gd1  1  0.289615  0.912389  0.886628  1
  Gd  Gd2  1  0.710385  0.087611  0.886628  1
  Gd  Gd3  1  0.710505  0.912633  0.386677  1
  Gd  Gd4  1  0.587602  0.789784  0.886587  1
  Gd  Gd5  1  0.587652  0.209825  0.386545  1
  Gd  Gd6  1  0.412348  0.790175  0.386545  1
  Gd  Gd7  1  0.412398  0.210216  0.886587  1
  Gd  Gd8  1  0.209825  0.412348  0.613455  1
  Gd  Gd9  1  0.210216  0.587602  0.113413  1
  Gd  Gd10  1  0.789784  0.412398  0.113413  1
  Gd  Gd11  1  0.790175  0.587652  0.613455  1
  Gd  Gd12  1  0.912389  0.710385  0.113372  1
  Gd  Gd13  1  0.912633  0.289495  0.613323  1
  Gd  Gd14  1  0.087367  0.710505  0.613323  1
  Gd  Gd15  1  0.087611  0.289615  0.113372  1
  Ho  Ho16  1  0.500000  0.500000  0.500000  1
  Lu  Lu17  1  0.000000  0.000000  0.500000  1
  Lu  Lu18  1  0.000000  0.000000  0.000000  1
  Lu  Lu19  1  0.500000  0.500000  0.000000  1
  Ir  Ir20  1  0.851105  0.148823  0.250091  1
  Ir  Ir21  1  0.851177  0.851105  0.749909  1
  Ir  Ir22  1  0.148823  0.148895  0.749909  1
  Ir  Ir23  1  0.148895  0.851177  0.250091  1
  Ir  Ir24  1  0.649923  0.349867  0.751610  1
  Ir  Ir25  1  0.650133  0.649923  0.248390  1
  Ir  Ir26  1  0.349867  0.350077  0.248390  1
  Ir  Ir27  1  0.350077  0.650133  0.751610  1
  Ir  Ir28  1  0.500000  0.000000  0.125854  1
  Ir  Ir29  1  0.500000  0.000000  0.625726  1
  Ir  Ir30  1  0.000000  0.500000  0.874146  1
  Ir  Ir31  1  0.000000  0.500000  0.374274  1
