# generated using pymatgen
data_Pr8Nd8Cd4OsPd3
_symmetry_space_group_name_H-M   'P 1'
_cell_length_a   10.08708612
_cell_length_b   10.08707480
_cell_length_c   10.08898415
_cell_angle_alpha   59.52497717
_cell_angle_beta   59.52496797
_cell_angle_gamma   59.53646261
_symmetry_Int_Tables_number   1
_chemical_formula_structural   Pr8Nd8Cd4OsPd3
_chemical_formula_sum   'Pr8 Nd8 Cd4 Os1 Pd3'
_cell_volume   718.10025207
_cell_formula_units_Z   1
loop_
 _symmetry_equiv_pos_site_id
 _symmetry_equiv_pos_as_xyz
  1  'x, y, z'
loop_
 _atom_site_type_symbol
 _atom_site_label
 _atom_site_symmetry_multiplicity
 _atom_site_fract_x
 _atom_site_fract_y
 _atom_site_fract_z
 _atom_site_occupancy
  Pr  Pr0  1  0.188724  0.188725  0.817028  1
  Pr  Pr1  1  0.807584  0.807583  0.189518  1
  Pr  Pr2  1  0.935764  0.564418  0.564413  1
  Pr  Pr3  1  0.556288  0.938080  0.938119  1
  Pr  Pr4  1  0.564418  0.935763  0.564414  1
  Pr  Pr5  1  0.938079  0.556288  0.938119  1
  Pr  Pr6  1  0.564385  0.564385  0.935752  1
  Pr  Pr7  1  0.938140  0.938139  0.556210  1
  Nd  Nd8  1  0.352533  0.352534  0.352266  1
  Nd  Nd9  1  0.347668  0.347668  0.951591  1
  Nd  Nd10  1  0.347380  0.951586  0.347643  1
  Nd  Nd11  1  0.951586  0.347380  0.347643  1
  Nd  Nd12  1  0.817007  0.188836  0.188862  1
  Nd  Nd13  1  0.189616  0.807536  0.807497  1
  Nd  Nd14  1  0.188836  0.817007  0.188863  1
  Nd  Nd15  1  0.807536  0.189616  0.807497  1
  Cd  Cd16  1  0.579450  0.579450  0.579688  1
  Cd  Cd17  1  0.579944  0.579944  0.259676  1
  Cd  Cd18  1  0.580141  0.259667  0.579961  1
  Cd  Cd19  1  0.259668  0.580141  0.579960  1
  Os  Os20  1  0.143203  0.143203  0.143702  1
  Pd  Pd21  1  0.145140  0.145141  0.571300  1
  Pd  Pd22  1  0.145671  0.571236  0.145139  1
  Pd  Pd23  1  0.571237  0.145671  0.145138  1
