# generated using pymatgen
data_Hf6Sc4Si6C
_symmetry_space_group_name_H-M   'P 1'
_cell_length_a   7.88145200
_cell_length_b   7.88145094
_cell_length_c   5.56120000
_cell_angle_alpha   90.00000000
_cell_angle_beta   90.00000000
_cell_angle_gamma   119.99999607
_symmetry_Int_Tables_number   1
_chemical_formula_structural   Hf6Sc4Si6C
_chemical_formula_sum   'Hf6 Sc4 Si6 C1'
_cell_volume   299.16554502
_cell_formula_units_Z   1
loop_
 _symmetry_equiv_pos_site_id
 _symmetry_equiv_pos_as_xyz
  1  'x, y, z'
loop_
 _atom_site_type_symbol
 _atom_site_label
 _atom_site_symmetry_multiplicity
 _atom_site_fract_x
 _atom_site_fract_y
 _atom_site_fract_z
 _atom_site_occupancy
  Hf  Hf0  1  0.000000  0.761378  0.256635  1
  Hf  Hf1  1  0.238622  0.238622  0.256635  1
  Hf  Hf2  1  0.761378  0.000000  0.256635  1
  Hf  Hf3  1  0.000000  0.238622  0.743365  1
  Hf  Hf4  1  0.761378  0.761378  0.743365  1
  Hf  Hf5  1  0.238622  0.000000  0.743365  1
  Sc  Sc6  1  0.333333  0.666667  0.000000  1
  Sc  Sc7  1  0.666667  0.333333  0.000000  1
  Sc  Sc8  1  0.666667  0.333333  0.500000  1
  Sc  Sc9  1  0.333333  0.666667  0.500000  1
  Si  Si10  1  0.000000  0.396136  0.247788  1
  Si  Si11  1  0.603864  0.603864  0.247788  1
  Si  Si12  1  0.396136  0.000000  0.247788  1
  Si  Si13  1  0.000000  0.603864  0.752212  1
  Si  Si14  1  0.396136  0.396136  0.752212  1
  Si  Si15  1  0.603864  0.000000  0.752212  1
  C  C16  1  0.000000  0.000000  0.500000  1
