# generated using pymatgen
data_Nb2VFe2Co
_symmetry_space_group_name_H-M   'P 1'
_cell_length_a   4.77891568
_cell_length_b   4.77891547
_cell_length_c   8.01213700
_cell_angle_alpha   90.00000000
_cell_angle_beta   90.00000000
_cell_angle_gamma   117.70559296
_symmetry_Int_Tables_number   1
_chemical_formula_structural   Nb2VFe2Co
_chemical_formula_sum   'Nb4 V2 Fe4 Co2'
_cell_volume   162.00231253
_cell_formula_units_Z   2
loop_
 _symmetry_equiv_pos_site_id
 _symmetry_equiv_pos_as_xyz
  1  'x, y, z'
loop_
 _atom_site_type_symbol
 _atom_site_label
 _atom_site_symmetry_multiplicity
 _atom_site_fract_x
 _atom_site_fract_y
 _atom_site_fract_z
 _atom_site_occupancy
  Nb  Nb0  1  0.664179  0.335821  0.310394  1
  Nb  Nb1  1  0.332982  0.667018  0.188958  1
  Nb  Nb2  1  0.332982  0.667018  0.811042  1
  Nb  Nb3  1  0.664179  0.335821  0.689606  1
  V  V4  1  0.161788  0.838212  0.500000  1
  V  V5  1  0.842007  0.157993  0.000000  1
  Fe  Fe6  1  0.998160  0.001840  0.248645  1
  Fe  Fe7  1  0.998160  0.001840  0.751355  1
  Fe  Fe8  1  0.654812  0.840212  0.500000  1
  Fe  Fe9  1  0.159788  0.345188  0.500000  1
  Co  Co10  1  0.346613  0.155304  0.000000  1
  Co  Co11  1  0.844696  0.653387  0.000000  1
