# generated using pymatgen
data_Zr6Ti6Sn7Sb3
_symmetry_space_group_name_H-M   'P 1'
_cell_length_a   9.57070200
_cell_length_b   9.57349032
_cell_length_c   5.80736700
_cell_angle_alpha   90.00000000
_cell_angle_beta   90.00000000
_cell_angle_gamma   119.99037278
_symmetry_Int_Tables_number   1
_chemical_formula_structural   Zr6Ti6Sn7Sb3
_chemical_formula_sum   'Zr6 Ti6 Sn7 Sb3'
_cell_volume   460.85693077
_cell_formula_units_Z   1
loop_
 _symmetry_equiv_pos_site_id
 _symmetry_equiv_pos_as_xyz
  1  'x, y, z'
loop_
 _atom_site_type_symbol
 _atom_site_label
 _atom_site_symmetry_multiplicity
 _atom_site_fract_x
 _atom_site_fract_y
 _atom_site_fract_z
 _atom_site_occupancy
  Zr  Zr0  1  0.844355  0.688709  0.750000  1
  Zr  Zr1  1  0.155318  0.847066  0.250000  1
  Zr  Zr2  1  0.691749  0.847066  0.250000  1
  Zr  Zr3  1  0.304980  0.153659  0.750000  1
  Zr  Zr4  1  0.848680  0.153659  0.750000  1
  Zr  Zr5  1  0.151310  0.302618  0.250000  1
  Ti  Ti6  1  0.502113  0.004226  0.500306  1
  Ti  Ti7  1  0.498404  0.498405  0.999942  1
  Ti  Ti8  1  0.000001  0.498405  0.999942  1
  Ti  Ti9  1  0.000001  0.498405  0.500058  1
  Ti  Ti10  1  0.502113  0.004226  0.999694  1
  Ti  Ti11  1  0.498404  0.498405  0.500058  1
  Sn  Sn12  1  0.579663  0.792164  0.750000  1
  Sn  Sn13  1  0.212501  0.792164  0.750000  1
  Sn  Sn14  1  0.792060  0.584120  0.250000  1
  Sn  Sn15  1  0.667211  0.334419  0.750000  1
  Sn  Sn16  1  0.334485  0.668971  0.250000  1
  Sn  Sn17  1  0.997394  0.994787  0.500899  1
  Sn  Sn18  1  0.997394  0.994787  0.999101  1
  Sb  Sb19  1  0.210901  0.421801  0.750000  1
  Sb  Sb20  1  0.793168  0.210968  0.250000  1
  Sb  Sb21  1  0.417801  0.210968  0.250000  1
