# generated using pymatgen
data_La3Er(Re2Si)8
_symmetry_space_group_name_H-M   'P 1'
_cell_length_a   4.17613500
_cell_length_b   7.34610094
_cell_length_c   15.59200100
_cell_angle_alpha   90.24641758
_cell_angle_beta   90.00000000
_cell_angle_gamma   90.00000000
_symmetry_Int_Tables_number   1
_chemical_formula_structural   La3Er(Re2Si)8
_chemical_formula_sum   'La3 Er1 Re16 Si8'
_cell_volume   478.33180462
_cell_formula_units_Z   1
loop_
 _symmetry_equiv_pos_site_id
 _symmetry_equiv_pos_as_xyz
  1  'x, y, z'
loop_
 _atom_site_type_symbol
 _atom_site_label
 _atom_site_symmetry_multiplicity
 _atom_site_fract_x
 _atom_site_fract_y
 _atom_site_fract_z
 _atom_site_occupancy
  La  La0  1  0.000000  0.422354  0.883896  1
  La  La1  1  0.500000  0.078902  0.379432  1
  La  La2  1  0.500000  0.918638  0.618062  1
  Er  Er3  1  0.000000  0.582587  0.118500  1
  Re  Re4  1  0.000000  0.146507  0.054183  1
  Re  Re5  1  0.000000  0.866112  0.951335  1
  Re  Re6  1  0.500000  0.634756  0.446731  1
  Re  Re7  1  0.500000  0.362378  0.551572  1
  Re  Re8  1  0.000000  0.729398  0.318102  1
  Re  Re9  1  0.000000  0.266377  0.680319  1
  Re  Re10  1  0.500000  0.238041  0.177098  1
  Re  Re11  1  0.500000  0.766924  0.822528  1
  Re  Re12  1  0.000000  0.431665  0.417449  1
  Re  Re13  1  0.000000  0.565043  0.580655  1
  Re  Re14  1  0.500000  0.934230  0.083497  1
  Re  Re15  1  0.500000  0.068817  0.921407  1
  Re  Re16  1  0.000000  0.986453  0.203971  1
  Re  Re17  1  0.000000  0.005757  0.795174  1
  Re  Re18  1  0.500000  0.492530  0.291250  1
  Re  Re19  1  0.500000  0.504560  0.707134  1
  Si  Si20  1  0.000000  0.822574  0.473698  1
  Si  Si21  1  0.000000  0.174800  0.524509  1
  Si  Si22  1  0.500000  0.335450  0.025627  1
  Si  Si23  1  0.500000  0.675467  0.978315  1
  Si  Si24  1  0.000000  0.294989  0.269867  1
  Si  Si25  1  0.000000  0.703601  0.726768  1
  Si  Si26  1  0.500000  0.787808  0.223555  1
  Si  Si27  1  0.500000  0.203285  0.775367  1
