# generated using pymatgen
data_Pr4Sn10Pd3Au
_symmetry_space_group_name_H-M   'P 1'
_cell_length_a   4.56666200
_cell_length_b   9.40919662
_cell_length_c   10.36946871
_cell_angle_alpha   89.26649875
_cell_angle_beta   90.00000000
_cell_angle_gamma   90.00000000
_symmetry_Int_Tables_number   1
_chemical_formula_structural   Pr4Sn10Pd3Au
_chemical_formula_sum   'Pr4 Sn10 Pd3 Au1'
_cell_volume   445.52525634
_cell_formula_units_Z   1
loop_
 _symmetry_equiv_pos_site_id
 _symmetry_equiv_pos_as_xyz
  1  'x, y, z'
loop_
 _atom_site_type_symbol
 _atom_site_label
 _atom_site_symmetry_multiplicity
 _atom_site_fract_x
 _atom_site_fract_y
 _atom_site_fract_z
 _atom_site_occupancy
  Pr  Pr0  1  0.750000  0.635584  0.246719  1
  Pr  Pr1  1  0.250000  0.365265  0.751656  1
  Pr  Pr2  1  0.750000  0.101870  0.249387  1
  Pr  Pr3  1  0.250000  0.894703  0.748229  1
  Sn  Sn4  1  0.250000  0.129318  0.482760  1
  Sn  Sn5  1  0.750000  0.870808  0.516663  1
  Sn  Sn6  1  0.250000  0.371976  0.246266  1
  Sn  Sn7  1  0.750000  0.632204  0.760827  1
  Sn  Sn8  1  0.250000  0.608486  0.515673  1
  Sn  Sn9  1  0.750000  0.393764  0.486144  1
  Sn  Sn10  1  0.250000  0.620268  0.985989  1
  Sn  Sn11  1  0.750000  0.386362  0.010656  1
  Sn  Sn12  1  0.750000  0.099859  0.878699  1
  Sn  Sn13  1  0.250000  0.890653  0.119574  1
  Pd  Pd14  1  0.750000  0.145537  0.620820  1
  Pd  Pd15  1  0.250000  0.855515  0.378945  1
  Pd  Pd16  1  0.750000  0.820742  0.971807  1
  Au  Au17  1  0.250000  0.177084  0.029189  1
