# generated using pymatgen
data_HoLu(Co3P2)2
_symmetry_space_group_name_H-M   'P 1'
_cell_length_a   3.67173100
_cell_length_b   10.47428223
_cell_length_c   12.11801813
_cell_angle_alpha   90.00360958
_cell_angle_beta   90.00000000
_cell_angle_gamma   90.00000000
_symmetry_Int_Tables_number   1
_chemical_formula_structural   HoLu(Co3P2)2
_chemical_formula_sum   'Ho3 Lu3 Co18 P12'
_cell_volume   466.04378945
_cell_formula_units_Z   3
loop_
 _symmetry_equiv_pos_site_id
 _symmetry_equiv_pos_as_xyz
  1  'x, y, z'
loop_
 _atom_site_type_symbol
 _atom_site_label
 _atom_site_symmetry_multiplicity
 _atom_site_fract_x
 _atom_site_fract_y
 _atom_site_fract_z
 _atom_site_occupancy
  Ho  Ho0  1  0.000000  0.500219  0.522298  1
  Ho  Ho1  1  0.500000  0.000007  0.477102  1
  Ho  Ho2  1  0.000000  0.318029  0.794126  1
  Lu  Lu3  1  0.500000  0.818211  0.206381  1
  Lu  Lu4  1  0.500000  0.181545  0.205752  1
  Lu  Lu5  1  0.000000  0.682204  0.794206  1
  Co  Co6  1  0.500000  0.500602  0.159465  1
  Co  Co7  1  0.000000  0.999728  0.840486  1
  Co  Co8  1  0.500000  0.501205  0.704281  1
  Co  Co9  1  0.000000  0.999745  0.295584  1
  Co  Co10  1  0.000000  0.500625  0.987319  1
  Co  Co11  1  0.500000  0.999320  0.014302  1
  Co  Co12  1  0.500000  0.333042  0.995383  1
  Co  Co13  1  0.500000  0.667525  0.994950  1
  Co  Co14  1  0.000000  0.166105  0.006176  1
  Co  Co15  1  0.000000  0.833018  0.005753  1
  Co  Co16  1  0.500000  0.297499  0.429404  1
  Co  Co17  1  0.500000  0.702801  0.430439  1
  Co  Co18  1  0.000000  0.202579  0.568436  1
  Co  Co19  1  0.000000  0.797493  0.569616  1
  Co  Co20  1  0.500000  0.878049  0.710051  1
  Co  Co21  1  0.500000  0.120663  0.709033  1
  Co  Co22  1  0.000000  0.621851  0.290210  1
  Co  Co23  1  0.000000  0.378271  0.289497  1
  P  P24  1  0.500000  0.501070  0.882969  1
  P  P25  1  0.000000  0.999538  0.118267  1
  P  P26  1  0.500000  0.500045  0.344508  1
  P  P27  1  0.000000  0.000088  0.655156  1
  P  P28  1  0.500000  0.311421  0.615674  1
  P  P29  1  0.500000  0.688870  0.617230  1
  P  P30  1  0.000000  0.188469  0.382029  1
  P  P31  1  0.000000  0.811454  0.382852  1
  P  P32  1  0.500000  0.846441  0.892097  1
  P  P33  1  0.500000  0.152207  0.892728  1
  P  P34  1  0.000000  0.654083  0.108442  1
  P  P35  1  0.000000  0.345976  0.107803  1
