# generated using pymatgen
data_CsCuPd7O16
_symmetry_space_group_name_H-M   'P 1'
_cell_length_a   6.15417911
_cell_length_b   7.49221246
_cell_length_c   7.61272700
_cell_angle_alpha   88.56716795
_cell_angle_beta   78.36137748
_cell_angle_gamma   78.06300423
_symmetry_Int_Tables_number   1
_chemical_formula_structural   CsCuPd7O16
_chemical_formula_sum   'Cs1 Cu1 Pd7 O16'
_cell_volume   336.30829179
_cell_formula_units_Z   1
loop_
 _symmetry_equiv_pos_site_id
 _symmetry_equiv_pos_as_xyz
  1  'x, y, z'
loop_
 _atom_site_type_symbol
 _atom_site_label
 _atom_site_symmetry_multiplicity
 _atom_site_fract_x
 _atom_site_fract_y
 _atom_site_fract_z
 _atom_site_occupancy
  Cs  Cs0  1  0.999993  0.997702  0.999934  1
  Cu  Cu1  1  0.578417  0.514507  0.188968  1
  Pd  Pd2  1  0.081485  0.507886  0.184545  1
  Pd  Pd3  1  0.172956  0.814815  0.517190  1
  Pd  Pd4  1  0.669762  0.814670  0.518897  1
  Pd  Pd5  1  0.338237  0.187005  0.477181  1
  Pd  Pd6  1  0.838274  0.185547  0.479398  1
  Pd  Pd7  1  0.429598  0.487346  0.818137  1
  Pd  Pd8  1  0.926342  0.488876  0.818282  1
  O  O9  1  0.832517  0.634103  0.053916  1
  O  O10  1  0.331944  0.633889  0.053898  1
  O  O11  1  0.982910  0.712752  0.372093  1
  O  O12  1  0.483986  0.707544  0.377265  1
  O  O13  1  0.855478  0.955852  0.639795  1
  O  O14  1  0.355287  0.956363  0.639707  1
  O  O15  1  0.349610  0.367154  0.278461  1
  O  O16  1  0.836692  0.366873  0.279651  1
  O  O17  1  0.163994  0.639256  0.725097  1
  O  O18  1  0.660990  0.641504  0.728722  1
  O  O19  1  0.154629  0.044037  0.357476  1
  O  O20  1  0.653663  0.042953  0.358104  1
  O  O21  1  0.026469  0.289687  0.622024  1
  O  O22  1  0.526596  0.290299  0.620721  1
  O  O23  1  0.178856  0.357024  0.946341  1
  O  O24  1  0.678416  0.362355  0.944190  1
