# generated using pymatgen
data_DyTh3(CoB4)4
_symmetry_space_group_name_H-M   'P 1'
_cell_length_a   6.91429892
_cell_length_b   6.91429843
_cell_length_c   6.91429895
_cell_angle_alpha   112.47039323
_cell_angle_beta   112.47039293
_cell_angle_gamma   103.62628431
_symmetry_Int_Tables_number   1
_chemical_formula_structural   DyTh3(CoB4)4
_chemical_formula_sum   'Dy1 Th3 Co4 B16'
_cell_volume   252.50319618
_cell_formula_units_Z   1
loop_
 _symmetry_equiv_pos_site_id
 _symmetry_equiv_pos_as_xyz
  1  'x, y, z'
loop_
 _atom_site_type_symbol
 _atom_site_label
 _atom_site_symmetry_multiplicity
 _atom_site_fract_x
 _atom_site_fract_y
 _atom_site_fract_z
 _atom_site_occupancy
  Dy  Dy0  1  0.250000  0.750000  0.500000  1
  Th  Th1  1  0.213315  0.213315  0.000000  1
  Th  Th2  1  0.786685  0.786685  0.000000  1
  Th  Th3  1  0.750000  0.250000  0.500000  1
  Co  Co4  1  0.499991  0.269591  0.769601  1
  Co  Co5  1  0.499991  0.730390  0.230399  1
  Co  Co6  1  0.730409  0.500009  0.230399  1
  Co  Co7  1  0.269610  0.500009  0.769601  1
  B  B8  1  0.111491  0.276169  0.388281  1
  B  B9  1  0.887888  0.723210  0.611719  1
  B  B10  1  0.887888  0.276169  0.164679  1
  B  B11  1  0.111491  0.723210  0.835321  1
  B  B12  1  0.723831  0.888509  0.611719  1
  B  B13  1  0.276790  0.112112  0.388281  1
  B  B14  1  0.723831  0.112112  0.835321  1
  B  B15  1  0.276790  0.888509  0.164679  1
  B  B16  1  0.416912  0.419862  0.536317  1
  B  B17  1  0.883545  0.880595  0.463683  1
  B  B18  1  0.580138  0.116455  0.997050  1
  B  B19  1  0.119405  0.583088  0.002950  1
  B  B20  1  0.580138  0.583088  0.463683  1
  B  B21  1  0.119405  0.116455  0.536317  1
  B  B22  1  0.883545  0.419862  0.002950  1
  B  B23  1  0.416912  0.880595  0.997050  1
