# generated using pymatgen
data_Ca9Y(TaN5)2
_symmetry_space_group_name_H-M   'P 1'
_cell_length_a   6.95509803
_cell_length_b   6.91831302
_cell_length_c   8.91846055
_cell_angle_alpha   80.44372332
_cell_angle_beta   80.19156220
_cell_angle_gamma   59.77820771
_symmetry_Int_Tables_number   1
_chemical_formula_structural   Ca9Y(TaN5)2
_chemical_formula_sum   'Ca9 Y1 Ta2 N10'
_cell_volume   363.76050143
_cell_formula_units_Z   1
loop_
 _symmetry_equiv_pos_site_id
 _symmetry_equiv_pos_as_xyz
  1  'x, y, z'
loop_
 _atom_site_type_symbol
 _atom_site_label
 _atom_site_symmetry_multiplicity
 _atom_site_fract_x
 _atom_site_fract_y
 _atom_site_fract_z
 _atom_site_occupancy
  Ca  Ca0  1  0.869354  0.868080  0.828905  1
  Ca  Ca1  1  0.740460  0.742550  0.520497  1
  Ca  Ca2  1  0.755281  0.247877  0.504195  1
  Ca  Ca3  1  0.622048  0.143280  0.155175  1
  Ca  Ca4  1  0.363640  0.869753  0.837883  1
  Ca  Ca5  1  0.250086  0.757384  0.508572  1
  Ca  Ca6  1  0.244848  0.245906  0.489250  1
  Ca  Ca7  1  0.139972  0.143945  0.164389  1
  Ca  Ca8  1  0.135308  0.630757  0.154068  1
  Y  Y9  1  0.879617  0.347342  0.830957  1
  Ta  Ta10  1  0.630907  0.629244  0.220701  1
  Ta  Ta11  1  0.372737  0.365933  0.774754  1
  N  N12  1  0.913306  0.466918  0.320446  1
  N  N13  1  0.986367  0.017338  0.010983  1
  N  N14  1  0.685922  0.663375  0.997458  1
  N  N15  1  0.544927  0.529365  0.696994  1
  N  N16  1  0.465378  0.914945  0.320957  1
  N  N17  1  0.540397  0.082674  0.676805  1
  N  N18  1  0.461698  0.468148  0.303203  1
  N  N19  1  0.320508  0.319649  0.994491  1
  N  N20  1  0.054518  0.075067  0.653513  1
  N  N21  1  0.085008  0.532760  0.681609  1
