# generated using pymatgen
data_Y2PaMn(Co4P3)2
_symmetry_space_group_name_H-M   'P 1'
_cell_length_a   3.70538200
_cell_length_b   10.55713700
_cell_length_c   12.14655300
_cell_angle_alpha   90.00000000
_cell_angle_beta   90.00000000
_cell_angle_gamma   90.00000000
_symmetry_Int_Tables_number   1
_chemical_formula_structural   Y2PaMn(Co4P3)2
_chemical_formula_sum   'Y4 Pa2 Mn2 Co16 P12'
_cell_volume   475.15159822
_cell_formula_units_Z   2
loop_
 _symmetry_equiv_pos_site_id
 _symmetry_equiv_pos_as_xyz
  1  'x, y, z'
loop_
 _atom_site_type_symbol
 _atom_site_label
 _atom_site_symmetry_multiplicity
 _atom_site_fract_x
 _atom_site_fract_y
 _atom_site_fract_z
 _atom_site_occupancy
  Y  Y0  1  0.500000  0.815685  0.204356  1
  Y  Y1  1  0.500000  0.184315  0.204356  1
  Y  Y2  1  0.000000  0.684315  0.795644  1
  Y  Y3  1  0.000000  0.315685  0.795644  1
  Pa  Pa4  1  0.000000  0.500000  0.528669  1
  Pa  Pa5  1  0.500000  0.000000  0.471331  1
  Mn  Mn6  1  0.500000  0.500000  0.156146  1
  Mn  Mn7  1  0.000000  0.000000  0.843854  1
  Co  Co8  1  0.500000  0.500000  0.695263  1
  Co  Co9  1  0.000000  0.000000  0.304737  1
  Co  Co10  1  0.000000  0.500000  0.984362  1
  Co  Co11  1  0.500000  0.000000  0.015638  1
  Co  Co12  1  0.500000  0.333812  0.993502  1
  Co  Co13  1  0.500000  0.666188  0.993502  1
  Co  Co14  1  0.000000  0.166188  0.006498  1
  Co  Co15  1  0.000000  0.833812  0.006498  1
  Co  Co16  1  0.500000  0.301010  0.432338  1
  Co  Co17  1  0.500000  0.698990  0.432338  1
  Co  Co18  1  0.000000  0.198990  0.567662  1
  Co  Co19  1  0.000000  0.801010  0.567662  1
  Co  Co20  1  0.500000  0.880082  0.709673  1
  Co  Co21  1  0.500000  0.119918  0.709673  1
  Co  Co22  1  0.000000  0.619918  0.290327  1
  Co  Co23  1  0.000000  0.380082  0.290327  1
  P  P24  1  0.500000  0.500000  0.879547  1
  P  P25  1  0.000000  0.000000  0.120453  1
  P  P26  1  0.500000  0.500000  0.343405  1
  P  P27  1  0.000000  0.000000  0.656595  1
  P  P28  1  0.500000  0.306424  0.616963  1
  P  P29  1  0.500000  0.693576  0.616963  1
  P  P30  1  0.000000  0.193576  0.383037  1
  P  P31  1  0.000000  0.806424  0.383037  1
  P  P32  1  0.500000  0.847863  0.894071  1
  P  P33  1  0.500000  0.152137  0.894071  1
  P  P34  1  0.000000  0.652137  0.105929  1
  P  P35  1  0.000000  0.347863  0.105929  1
