# generated using pymatgen
data_Y2HoEr13(Ga3Co)2
_symmetry_space_group_name_H-M   'P 1'
_cell_length_a   9.94616603
_cell_length_b   9.94616715
_cell_length_c   6.88089602
_cell_angle_alpha   89.99164794
_cell_angle_beta   90.00835388
_cell_angle_gamma   119.99839176
_symmetry_Int_Tables_number   1
_chemical_formula_structural   Y2HoEr13(Ga3Co)2
_chemical_formula_sum   'Y2 Ho1 Er13 Ga6 Co2'
_cell_volume   589.51399070
_cell_formula_units_Z   1
loop_
 _symmetry_equiv_pos_site_id
 _symmetry_equiv_pos_as_xyz
  1  'x, y, z'
loop_
 _atom_site_type_symbol
 _atom_site_label
 _atom_site_symmetry_multiplicity
 _atom_site_fract_x
 _atom_site_fract_y
 _atom_site_fract_z
 _atom_site_occupancy
  Y  Y0  1  0.999950  0.000050  0.270275  1
  Y  Y1  1  0.999976  0.000024  0.770008  1
  Ho  Ho2  1  0.173502  0.826498  0.991066  1
  Er  Er3  1  0.826432  0.173568  0.491058  1
  Er  Er4  1  0.173573  0.347137  0.991077  1
  Er  Er5  1  0.652863  0.826427  0.991077  1
  Er  Er6  1  0.347133  0.173566  0.491075  1
  Er  Er7  1  0.826434  0.652867  0.491075  1
  Er  Er8  1  0.333391  0.666609  0.672094  1
  Er  Er9  1  0.666668  0.333332  0.172251  1
  Er  Er10  1  0.463960  0.536040  0.292950  1
  Er  Er11  1  0.536028  0.463972  0.792943  1
  Er  Er12  1  0.464064  0.927956  0.293076  1
  Er  Er13  1  0.072044  0.535936  0.293076  1
  Er  Er14  1  0.927848  0.463842  0.792872  1
  Er  Er15  1  0.536158  0.072152  0.792872  1
  Ga  Ga16  1  0.163684  0.836316  0.540001  1
  Ga  Ga17  1  0.836312  0.163688  0.040228  1
  Ga  Ga18  1  0.163677  0.327356  0.540214  1
  Ga  Ga19  1  0.672644  0.836323  0.540214  1
  Ga  Ga20  1  0.327502  0.163940  0.040259  1
  Ga  Ga21  1  0.836060  0.672498  0.040259  1
  Co  Co22  1  0.333433  0.666567  0.058071  1
  Co  Co23  1  0.666664  0.333336  0.558032  1
