# generated using pymatgen
data_Tm4In(Si2Rh)2
_symmetry_space_group_name_H-M   'P 1'
_cell_length_a   7.95814155
_cell_length_b   7.95814240
_cell_length_c   6.86909889
_cell_angle_alpha   73.53463038
_cell_angle_beta   106.46537040
_cell_angle_gamma   149.51322217
_symmetry_Int_Tables_number   1
_chemical_formula_structural   Tm4In(Si2Rh)2
_chemical_formula_sum   'Tm4 In1 Si4 Rh2'
_cell_volume   210.97123873
_cell_formula_units_Z   1
loop_
 _symmetry_equiv_pos_site_id
 _symmetry_equiv_pos_as_xyz
  1  'x, y, z'
loop_
 _atom_site_type_symbol
 _atom_site_label
 _atom_site_symmetry_multiplicity
 _atom_site_fract_x
 _atom_site_fract_y
 _atom_site_fract_z
 _atom_site_occupancy
  Tm  Tm0  1  0.414905  0.585094  0.616034  1
  Tm  Tm1  1  0.585093  0.414905  0.383964  1
  Tm  Tm2  1  0.344987  0.655012  0.068707  1
  Tm  Tm3  1  0.655012  0.344986  0.931292  1
  In  In4  1  0.000000  0.000000  0.000000  1
  Si  Si5  1  0.063496  0.936502  0.653657  1
  Si  Si6  1  0.936503  0.063496  0.346344  1
  Si  Si7  1  0.200522  0.799477  0.257771  1
  Si  Si8  1  0.799476  0.200522  0.742230  1
  Rh  Rh9  1  0.218995  0.781003  0.628142  1
  Rh  Rh10  1  0.781004  0.218995  0.371859  1
