# generated using pymatgen
data_NdHo3(LuRh9)2
_symmetry_space_group_name_H-M   'P 1'
_cell_length_a   5.27002500
_cell_length_b   5.27002429
_cell_length_c   17.49679300
_cell_angle_alpha   90.00000000
_cell_angle_beta   90.00000000
_cell_angle_gamma   119.99999817
_symmetry_Int_Tables_number   1
_chemical_formula_structural   NdHo3(LuRh9)2
_chemical_formula_sum   'Nd1 Ho3 Lu2 Rh18'
_cell_volume   420.83745551
_cell_formula_units_Z   1
loop_
 _symmetry_equiv_pos_site_id
 _symmetry_equiv_pos_as_xyz
  1  'x, y, z'
loop_
 _atom_site_type_symbol
 _atom_site_label
 _atom_site_symmetry_multiplicity
 _atom_site_fract_x
 _atom_site_fract_y
 _atom_site_fract_z
 _atom_site_occupancy
  Nd  Nd0  1  0.666667  0.333333  0.249694  1
  Ho  Ho1  1  0.666667  0.333333  0.459712  1
  Ho  Ho2  1  0.333333  0.666667  0.958509  1
  Ho  Ho3  1  0.333333  0.666667  0.749725  1
  Lu  Lu4  1  0.333333  0.666667  0.542377  1
  Lu  Lu5  1  0.666667  0.333333  0.041146  1
  Rh  Rh6  1  0.167284  0.334568  0.123988  1
  Rh  Rh7  1  0.832694  0.665388  0.624965  1
  Rh  Rh8  1  0.665432  0.832716  0.123988  1
  Rh  Rh9  1  0.167284  0.832716  0.123988  1
  Rh  Rh10  1  0.832694  0.167306  0.624965  1
  Rh  Rh11  1  0.334612  0.167306  0.624965  1
  Rh  Rh12  1  0.832681  0.665363  0.874727  1
  Rh  Rh13  1  0.832681  0.167319  0.874727  1
  Rh  Rh14  1  0.334637  0.167319  0.874727  1
  Rh  Rh15  1  0.665393  0.832696  0.375771  1
  Rh  Rh16  1  0.167304  0.832696  0.375771  1
  Rh  Rh17  1  0.167304  0.334607  0.375771  1
  Rh  Rh18  1  0.000000  0.000000  0.250162  1
  Rh  Rh19  1  0.000000  0.000000  0.750193  1
  Rh  Rh20  1  0.333333  0.666667  0.249852  1
  Rh  Rh21  1  0.666667  0.333333  0.749900  1
  Rh  Rh22  1  0.000000  0.000000  0.999729  1
  Rh  Rh23  1  0.000000  0.000000  0.500647  1
