# generated using pymatgen
data_Tb5Er5Cd4(InPd)4
_symmetry_space_group_name_H-M   'P 1'
_cell_length_a   3.61101800
_cell_length_b   8.09800965
_cell_length_c   18.34157187
_cell_angle_alpha   89.92614776
_cell_angle_beta   90.00000000
_cell_angle_gamma   90.00000000
_symmetry_Int_Tables_number   1
_chemical_formula_structural   Tb5Er5Cd4(InPd)4
_chemical_formula_sum   'Tb5 Er5 Cd4 In4 Pd4'
_cell_volume   536.34487442
_cell_formula_units_Z   1
loop_
 _symmetry_equiv_pos_site_id
 _symmetry_equiv_pos_as_xyz
  1  'x, y, z'
loop_
 _atom_site_type_symbol
 _atom_site_label
 _atom_site_symmetry_multiplicity
 _atom_site_fract_x
 _atom_site_fract_y
 _atom_site_fract_z
 _atom_site_occupancy
  Tb  Tb0  1  0.000000  0.500219  0.499630  1
  Tb  Tb1  1  0.000000  0.999801  0.000022  1
  Tb  Tb2  1  0.000000  0.745952  0.281648  1
  Tb  Tb3  1  0.000000  0.254809  0.718096  1
  Tb  Tb4  1  0.000000  0.754244  0.781737  1
  Er  Er5  1  0.000000  0.245532  0.218422  1
  Er  Er6  1  0.000000  0.614261  0.084511  1
  Er  Er7  1  0.000000  0.384732  0.916491  1
  Er  Er8  1  0.000000  0.885149  0.583740  1
  Er  Er9  1  0.000000  0.115575  0.415620  1
  Cd  Cd10  1  0.500000  0.706512  0.933342  1
  Cd  Cd11  1  0.500000  0.292297  0.067890  1
  Cd  Cd12  1  0.500000  0.793910  0.433167  1
  Cd  Cd13  1  0.500000  0.206623  0.566231  1
  In  In14  1  0.500000  0.573797  0.647661  1
  In  In15  1  0.500000  0.425542  0.351520  1
  In  In16  1  0.500000  0.928175  0.148000  1
  In  In17  1  0.500000  0.073678  0.852046  1
  Pd  Pd18  1  0.500000  0.525896  0.196210  1
  Pd  Pd19  1  0.500000  0.470188  0.804687  1
  Pd  Pd20  1  0.500000  0.970320  0.696045  1
  Pd  Pd21  1  0.500000  0.032789  0.303284  1
