# generated using pymatgen
data_La20IrOs4Pt7
_symmetry_space_group_name_H-M   'P 1'
_cell_length_a   11.56281314
_cell_length_b   11.56281314
_cell_length_c   6.68951076
_cell_angle_alpha   90.10664555
_cell_angle_beta   90.10664555
_cell_angle_gamma   90.06904499
_symmetry_Int_Tables_number   1
_chemical_formula_structural   La20IrOs4Pt7
_chemical_formula_sum   'La20 Ir1 Os4 Pt7'
_cell_volume   894.37479150
_cell_formula_units_Z   1
loop_
 _symmetry_equiv_pos_site_id
 _symmetry_equiv_pos_as_xyz
  1  'x, y, z'
loop_
 _atom_site_type_symbol
 _atom_site_label
 _atom_site_symmetry_multiplicity
 _atom_site_fract_x
 _atom_site_fract_y
 _atom_site_fract_z
 _atom_site_occupancy
  La  La0  1  0.297874  0.086609  0.381296  1
  La  La1  1  0.299344  0.906919  0.881415  1
  La  La2  1  0.701816  0.087317  0.881561  1
  La  La3  1  0.700642  0.912230  0.379087  1
  La  La4  1  0.586221  0.796515  0.880356  1
  La  La5  1  0.587093  0.203327  0.381827  1
  La  La6  1  0.410160  0.795912  0.387363  1
  La  La7  1  0.411139  0.200070  0.879622  1
  La  La8  1  0.203485  0.413779  0.619644  1
  La  La9  1  0.204088  0.589840  0.112637  1
  La  La10  1  0.796673  0.412907  0.118173  1
  La  La11  1  0.799930  0.588861  0.620378  1
  La  La12  1  0.913391  0.702126  0.118704  1
  La  La13  1  0.912683  0.298184  0.618439  1
  La  La14  1  0.093081  0.700656  0.618585  1
  La  La15  1  0.087770  0.299358  0.120913  1
  La  La16  1  0.999998  0.999501  0.500565  1
  La  La17  1  0.000499  0.000002  0.999435  1
  La  La18  1  0.496492  0.502617  0.999029  1
  La  La19  1  0.497383  0.503508  0.500971  1
  Ir  Ir20  1  0.349378  0.650622  0.750000  1
  Os  Os21  1  0.500375  0.000055  0.127360  1
  Os  Os22  1  0.500404  0.001075  0.626120  1
  Os  Os23  1  0.998925  0.499596  0.873880  1
  Os  Os24  1  0.999945  0.499625  0.372640  1
  Pt  Pt25  1  0.846957  0.153043  0.250000  1
  Pt  Pt26  1  0.846451  0.848201  0.749836  1
  Pt  Pt27  1  0.151799  0.153549  0.750164  1
  Pt  Pt28  1  0.152804  0.847196  0.250000  1
  Pt  Pt29  1  0.651419  0.348581  0.750000  1
  Pt  Pt30  1  0.654752  0.652973  0.250276  1
  Pt  Pt31  1  0.347027  0.345248  0.249724  1
