# generated using pymatgen
data_Nd3Si2GeRh6
_symmetry_space_group_name_H-M   'P 1'
_cell_length_a   5.68497800
_cell_length_b   5.68497632
_cell_length_c   15.31685900
_cell_angle_alpha   90.00000000
_cell_angle_beta   90.00000000
_cell_angle_gamma   119.99999817
_symmetry_Int_Tables_number   1
_chemical_formula_structural   Nd3Si2GeRh6
_chemical_formula_sum   'Nd6 Si4 Ge2 Rh12'
_cell_volume   428.70426311
_cell_formula_units_Z   2
loop_
 _symmetry_equiv_pos_site_id
 _symmetry_equiv_pos_as_xyz
  1  'x, y, z'
loop_
 _atom_site_type_symbol
 _atom_site_label
 _atom_site_symmetry_multiplicity
 _atom_site_fract_x
 _atom_site_fract_y
 _atom_site_fract_z
 _atom_site_occupancy
  Nd  Nd0  1  0.666667  0.333333  0.962179  1
  Nd  Nd1  1  0.666667  0.333333  0.537821  1
  Nd  Nd2  1  0.333333  0.666667  0.037821  1
  Nd  Nd3  1  0.666667  0.333333  0.750000  1
  Nd  Nd4  1  0.333333  0.666667  0.462179  1
  Nd  Nd5  1  0.333333  0.666667  0.250000  1
  Si  Si6  1  0.666667  0.333333  0.250000  1
  Si  Si7  1  0.000000  0.000000  0.250000  1
  Si  Si8  1  0.000000  0.000000  0.750000  1
  Si  Si9  1  0.333333  0.666667  0.750000  1
  Ge  Ge10  1  0.000000  0.000000  0.500000  1
  Ge  Ge11  1  0.000000  0.000000  0.000000  1
  Rh  Rh12  1  0.165987  0.331974  0.864264  1
  Rh  Rh13  1  0.165987  0.331974  0.635736  1
  Rh  Rh14  1  0.668026  0.834013  0.864264  1
  Rh  Rh15  1  0.331974  0.165987  0.364264  1
  Rh  Rh16  1  0.834013  0.668026  0.364264  1
  Rh  Rh17  1  0.834013  0.165987  0.364264  1
  Rh  Rh18  1  0.834013  0.165987  0.135736  1
  Rh  Rh19  1  0.331974  0.165987  0.135736  1
  Rh  Rh20  1  0.668026  0.834013  0.635736  1
  Rh  Rh21  1  0.165987  0.834013  0.635736  1
  Rh  Rh22  1  0.834013  0.668026  0.135736  1
  Rh  Rh23  1  0.165987  0.834013  0.864264  1
