# generated using pymatgen
data_Na7Zr(SO4)6
_symmetry_space_group_name_H-M   'P 1'
_cell_length_a   8.52369885
_cell_length_b   8.52369809
_cell_length_c   8.52369783
_cell_angle_alpha   107.42096715
_cell_angle_beta   107.42097058
_cell_angle_gamma   107.42098409
_symmetry_Int_Tables_number   1
_chemical_formula_structural   Na7Zr(SO4)6
_chemical_formula_sum   'Na7 Zr1 S6 O24'
_cell_volume   509.70036490
_cell_formula_units_Z   1
loop_
 _symmetry_equiv_pos_site_id
 _symmetry_equiv_pos_as_xyz
  1  'x, y, z'
loop_
 _atom_site_type_symbol
 _atom_site_label
 _atom_site_symmetry_multiplicity
 _atom_site_fract_x
 _atom_site_fract_y
 _atom_site_fract_z
 _atom_site_occupancy
  Na  Na0  1  0.500000  0.500000  0.500000  1
  Na  Na1  1  0.845408  0.348136  0.692485  1
  Na  Na2  1  0.348136  0.692485  0.845408  1
  Na  Na3  1  0.692485  0.845408  0.348136  1
  Na  Na4  1  0.154592  0.651864  0.307515  1
  Na  Na5  1  0.651864  0.307515  0.154592  1
  Na  Na6  1  0.307515  0.154592  0.651864  1
  Zr  Zr7  1  0.000000  0.000000  0.000000  1
  S  S8  1  0.961865  0.741763  0.587992  1
  S  S9  1  0.741763  0.587992  0.961865  1
  S  S10  1  0.587992  0.961865  0.741763  1
  S  S11  1  0.038135  0.258237  0.412008  1
  S  S12  1  0.258237  0.412008  0.038135  1
  S  S13  1  0.412008  0.038135  0.258237  1
  O  O14  1  0.496952  0.927539  0.181120  1
  O  O15  1  0.927539  0.181120  0.496952  1
  O  O16  1  0.181120  0.496952  0.927539  1
  O  O17  1  0.503048  0.072461  0.818880  1
  O  O18  1  0.072461  0.818880  0.503048  1
  O  O19  1  0.818880  0.503048  0.072461  1
  O  O20  1  0.323817  0.966804  0.361765  1
  O  O21  1  0.966804  0.361765  0.323817  1
  O  O22  1  0.361765  0.323817  0.966804  1
  O  O23  1  0.676183  0.033196  0.638235  1
  O  O24  1  0.033196  0.638235  0.676183  1
  O  O25  1  0.638235  0.676183  0.033196  1
  O  O26  1  0.733135  0.971399  0.907014  1
  O  O27  1  0.971399  0.907014  0.733135  1
  O  O28  1  0.633790  0.456948  0.767871  1
  O  O29  1  0.767871  0.633790  0.456948  1
  O  O30  1  0.456948  0.767871  0.633790  1
  O  O31  1  0.366210  0.543052  0.232129  1
  O  O32  1  0.232129  0.366210  0.543052  1
  O  O33  1  0.543052  0.232129  0.366210  1
  O  O34  1  0.092986  0.266865  0.028601  1
  O  O35  1  0.028601  0.092986  0.266865  1
  O  O36  1  0.266865  0.028601  0.092986  1
  O  O37  1  0.907014  0.733135  0.971399  1
