# generated using pymatgen
data_Cs2RbCo2Br9
_symmetry_space_group_name_H-M   'P 1'
_cell_length_a   7.58486954
_cell_length_b   7.58234203
_cell_length_c   19.16423000
_cell_angle_alpha   90.00000000
_cell_angle_beta   90.00000000
_cell_angle_gamma   120.00119275
_symmetry_Int_Tables_number   1
_chemical_formula_structural   Cs2RbCo2Br9
_chemical_formula_sum   'Cs4 Rb2 Co4 Br18'
_cell_volume   954.48316446
_cell_formula_units_Z   2
loop_
 _symmetry_equiv_pos_site_id
 _symmetry_equiv_pos_as_xyz
  1  'x, y, z'
loop_
 _atom_site_type_symbol
 _atom_site_label
 _atom_site_symmetry_multiplicity
 _atom_site_fract_x
 _atom_site_fract_y
 _atom_site_fract_z
 _atom_site_occupancy
  Cs  Cs0  1  0.666683  0.333317  0.569280  1
  Cs  Cs1  1  0.333317  0.666683  0.069280  1
  Cs  Cs2  1  0.333317  0.666683  0.430720  1
  Cs  Cs3  1  0.666683  0.333317  0.930720  1
  Rb  Rb4  1  0.000038  0.999948  0.250000  1
  Rb  Rb5  1  0.999962  0.000052  0.750000  1
  Co  Co6  1  0.333333  0.666709  0.668551  1
  Co  Co7  1  0.666667  0.333291  0.331449  1
  Co  Co8  1  0.333333  0.666709  0.831449  1
  Co  Co9  1  0.666667  0.333291  0.168551  1
  Br  Br10  1  0.817962  0.635851  0.401213  1
  Br  Br11  1  0.182076  0.817979  0.598734  1
  Br  Br12  1  0.635854  0.817910  0.598759  1
  Br  Br13  1  0.817924  0.182021  0.401266  1
  Br  Br14  1  0.364146  0.182090  0.401241  1
  Br  Br15  1  0.182038  0.364149  0.901213  1
  Br  Br16  1  0.044075  0.522140  0.750000  1
  Br  Br17  1  0.635854  0.817910  0.901241  1
  Br  Br18  1  0.817962  0.635851  0.098787  1
  Br  Br19  1  0.182038  0.364149  0.598787  1
  Br  Br20  1  0.477796  0.955788  0.750000  1
  Br  Br21  1  0.522075  0.477886  0.250000  1
  Br  Br22  1  0.477925  0.522114  0.750000  1
  Br  Br23  1  0.182076  0.817979  0.901266  1
  Br  Br24  1  0.364146  0.182090  0.098759  1
  Br  Br25  1  0.955925  0.477860  0.250000  1
  Br  Br26  1  0.522204  0.044212  0.250000  1
  Br  Br27  1  0.817924  0.182021  0.098734  1
