# generated using pymatgen
data_Nd8Ho12Si15Tc
_symmetry_space_group_name_H-M   'P 1'
_cell_length_a   7.49591158
_cell_length_b   7.78437706
_cell_length_c   14.80053800
_cell_angle_alpha   90.00000000
_cell_angle_beta   90.00000000
_cell_angle_gamma   89.62770929
_symmetry_Int_Tables_number   1
_chemical_formula_structural   Nd8Ho12Si15Tc
_chemical_formula_sum   'Nd8 Ho12 Si15 Tc1'
_cell_volume   863.60799361
_cell_formula_units_Z   1
loop_
 _symmetry_equiv_pos_site_id
 _symmetry_equiv_pos_as_xyz
  1  'x, y, z'
loop_
 _atom_site_type_symbol
 _atom_site_label
 _atom_site_symmetry_multiplicity
 _atom_site_fract_x
 _atom_site_fract_y
 _atom_site_fract_z
 _atom_site_occupancy
  Nd  Nd0  1  0.970115  0.816460  0.098514  1
  Nd  Nd1  1  0.479857  0.678329  0.401072  1
  Nd  Nd2  1  0.525560  0.320846  0.900728  1
  Nd  Nd3  1  0.024556  0.177715  0.597470  1
  Nd  Nd4  1  0.024556  0.177715  0.902530  1
  Nd  Nd5  1  0.525560  0.320846  0.599272  1
  Nd  Nd6  1  0.479857  0.678329  0.098928  1
  Nd  Nd7  1  0.970115  0.816460  0.401486  1
  Ho  Ho8  1  0.655357  0.981257  0.250000  1
  Ho  Ho9  1  0.138763  0.515162  0.250000  1
  Ho  Ho10  1  0.851925  0.487417  0.750000  1
  Ho  Ho11  1  0.350378  0.009400  0.750000  1
  Ho  Ho12  1  0.680909  0.821455  0.876587  1
  Ho  Ho13  1  0.180988  0.680637  0.622109  1
  Ho  Ho14  1  0.815445  0.329303  0.125511  1
  Ho  Ho15  1  0.319571  0.176187  0.376517  1
  Ho  Ho16  1  0.319571  0.176187  0.123483  1
  Ho  Ho17  1  0.815445  0.329303  0.374489  1
  Ho  Ho18  1  0.180988  0.680637  0.877891  1
  Ho  Ho19  1  0.680909  0.821455  0.623413  1
  Si  Si20  1  0.264761  0.883977  0.250000  1
  Si  Si21  1  0.732800  0.121384  0.750000  1
  Si  Si22  1  0.231414  0.379713  0.750000  1
  Si  Si23  1  0.027795  0.111728  0.250000  1
  Si  Si24  1  0.519824  0.390393  0.250000  1
  Si  Si25  1  0.475085  0.612919  0.750000  1
  Si  Si26  1  0.975003  0.885749  0.750000  1
  Si  Si27  1  0.857129  0.528808  0.958830  1
  Si  Si28  1  0.357638  0.972667  0.541355  1
  Si  Si29  1  0.644659  0.033197  0.038678  1
  Si  Si30  1  0.148310  0.464433  0.461795  1
  Si  Si31  1  0.148310  0.464433  0.038205  1
  Si  Si32  1  0.644659  0.033197  0.461322  1
  Si  Si33  1  0.357638  0.972667  0.958645  1
  Si  Si34  1  0.857129  0.528808  0.541170  1
  Tc  Tc35  1  0.767420  0.620823  0.250000  1
