# generated using pymatgen
data_Pr16Lu4SnPb15
_symmetry_space_group_name_H-M   'P 1'
_cell_length_a   8.36473425
_cell_length_b   8.52228926
_cell_length_c   16.17240600
_cell_angle_alpha   90.00000000
_cell_angle_beta   90.00000000
_cell_angle_gamma   89.97171683
_symmetry_Int_Tables_number   1
_chemical_formula_structural   Pr16Lu4SnPb15
_chemical_formula_sum   'Pr16 Lu4 Sn1 Pb15'
_cell_volume   1152.87707011
_cell_formula_units_Z   1
loop_
 _symmetry_equiv_pos_site_id
 _symmetry_equiv_pos_as_xyz
  1  'x, y, z'
loop_
 _atom_site_type_symbol
 _atom_site_label
 _atom_site_symmetry_multiplicity
 _atom_site_fract_x
 _atom_site_fract_y
 _atom_site_fract_z
 _atom_site_occupancy
  Pr  Pr0  1  0.365543  0.840905  0.879161  1
  Pr  Pr1  1  0.865575  0.659055  0.620809  1
  Pr  Pr2  1  0.634199  0.159244  0.378716  1
  Pr  Pr3  1  0.134497  0.341986  0.121424  1
  Pr  Pr4  1  0.634199  0.159244  0.121284  1
  Pr  Pr5  1  0.134497  0.341986  0.378576  1
  Pr  Pr6  1  0.365543  0.840905  0.620839  1
  Pr  Pr7  1  0.865575  0.659055  0.879191  1
  Pr  Pr8  1  0.520955  0.319542  0.902052  1
  Pr  Pr9  1  0.020791  0.180547  0.597859  1
  Pr  Pr10  1  0.477309  0.680509  0.401228  1
  Pr  Pr11  1  0.980962  0.817970  0.099783  1
  Pr  Pr12  1  0.477309  0.680509  0.098772  1
  Pr  Pr13  1  0.980962  0.817970  0.400217  1
  Pr  Pr14  1  0.520955  0.319542  0.597948  1
  Pr  Pr15  1  0.020791  0.180547  0.902141  1
  Lu  Lu16  1  0.197971  0.502999  0.750000  1
  Lu  Lu17  1  0.697833  0.997066  0.750000  1
  Lu  Lu18  1  0.804970  0.498584  0.250000  1
  Lu  Lu19  1  0.299951  0.999031  0.250000  1
  Sn  Sn20  1  0.171574  0.651167  0.250000  1
  Pb  Pb21  1  0.290600  0.035024  0.045981  1
  Pb  Pb22  1  0.790347  0.466188  0.453992  1
  Pb  Pb23  1  0.709310  0.965531  0.545223  1
  Pb  Pb24  1  0.209187  0.534205  0.954430  1
  Pb  Pb25  1  0.709310  0.965531  0.954777  1
  Pb  Pb26  1  0.209187  0.534205  0.545570  1
  Pb  Pb27  1  0.290600  0.035024  0.454019  1
  Pb  Pb28  1  0.790347  0.466188  0.046008  1
  Pb  Pb29  1  0.559025  0.621102  0.750000  1
  Pb  Pb30  1  0.058668  0.879151  0.750000  1
  Pb  Pb31  1  0.441253  0.381683  0.250000  1
  Pb  Pb32  1  0.941029  0.121545  0.250000  1
  Pb  Pb33  1  0.329432  0.154984  0.750000  1
  Pb  Pb34  1  0.830122  0.345665  0.750000  1
  Pb  Pb35  1  0.669625  0.845613  0.250000  1
