# generated using pymatgen
data_Ba4Li3InSn6
_symmetry_space_group_name_H-M   'P 1'
_cell_length_a   11.15956686
_cell_length_b   11.15956581
_cell_length_c   7.85387856
_cell_angle_alpha   89.45975494
_cell_angle_beta   89.45975661
_cell_angle_gamma   27.07288792
_symmetry_Int_Tables_number   1
_chemical_formula_structural   Ba4Li3InSn6
_chemical_formula_sum   'Ba4 Li3 In1 Sn6'
_cell_volume   445.13091740
_cell_formula_units_Z   1
loop_
 _symmetry_equiv_pos_site_id
 _symmetry_equiv_pos_as_xyz
  1  'x, y, z'
loop_
 _atom_site_type_symbol
 _atom_site_label
 _atom_site_symmetry_multiplicity
 _atom_site_fract_x
 _atom_site_fract_y
 _atom_site_fract_z
 _atom_site_occupancy
  Ba  Ba0  1  0.659395  0.659395  0.247702  1
  Ba  Ba1  1  0.339279  0.339279  0.761369  1
  Ba  Ba2  1  0.447431  0.447431  0.252549  1
  Ba  Ba3  1  0.551746  0.551746  0.745124  1
  Li  Li4  1  0.190612  0.190612  0.560079  1
  Li  Li5  1  0.811820  0.811820  0.064638  1
  Li  Li6  1  0.189611  0.189611  0.932331  1
  In  In7  1  0.806992  0.806992  0.442339  1
  Sn  Sn8  1  0.277979  0.277979  0.236999  1
  Sn  Sn9  1  0.721390  0.721390  0.758601  1
  Sn  Sn10  1  0.938439  0.938439  0.939696  1
  Sn  Sn11  1  0.063282  0.063282  0.059920  1
  Sn  Sn12  1  0.939548  0.939548  0.572564  1
  Sn  Sn13  1  0.062475  0.062475  0.426089  1
