# generated using pymatgen
data_TbU6BiF30
_symmetry_space_group_name_H-M   'P 1'
_cell_length_a   8.70322798
_cell_length_b   8.70322714
_cell_length_c   8.72250201
_cell_angle_alpha   79.61708956
_cell_angle_beta   79.61709737
_cell_angle_gamma   100.10271697
_symmetry_Int_Tables_number   1
_chemical_formula_structural   TbU6BiF30
_chemical_formula_sum   'Tb1 U6 Bi1 F30'
_cell_volume   624.30442209
_cell_formula_units_Z   1
loop_
 _symmetry_equiv_pos_site_id
 _symmetry_equiv_pos_as_xyz
  1  'x, y, z'
loop_
 _atom_site_type_symbol
 _atom_site_label
 _atom_site_symmetry_multiplicity
 _atom_site_fract_x
 _atom_site_fract_y
 _atom_site_fract_z
 _atom_site_occupancy
  Tb  Tb0  1  0.177068  0.822932  0.250000  1
  U  U1  1  0.749834  0.250166  0.250000  1
  U  U2  1  0.249894  0.750106  0.750000  1
  U  U3  1  0.753636  0.678706  0.674785  1
  U  U4  1  0.321294  0.246364  0.825215  1
  U  U5  1  0.247660  0.321967  0.323286  1
  U  U6  1  0.678033  0.752340  0.176714  1
  Bi  Bi7  1  0.822951  0.177049  0.750000  1
  F  F8  1  0.467114  0.532886  0.250000  1
  F  F9  1  0.749004  0.959534  0.966721  1
  F  F10  1  0.040466  0.250996  0.533279  1
  F  F11  1  0.249416  0.036534  0.036966  1
  F  F12  1  0.963466  0.750584  0.463034  1
  F  F13  1  0.533873  0.466127  0.750000  1
  F  F14  1  0.222253  0.491181  0.776781  1
  F  F15  1  0.225078  0.726487  0.004178  1
  F  F16  1  0.990336  0.724099  0.779353  1
  F  F17  1  0.723807  0.990168  0.280371  1
  F  F18  1  0.720938  0.225699  0.503404  1
  F  F19  1  0.491086  0.222053  0.277046  1
  F  F20  1  0.777948  0.508914  0.222954  1
  F  F21  1  0.774301  0.279062  0.996596  1
  F  F22  1  0.009832  0.276193  0.219629  1
  F  F23  1  0.275901  0.009664  0.720647  1
  F  F24  1  0.273513  0.774922  0.495822  1
  F  F25  1  0.508819  0.777747  0.723219  1
  F  F26  1  0.545152  0.154642  0.815103  1
  F  F27  1  0.189246  0.055751  0.343868  1
  F  F28  1  0.652244  0.683702  0.445206  1
  F  F29  1  0.684788  0.652740  0.944521  1
  F  F30  1  0.057076  0.187214  0.849747  1
  F  F31  1  0.159804  0.551781  0.310763  1
  F  F32  1  0.448219  0.840196  0.189237  1
  F  F33  1  0.812786  0.942924  0.650253  1
  F  F34  1  0.347260  0.315212  0.555479  1
  F  F35  1  0.316298  0.347756  0.054794  1
  F  F36  1  0.944249  0.810754  0.156132  1
  F  F37  1  0.845358  0.454848  0.684897  1
