# generated using pymatgen
data_Nd10C2Cl15
_symmetry_space_group_name_H-M   'P 1'
_cell_length_a   8.94245815
_cell_length_b   9.74874794
_cell_length_c   10.54975024
_cell_angle_alpha   90.76873304
_cell_angle_beta   114.61483757
_cell_angle_gamma   111.04365567
_symmetry_Int_Tables_number   1
_chemical_formula_structural   Nd10C2Cl15
_chemical_formula_sum   'Nd10 C2 Cl15'
_cell_volume   765.83388741
_cell_formula_units_Z   1
loop_
 _symmetry_equiv_pos_site_id
 _symmetry_equiv_pos_as_xyz
  1  'x, y, z'
loop_
 _atom_site_type_symbol
 _atom_site_label
 _atom_site_symmetry_multiplicity
 _atom_site_fract_x
 _atom_site_fract_y
 _atom_site_fract_z
 _atom_site_occupancy
  Nd  Nd0  1  0.805820  0.415516  0.276179  1
  Nd  Nd1  1  0.194180  0.584484  0.723821  1
  Nd  Nd2  1  0.678224  0.743746  0.821001  1
  Nd  Nd3  1  0.321776  0.256254  0.178999  1
  Nd  Nd4  1  0.525420  0.697840  0.095529  1
  Nd  Nd5  1  0.474580  0.302160  0.904471  1
  Nd  Nd6  1  0.590088  0.041348  0.331829  1
  Nd  Nd7  1  0.409912  0.958652  0.668171  1
  Nd  Nd8  1  0.727071  0.075431  0.048402  1
  Nd  Nd9  1  0.272929  0.924569  0.951598  1
  C  C10  1  0.465113  0.820842  0.874057  1
  C  C11  1  0.534887  0.179158  0.125943  1
  Cl  Cl12  1  0.000000  0.000000  0.000000  1
  Cl  Cl13  1  0.636770  0.882309  0.586162  1
  Cl  Cl14  1  0.363230  0.117691  0.413838  1
  Cl  Cl15  1  0.883174  0.300271  0.525340  1
  Cl  Cl16  1  0.116826  0.699729  0.474660  1
  Cl  Cl17  1  0.297077  0.765435  0.180863  1
  Cl  Cl18  1  0.702923  0.234565  0.819137  1
  Cl  Cl19  1  0.055338  0.342128  0.226468  1
  Cl  Cl20  1  0.170593  0.059437  0.706044  1
  Cl  Cl21  1  0.829407  0.940563  0.293956  1
  Cl  Cl22  1  0.230575  0.409628  0.944436  1
  Cl  Cl23  1  0.769425  0.590372  0.055564  1
  Cl  Cl24  1  0.406601  0.466471  0.658172  1
  Cl  Cl25  1  0.593399  0.533529  0.341828  1
  Cl  Cl26  1  0.944662  0.657872  0.773532  1
