# generated using pymatgen
data_YLu3Ir4F28
_symmetry_space_group_name_H-M   'P 1'
_cell_length_a   5.51979620
_cell_length_b   8.82695767
_cell_length_c   11.81837930
_cell_angle_alpha   62.83761315
_cell_angle_beta   90.02953285
_cell_angle_gamma   90.02023334
_symmetry_Int_Tables_number   1
_chemical_formula_structural   YLu3Ir4F28
_chemical_formula_sum   'Y1 Lu3 Ir4 F28'
_cell_volume   512.32255299
_cell_formula_units_Z   1
loop_
 _symmetry_equiv_pos_site_id
 _symmetry_equiv_pos_as_xyz
  1  'x, y, z'
loop_
 _atom_site_type_symbol
 _atom_site_label
 _atom_site_symmetry_multiplicity
 _atom_site_fract_x
 _atom_site_fract_y
 _atom_site_fract_z
 _atom_site_occupancy
  Y  Y0  1  0.739988  0.816197  0.266168  1
  Lu  Lu1  1  0.759864  0.816450  0.765853  1
  Lu  Lu2  1  0.260190  0.183978  0.734262  1
  Lu  Lu3  1  0.238993  0.189000  0.233057  1
  Ir  Ir4  1  0.757919  0.275314  0.953688  1
  Ir  Ir5  1  0.257083  0.725807  0.547644  1
  Ir  Ir6  1  0.243525  0.726078  0.042145  1
  Ir  Ir7  1  0.742735  0.271003  0.456446  1
  F  F8  1  0.451485  0.705017  0.915074  1
  F  F9  1  0.952024  0.293396  0.582696  1
  F  F10  1  0.549533  0.295519  0.081006  1
  F  F11  1  0.052488  0.703840  0.419834  1
  F  F12  1  0.447498  0.279925  0.549050  1
  F  F13  1  0.945751  0.718659  0.950575  1
  F  F14  1  0.551857  0.715626  0.456919  1
  F  F15  1  0.052650  0.282943  0.046883  1
  F  F16  1  0.766788  0.521935  0.856553  1
  F  F17  1  0.265506  0.478413  0.644420  1
  F  F18  1  0.233732  0.478483  0.141138  1
  F  F19  1  0.732198  0.517361  0.358398  1
  F  F20  1  0.757746  0.028535  0.048114  1
  F  F21  1  0.257969  0.972419  0.451552  1
  F  F22  1  0.243443  0.973790  0.947689  1
  F  F23  1  0.742897  0.024022  0.551779  1
  F  F24  1  0.969213  0.731330  0.644511  1
  F  F25  1  0.471886  0.269278  0.855639  1
  F  F26  1  0.030320  0.268730  0.358090  1
  F  F27  1  0.531366  0.728755  0.139379  1
  F  F28  1  0.043927  0.744902  0.173131  1
  F  F29  1  0.537732  0.250851  0.326781  1
  F  F30  1  0.962762  0.253560  0.824929  1
  F  F31  1  0.460865  0.747286  0.676654  1
  F  F32  1  0.414907  0.977558  0.232491  1
  F  F33  1  0.924810  0.033495  0.267529  1
  F  F34  1  0.574306  0.025556  0.766576  1
  F  F35  1  0.074046  0.974991  0.733348  1
