# generated using pymatgen
data_Zr6CoP5Ru6
_symmetry_space_group_name_H-M   'P 1'
_cell_length_a   7.53270340
_cell_length_b   7.54327569
_cell_length_c   7.53270426
_cell_angle_alpha   128.72268375
_cell_angle_beta   119.40754040
_cell_angle_gamma   83.26465571
_symmetry_Int_Tables_number   1
_chemical_formula_structural   Zr6CoP5Ru6
_chemical_formula_sum   'Zr6 Co1 P5 Ru6'
_cell_volume   279.32204299
_cell_formula_units_Z   1
loop_
 _symmetry_equiv_pos_site_id
 _symmetry_equiv_pos_as_xyz
  1  'x, y, z'
loop_
 _atom_site_type_symbol
 _atom_site_label
 _atom_site_symmetry_multiplicity
 _atom_site_fract_x
 _atom_site_fract_y
 _atom_site_fract_z
 _atom_site_occupancy
  Zr  Zr0  1  0.442215  0.642520  0.700304  1
  Zr  Zr1  1  0.532479  0.250152  0.217674  1
  Zr  Zr2  1  0.749343  0.839504  0.590161  1
  Zr  Zr3  1  0.249813  0.854744  0.104929  1
  Zr  Zr4  1  0.059911  0.257128  0.697216  1
  Zr  Zr5  1  0.964515  0.679479  0.214964  1
  Co  Co6  1  0.252983  0.246467  0.493486  1
  P  P7  1  0.747090  0.263209  0.016118  1
  P  P8  1  0.334274  0.586199  0.252894  1
  P  P9  1  0.668487  0.918883  0.254092  1
  P  P10  1  0.164792  0.918883  0.750396  1
  P  P11  1  0.833305  0.586199  0.751925  1
  Ru  Ru12  1  0.509862  0.495973  0.005911  1
  Ru  Ru13  1  0.990062  0.495973  0.486110  1
  Ru  Ru14  1  0.100476  0.253034  0.108948  1
  Ru  Ru15  1  0.862594  0.009109  0.115396  1
  Ru  Ru16  1  0.393713  0.009109  0.646516  1
  Ru  Ru17  1  0.644086  0.253034  0.652557  1
