# generated using pymatgen
data_Tb4Al3SiRu4
_symmetry_space_group_name_H-M   'P 1'
_cell_length_a   4.52112200
_cell_length_b   7.25267268
_cell_length_c   7.04746736
_cell_angle_alpha   89.56284702
_cell_angle_beta   90.00000000
_cell_angle_gamma   90.00000000
_symmetry_Int_Tables_number   1
_chemical_formula_structural   Tb4Al3SiRu4
_chemical_formula_sum   'Tb4 Al3 Si1 Ru4'
_cell_volume   231.08126492
_cell_formula_units_Z   1
loop_
 _symmetry_equiv_pos_site_id
 _symmetry_equiv_pos_as_xyz
  1  'x, y, z'
loop_
 _atom_site_type_symbol
 _atom_site_label
 _atom_site_symmetry_multiplicity
 _atom_site_fract_x
 _atom_site_fract_y
 _atom_site_fract_z
 _atom_site_occupancy
  Tb  Tb0  1  0.250000  0.979705  0.808877  1
  Tb  Tb1  1  0.750000  0.024272  0.194450  1
  Tb  Tb2  1  0.250000  0.470586  0.689119  1
  Tb  Tb3  1  0.750000  0.521917  0.311594  1
  Al  Al4  1  0.250000  0.311329  0.109185  1
  Al  Al5  1  0.750000  0.685675  0.891097  1
  Al  Al6  1  0.250000  0.808471  0.395257  1
  Si  Si7  1  0.750000  0.193228  0.601153  1
  Ru  Ru8  1  0.750000  0.856341  0.565129  1
  Ru  Ru9  1  0.250000  0.157829  0.445178  1
  Ru  Ru10  1  0.750000  0.333272  0.923592  1
  Ru  Ru11  1  0.250000  0.657374  0.065370  1
