# generated using pymatgen
data_CsNpCuSe3
_symmetry_space_group_name_H-M   'P 1'
_cell_length_a   8.21655364
_cell_length_b   8.21655416
_cell_length_c   10.69869400
_cell_angle_alpha   90.00000000
_cell_angle_beta   90.00000000
_cell_angle_gamma   150.55556946
_symmetry_Int_Tables_number   1
_chemical_formula_structural   CsNpCuSe3
_chemical_formula_sum   'Cs2 Np2 Cu2 Se6'
_cell_volume   355.06157759
_cell_formula_units_Z   2
loop_
 _symmetry_equiv_pos_site_id
 _symmetry_equiv_pos_as_xyz
  1  'x, y, z'
loop_
 _atom_site_type_symbol
 _atom_site_label
 _atom_site_symmetry_multiplicity
 _atom_site_fract_x
 _atom_site_fract_y
 _atom_site_fract_z
 _atom_site_occupancy
  Cs  Cs0  1  0.744284  0.255716  0.250000  1
  Cs  Cs1  1  0.255716  0.744284  0.750000  1
  Np  Np2  1  0.000000  0.000000  0.500000  1
  Np  Np3  1  0.000000  0.000000  0.000000  1
  Cu  Cu4  1  0.531826  0.468174  0.750000  1
  Cu  Cu5  1  0.468174  0.531826  0.250000  1
  Se  Se6  1  0.614694  0.385306  0.558677  1
  Se  Se7  1  0.385306  0.614694  0.441323  1
  Se  Se8  1  0.057388  0.942612  0.250000  1
  Se  Se9  1  0.942612  0.057388  0.750000  1
  Se  Se10  1  0.614694  0.385306  0.941323  1
  Se  Se11  1  0.385306  0.614694  0.058677  1
