# generated using pymatgen
data_Tb8MgHg3Pd8
_symmetry_space_group_name_H-M   'P 1'
_cell_length_a   7.72258400
_cell_length_b   7.72258400
_cell_length_c   7.51041400
_cell_angle_alpha   90.00000000
_cell_angle_beta   90.00000000
_cell_angle_gamma   90.00000000
_symmetry_Int_Tables_number   1
_chemical_formula_structural   Tb8MgHg3Pd8
_chemical_formula_sum   'Tb8 Mg1 Hg3 Pd8'
_cell_volume   447.90835057
_cell_formula_units_Z   1
loop_
 _symmetry_equiv_pos_site_id
 _symmetry_equiv_pos_as_xyz
  1  'x, y, z'
loop_
 _atom_site_type_symbol
 _atom_site_label
 _atom_site_symmetry_multiplicity
 _atom_site_fract_x
 _atom_site_fract_y
 _atom_site_fract_z
 _atom_site_occupancy
  Tb  Tb0  1  0.655399  0.682293  0.499316  1
  Tb  Tb1  1  0.813897  0.158570  0.499313  1
  Tb  Tb2  1  0.658570  0.686103  0.000687  1
  Tb  Tb3  1  0.817707  0.155399  0.000684  1
  Tb  Tb4  1  0.186103  0.841430  0.499313  1
  Tb  Tb5  1  0.341430  0.313897  0.000687  1
  Tb  Tb6  1  0.182293  0.844601  0.000684  1
  Tb  Tb7  1  0.344601  0.317707  0.499316  1
  Mg  Mg8  1  0.000000  0.500000  0.750000  1
  Hg  Hg9  1  0.000000  0.500000  0.250000  1
  Hg  Hg10  1  0.500000  0.000000  0.750000  1
  Hg  Hg11  1  0.500000  0.000000  0.250000  1
  Pd  Pd12  1  0.638130  0.379854  0.245722  1
  Pd  Pd13  1  0.352942  0.613248  0.753906  1
  Pd  Pd14  1  0.886752  0.852942  0.746094  1
  Pd  Pd15  1  0.647058  0.386752  0.753906  1
  Pd  Pd16  1  0.361870  0.620146  0.245722  1
  Pd  Pd17  1  0.120146  0.138130  0.254278  1
  Pd  Pd18  1  0.879854  0.861870  0.254278  1
  Pd  Pd19  1  0.113248  0.147058  0.746094  1
