# generated using pymatgen
data_Er12InFe3Hg
_symmetry_space_group_name_H-M   'P 1'
_cell_length_a   8.26739888
_cell_length_b   8.26739932
_cell_length_c   8.26739968
_cell_angle_alpha   108.06325466
_cell_angle_beta   109.13845339
_cell_angle_gamma   111.22806698
_symmetry_Int_Tables_number   1
_chemical_formula_structural   Er12InFe3Hg
_chemical_formula_sum   'Er12 In1 Fe3 Hg1'
_cell_volume   434.65072318
_cell_formula_units_Z   1
loop_
 _symmetry_equiv_pos_site_id
 _symmetry_equiv_pos_as_xyz
  1  'x, y, z'
loop_
 _atom_site_type_symbol
 _atom_site_label
 _atom_site_symmetry_multiplicity
 _atom_site_fract_x
 _atom_site_fract_y
 _atom_site_fract_z
 _atom_site_occupancy
  Er  Er0  1  0.189455  0.421975  0.232520  1
  Er  Er1  1  0.810545  0.578025  0.767480  1
  Er  Er2  1  0.189455  0.956935  0.767480  1
  Er  Er3  1  0.946985  0.190047  0.756937  1
  Er  Er4  1  0.810545  0.043065  0.232520  1
  Er  Er5  1  0.053015  0.809953  0.243063  1
  Er  Er6  1  0.433110  0.190047  0.243063  1
  Er  Er7  1  0.566890  0.809953  0.756937  1
  Er  Er8  1  0.308108  0.308454  0.616561  1
  Er  Er9  1  0.691892  0.691546  0.383439  1
  Er  Er10  1  0.691892  0.308454  0.000347  1
  Er  Er11  1  0.308108  0.691546  0.999653  1
  In  In12  1  0.000000  0.500000  0.500000  1
  Fe  Fe13  1  0.384691  0.384691  0.000000  1
  Fe  Fe14  1  0.615309  0.615309  0.000000  1
  Fe  Fe15  1  0.000000  0.000000  0.000000  1
  Hg  Hg16  1  0.500000  0.000000  0.500000  1
