# generated using pymatgen
data_Zn16CoCu9
_symmetry_space_group_name_H-M   'P 1'
_cell_length_a   7.60909763
_cell_length_b   7.69811780
_cell_length_c   7.69811724
_cell_angle_alpha   109.70428431
_cell_angle_beta   109.23714396
_cell_angle_gamma   109.23714188
_symmetry_Int_Tables_number   1
_chemical_formula_structural   Zn16CoCu9
_chemical_formula_sum   'Zn16 Co1 Cu9'
_cell_volume   348.11823834
_cell_formula_units_Z   1
loop_
 _symmetry_equiv_pos_site_id
 _symmetry_equiv_pos_as_xyz
  1  'x, y, z'
loop_
 _atom_site_type_symbol
 _atom_site_label
 _atom_site_symmetry_multiplicity
 _atom_site_fract_x
 _atom_site_fract_y
 _atom_site_fract_z
 _atom_site_occupancy
  Zn  Zn0  1  0.221345  0.000000  0.000000  1
  Zn  Zn1  1  0.996224  0.215315  0.000000  1
  Zn  Zn2  1  0.996224  0.000000  0.215315  1
  Zn  Zn3  1  0.780909  0.784685  0.784685  1
  Zn  Zn4  1  0.351527  0.726312  0.000000  1
  Zn  Zn5  1  0.625215  0.273688  0.273688  1
  Zn  Zn6  1  0.351527  0.000000  0.726312  1
  Zn  Zn7  1  0.721818  0.346254  0.000000  1
  Zn  Zn8  1  0.000730  0.348500  0.722820  1
  Zn  Zn9  1  0.277911  0.625680  0.277180  1
  Zn  Zn10  1  0.277911  0.277180  0.625680  1
  Zn  Zn11  1  0.000730  0.722820  0.348500  1
  Zn  Zn12  1  0.721818  0.000000  0.346254  1
  Zn  Zn13  1  0.652230  0.651500  0.374320  1
  Zn  Zn14  1  0.375564  0.653746  0.653746  1
  Zn  Zn15  1  0.652230  0.374320  0.651500  1
  Co  Co16  1  0.655075  0.000000  0.000000  1
  Cu  Cu17  1  0.000728  0.655955  0.000000  1
  Cu  Cu18  1  0.000728  0.000000  0.655955  1
  Cu  Cu19  1  0.344773  0.344045  0.344045  1
  Cu  Cu20  1  0.998046  0.644466  0.644466  1
  Cu  Cu21  1  0.353580  0.000000  0.355534  1
  Cu  Cu22  1  0.353580  0.355534  0.000000  1
  Cu  Cu23  1  0.001176  0.356976  0.356976  1
  Cu  Cu24  1  0.644200  0.000000  0.643024  1
  Cu  Cu25  1  0.644200  0.643024  0.000000  1
