# generated using pymatgen
data_SrLi2CrO4
_symmetry_space_group_name_H-M   'P 1'
_cell_length_a   5.09208335
_cell_length_b   5.09209275
_cell_length_c   5.32794400
_cell_angle_alpha   121.54464016
_cell_angle_beta   121.54442755
_cell_angle_gamma   63.08872244
_symmetry_Int_Tables_number   1
_chemical_formula_structural   SrLi2CrO4
_chemical_formula_sum   'Sr1 Li2 Cr1 O4'
_cell_volume   97.24688323
_cell_formula_units_Z   1
loop_
 _symmetry_equiv_pos_site_id
 _symmetry_equiv_pos_as_xyz
  1  'x, y, z'
loop_
 _atom_site_type_symbol
 _atom_site_label
 _atom_site_symmetry_multiplicity
 _atom_site_fract_x
 _atom_site_fract_y
 _atom_site_fract_z
 _atom_site_occupancy
  Sr  Sr0  1  0.999998  0.000000  0.999999  1
  Li  Li1  1  0.750003  0.749998  0.250000  1
  Li  Li2  1  0.250001  0.250000  0.750002  1
  Cr  Cr3  1  0.500002  0.500000  0.500001  1
  O  O4  1  0.542445  0.150848  0.150844  1
  O  O5  1  0.457553  0.849154  0.457551  1
  O  O6  1  0.150844  0.542447  0.542447  1
  O  O7  1  0.849153  0.457554  0.849154  1
