# generated using pymatgen
data_Lu7NbAlPd24
_symmetry_space_group_name_H-M   'P 1'
_cell_length_a   8.28509071
_cell_length_b   8.28509063
_cell_length_c   8.28509100
_cell_angle_alpha   89.73786598
_cell_angle_beta   90.26214093
_cell_angle_gamma   90.26212730
_symmetry_Int_Tables_number   1
_chemical_formula_structural   Lu7NbAlPd24
_chemical_formula_sum   'Lu7 Nb1 Al1 Pd24'
_cell_volume   568.69344140
_cell_formula_units_Z   1
loop_
 _symmetry_equiv_pos_site_id
 _symmetry_equiv_pos_as_xyz
  1  'x, y, z'
loop_
 _atom_site_type_symbol
 _atom_site_label
 _atom_site_symmetry_multiplicity
 _atom_site_fract_x
 _atom_site_fract_y
 _atom_site_fract_z
 _atom_site_occupancy
  Lu  Lu0  1  0.250280  0.252807  0.252807  1
  Lu  Lu1  1  0.747888  0.747989  0.747989  1
  Lu  Lu2  1  0.747193  0.749720  0.252807  1
  Lu  Lu3  1  0.747193  0.252807  0.749720  1
  Lu  Lu4  1  0.252011  0.252112  0.747989  1
  Lu  Lu5  1  0.252011  0.747989  0.252112  1
  Lu  Lu6  1  0.253755  0.746245  0.746245  1
  Nb  Nb7  1  0.741561  0.258439  0.258439  1
  Al  Al8  1  0.004276  0.995724  0.995724  1
  Pd  Pd9  1  0.258441  0.497314  0.000764  1
  Pd  Pd10  1  0.741265  0.495249  0.008026  1
  Pd  Pd11  1  0.991974  0.258735  0.495249  1
  Pd  Pd12  1  0.504751  0.258735  0.008026  1
  Pd  Pd13  1  0.999236  0.741559  0.497314  1
  Pd  Pd14  1  0.502686  0.741559  0.000764  1
  Pd  Pd15  1  0.504751  0.008026  0.258735  1
  Pd  Pd16  1  0.258441  0.000764  0.497314  1
  Pd  Pd17  1  0.502686  0.000764  0.741559  1
  Pd  Pd18  1  0.741265  0.008026  0.495249  1
  Pd  Pd19  1  0.991974  0.495249  0.258735  1
  Pd  Pd20  1  0.999236  0.497314  0.741559  1
  Pd  Pd21  1  0.252240  0.498263  0.498263  1
  Pd  Pd22  1  0.746717  0.495338  0.495338  1
  Pd  Pd23  1  0.504662  0.253283  0.495338  1
  Pd  Pd24  1  0.501737  0.747760  0.498263  1
  Pd  Pd25  1  0.504662  0.495338  0.253283  1
  Pd  Pd26  1  0.501737  0.498263  0.747760  1
  Pd  Pd27  1  0.290486  0.999797  0.999797  1
  Pd  Pd28  1  0.716852  0.006183  0.006183  1
  Pd  Pd29  1  0.993817  0.283148  0.006183  1
  Pd  Pd30  1  0.000203  0.709514  0.999797  1
  Pd  Pd31  1  0.993817  0.006183  0.283148  1
  Pd  Pd32  1  0.000203  0.999797  0.709514  1
