# generated using pymatgen
data_Ca9EuPb6F2
_symmetry_space_group_name_H-M   'P 1'
_cell_length_a   9.59966081
_cell_length_b   9.59966015
_cell_length_c   9.60134159
_cell_angle_alpha   128.33041037
_cell_angle_beta   128.33040890
_cell_angle_gamma   75.97807683
_symmetry_Int_Tables_number   1
_chemical_formula_structural   Ca9EuPb6F2
_chemical_formula_sum   'Ca9 Eu1 Pb6 F2'
_cell_volume   529.69840485
_cell_formula_units_Z   1
loop_
 _symmetry_equiv_pos_site_id
 _symmetry_equiv_pos_as_xyz
  1  'x, y, z'
loop_
 _atom_site_type_symbol
 _atom_site_label
 _atom_site_symmetry_multiplicity
 _atom_site_fract_x
 _atom_site_fract_y
 _atom_site_fract_z
 _atom_site_occupancy
  Ca  Ca0  1  0.499735  0.500498  0.999804  1
  Ca  Ca1  1  0.000498  0.999735  0.999804  1
  Ca  Ca2  1  0.188937  0.688937  0.182443  1
  Ca  Ca3  1  0.005203  0.190849  0.500405  1
  Ca  Ca4  1  0.690849  0.505203  0.500405  1
  Ca  Ca5  1  0.494185  0.994185  0.185072  1
  Ca  Ca6  1  0.809876  0.309876  0.815570  1
  Ca  Ca7  1  0.993541  0.809068  0.499366  1
  Ca  Ca8  1  0.309068  0.493541  0.499366  1
  Eu  Eu9  1  0.510529  0.010529  0.822663  1
  Pb  Pb10  1  0.248968  0.250936  0.999857  1
  Pb  Pb11  1  0.750936  0.748968  0.999857  1
  Pb  Pb12  1  0.867820  0.367820  0.235309  1
  Pb  Pb13  1  0.133914  0.633914  0.767116  1
  Pb  Pb14  1  0.365815  0.134542  0.499083  1
  Pb  Pb15  1  0.634542  0.865815  0.499083  1
  F  F16  1  0.245618  0.745618  0.494749  1
  F  F17  1  0.749965  0.249965  0.500052  1
