# generated using pymatgen
data_Nd7SmSi14
_symmetry_space_group_name_H-M   'P 1'
_cell_length_a   7.51748888
_cell_length_b   7.51783187
_cell_length_c   11.70941774
_cell_angle_alpha   90.04444435
_cell_angle_beta   90.01504883
_cell_angle_gamma   134.40640620
_symmetry_Int_Tables_number   1
_chemical_formula_structural   Nd7SmSi14
_chemical_formula_sum   'Nd7 Sm1 Si14'
_cell_volume   472.75743319
_cell_formula_units_Z   1
loop_
 _symmetry_equiv_pos_site_id
 _symmetry_equiv_pos_as_xyz
  1  'x, y, z'
loop_
 _atom_site_type_symbol
 _atom_site_label
 _atom_site_symmetry_multiplicity
 _atom_site_fract_x
 _atom_site_fract_y
 _atom_site_fract_z
 _atom_site_occupancy
  Nd  Nd0  1  0.496581  0.496360  0.500478  1
  Nd  Nd1  1  0.503712  0.503395  0.999694  1
  Nd  Nd2  1  0.002421  0.997422  0.249531  1
  Nd  Nd3  1  0.998053  0.002934  0.750320  1
  Nd  Nd4  1  0.006700  0.501968  0.623018  1
  Nd  Nd5  1  0.501363  0.006235  0.377143  1
  Nd  Nd6  1  0.993610  0.498367  0.122616  1
  Sm  Sm7  1  0.497978  0.992267  0.877486  1
  Si  Si8  1  0.571989  0.427745  0.249784  1
  Si  Si9  1  0.428257  0.573549  0.750479  1
  Si  Si10  1  0.882812  0.561483  0.863707  1
  Si  Si11  1  0.564681  0.886182  0.134489  1
  Si  Si12  1  0.113986  0.435092  0.364629  1
  Si  Si13  1  0.436193  0.115274  0.637514  1
  Si  Si14  1  0.089472  0.426322  0.872524  1
  Si  Si15  1  0.425700  0.089530  0.126874  1
  Si  Si16  1  0.910427  0.081817  0.495154  1
  Si  Si17  1  0.082894  0.911177  0.505367  1
  Si  Si18  1  0.090217  0.917494  0.993984  1
  Si  Si19  1  0.917445  0.089043  0.004160  1
  Si  Si20  1  0.575275  0.911990  0.628641  1
  Si  Si21  1  0.910233  0.574353  0.372409  1
