# generated using pymatgen
data_Tb2Tm10Co5Pb
_symmetry_space_group_name_H-M   'P 1'
_cell_length_a   8.20454655
_cell_length_b   8.20454672
_cell_length_c   8.18430183
_cell_angle_alpha   110.69153428
_cell_angle_beta   110.76597867
_cell_angle_gamma   107.08908773
_symmetry_Int_Tables_number   1
_chemical_formula_structural   Tb2Tm10Co5Pb
_chemical_formula_sum   'Tb2 Tm10 Co5 Pb1'
_cell_volume   422.98059660
_cell_formula_units_Z   1
loop_
 _symmetry_equiv_pos_site_id
 _symmetry_equiv_pos_as_xyz
  1  'x, y, z'
loop_
 _atom_site_type_symbol
 _atom_site_label
 _atom_site_symmetry_multiplicity
 _atom_site_fract_x
 _atom_site_fract_y
 _atom_site_fract_z
 _atom_site_occupancy
  Tb  Tb0  1  0.288325  0.184113  0.472437  1
  Tb  Tb1  1  0.711675  0.815887  0.527563  1
  Tm  Tm2  1  0.287223  0.813819  0.101041  1
  Tm  Tm3  1  0.712777  0.186181  0.898959  1
  Tm  Tm4  1  0.620340  0.311655  0.306089  1
  Tm  Tm5  1  0.379660  0.688345  0.693911  1
  Tm  Tm6  1  0.005565  0.314251  0.693911  1
  Tm  Tm7  1  0.994435  0.685749  0.306089  1
  Tm  Tm8  1  0.209491  0.404483  0.192768  1
  Tm  Tm9  1  0.790509  0.595517  0.807232  1
  Tm  Tm10  1  0.211716  0.016723  0.807232  1
  Tm  Tm11  1  0.788284  0.983277  0.192768  1
  Co  Co12  1  0.999436  0.376031  0.375467  1
  Co  Co13  1  0.000564  0.623969  0.624533  1
  Co  Co14  1  0.387262  0.887262  0.500000  1
  Co  Co15  1  0.612738  0.112738  0.500000  1
  Co  Co16  1  0.000000  0.000000  0.000000  1
  Pb  Pb17  1  0.500000  0.500000  0.000000  1
