# generated using pymatgen
data_Hf3TaTi2Si6(MoRu2)2
_symmetry_space_group_name_H-M   'P 1'
_cell_length_a   7.57019849
_cell_length_b   7.56590458
_cell_length_c   7.57019900
_cell_angle_alpha   126.53781973
_cell_angle_beta   125.33492372
_cell_angle_gamma   80.01042511
_symmetry_Int_Tables_number   1
_chemical_formula_structural   Hf3TaTi2Si6(MoRu2)2
_chemical_formula_sum   'Hf3 Ta1 Ti2 Si6 Mo2 Ru4'
_cell_volume   274.37068301
_cell_formula_units_Z   1
loop_
 _symmetry_equiv_pos_site_id
 _symmetry_equiv_pos_as_xyz
  1  'x, y, z'
loop_
 _atom_site_type_symbol
 _atom_site_label
 _atom_site_symmetry_multiplicity
 _atom_site_fract_x
 _atom_site_fract_y
 _atom_site_fract_z
 _atom_site_occupancy
  Hf  Hf0  1  0.242543  0.901043  0.158499  1
  Hf  Hf1  1  0.962305  0.489599  0.027293  1
  Hf  Hf2  1  0.037350  0.058295  0.520944  1
  Ta  Ta3  1  0.438677  0.475500  0.536823  1
  Ti  Ti4  1  0.757000  0.922696  0.665696  1
  Ti  Ti5  1  0.557956  0.107937  0.049982  1
  Si  Si6  1  0.773885  0.545590  0.271706  1
  Si  Si7  1  0.178123  0.156769  0.997342  1
  Si  Si8  1  0.659427  0.156769  0.478644  1
  Si  Si9  1  0.354440  0.824499  0.515253  1
  Si  Si10  1  0.225715  0.486326  0.760611  1
  Si  Si11  1  0.809247  0.824499  0.970059  1
  Mo  Mo12  1  0.505708  0.248863  0.753149  1
  Mo  Mo13  1  0.995715  0.248863  0.243155  1
  Ru  Ru14  1  0.839646  0.496447  0.590695  1
  Ru  Ru15  1  0.595160  0.751034  0.089683  1
  Ru  Ru16  1  0.405751  0.496447  0.156800  1
  Ru  Ru17  1  0.161351  0.751034  0.655874  1
