# generated using pymatgen
data_Tb3ThMgRh
_symmetry_space_group_name_H-M   'P 1'
_cell_length_a   9.83092989
_cell_length_b   9.83093021
_cell_length_c   9.83093000
_cell_angle_alpha   60.00000070
_cell_angle_beta   59.99999964
_cell_angle_gamma   60.00000081
_symmetry_Int_Tables_number   1
_chemical_formula_structural   Tb3ThMgRh
_chemical_formula_sum   'Tb12 Th4 Mg4 Rh4'
_cell_volume   671.84458585
_cell_formula_units_Z   4
loop_
 _symmetry_equiv_pos_site_id
 _symmetry_equiv_pos_as_xyz
  1  'x, y, z'
loop_
 _atom_site_type_symbol
 _atom_site_label
 _atom_site_symmetry_multiplicity
 _atom_site_fract_x
 _atom_site_fract_y
 _atom_site_fract_z
 _atom_site_occupancy
  Tb  Tb0  1  0.812592  0.187408  0.187408  1
  Tb  Tb1  1  0.187408  0.812592  0.812592  1
  Tb  Tb2  1  0.187408  0.812592  0.187408  1
  Tb  Tb3  1  0.812592  0.187408  0.812592  1
  Tb  Tb4  1  0.187408  0.187408  0.812592  1
  Tb  Tb5  1  0.812592  0.812592  0.187408  1
  Tb  Tb6  1  0.934177  0.565823  0.565823  1
  Tb  Tb7  1  0.565823  0.934177  0.934177  1
  Tb  Tb8  1  0.565823  0.934177  0.565823  1
  Tb  Tb9  1  0.934177  0.565823  0.934177  1
  Tb  Tb10  1  0.565823  0.565823  0.934177  1
  Tb  Tb11  1  0.934177  0.934177  0.565823  1
  Th  Th12  1  0.347755  0.347755  0.347755  1
  Th  Th13  1  0.347755  0.347755  0.956736  1
  Th  Th14  1  0.347755  0.956736  0.347755  1
  Th  Th15  1  0.956736  0.347755  0.347755  1
  Mg  Mg16  1  0.580325  0.580325  0.580325  1
  Mg  Mg17  1  0.580325  0.580325  0.259026  1
  Mg  Mg18  1  0.580325  0.259026  0.580325  1
  Mg  Mg19  1  0.259026  0.580325  0.580325  1
  Rh  Rh20  1  0.144518  0.144518  0.144518  1
  Rh  Rh21  1  0.144518  0.144518  0.566444  1
  Rh  Rh22  1  0.144518  0.566444  0.144518  1
  Rh  Rh23  1  0.566444  0.144518  0.144518  1
