# generated using pymatgen
data_Ta4Be3AsW2
_symmetry_space_group_name_H-M   'P 1'
_cell_length_a   6.48072301
_cell_length_b   6.48072348
_cell_length_c   3.38288700
_cell_angle_alpha   90.00000000
_cell_angle_beta   90.00000000
_cell_angle_gamma   89.99321015
_symmetry_Int_Tables_number   1
_chemical_formula_structural   Ta4Be3AsW2
_chemical_formula_sum   'Ta4 Be3 As1 W2'
_cell_volume   142.08048773
_cell_formula_units_Z   1
loop_
 _symmetry_equiv_pos_site_id
 _symmetry_equiv_pos_as_xyz
  1  'x, y, z'
loop_
 _atom_site_type_symbol
 _atom_site_label
 _atom_site_symmetry_multiplicity
 _atom_site_fract_x
 _atom_site_fract_y
 _atom_site_fract_z
 _atom_site_occupancy
  Ta  Ta0  1  0.677030  0.177030  0.500000  1
  Ta  Ta1  1  0.336635  0.836635  0.500000  1
  Ta  Ta2  1  0.177609  0.305637  0.500000  1
  Ta  Ta3  1  0.805637  0.677609  0.500000  1
  Be  Be4  1  0.873081  0.373081  0.000000  1
  Be  Be5  1  0.619456  0.886091  0.000000  1
  Be  Be6  1  0.386091  0.119456  0.000000  1
  As  As7  1  0.118673  0.618673  0.000000  1
  W  W8  1  0.507232  0.498557  0.000000  1
  W  W9  1  0.998557  0.007232  0.000000  1
