# generated using pymatgen
data_Pr8CdHg3Au8
_symmetry_space_group_name_H-M   'P 1'
_cell_length_a   8.21952200
_cell_length_b   8.21952200
_cell_length_c   7.75613700
_cell_angle_alpha   90.00000000
_cell_angle_beta   90.00000000
_cell_angle_gamma   90.00000000
_symmetry_Int_Tables_number   1
_chemical_formula_structural   Pr8CdHg3Au8
_chemical_formula_sum   'Pr8 Cd1 Hg3 Au8'
_cell_volume   524.00881884
_cell_formula_units_Z   1
loop_
 _symmetry_equiv_pos_site_id
 _symmetry_equiv_pos_as_xyz
  1  'x, y, z'
loop_
 _atom_site_type_symbol
 _atom_site_label
 _atom_site_symmetry_multiplicity
 _atom_site_fract_x
 _atom_site_fract_y
 _atom_site_fract_z
 _atom_site_occupancy
  Pr  Pr0  1  0.828584  0.169355  0.500319  1
  Pr  Pr1  1  0.171416  0.830645  0.500319  1
  Pr  Pr2  1  0.330645  0.328584  0.999681  1
  Pr  Pr3  1  0.669355  0.671416  0.999681  1
  Pr  Pr4  1  0.676605  0.679837  0.500165  1
  Pr  Pr5  1  0.323395  0.320163  0.500165  1
  Pr  Pr6  1  0.179837  0.823395  0.999835  1
  Pr  Pr7  1  0.820163  0.176605  0.999835  1
  Cd  Cd8  1  0.000000  0.500000  0.250000  1
  Hg  Hg9  1  0.500000  0.000000  0.250000  1
  Hg  Hg10  1  0.000000  0.500000  0.750000  1
  Hg  Hg11  1  0.500000  0.000000  0.750000  1
  Au  Au12  1  0.629868  0.378522  0.259099  1
  Au  Au13  1  0.370132  0.621478  0.259099  1
  Au  Au14  1  0.124862  0.125206  0.759213  1
  Au  Au15  1  0.875138  0.874794  0.759213  1
  Au  Au16  1  0.374794  0.624862  0.740787  1
  Au  Au17  1  0.625206  0.375138  0.740787  1
  Au  Au18  1  0.878522  0.870132  0.240901  1
  Au  Au19  1  0.121478  0.129868  0.240901  1
