# generated using pymatgen
data_Tb9Ho(Bi3S)2
_symmetry_space_group_name_H-M   'P 1'
_cell_length_a   9.23263100
_cell_length_b   9.23263126
_cell_length_c   6.58890000
_cell_angle_alpha   90.00000000
_cell_angle_beta   90.00000000
_cell_angle_gamma   120.00000266
_symmetry_Int_Tables_number   1
_chemical_formula_structural   Tb9Ho(Bi3S)2
_chemical_formula_sum   'Tb9 Ho1 Bi6 S2'
_cell_volume   486.40105194
_cell_formula_units_Z   1
loop_
 _symmetry_equiv_pos_site_id
 _symmetry_equiv_pos_as_xyz
  1  'x, y, z'
loop_
 _atom_site_type_symbol
 _atom_site_label
 _atom_site_symmetry_multiplicity
 _atom_site_fract_x
 _atom_site_fract_y
 _atom_site_fract_z
 _atom_site_occupancy
  Tb  Tb0  1  0.333333  0.666667  0.500000  1
  Tb  Tb1  1  0.333333  0.666667  0.000000  1
  Tb  Tb2  1  0.666667  0.333333  0.000000  1
  Tb  Tb3  1  0.753625  0.753720  0.250128  1
  Tb  Tb4  1  0.246280  0.999904  0.250128  1
  Tb  Tb5  1  0.000096  0.246375  0.250128  1
  Tb  Tb6  1  0.246280  0.246375  0.749872  1
  Tb  Tb7  1  0.753625  0.999904  0.749872  1
  Tb  Tb8  1  0.000096  0.753720  0.749872  1
  Ho  Ho9  1  0.666667  0.333333  0.500000  1
  Bi  Bi10  1  0.397078  0.396525  0.250572  1
  Bi  Bi11  1  0.603475  0.000553  0.250572  1
  Bi  Bi12  1  0.999447  0.602922  0.250572  1
  Bi  Bi13  1  0.603475  0.602922  0.749428  1
  Bi  Bi14  1  0.397078  0.000553  0.749428  1
  Bi  Bi15  1  0.999447  0.396525  0.749428  1
  S  S16  1  0.000000  0.000000  0.500000  1
  S  S17  1  0.000000  0.000000  0.000000  1
