# generated using pymatgen
data_SrEr3(Ir2O7)2
_symmetry_space_group_name_H-M   'P 1'
_cell_length_a   7.25418209
_cell_length_b   7.28364170
_cell_length_c   7.25418200
_cell_angle_alpha   60.13370564
_cell_angle_beta   60.00000041
_cell_angle_gamma   60.13370551
_symmetry_Int_Tables_number   1
_chemical_formula_structural   SrEr3(Ir2O7)2
_chemical_formula_sum   'Sr1 Er3 Ir4 O14'
_cell_volume   271.57214279
_cell_formula_units_Z   1
loop_
 _symmetry_equiv_pos_site_id
 _symmetry_equiv_pos_as_xyz
  1  'x, y, z'
loop_
 _atom_site_type_symbol
 _atom_site_label
 _atom_site_symmetry_multiplicity
 _atom_site_fract_x
 _atom_site_fract_y
 _atom_site_fract_z
 _atom_site_occupancy
  Sr  Sr0  1  0.625000  0.125000  0.625000  1
  Er  Er1  1  0.625000  0.625000  0.125000  1
  Er  Er2  1  0.625000  0.625000  0.625000  1
  Er  Er3  1  0.125000  0.625000  0.625000  1
  Ir  Ir4  1  0.625000  0.125000  0.125000  1
  Ir  Ir5  1  0.125000  0.125000  0.125000  1
  Ir  Ir6  1  0.125000  0.625000  0.125000  1
  Ir  Ir7  1  0.125000  0.125000  0.625000  1
  O  O8  1  0.040741  0.460581  0.457937  1
  O  O9  1  0.792063  0.789419  0.209259  1
  O  O10  1  0.793245  0.222238  0.191272  1
  O  O11  1  0.758220  0.725339  0.758220  1
  O  O12  1  0.040741  0.460581  0.040741  1
  O  O13  1  0.456755  0.027762  0.456755  1
  O  O14  1  0.058728  0.027762  0.456755  1
  O  O15  1  0.491780  0.524661  0.491780  1
  O  O16  1  0.191272  0.222238  0.793245  1
  O  O17  1  0.209259  0.789419  0.209259  1
  O  O18  1  0.793245  0.222238  0.793245  1
  O  O19  1  0.456755  0.027762  0.058728  1
  O  O20  1  0.457937  0.460581  0.040741  1
  O  O21  1  0.209259  0.789419  0.792063  1
