# generated using pymatgen
data_Tb6Al24Fe2(PdRu)3
_symmetry_space_group_name_H-M   'P 1'
_cell_length_a   8.81133166
_cell_length_b   8.80015977
_cell_length_c   9.48006003
_cell_angle_alpha   90.17680508
_cell_angle_beta   90.02492598
_cell_angle_gamma   119.58724265
_symmetry_Int_Tables_number   1
_chemical_formula_structural   Tb6Al24Fe2(PdRu)3
_chemical_formula_sum   'Tb6 Al24 Fe2 Pd3 Ru3'
_cell_volume   639.23713382
_cell_formula_units_Z   1
loop_
 _symmetry_equiv_pos_site_id
 _symmetry_equiv_pos_as_xyz
  1  'x, y, z'
loop_
 _atom_site_type_symbol
 _atom_site_label
 _atom_site_symmetry_multiplicity
 _atom_site_fract_x
 _atom_site_fract_y
 _atom_site_fract_z
 _atom_site_occupancy
  Tb  Tb0  1  0.382639  0.189140  0.251235  1
  Tb  Tb1  1  0.809394  0.193236  0.250871  1
  Tb  Tb2  1  0.811580  0.615581  0.248862  1
  Tb  Tb3  1  0.617361  0.810860  0.748765  1
  Tb  Tb4  1  0.190606  0.806764  0.749129  1
  Tb  Tb5  1  0.188420  0.384419  0.751138  1
  Al  Al6  1  0.436879  0.873310  0.246486  1
  Al  Al7  1  0.120611  0.559291  0.254992  1
  Al  Al8  1  0.435585  0.562614  0.250582  1
  Al  Al9  1  0.563121  0.126690  0.753514  1
  Al  Al10  1  0.879389  0.440709  0.745008  1
  Al  Al11  1  0.564415  0.437386  0.749418  1
  Al  Al12  1  0.155936  0.829535  0.422944  1
  Al  Al13  1  0.155549  0.325349  0.424251  1
  Al  Al14  1  0.677998  0.837959  0.420377  1
  Al  Al15  1  0.844064  0.170465  0.577056  1
  Al  Al16  1  0.844451  0.674651  0.575749  1
  Al  Al17  1  0.322002  0.162041  0.579623  1
  Al  Al18  1  0.839141  0.160924  0.924843  1
  Al  Al19  1  0.845613  0.681773  0.923656  1
  Al  Al20  1  0.317882  0.153924  0.924863  1
  Al  Al21  1  0.160859  0.839076  0.075157  1
  Al  Al22  1  0.154387  0.318227  0.076344  1
  Al  Al23  1  0.682118  0.846076  0.075137  1
  Al  Al24  1  0.320896  0.660159  0.524833  1
  Al  Al25  1  0.679104  0.339841  0.475167  1
  Al  Al26  1  0.669333  0.329729  0.020890  1
  Al  Al27  1  0.330667  0.670271  0.979110  1
  Al  Al28  1  0.001654  0.998978  0.243800  1
  Al  Al29  1  0.998346  0.001022  0.756200  1
  Fe  Fe30  1  0.000000  0.000000  0.000000  1
  Fe  Fe31  1  0.000000  0.500000  0.500000  1
  Pd  Pd32  1  0.500000  0.000000  0.500000  1
  Pd  Pd33  1  0.500000  0.500000  0.500000  1
  Pd  Pd34  1  0.500000  0.500000  0.000000  1
  Ru  Ru35  1  0.000000  0.000000  0.500000  1
  Ru  Ru36  1  0.500000  0.000000  0.000000  1
  Ru  Ru37  1  0.000000  0.500000  0.000000  1
