# generated using pymatgen
data_Sm3In3Hg2Ru
_symmetry_space_group_name_H-M   'P 1'
_cell_length_a   8.00791400
_cell_length_b   8.00791404
_cell_length_c   4.02343900
_cell_angle_alpha   90.00000000
_cell_angle_beta   90.00000000
_cell_angle_gamma   119.99999984
_symmetry_Int_Tables_number   1
_chemical_formula_structural   Sm3In3Hg2Ru
_chemical_formula_sum   'Sm3 In3 Hg2 Ru1'
_cell_volume   223.44305300
_cell_formula_units_Z   1
loop_
 _symmetry_equiv_pos_site_id
 _symmetry_equiv_pos_as_xyz
  1  'x, y, z'
loop_
 _atom_site_type_symbol
 _atom_site_label
 _atom_site_symmetry_multiplicity
 _atom_site_fract_x
 _atom_site_fract_y
 _atom_site_fract_z
 _atom_site_occupancy
  Sm  Sm0  1  0.579925  0.611057  0.000000  1
  Sm  Sm1  1  0.388943  0.968867  0.000000  1
  Sm  Sm2  1  0.031133  0.420075  0.000000  1
  In  In3  1  0.008596  0.730550  0.500000  1
  In  In4  1  0.269450  0.278046  0.500000  1
  In  In5  1  0.721954  0.991404  0.500000  1
  Hg  Hg6  1  0.000000  0.000000  0.000000  1
  Hg  Hg7  1  0.666667  0.333333  0.500000  1
  Ru  Ru8  1  0.333333  0.666667  0.500000  1
