# generated using pymatgen
data_Sc7NbH16
_symmetry_space_group_name_H-M   'P 1'
_cell_length_a   6.71144846
_cell_length_b   6.71144849
_cell_length_c   6.71144800
_cell_angle_alpha   60.00000242
_cell_angle_beta   60.00000229
_cell_angle_gamma   60.00000450
_symmetry_Int_Tables_number   1
_chemical_formula_structural   Sc7NbH16
_chemical_formula_sum   'Sc7 Nb1 H16'
_cell_volume   213.76361389
_cell_formula_units_Z   1
loop_
 _symmetry_equiv_pos_site_id
 _symmetry_equiv_pos_as_xyz
  1  'x, y, z'
loop_
 _atom_site_type_symbol
 _atom_site_label
 _atom_site_symmetry_multiplicity
 _atom_site_fract_x
 _atom_site_fract_y
 _atom_site_fract_z
 _atom_site_occupancy
  Sc  Sc0  1  0.000000  0.000000  0.500000  1
  Sc  Sc1  1  0.500000  0.000000  0.500000  1
  Sc  Sc2  1  0.000000  0.500000  0.500000  1
  Sc  Sc3  1  0.500000  0.500000  0.000000  1
  Sc  Sc4  1  0.000000  0.500000  0.000000  1
  Sc  Sc5  1  0.500000  0.000000  0.000000  1
  Sc  Sc6  1  0.500000  0.500000  0.500000  1
  Nb  Nb7  1  0.000000  0.000000  0.000000  1
  H  H8  1  0.880063  0.880063  0.359813  1
  H  H9  1  0.880063  0.359813  0.880063  1
  H  H10  1  0.359813  0.880063  0.880063  1
  H  H11  1  0.880063  0.880063  0.880063  1
  H  H12  1  0.119937  0.119937  0.640187  1
  H  H13  1  0.119937  0.640187  0.119937  1
  H  H14  1  0.640187  0.119937  0.119937  1
  H  H15  1  0.119937  0.119937  0.119937  1
  H  H16  1  0.624992  0.624992  0.125022  1
  H  H17  1  0.624992  0.125022  0.624992  1
  H  H18  1  0.125022  0.624992  0.624992  1
  H  H19  1  0.624992  0.624992  0.624992  1
  H  H20  1  0.375008  0.375008  0.874978  1
  H  H21  1  0.375008  0.874978  0.375008  1
  H  H22  1  0.874978  0.375008  0.375008  1
  H  H23  1  0.375008  0.375008  0.375008  1
