# generated using pymatgen
data_Cs2Ta6SnBr18
_symmetry_space_group_name_H-M   'P 1'
_cell_length_a   11.02262075
_cell_length_b   11.02262099
_cell_length_c   11.02262063
_cell_angle_alpha   54.97971675
_cell_angle_beta   54.97971892
_cell_angle_gamma   54.97971582
_symmetry_Int_Tables_number   1
_chemical_formula_structural   Cs2Ta6SnBr18
_chemical_formula_sum   'Cs2 Ta6 Sn1 Br18'
_cell_volume   836.35473263
_cell_formula_units_Z   1
loop_
 _symmetry_equiv_pos_site_id
 _symmetry_equiv_pos_as_xyz
  1  'x, y, z'
loop_
 _atom_site_type_symbol
 _atom_site_label
 _atom_site_symmetry_multiplicity
 _atom_site_fract_x
 _atom_site_fract_y
 _atom_site_fract_z
 _atom_site_occupancy
  Cs  Cs0  1  0.276727  0.276727  0.276727  1
  Cs  Cs1  1  0.723273  0.723273  0.723273  1
  Ta  Ta2  1  0.423530  0.310555  0.638092  1
  Ta  Ta3  1  0.361908  0.576470  0.689445  1
  Ta  Ta4  1  0.689445  0.361908  0.576470  1
  Ta  Ta5  1  0.638092  0.423530  0.310555  1
  Ta  Ta6  1  0.576470  0.689445  0.361908  1
  Ta  Ta7  1  0.310555  0.638092  0.423530  1
  Sn  Sn8  1  0.000000  0.000000  0.000000  1
  Br  Br9  1  0.639139  0.094472  0.767965  1
  Br  Br10  1  0.767965  0.639139  0.094472  1
  Br  Br11  1  0.094472  0.767965  0.639139  1
  Br  Br12  1  0.826937  0.320460  0.043404  1
  Br  Br13  1  0.169082  0.435461  0.577145  1
  Br  Br14  1  0.679540  0.956596  0.173063  1
  Br  Br15  1  0.905528  0.232035  0.360861  1
  Br  Br16  1  0.564539  0.422855  0.830918  1
  Br  Br17  1  0.422855  0.830918  0.564539  1
  Br  Br18  1  0.956596  0.173063  0.679540  1
  Br  Br19  1  0.173063  0.679540  0.956596  1
  Br  Br20  1  0.043404  0.826937  0.320460  1
  Br  Br21  1  0.320460  0.043404  0.826937  1
  Br  Br22  1  0.232035  0.360861  0.905528  1
  Br  Br23  1  0.577145  0.169082  0.435461  1
  Br  Br24  1  0.435461  0.577145  0.169082  1
  Br  Br25  1  0.360861  0.905528  0.232035  1
  Br  Br26  1  0.830918  0.564539  0.422855  1
