# generated using pymatgen
data_Nd4HoP12Ru9Rh10
_symmetry_space_group_name_H-M   'P 1'
_cell_length_a   12.69398400
_cell_length_b   12.69398396
_cell_length_c   3.97683000
_cell_angle_alpha   90.00000000
_cell_angle_beta   90.00000000
_cell_angle_gamma   120.00000531
_symmetry_Int_Tables_number   1
_chemical_formula_structural   Nd4HoP12Ru9Rh10
_chemical_formula_sum   'Nd4 Ho1 P12 Ru9 Rh10'
_cell_volume   554.96235791
_cell_formula_units_Z   1
loop_
 _symmetry_equiv_pos_site_id
 _symmetry_equiv_pos_as_xyz
  1  'x, y, z'
loop_
 _atom_site_type_symbol
 _atom_site_label
 _atom_site_symmetry_multiplicity
 _atom_site_fract_x
 _atom_site_fract_y
 _atom_site_fract_z
 _atom_site_occupancy
  Nd  Nd0  1  0.000091  0.186092  0.500000  1
  Nd  Nd1  1  0.813908  0.813999  0.500000  1
  Nd  Nd2  1  0.186001  0.999909  0.500000  1
  Nd  Nd3  1  0.333333  0.666667  0.000000  1
  Ho  Ho4  1  0.666667  0.333333  0.000000  1
  P  P5  1  0.998996  0.814526  0.000000  1
  P  P6  1  0.185474  0.184471  0.000000  1
  P  P7  1  0.815529  0.001004  0.000000  1
  P  P8  1  0.690141  0.174465  0.500000  1
  P  P9  1  0.825535  0.515676  0.500000  1
  P  P10  1  0.484324  0.309859  0.500000  1
  P  P11  1  0.170717  0.689624  0.500000  1
  P  P12  1  0.518906  0.829283  0.500000  1
  P  P13  1  0.310376  0.481094  0.500000  1
  P  P14  1  0.000305  0.372245  0.000000  1
  P  P15  1  0.627755  0.628060  0.000000  1
  P  P16  1  0.371940  0.999695  0.000000  1
  Ru  Ru17  1  0.998627  0.711603  0.500000  1
  Ru  Ru18  1  0.288397  0.287024  0.500000  1
  Ru  Ru19  1  0.712976  0.001373  0.500000  1
  Ru  Ru20  1  0.872383  0.363017  0.500000  1
  Ru  Ru21  1  0.636983  0.509366  0.500000  1
  Ru  Ru22  1  0.490634  0.127617  0.500000  1
  Ru  Ru23  1  0.362313  0.875321  0.500000  1
  Ru  Ru24  1  0.513008  0.637687  0.500000  1
  Ru  Ru25  1  0.124679  0.486992  0.500000  1
  Rh  Rh26  1  0.000107  0.550974  0.000000  1
  Rh  Rh27  1  0.449026  0.449132  0.000000  1
  Rh  Rh28  1  0.550868  0.999893  0.000000  1
  Rh  Rh29  1  0.804608  0.183517  0.000000  1
  Rh  Rh30  1  0.816483  0.621093  0.000000  1
  Rh  Rh31  1  0.378907  0.195392  0.000000  1
  Rh  Rh32  1  0.181571  0.805076  0.000000  1
  Rh  Rh33  1  0.623506  0.818429  0.000000  1
  Rh  Rh34  1  0.194924  0.376494  0.000000  1
  Rh  Rh35  1  0.000000  0.000000  0.000000  1
