# generated using pymatgen
data_TbDy3(CI)2
_symmetry_space_group_name_H-M   'P 1'
_cell_length_a   3.77662400
_cell_length_b   3.77662458
_cell_length_c   14.79056100
_cell_angle_alpha   90.00000000
_cell_angle_beta   90.00000000
_cell_angle_gamma   119.99999488
_symmetry_Int_Tables_number   1
_chemical_formula_structural   TbDy3(CI)2
_chemical_formula_sum   'Tb1 Dy3 C2 I2'
_cell_volume   182.69340313
_cell_formula_units_Z   1
loop_
 _symmetry_equiv_pos_site_id
 _symmetry_equiv_pos_as_xyz
  1  'x, y, z'
loop_
 _atom_site_type_symbol
 _atom_site_label
 _atom_site_symmetry_multiplicity
 _atom_site_fract_x
 _atom_site_fract_y
 _atom_site_fract_z
 _atom_site_occupancy
  Tb  Tb0  1  0.333333  0.666667  0.914168  1
  Dy  Dy1  1  0.333333  0.666667  0.585122  1
  Dy  Dy2  1  0.666667  0.333333  0.414882  1
  Dy  Dy3  1  0.666667  0.333333  0.085468  1
  C  C4  1  0.000000  0.000000  0.000835  1
  C  C5  1  0.000000  0.000000  0.499970  1
  I  I6  1  0.333333  0.666667  0.250059  1
  I  I7  1  0.666667  0.333333  0.749496  1
