# generated using pymatgen
data_Ta3Cd4SbO14
_symmetry_space_group_name_H-M   'P 1'
_cell_length_a   7.42253018
_cell_length_b   7.42252985
_cell_length_c   7.42253118
_cell_angle_alpha   60.13013370
_cell_angle_beta   60.13013968
_cell_angle_gamma   60.13013617
_symmetry_Int_Tables_number   1
_chemical_formula_structural   Ta3Cd4SbO14
_chemical_formula_sum   'Ta3 Cd4 Sb1 O14'
_cell_volume   290.01430069
_cell_formula_units_Z   1
loop_
 _symmetry_equiv_pos_site_id
 _symmetry_equiv_pos_as_xyz
  1  'x, y, z'
loop_
 _atom_site_type_symbol
 _atom_site_label
 _atom_site_symmetry_multiplicity
 _atom_site_fract_x
 _atom_site_fract_y
 _atom_site_fract_z
 _atom_site_occupancy
  Ta  Ta0  1  0.125000  0.625000  0.625000  1
  Ta  Ta1  1  0.625000  0.125000  0.625000  1
  Ta  Ta2  1  0.625000  0.625000  0.125000  1
  Cd  Cd3  1  0.625000  0.125000  0.125000  1
  Cd  Cd4  1  0.125000  0.625000  0.125000  1
  Cd  Cd5  1  0.125000  0.125000  0.625000  1
  Cd  Cd6  1  0.125000  0.125000  0.125000  1
  Sb  Sb7  1  0.625000  0.625000  0.625000  1
  O  O8  1  0.694639  0.694639  0.305799  1
  O  O9  1  0.308980  0.308980  0.690303  1
  O  O10  1  0.694639  0.305799  0.694639  1
  O  O11  1  0.308980  0.690303  0.308980  1
  O  O12  1  0.305799  0.694639  0.694639  1
  O  O13  1  0.690303  0.308980  0.308980  1
  O  O14  1  0.555361  0.555361  0.944201  1
  O  O15  1  0.941020  0.941020  0.559697  1
  O  O16  1  0.555361  0.944201  0.555361  1
  O  O17  1  0.941020  0.559697  0.941020  1
  O  O18  1  0.944201  0.555361  0.555361  1
  O  O19  1  0.559697  0.941020  0.941020  1
  O  O20  1  0.249247  0.249247  0.249247  1
  O  O21  1  0.000753  0.000753  0.000753  1
