# generated using pymatgen
data_Ho5(In2Ir)2
_symmetry_space_group_name_H-M   'P 1'
_cell_length_a   8.00962300
_cell_length_b   18.29405800
_cell_length_c   3.63819500
_cell_angle_alpha   90.00000000
_cell_angle_beta   90.00000000
_cell_angle_gamma   90.00000000
_symmetry_Int_Tables_number   1
_chemical_formula_structural   Ho5(In2Ir)2
_chemical_formula_sum   'Ho10 In8 Ir4'
_cell_volume   533.09928414
_cell_formula_units_Z   2
loop_
 _symmetry_equiv_pos_site_id
 _symmetry_equiv_pos_as_xyz
  1  'x, y, z'
loop_
 _atom_site_type_symbol
 _atom_site_label
 _atom_site_symmetry_multiplicity
 _atom_site_fract_x
 _atom_site_fract_y
 _atom_site_fract_z
 _atom_site_occupancy
  Ho  Ho0  1  0.500000  0.500000  0.000000  1
  Ho  Ho1  1  0.000000  0.000000  0.000000  1
  Ho  Ho2  1  0.755530  0.277304  0.000000  1
  Ho  Ho3  1  0.244470  0.722696  0.000000  1
  Ho  Ho4  1  0.744470  0.777304  0.000000  1
  Ho  Ho5  1  0.255530  0.222696  0.000000  1
  Ho  Ho6  1  0.622219  0.089290  0.000000  1
  Ho  Ho7  1  0.377781  0.910710  0.000000  1
  Ho  Ho8  1  0.877781  0.589290  0.000000  1
  Ho  Ho9  1  0.122219  0.410710  0.000000  1
  In  In10  1  0.702614  0.932063  0.500000  1
  In  In11  1  0.297386  0.067937  0.500000  1
  In  In12  1  0.797386  0.432063  0.500000  1
  In  In13  1  0.202614  0.567937  0.500000  1
  In  In14  1  0.560870  0.649052  0.500000  1
  In  In15  1  0.439130  0.350948  0.500000  1
  In  In16  1  0.939130  0.149052  0.500000  1
  In  In17  1  0.060870  0.850948  0.500000  1
  Ir  Ir18  1  0.529895  0.195772  0.500000  1
  Ir  Ir19  1  0.470105  0.804228  0.500000  1
  Ir  Ir20  1  0.970105  0.695772  0.500000  1
  Ir  Ir21  1  0.029895  0.304228  0.500000  1
