# generated using pymatgen
data_TbTh7(ZnRh)8
_symmetry_space_group_name_H-M   'P 1'
_cell_length_a   3.93171800
_cell_length_b   7.50263772
_cell_length_c   16.57692575
_cell_angle_alpha   89.71466941
_cell_angle_beta   90.00000000
_cell_angle_gamma   90.00000000
_symmetry_Int_Tables_number   1
_chemical_formula_structural   TbTh7(ZnRh)8
_chemical_formula_sum   'Tb1 Th7 Zn8 Rh8'
_cell_volume   488.98433213
_cell_formula_units_Z   1
loop_
 _symmetry_equiv_pos_site_id
 _symmetry_equiv_pos_as_xyz
  1  'x, y, z'
loop_
 _atom_site_type_symbol
 _atom_site_label
 _atom_site_symmetry_multiplicity
 _atom_site_fract_x
 _atom_site_fract_y
 _atom_site_fract_z
 _atom_site_occupancy
  Tb  Tb0  1  0.750000  0.939012  0.286563  1
  Th  Th1  1  0.750000  0.326954  0.438303  1
  Th  Th2  1  0.250000  0.064370  0.715052  1
  Th  Th3  1  0.250000  0.561638  0.784983  1
  Th  Th4  1  0.250000  0.677222  0.559844  1
  Th  Th5  1  0.750000  0.822949  0.062754  1
  Th  Th6  1  0.250000  0.170287  0.940730  1
  Th  Th7  1  0.750000  0.439171  0.215902  1
  Zn  Zn8  1  0.250000  0.105679  0.158271  1
  Zn  Zn9  1  0.250000  0.995394  0.435396  1
  Zn  Zn10  1  0.750000  0.887658  0.846874  1
  Zn  Zn11  1  0.750000  0.006210  0.558675  1
  Zn  Zn12  1  0.250000  0.490870  0.059065  1
  Zn  Zn13  1  0.750000  0.389878  0.652738  1
  Zn  Zn14  1  0.750000  0.503462  0.940920  1
  Zn  Zn15  1  0.250000  0.622173  0.345614  1
  Rh  Rh16  1  0.750000  0.260086  0.814976  1
  Rh  Rh17  1  0.250000  0.251949  0.314375  1
  Rh  Rh18  1  0.250000  0.755117  0.937755  1
  Rh  Rh19  1  0.250000  0.256159  0.561288  1
  Rh  Rh20  1  0.250000  0.731093  0.182266  1
  Rh  Rh21  1  0.750000  0.743054  0.438983  1
  Rh  Rh22  1  0.750000  0.238772  0.063227  1
  Rh  Rh23  1  0.750000  0.760843  0.685447  1
