# generated using pymatgen
data_Pr3Ga4Cl
_symmetry_space_group_name_H-M   'P 1'
_cell_length_a   8.05804595
_cell_length_b   8.05804565
_cell_length_c   8.05804551
_cell_angle_alpha   119.37515214
_cell_angle_beta   119.37515108
_cell_angle_gamma   91.08572026
_symmetry_Int_Tables_number   1
_chemical_formula_structural   Pr3Ga4Cl
_chemical_formula_sum   'Pr6 Ga8 Cl2'
_cell_volume   373.39823968
_cell_formula_units_Z   2
loop_
 _symmetry_equiv_pos_site_id
 _symmetry_equiv_pos_as_xyz
  1  'x, y, z'
loop_
 _atom_site_type_symbol
 _atom_site_label
 _atom_site_symmetry_multiplicity
 _atom_site_fract_x
 _atom_site_fract_y
 _atom_site_fract_z
 _atom_site_occupancy
  Pr  Pr0  1  0.660099  0.160099  0.820197  1
  Pr  Pr1  1  0.160099  0.339901  0.500000  1
  Pr  Pr2  1  0.839901  0.660099  0.500000  1
  Pr  Pr3  1  0.750000  0.750000  0.000000  1
  Pr  Pr4  1  0.339901  0.839901  0.179803  1
  Pr  Pr5  1  0.250000  0.250000  0.000000  1
  Ga  Ga6  1  0.946675  0.446675  0.787254  1
  Ga  Ga7  1  0.840579  0.053325  0.500000  1
  Ga  Ga8  1  0.340579  0.840579  0.787254  1
  Ga  Ga9  1  0.446675  0.659421  0.500000  1
  Ga  Ga10  1  0.553325  0.340579  0.500000  1
  Ga  Ga11  1  0.053325  0.553325  0.212746  1
  Ga  Ga12  1  0.159421  0.946675  0.500000  1
  Ga  Ga13  1  0.659421  0.159421  0.212746  1
  Cl  Cl14  1  0.500000  0.500000  0.000000  1
  Cl  Cl15  1  0.000000  0.000000  0.000000  1
