# generated using pymatgen
data_LaHo2SbO7
_symmetry_space_group_name_H-M   'P 1'
_cell_length_a   6.52775128
_cell_length_b   6.52775035
_cell_length_c   7.64019800
_cell_angle_alpha   90.00000000
_cell_angle_beta   90.00000000
_cell_angle_gamma   108.95849484
_symmetry_Int_Tables_number   1
_chemical_formula_structural   LaHo2SbO7
_chemical_formula_sum   'La2 Ho4 Sb2 O14'
_cell_volume   307.90023011
_cell_formula_units_Z   2
loop_
 _symmetry_equiv_pos_site_id
 _symmetry_equiv_pos_as_xyz
  1  'x, y, z'
loop_
 _atom_site_type_symbol
 _atom_site_label
 _atom_site_symmetry_multiplicity
 _atom_site_fract_x
 _atom_site_fract_y
 _atom_site_fract_z
 _atom_site_occupancy
  La  La0  1  0.500000  0.500000  0.500000  1
  La  La1  1  0.500000  0.500000  0.000000  1
  Ho  Ho2  1  0.530674  0.001299  0.750000  1
  Ho  Ho3  1  0.001299  0.530674  0.250000  1
  Ho  Ho4  1  0.469326  0.998701  0.250000  1
  Ho  Ho5  1  0.998701  0.469326  0.750000  1
  Sb  Sb6  1  0.000000  0.000000  0.500000  1
  Sb  Sb7  1  0.000000  0.000000  0.000000  1
  O  O8  1  0.680103  0.933870  0.470107  1
  O  O9  1  0.933870  0.680103  0.529893  1
  O  O10  1  0.680103  0.933870  0.029893  1
  O  O11  1  0.933870  0.680103  0.970107  1
  O  O12  1  0.319897  0.066130  0.529893  1
  O  O13  1  0.066130  0.319897  0.470107  1
  O  O14  1  0.319897  0.066130  0.970107  1
  O  O15  1  0.066130  0.319897  0.029893  1
  O  O16  1  0.930838  0.069162  0.750000  1
  O  O17  1  0.069162  0.930838  0.250000  1
  O  O18  1  0.361229  0.638771  0.750000  1
  O  O19  1  0.638771  0.361229  0.250000  1
  O  O20  1  0.644290  0.355710  0.750000  1
  O  O21  1  0.355710  0.644290  0.250000  1
