# generated using pymatgen
data_TbTm15(CoHg)4
_symmetry_space_group_name_H-M   'P 1'
_cell_length_a   9.34044511
_cell_length_b   9.34029213
_cell_length_c   9.34026350
_cell_angle_alpha   60.02615140
_cell_angle_beta   60.02666513
_cell_angle_gamma   60.02760922
_symmetry_Int_Tables_number   1
_chemical_formula_structural   TbTm15(CoHg)4
_chemical_formula_sum   'Tb1 Tm15 Co4 Hg4'
_cell_volume   576.54871704
_cell_formula_units_Z   1
loop_
 _symmetry_equiv_pos_site_id
 _symmetry_equiv_pos_as_xyz
  1  'x, y, z'
loop_
 _atom_site_type_symbol
 _atom_site_label
 _atom_site_symmetry_multiplicity
 _atom_site_fract_x
 _atom_site_fract_y
 _atom_site_fract_z
 _atom_site_occupancy
  Tb  Tb0  1  0.347925  0.347908  0.347965  1
  Tm  Tm1  1  0.348023  0.347980  0.955466  1
  Tm  Tm2  1  0.348017  0.955474  0.347983  1
  Tm  Tm3  1  0.955392  0.348018  0.348028  1
  Tm  Tm4  1  0.812848  0.187704  0.187702  1
  Tm  Tm5  1  0.188209  0.811887  0.811858  1
  Tm  Tm6  1  0.187632  0.812852  0.187694  1
  Tm  Tm7  1  0.811910  0.188252  0.811807  1
  Tm  Tm8  1  0.187626  0.187683  0.812849  1
  Tm  Tm9  1  0.811888  0.811823  0.188257  1
  Tm  Tm10  1  0.938144  0.561962  0.561958  1
  Tm  Tm11  1  0.561503  0.939001  0.938986  1
  Tm  Tm12  1  0.561995  0.938037  0.562081  1
  Tm  Tm13  1  0.939083  0.561493  0.939029  1
  Tm  Tm14  1  0.561984  0.562070  0.938056  1
  Tm  Tm15  1  0.939085  0.939043  0.561483  1
  Co  Co16  1  0.141725  0.141761  0.141752  1
  Co  Co17  1  0.139891  0.139919  0.576181  1
  Co  Co18  1  0.139897  0.576187  0.139931  1
  Co  Co19  1  0.576250  0.139901  0.139895  1
  Hg  Hg20  1  0.584136  0.584197  0.584203  1
  Hg  Hg21  1  0.584702  0.584756  0.247369  1
  Hg  Hg22  1  0.584698  0.247378  0.584756  1
  Hg  Hg23  1  0.247438  0.584717  0.584714  1
