# generated using pymatgen
data_TiNb(VP)2
_symmetry_space_group_name_H-M   'P 1'
_cell_length_a   3.39971500
_cell_length_b   6.37987272
_cell_length_c   7.68797878
_cell_angle_alpha   90.46039720
_cell_angle_beta   90.00000000
_cell_angle_gamma   90.00000000
_symmetry_Int_Tables_number   1
_chemical_formula_structural   TiNb(VP)2
_chemical_formula_sum   'Ti2 Nb2 V4 P4'
_cell_volume   166.74494648
_cell_formula_units_Z   2
loop_
 _symmetry_equiv_pos_site_id
 _symmetry_equiv_pos_as_xyz
  1  'x, y, z'
loop_
 _atom_site_type_symbol
 _atom_site_label
 _atom_site_symmetry_multiplicity
 _atom_site_fract_x
 _atom_site_fract_y
 _atom_site_fract_z
 _atom_site_occupancy
  Ti  Ti0  1  0.750000  0.960405  0.668167  1
  Ti  Ti1  1  0.250000  0.039595  0.331833  1
  Nb  Nb2  1  0.250000  0.539055  0.169294  1
  Nb  Nb3  1  0.750000  0.460945  0.830706  1
  V  V4  1  0.250000  0.631949  0.556723  1
  V  V5  1  0.750000  0.368051  0.443277  1
  V  V6  1  0.750000  0.866019  0.057944  1
  V  V7  1  0.250000  0.133981  0.942056  1
  P  P8  1  0.250000  0.762725  0.856119  1
  P  P9  1  0.750000  0.237275  0.143881  1
  P  P10  1  0.750000  0.750810  0.362810  1
  P  P11  1  0.250000  0.249190  0.637190  1
