# generated using pymatgen
data_Zr3TaRe2O
_symmetry_space_group_name_H-M   'P 1'
_cell_length_a   8.77934989
_cell_length_b   8.77934978
_cell_length_c   8.77935100
_cell_angle_alpha   59.99999916
_cell_angle_beta   59.99999958
_cell_angle_gamma   59.99999930
_symmetry_Int_Tables_number   1
_chemical_formula_structural   Zr3TaRe2O
_chemical_formula_sum   'Zr12 Ta4 Re8 O4'
_cell_volume   478.48917592
_cell_formula_units_Z   4
loop_
 _symmetry_equiv_pos_site_id
 _symmetry_equiv_pos_as_xyz
  1  'x, y, z'
loop_
 _atom_site_type_symbol
 _atom_site_label
 _atom_site_symmetry_multiplicity
 _atom_site_fract_x
 _atom_site_fract_y
 _atom_site_fract_z
 _atom_site_occupancy
  Zr  Zr0  1  0.810005  0.810005  0.189995  1
  Zr  Zr1  1  0.189995  0.189995  0.810005  1
  Zr  Zr2  1  0.810005  0.189995  0.810005  1
  Zr  Zr3  1  0.189995  0.810005  0.189995  1
  Zr  Zr4  1  0.189995  0.810005  0.810005  1
  Zr  Zr5  1  0.810005  0.189995  0.189995  1
  Zr  Zr6  1  0.439995  0.439995  0.060005  1
  Zr  Zr7  1  0.060005  0.060005  0.439995  1
  Zr  Zr8  1  0.439995  0.060005  0.439995  1
  Zr  Zr9  1  0.060005  0.439995  0.060005  1
  Zr  Zr10  1  0.060005  0.439995  0.439995  1
  Zr  Zr11  1  0.439995  0.060005  0.060005  1
  Ta  Ta12  1  0.125000  0.625000  0.625000  1
  Ta  Ta13  1  0.625000  0.125000  0.625000  1
  Ta  Ta14  1  0.625000  0.625000  0.125000  1
  Ta  Ta15  1  0.625000  0.625000  0.625000  1
  Re  Re16  1  0.747356  0.417547  0.417547  1
  Re  Re17  1  0.417547  0.747356  0.417547  1
  Re  Re18  1  0.417547  0.417547  0.747356  1
  Re  Re19  1  0.417547  0.417547  0.417547  1
  Re  Re20  1  0.502644  0.832453  0.832453  1
  Re  Re21  1  0.832453  0.502644  0.832453  1
  Re  Re22  1  0.832453  0.832453  0.502644  1
  Re  Re23  1  0.832453  0.832453  0.832453  1
  O  O24  1  0.625000  0.125000  0.125000  1
  O  O25  1  0.125000  0.625000  0.125000  1
  O  O26  1  0.125000  0.125000  0.625000  1
  O  O27  1  0.125000  0.125000  0.125000  1
