# generated using pymatgen
data_NdTh(Cu2Ni3)2
_symmetry_space_group_name_H-M   'P 1'
_cell_length_a   4.05736000
_cell_length_b   4.94129345
_cell_length_c   8.62692748
_cell_angle_alpha   89.91266148
_cell_angle_beta   90.00000000
_cell_angle_gamma   90.00000000
_symmetry_Int_Tables_number   1
_chemical_formula_structural   NdTh(Cu2Ni3)2
_chemical_formula_sum   'Nd1 Th1 Cu4 Ni6'
_cell_volume   172.95767248
_cell_formula_units_Z   1
loop_
 _symmetry_equiv_pos_site_id
 _symmetry_equiv_pos_as_xyz
  1  'x, y, z'
loop_
 _atom_site_type_symbol
 _atom_site_label
 _atom_site_symmetry_multiplicity
 _atom_site_fract_x
 _atom_site_fract_y
 _atom_site_fract_z
 _atom_site_occupancy
  Nd  Nd0  1  0.000000  0.499868  0.502816  1
  Th  Th1  1  0.000000  0.001122  0.996059  1
  Cu  Cu2  1  0.500000  0.001957  0.500850  1
  Cu  Cu3  1  0.500000  0.250798  0.248983  1
  Cu  Cu4  1  0.500000  0.748054  0.750712  1
  Cu  Cu5  1  0.500000  0.749579  0.249106  1
  Ni  Ni6  1  0.000000  0.000243  0.328763  1
  Ni  Ni7  1  0.000000  0.495707  0.837751  1
  Ni  Ni8  1  0.000000  0.500556  0.161431  1
  Ni  Ni9  1  0.000000  0.005811  0.670530  1
  Ni  Ni10  1  0.500000  0.498700  0.999459  1
  Ni  Ni11  1  0.500000  0.247605  0.753539  1
