# generated using pymatgen
data_TmScZn2(Ni3B)2
_symmetry_space_group_name_H-M   'P 1'
_cell_length_a   5.06907300
_cell_length_b   5.06907226
_cell_length_c   6.78977700
_cell_angle_alpha   90.00000000
_cell_angle_beta   90.00000000
_cell_angle_gamma   119.99998527
_symmetry_Int_Tables_number   1
_chemical_formula_structural   TmScZn2(Ni3B)2
_chemical_formula_sum   'Tm1 Sc1 Zn2 Ni6 B2'
_cell_volume   151.09261386
_cell_formula_units_Z   1
loop_
 _symmetry_equiv_pos_site_id
 _symmetry_equiv_pos_as_xyz
  1  'x, y, z'
loop_
 _atom_site_type_symbol
 _atom_site_label
 _atom_site_symmetry_multiplicity
 _atom_site_fract_x
 _atom_site_fract_y
 _atom_site_fract_z
 _atom_site_occupancy
  Tm  Tm0  1  0.000000  0.000000  0.000000  1
  Sc  Sc1  1  0.000000  0.000000  0.500000  1
  Zn  Zn2  1  0.666667  0.333333  0.000000  1
  Zn  Zn3  1  0.333333  0.666667  0.000000  1
  Ni  Ni4  1  0.000000  0.500000  0.299283  1
  Ni  Ni5  1  0.500000  0.500000  0.299283  1
  Ni  Ni6  1  0.500000  0.500000  0.700717  1
  Ni  Ni7  1  0.500000  0.000000  0.700717  1
  Ni  Ni8  1  0.000000  0.500000  0.700717  1
  Ni  Ni9  1  0.500000  0.000000  0.299283  1
  B  B10  1  0.666667  0.333333  0.500000  1
  B  B11  1  0.333333  0.666667  0.500000  1
