# generated using pymatgen
data_HoEr3SiI6
_symmetry_space_group_name_H-M   'P 1'
_cell_length_a   4.17951200
_cell_length_b   13.88153310
_cell_length_c   14.66263910
_cell_angle_alpha   89.98654744
_cell_angle_beta   90.00000000
_cell_angle_gamma   90.00000000
_symmetry_Int_Tables_number   1
_chemical_formula_structural   HoEr3SiI6
_chemical_formula_sum   'Ho2 Er6 Si2 I12'
_cell_volume   850.69747267
_cell_formula_units_Z   2
loop_
 _symmetry_equiv_pos_site_id
 _symmetry_equiv_pos_as_xyz
  1  'x, y, z'
loop_
 _atom_site_type_symbol
 _atom_site_label
 _atom_site_symmetry_multiplicity
 _atom_site_fract_x
 _atom_site_fract_y
 _atom_site_fract_z
 _atom_site_occupancy
  Ho  Ho0  1  0.000000  0.110861  0.574209  1
  Ho  Ho1  1  0.000000  0.889139  0.425791  1
  Er  Er2  1  0.500000  0.113679  0.348096  1
  Er  Er3  1  0.500000  0.886321  0.651904  1
  Er  Er4  1  0.500000  0.613666  0.151905  1
  Er  Er5  1  0.500000  0.386334  0.848095  1
  Er  Er6  1  0.000000  0.610429  0.926105  1
  Er  Er7  1  0.000000  0.389571  0.073895  1
  Si  Si8  1  0.500000  0.000000  0.500000  1
  Si  Si9  1  0.500000  0.500000  0.000000  1
  I  I10  1  0.500000  0.245722  0.161480  1
  I  I11  1  0.500000  0.754278  0.838520  1
  I  I12  1  0.500000  0.745324  0.338255  1
  I  I13  1  0.500000  0.254676  0.661745  1
  I  I14  1  0.000000  0.258791  0.413754  1
  I  I15  1  0.000000  0.741209  0.586246  1
  I  I16  1  0.000000  0.758620  0.086008  1
  I  I17  1  0.000000  0.241380  0.913992  1
  I  I18  1  0.000000  0.999708  0.240125  1
  I  I19  1  0.000000  0.000292  0.759875  1
  I  I20  1  0.000000  0.499506  0.259617  1
  I  I21  1  0.000000  0.500494  0.740383  1
