# generated using pymatgen
data_SmYFe3B8Os5
_symmetry_space_group_name_H-M   'P 1'
_cell_length_a   7.35208182
_cell_length_b   7.32465558
_cell_length_c   3.97602907
_cell_angle_alpha   90.18478825
_cell_angle_beta   89.70789929
_cell_angle_gamma   89.07835065
_symmetry_Int_Tables_number   1
_chemical_formula_structural   SmYFe3B8Os5
_chemical_formula_sum   'Sm1 Y1 Fe3 B8 Os5'
_cell_volume   214.08334448
_cell_formula_units_Z   1
loop_
 _symmetry_equiv_pos_site_id
 _symmetry_equiv_pos_as_xyz
  1  'x, y, z'
loop_
 _atom_site_type_symbol
 _atom_site_label
 _atom_site_symmetry_multiplicity
 _atom_site_fract_x
 _atom_site_fract_y
 _atom_site_fract_z
 _atom_site_occupancy
  Sm  Sm0  1  0.508106  0.501723  0.599947  1
  Y  Y1  1  0.996800  0.998303  0.081320  1
  Fe  Fe2  1  0.115279  0.376926  0.872656  1
  Fe  Fe3  1  0.873220  0.610642  0.874823  1
  Fe  Fe4  1  0.880065  0.373929  0.372417  1
  B  B5  1  0.675614  0.771107  0.096587  1
  B  B6  1  0.321594  0.224978  0.100932  1
  B  B7  1  0.274975  0.832923  0.603179  1
  B  B8  1  0.731586  0.174182  0.598451  1
  B  B9  1  0.836071  0.682728  0.376808  1
  B  B10  1  0.154603  0.312774  0.373778  1
  B  B11  1  0.194076  0.665739  0.877894  1
  B  B12  1  0.817093  0.337070  0.877231  1
  Os  Os13  1  0.117240  0.619653  0.375752  1
  Os  Os14  1  0.342145  0.113299  0.605972  1
  Os  Os15  1  0.657753  0.895126  0.603354  1
  Os  Os16  1  0.608200  0.158076  0.104716  1
  Os  Os17  1  0.395581  0.850822  0.104185  1
