# generated using pymatgen
data_Y3Lu5Te12
_symmetry_space_group_name_H-M   'P 1'
_cell_length_a   14.38636879
_cell_length_b   13.72012160
_cell_length_c   7.53081800
_cell_angle_alpha   79.40725599
_cell_angle_beta   69.62546734
_cell_angle_gamma   30.99162622
_symmetry_Int_Tables_number   1
_chemical_formula_structural   Y3Lu5Te12
_chemical_formula_sum   'Y3 Lu5 Te12'
_cell_volume   696.98384446
_cell_formula_units_Z   1
loop_
 _symmetry_equiv_pos_site_id
 _symmetry_equiv_pos_as_xyz
  1  'x, y, z'
loop_
 _atom_site_type_symbol
 _atom_site_label
 _atom_site_symmetry_multiplicity
 _atom_site_fract_x
 _atom_site_fract_y
 _atom_site_fract_z
 _atom_site_occupancy
  Y  Y0  1  0.000603  0.000603  0.499397  1
  Y  Y1  1  0.499384  0.499384  0.000616  1
  Y  Y2  1  0.249362  0.249362  0.750638  1
  Lu  Lu3  1  0.750469  0.750469  0.249531  1
  Lu  Lu4  1  0.667621  0.667621  0.832379  1
  Lu  Lu5  1  0.832372  0.832372  0.667628  1
  Lu  Lu6  1  0.582449  0.582449  0.417551  1
  Lu  Lu7  1  0.417134  0.417134  0.582866  1
  Te  Te8  1  0.666220  0.165832  0.828021  1
  Te  Te9  1  0.339638  0.828231  0.165630  1
  Te  Te10  1  0.828231  0.339638  0.666501  1
  Te  Te11  1  0.165832  0.666220  0.339927  1
  Te  Te12  1  0.584977  0.081094  0.420442  1
  Te  Te13  1  0.908698  0.426029  0.086500  1
  Te  Te14  1  0.426029  0.908698  0.578772  1
  Te  Te15  1  0.081094  0.584977  0.913487  1
  Te  Te16  1  0.747211  0.252615  0.252813  1
  Te  Te17  1  0.252615  0.747211  0.747361  1
  Te  Te18  1  0.504557  0.995504  0.999844  1
  Te  Te19  1  0.995504  0.504557  0.500094  1
