# generated using pymatgen
data_Y4AlRh
_symmetry_space_group_name_H-M   'P 1'
_cell_length_a   9.59195919
_cell_length_b   9.59198671
_cell_length_c   9.59192895
_cell_angle_alpha   60.07349345
_cell_angle_beta   60.07347981
_cell_angle_gamma   60.07349013
_symmetry_Int_Tables_number   1
_chemical_formula_structural   Y4AlRh
_chemical_formula_sum   'Y16 Al4 Rh4'
_cell_volume   625.07122844
_cell_formula_units_Z   4
loop_
 _symmetry_equiv_pos_site_id
 _symmetry_equiv_pos_as_xyz
  1  'x, y, z'
loop_
 _atom_site_type_symbol
 _atom_site_label
 _atom_site_symmetry_multiplicity
 _atom_site_fract_x
 _atom_site_fract_y
 _atom_site_fract_z
 _atom_site_occupancy
  Y  Y0  1  0.599729  0.599737  0.599729  1
  Y  Y1  1  0.605268  0.605270  0.189399  1
  Y  Y2  1  0.605266  0.189397  0.605269  1
  Y  Y3  1  0.189402  0.605268  0.605265  1
  Y  Y4  1  0.055458  0.443803  0.443804  1
  Y  Y5  1  0.442368  0.057092  0.057091  1
  Y  Y6  1  0.443804  0.055456  0.443804  1
  Y  Y7  1  0.057090  0.442368  0.057096  1
  Y  Y8  1  0.443803  0.443804  0.055457  1
  Y  Y9  1  0.057090  0.057093  0.442367  1
  Y  Y10  1  0.187114  0.813586  0.813583  1
  Y  Y11  1  0.813255  0.188221  0.188218  1
  Y  Y12  1  0.813586  0.187112  0.813584  1
  Y  Y13  1  0.188222  0.813254  0.188220  1
  Y  Y14  1  0.813586  0.813584  0.187113  1
  Y  Y15  1  0.188221  0.188218  0.813256  1
  Al  Al16  1  0.828486  0.828484  0.828484  1
  Al  Al17  1  0.826391  0.826390  0.517546  1
  Al  Al18  1  0.826391  0.517547  0.826390  1
  Al  Al19  1  0.517547  0.826390  0.826390  1
  Rh  Rh20  1  0.393266  0.393265  0.393261  1
  Rh  Rh21  1  0.390668  0.390666  0.823329  1
  Rh  Rh22  1  0.390671  0.823322  0.390673  1
  Rh  Rh23  1  0.823319  0.390676  0.390672  1
