# generated using pymatgen
data_La2Tb3Dy(RuO7)2
_symmetry_space_group_name_H-M   'P 1'
_cell_length_a   6.49835322
_cell_length_b   6.49917354
_cell_length_c   7.54573600
_cell_angle_alpha   90.00000000
_cell_angle_beta   90.00000000
_cell_angle_gamma   110.11147854
_symmetry_Int_Tables_number   1
_chemical_formula_structural   La2Tb3Dy(RuO7)2
_chemical_formula_sum   'La2 Tb3 Dy1 Ru2 O14'
_cell_volume   299.25429151
_cell_formula_units_Z   1
loop_
 _symmetry_equiv_pos_site_id
 _symmetry_equiv_pos_as_xyz
  1  'x, y, z'
loop_
 _atom_site_type_symbol
 _atom_site_label
 _atom_site_symmetry_multiplicity
 _atom_site_fract_x
 _atom_site_fract_y
 _atom_site_fract_z
 _atom_site_occupancy
  La  La0  1  0.000124  0.000002  0.499848  1
  La  La1  1  0.000124  0.000002  0.000152  1
  Tb  Tb2  1  0.480039  0.926599  0.750000  1
  Tb  Tb3  1  0.519944  0.073142  0.250000  1
  Tb  Tb4  1  0.926667  0.480042  0.750000  1
  Dy  Dy5  1  0.072020  0.519444  0.250000  1
  Ru  Ru6  1  0.499999  0.500102  0.499768  1
  Ru  Ru7  1  0.499999  0.500102  0.000232  1
  O  O8  1  0.589083  0.588929  0.750000  1
  O  O9  1  0.410242  0.411109  0.250000  1
  O  O10  1  0.837114  0.115680  0.750000  1
  O  O11  1  0.163055  0.882316  0.250000  1
  O  O12  1  0.115636  0.837008  0.750000  1
  O  O13  1  0.884980  0.164455  0.250000  1
  O  O14  1  0.443681  0.184402  0.962228  1
  O  O15  1  0.556734  0.815858  0.462179  1
  O  O16  1  0.184299  0.444301  0.963110  1
  O  O17  1  0.815774  0.555974  0.461616  1
  O  O18  1  0.443681  0.184402  0.537772  1
  O  O19  1  0.556734  0.815858  0.037821  1
  O  O20  1  0.815774  0.555974  0.038384  1
  O  O21  1  0.184299  0.444301  0.536890  1
