# generated using pymatgen
data_Mn3(Be12Fe)2
_symmetry_space_group_name_H-M   'P 1'
_cell_length_a   6.77303215
_cell_length_b   6.76971955
_cell_length_c   6.77009510
_cell_angle_alpha   109.46065255
_cell_angle_beta   109.48040188
_cell_angle_gamma   109.47668209
_symmetry_Int_Tables_number   1
_chemical_formula_structural   Mn3(Be12Fe)2
_chemical_formula_sum   'Mn3 Be24 Fe2'
_cell_volume   238.94879278
_cell_formula_units_Z   1
loop_
 _symmetry_equiv_pos_site_id
 _symmetry_equiv_pos_as_xyz
  1  'x, y, z'
loop_
 _atom_site_type_symbol
 _atom_site_label
 _atom_site_symmetry_multiplicity
 _atom_site_fract_x
 _atom_site_fract_y
 _atom_site_fract_z
 _atom_site_occupancy
  Mn  Mn0  1  0.999952  0.999778  0.000011  1
  Mn  Mn1  1  0.624053  0.999885  0.999989  1
  Mn  Mn2  1  0.999858  0.623743  0.000041  1
  Be  Be3  1  0.370067  0.187844  0.999982  1
  Be  Be4  1  0.187782  0.370206  0.999983  1
  Be  Be5  1  0.683900  0.389451  0.999997  1
  Be  Be6  1  0.389014  0.683478  0.999997  1
  Be  Be7  1  0.812477  0.812253  0.182349  1
  Be  Be8  1  0.369968  0.999946  0.187480  1
  Be  Be9  1  0.000176  0.370332  0.187512  1
  Be  Be10  1  0.609476  0.609483  0.295152  1
  Be  Be11  1  0.705374  0.315635  0.315851  1
  Be  Be12  1  0.315192  0.705247  0.315409  1
  Be  Be13  1  0.187978  0.999956  0.369883  1
  Be  Be14  1  0.000182  0.188075  0.370107  1
  Be  Be15  1  0.684919  0.999727  0.389801  1
  Be  Be16  1  0.999725  0.684939  0.389660  1
  Be  Be17  1  0.610102  0.295284  0.610373  1
  Be  Be18  1  0.295127  0.609968  0.610240  1
  Be  Be19  1  0.818106  0.630086  0.630112  1
  Be  Be20  1  0.630089  0.817980  0.629892  1
  Be  Be21  1  0.389533  0.999783  0.684141  1
  Be  Be22  1  0.999778  0.389838  0.684584  1
  Be  Be23  1  0.314283  0.314289  0.704844  1
  Be  Be24  1  0.812672  0.182812  0.812480  1
  Be  Be25  1  0.182480  0.812475  0.812510  1
  Be  Be26  1  0.630129  0.629902  0.817657  1
  Fe  Fe27  1  0.377812  0.377808  0.378037  1
  Fe  Fe28  1  0.999800  0.999794  0.621924  1
