# generated using pymatgen
data_Ba6Sm2(TeO6)3
_symmetry_space_group_name_H-M   'P 1'
_cell_length_a   10.48942476
_cell_length_b   10.48942466
_cell_length_c   10.48942409
_cell_angle_alpha   146.53295881
_cell_angle_beta   131.76660058
_cell_angle_gamma   59.98008524
_symmetry_Int_Tables_number   1
_chemical_formula_structural   Ba6Sm2(TeO6)3
_chemical_formula_sum   'Ba6 Sm2 Te3 O18'
_cell_volume   470.38874247
_cell_formula_units_Z   1
loop_
 _symmetry_equiv_pos_site_id
 _symmetry_equiv_pos_as_xyz
  1  'x, y, z'
loop_
 _atom_site_type_symbol
 _atom_site_label
 _atom_site_symmetry_multiplicity
 _atom_site_fract_x
 _atom_site_fract_y
 _atom_site_fract_z
 _atom_site_occupancy
  Ba  Ba0  1  0.779050  0.500000  0.279050  1
  Ba  Ba1  1  0.385905  0.153206  0.232699  1
  Ba  Ba2  1  0.079492  0.846794  0.232699  1
  Ba  Ba3  1  0.220950  0.500000  0.720950  1
  Ba  Ba4  1  0.920508  0.153206  0.767301  1
  Ba  Ba5  1  0.614095  0.846794  0.767301  1
  Sm  Sm6  1  0.666143  0.666143  0.000000  1
  Sm  Sm7  1  0.333857  0.333857  0.000000  1
  Te  Te8  1  0.500000  0.000000  0.500000  1
  Te  Te9  1  0.169575  0.669575  0.500000  1
  Te  Te10  1  0.830425  0.330425  0.500000  1
  O  O11  1  0.723185  0.000000  0.723185  1
  O  O12  1  0.400847  0.668996  0.731851  1
  O  O13  1  0.062856  0.331004  0.731851  1
  O  O14  1  0.577738  0.846403  0.268664  1
  O  O15  1  0.245372  0.514996  0.269624  1
  O  O16  1  0.905620  0.179783  0.274163  1
  O  O17  1  0.422262  0.690926  0.268664  1
  O  O18  1  0.094380  0.368543  0.274163  1
  O  O19  1  0.754628  0.024252  0.269624  1
  O  O20  1  0.276815  0.000000  0.276815  1
  O  O21  1  0.937144  0.668996  0.268149  1
  O  O22  1  0.599153  0.331004  0.268149  1
  O  O23  1  0.422262  0.153597  0.731336  1
  O  O24  1  0.094380  0.820217  0.725837  1
  O  O25  1  0.754628  0.485004  0.730376  1
  O  O26  1  0.577738  0.309074  0.731336  1
  O  O27  1  0.245372  0.975748  0.730376  1
  O  O28  1  0.905620  0.631458  0.725837  1
