# generated using pymatgen
data_V3Sb8MoSe4
_symmetry_space_group_name_H-M   'P 1'
_cell_length_a   6.51693100
_cell_length_b   6.58809012
_cell_length_c   18.67114264
_cell_angle_alpha   85.33661807
_cell_angle_beta   90.00000000
_cell_angle_gamma   90.00000000
_symmetry_Int_Tables_number   1
_chemical_formula_structural   V3Sb8MoSe4
_chemical_formula_sum   'V6 Sb16 Mo2 Se8'
_cell_volume   798.97548896
_cell_formula_units_Z   2
loop_
 _symmetry_equiv_pos_site_id
 _symmetry_equiv_pos_as_xyz
  1  'x, y, z'
loop_
 _atom_site_type_symbol
 _atom_site_label
 _atom_site_symmetry_multiplicity
 _atom_site_fract_x
 _atom_site_fract_y
 _atom_site_fract_z
 _atom_site_occupancy
  V  V0  1  0.875258  0.679117  0.491802  1
  V  V1  1  0.375258  0.320883  0.008198  1
  V  V2  1  0.131209  0.328369  0.506824  1
  V  V3  1  0.631209  0.671631  0.993176  1
  V  V4  1  0.618671  0.327926  0.506915  1
  V  V5  1  0.118671  0.672074  0.993085  1
  Sb  Sb6  1  0.399212  0.207214  0.272730  1
  Sb  Sb7  1  0.899212  0.792786  0.227270  1
  Sb  Sb8  1  0.601084  0.793496  0.726985  1
  Sb  Sb9  1  0.101084  0.206504  0.773015  1
  Sb  Sb10  1  0.851743  0.207241  0.272940  1
  Sb  Sb11  1  0.351743  0.792759  0.227060  1
  Sb  Sb12  1  0.148588  0.792537  0.727313  1
  Sb  Sb13  1  0.648588  0.207463  0.772687  1
  Sb  Sb14  1  0.374898  0.078135  0.426052  1
  Sb  Sb15  1  0.874898  0.921865  0.073948  1
  Sb  Sb16  1  0.627989  0.923623  0.574005  1
  Sb  Sb17  1  0.127989  0.076377  0.925995  1
  Sb  Sb18  1  0.875439  0.083306  0.426976  1
  Sb  Sb19  1  0.375439  0.916694  0.073024  1
  Sb  Sb20  1  0.122010  0.923675  0.574339  1
  Sb  Sb21  1  0.622010  0.076325  0.925661  1
  Mo  Mo22  1  0.374436  0.670412  0.494426  1
  Mo  Mo23  1  0.874436  0.329588  0.005574  1
  Se  Se24  1  0.874928  0.418828  0.593970  1
  Se  Se25  1  0.374928  0.581172  0.906030  1
  Se  Se26  1  0.119899  0.580812  0.402224  1
  Se  Se27  1  0.619899  0.419188  0.097776  1
  Se  Se28  1  0.629783  0.580440  0.402406  1
  Se  Se29  1  0.129783  0.419560  0.097594  1
  Se  Se30  1  0.374853  0.406074  0.599435  1
  Se  Se31  1  0.874853  0.593926  0.900565  1
