# generated using pymatgen
data_Pr4In2Ag3Ru
_symmetry_space_group_name_H-M   'P 1'
_cell_length_a   8.09760024
_cell_length_b   8.09759995
_cell_length_c   3.96469400
_cell_angle_alpha   90.00000000
_cell_angle_beta   90.00000000
_cell_angle_gamma   90.07059404
_symmetry_Int_Tables_number   1
_chemical_formula_structural   Pr4In2Ag3Ru
_chemical_formula_sum   'Pr4 In2 Ag3 Ru1'
_cell_volume   259.96925742
_cell_formula_units_Z   1
loop_
 _symmetry_equiv_pos_site_id
 _symmetry_equiv_pos_as_xyz
  1  'x, y, z'
loop_
 _atom_site_type_symbol
 _atom_site_label
 _atom_site_symmetry_multiplicity
 _atom_site_fract_x
 _atom_site_fract_y
 _atom_site_fract_z
 _atom_site_occupancy
  Pr  Pr0  1  0.674284  0.174284  0.500000  1
  Pr  Pr1  1  0.305761  0.805761  0.500000  1
  Pr  Pr2  1  0.182269  0.352361  0.500000  1
  Pr  Pr3  1  0.852361  0.682269  0.500000  1
  In  In4  1  0.495670  0.501182  0.000000  1
  In  In5  1  0.001182  0.995670  0.000000  1
  Ag  Ag6  1  0.875556  0.375556  0.000000  1
  Ag  Ag7  1  0.618133  0.869320  0.000000  1
  Ag  Ag8  1  0.369320  0.118133  0.000000  1
  Ru  Ru9  1  0.125464  0.625464  0.000000  1
