# generated using pymatgen
data_Rb12Na8Ta(TiAs4)3
_symmetry_space_group_name_H-M   'P 1'
_cell_length_a   10.84605305
_cell_length_b   10.84605439
_cell_length_c   15.89888543
_cell_angle_alpha   89.98427384
_cell_angle_beta   89.98427628
_cell_angle_gamma   142.61954351
_symmetry_Int_Tables_number   1
_chemical_formula_structural   Rb12Na8Ta(TiAs4)3
_chemical_formula_sum   'Rb12 Na8 Ta1 Ti3 As12'
_cell_volume   1135.46489461
_cell_formula_units_Z   1
loop_
 _symmetry_equiv_pos_site_id
 _symmetry_equiv_pos_as_xyz
  1  'x, y, z'
loop_
 _atom_site_type_symbol
 _atom_site_label
 _atom_site_symmetry_multiplicity
 _atom_site_fract_x
 _atom_site_fract_y
 _atom_site_fract_z
 _atom_site_occupancy
  Rb  Rb0  1  0.605729  0.942346  0.825356  1
  Rb  Rb1  1  0.275293  0.278084  0.315523  1
  Rb  Rb2  1  0.225192  0.225188  0.817373  1
  Rb  Rb3  1  0.721916  0.724707  0.684477  1
  Rb  Rb4  1  0.443216  0.106647  0.675510  1
  Rb  Rb5  1  0.893353  0.556784  0.324490  1
  Rb  Rb6  1  0.057654  0.394271  0.174644  1
  Rb  Rb7  1  0.394145  0.057560  0.173881  1
  Rb  Rb8  1  0.560271  0.893498  0.325738  1
  Rb  Rb9  1  0.106502  0.439729  0.674262  1
  Rb  Rb10  1  0.942440  0.605855  0.826119  1
  Rb  Rb11  1  0.774812  0.774808  0.182627  1
  Na  Na12  1  0.079484  0.920516  0.000000  1
  Na  Na13  1  0.579514  0.420486  0.500000  1
  Na  Na14  1  0.920412  0.079588  0.000000  1
  Na  Na15  1  0.754760  0.245240  0.000000  1
  Na  Na16  1  0.746379  0.253621  0.500000  1
  Na  Na17  1  0.245422  0.754578  0.000000  1
  Na  Na18  1  0.255844  0.744156  0.500000  1
  Na  Na19  1  0.419839  0.580161  0.500000  1
  Ta  Ta20  1  0.082107  0.917893  0.500000  1
  Ti  Ti21  1  0.415576  0.584424  0.000000  1
  Ti  Ti22  1  0.915237  0.084763  0.500000  1
  Ti  Ti23  1  0.584303  0.415697  0.000000  1
  As  As24  1  0.054952  0.363536  0.405109  1
  As  As25  1  0.860402  0.553559  0.093676  1
  As  As26  1  0.446441  0.139598  0.906324  1
  As  As27  1  0.636464  0.945048  0.594891  1
  As  As28  1  0.946419  0.640949  0.593973  1
  As  As29  1  0.139783  0.446632  0.906319  1
  As  As30  1  0.553368  0.860217  0.093681  1
  As  As31  1  0.359051  0.053581  0.406027  1
  As  As32  1  0.198024  0.194362  0.587225  1
  As  As33  1  0.690861  0.690803  0.915565  1
  As  As34  1  0.309197  0.309139  0.084435  1
  As  As35  1  0.805638  0.801976  0.412775  1
