# generated using pymatgen
data_Pa7S12
_symmetry_space_group_name_H-M   'P 1'
_cell_length_a   3.82931600
_cell_length_b   10.87687433
_cell_length_c   10.87687400
_cell_angle_alpha   120.00000508
_cell_angle_beta   90.00000000
_cell_angle_gamma   90.00000000
_symmetry_Int_Tables_number   1
_chemical_formula_structural   Pa7S12
_chemical_formula_sum   'Pa7 S12'
_cell_volume   392.33768406
_cell_formula_units_Z   1
loop_
 _symmetry_equiv_pos_site_id
 _symmetry_equiv_pos_as_xyz
  1  'x, y, z'
loop_
 _atom_site_type_symbol
 _atom_site_label
 _atom_site_symmetry_multiplicity
 _atom_site_fract_x
 _atom_site_fract_y
 _atom_site_fract_z
 _atom_site_occupancy
  Pa  Pa0  1  0.750000  0.000000  0.000000  1
  Pa  Pa1  1  0.750000  0.430471  0.284842  1
  Pa  Pa2  1  0.750000  0.715158  0.145629  1
  Pa  Pa3  1  0.750000  0.854371  0.569529  1
  Pa  Pa4  1  0.250000  0.556182  0.709359  1
  Pa  Pa5  1  0.250000  0.290641  0.846823  1
  Pa  Pa6  1  0.250000  0.153177  0.443818  1
  S  S7  1  0.750000  0.250370  0.997322  1
  S  S8  1  0.750000  0.002678  0.253048  1
  S  S9  1  0.750000  0.746952  0.749630  1
  S  S10  1  0.250000  0.791664  0.003260  1
  S  S11  1  0.250000  0.996740  0.788404  1
  S  S12  1  0.250000  0.211596  0.208336  1
  S  S13  1  0.750000  0.145957  0.630366  1
  S  S14  1  0.750000  0.369634  0.515591  1
  S  S15  1  0.750000  0.484409  0.854043  1
  S  S16  1  0.250000  0.855805  0.380194  1
  S  S17  1  0.250000  0.619806  0.475611  1
  S  S18  1  0.250000  0.524389  0.144195  1
