# generated using pymatgen
data_Er5Tm5(SiPb3)2
_symmetry_space_group_name_H-M   'P 1'
_cell_length_a   9.24264203
_cell_length_b   9.24134565
_cell_length_c   6.43879500
_cell_angle_alpha   90.00000000
_cell_angle_beta   90.00000000
_cell_angle_gamma   119.99535814
_symmetry_Int_Tables_number   1
_chemical_formula_structural   Er5Tm5(SiPb3)2
_chemical_formula_sum   'Er5 Tm5 Si2 Pb6'
_cell_volume   476.30691788
_cell_formula_units_Z   1
loop_
 _symmetry_equiv_pos_site_id
 _symmetry_equiv_pos_as_xyz
  1  'x, y, z'
loop_
 _atom_site_type_symbol
 _atom_site_label
 _atom_site_symmetry_multiplicity
 _atom_site_fract_x
 _atom_site_fract_y
 _atom_site_fract_z
 _atom_site_occupancy
  Er  Er0  1  0.750215  0.750196  0.250000  1
  Er  Er1  1  0.249785  0.999981  0.250000  1
  Er  Er2  1  0.000000  0.249767  0.250000  1
  Er  Er3  1  0.249818  0.249810  0.750000  1
  Er  Er4  1  0.750182  0.999992  0.750000  1
  Tm  Tm5  1  0.666686  0.333365  0.500005  1
  Tm  Tm6  1  0.333314  0.666681  0.500005  1
  Tm  Tm7  1  0.333314  0.666681  0.999995  1
  Tm  Tm8  1  0.666686  0.333365  0.999995  1
  Tm  Tm9  1  0.000000  0.750356  0.750000  1
  Si  Si10  1  0.000000  0.999855  0.500181  1
  Si  Si11  1  0.000000  0.999855  0.999819  1
  Pb  Pb12  1  0.392555  0.392555  0.250000  1
  Pb  Pb13  1  0.607445  0.000000  0.250000  1
  Pb  Pb14  1  0.000000  0.607435  0.250000  1
  Pb  Pb15  1  0.607582  0.607510  0.750000  1
  Pb  Pb16  1  0.392418  0.999928  0.750000  1
  Pb  Pb17  1  0.000000  0.392668  0.750000  1
