# generated using pymatgen
data_Ho3Pa(Al8Pt3)3
_symmetry_space_group_name_H-M   'P 1'
_cell_length_a   7.54498270
_cell_length_b   7.55740925
_cell_length_c   13.12971608
_cell_angle_alpha   84.51974796
_cell_angle_beta   78.96097086
_cell_angle_gamma   59.92897273
_symmetry_Int_Tables_number   1
_chemical_formula_structural   Ho3Pa(Al8Pt3)3
_chemical_formula_sum   'Ho3 Pa1 Al24 Pt9'
_cell_volume   635.90872870
_cell_formula_units_Z   1
loop_
 _symmetry_equiv_pos_site_id
 _symmetry_equiv_pos_as_xyz
  1  'x, y, z'
loop_
 _atom_site_type_symbol
 _atom_site_label
 _atom_site_symmetry_multiplicity
 _atom_site_fract_x
 _atom_site_fract_y
 _atom_site_fract_z
 _atom_site_occupancy
  Ho  Ho0  1  0.606282  0.831299  0.192315  1
  Ho  Ho1  1  0.733786  0.498806  0.807728  1
  Ho  Ho2  1  0.266312  0.501303  0.192486  1
  Pa  Pa3  1  0.394925  0.168430  0.805229  1
  Al  Al4  1  0.684586  0.833068  0.944525  1
  Al  Al5  1  0.315421  0.166255  0.055867  1
  Al  Al6  1  0.146677  0.832674  0.561013  1
  Al  Al7  1  0.854377  0.167313  0.437961  1
  Al  Al8  1  0.480384  0.166635  0.558155  1
  Al  Al9  1  0.520159  0.832428  0.440839  1
  Al  Al10  1  0.217678  0.165294  0.330110  1
  Al  Al11  1  0.784725  0.832571  0.669799  1
  Al  Al12  1  0.437625  0.508697  0.670028  1
  Al  Al13  1  0.562317  0.493729  0.329602  1
  Al  Al14  1  0.107708  0.159829  0.668601  1
  Al  Al15  1  0.890189  0.839748  0.330790  1
  Al  Al16  1  0.352753  0.500189  0.944540  1
  Al  Al17  1  0.646988  0.500574  0.056029  1
  Al  Al18  1  0.014738  0.167826  0.953205  1
  Al  Al19  1  0.984208  0.832471  0.047748  1
  Al  Al20  1  0.185969  0.500232  0.440932  1
  Al  Al21  1  0.813476  0.500568  0.558507  1
  Al  Al22  1  0.734175  0.163771  0.183523  1
  Al  Al23  1  0.264132  0.837279  0.817190  1
  Al  Al24  1  0.062627  0.631646  0.815906  1
  Al  Al25  1  0.938427  0.369002  0.184692  1
  Al  Al26  1  0.855912  0.040055  0.816572  1
  Al  Al27  1  0.144817  0.958185  0.184031  1
  Pt  Pt28  1  0.120058  0.491042  0.640043  1
  Pt  Pt29  1  0.879859  0.508251  0.361187  1
  Pt  Pt30  1  0.656543  0.172020  0.999197  1
  Pt  Pt31  1  0.343642  0.828099  0.999577  1
  Pt  Pt32  1  0.537320  0.166628  0.361652  1
  Pt  Pt33  1  0.462338  0.833586  0.639790  1
  Pt  Pt34  1  0.777861  0.175624  0.638610  1
  Pt  Pt35  1  0.221212  0.824718  0.362626  1
  Pt  Pt36  1  0.999794  0.500156  0.999397  1
