# generated using pymatgen
data_Mn3Fe(CoIr)2
_symmetry_space_group_name_H-M   'P 1'
_cell_length_a   5.19733214
_cell_length_b   5.21457412
_cell_length_c   4.14669900
_cell_angle_alpha   90.00000000
_cell_angle_beta   90.00000000
_cell_angle_gamma   120.35731250
_symmetry_Int_Tables_number   1
_chemical_formula_structural   Mn3Fe(CoIr)2
_chemical_formula_sum   'Mn3 Fe1 Co2 Ir2'
_cell_volume   96.97448651
_cell_formula_units_Z   1
loop_
 _symmetry_equiv_pos_site_id
 _symmetry_equiv_pos_as_xyz
  1  'x, y, z'
loop_
 _atom_site_type_symbol
 _atom_site_label
 _atom_site_symmetry_multiplicity
 _atom_site_fract_x
 _atom_site_fract_y
 _atom_site_fract_z
 _atom_site_occupancy
  Mn  Mn0  1  0.160406  0.829308  0.250000  1
  Mn  Mn1  1  0.329959  0.169737  0.750000  1
  Mn  Mn2  1  0.829530  0.158737  0.750000  1
  Fe  Fe3  1  0.166279  0.329220  0.250000  1
  Co  Co4  1  0.676517  0.835665  0.250000  1
  Co  Co5  1  0.834413  0.674952  0.750000  1
  Ir  Ir6  1  0.666672  0.337568  0.250000  1
  Ir  Ir7  1  0.336225  0.664814  0.750000  1
