# generated using pymatgen
data_Li2Ho4TmNb(B6Os)4
_symmetry_space_group_name_H-M   'P 1'
_cell_length_a   3.55058900
_cell_length_b   8.90981059
_cell_length_c   11.25996800
_cell_angle_alpha   89.94856774
_cell_angle_beta   90.00000000
_cell_angle_gamma   90.00000000
_symmetry_Int_Tables_number   1
_chemical_formula_structural   Li2Ho4TmNb(B6Os)4
_chemical_formula_sum   'Li2 Ho4 Tm1 Nb1 B24 Os4'
_cell_volume   356.20979398
_cell_formula_units_Z   1
loop_
 _symmetry_equiv_pos_site_id
 _symmetry_equiv_pos_as_xyz
  1  'x, y, z'
loop_
 _atom_site_type_symbol
 _atom_site_label
 _atom_site_symmetry_multiplicity
 _atom_site_fract_x
 _atom_site_fract_y
 _atom_site_fract_z
 _atom_site_occupancy
  Li  Li0  1  0.000000  0.054937  0.625274  1
  Li  Li1  1  0.000000  0.443390  0.128566  1
  Ho  Ho2  1  0.000000  0.318927  0.414693  1
  Ho  Ho3  1  0.000000  0.681544  0.585642  1
  Ho  Ho4  1  0.000000  0.821036  0.085774  1
  Ho  Ho5  1  0.000000  0.178249  0.911326  1
  Tm  Tm6  1  0.000000  0.555346  0.873055  1
  Nb  Nb7  1  0.000000  0.945079  0.375254  1
  B  B8  1  0.500000  0.555016  0.433145  1
  B  B9  1  0.500000  0.444404  0.566298  1
  B  B10  1  0.500000  0.056193  0.067164  1
  B  B11  1  0.500000  0.947614  0.932532  1
  B  B12  1  0.500000  0.755407  0.419428  1
  B  B13  1  0.500000  0.243136  0.581416  1
  B  B14  1  0.500000  0.255688  0.083754  1
  B  B15  1  0.500000  0.750319  0.919100  1
  B  B16  1  0.500000  0.792750  0.264149  1
  B  B17  1  0.500000  0.203765  0.733450  1
  B  B18  1  0.500000  0.295527  0.236862  1
  B  B19  1  0.500000  0.709888  0.763592  1
  B  B20  1  0.500000  0.625063  0.182054  1
  B  B21  1  0.500000  0.367946  0.815469  1
  B  B22  1  0.500000  0.127645  0.318488  1
  B  B23  1  0.500000  0.875758  0.681326  1
  B  B24  1  0.500000  0.980378  0.213406  1
  B  B25  1  0.500000  0.020434  0.784409  1
  B  B26  1  0.500000  0.480862  0.286455  1
  B  B27  1  0.500000  0.517819  0.711901  1
  B  B28  1  0.500000  0.593336  0.030577  1
  B  B29  1  0.500000  0.401436  0.978846  1
  B  B30  1  0.500000  0.096709  0.473439  1
  B  B31  1  0.500000  0.903496  0.525837  1
  Os  Os32  1  0.000000  0.641624  0.318280  1
  Os  Os33  1  0.000000  0.356949  0.678139  1
  Os  Os34  1  0.000000  0.138490  0.183738  1
  Os  Os35  1  0.000000  0.863841  0.817159  1
