# generated using pymatgen
data_Pr14Nd2Cd4CoPt3
_symmetry_space_group_name_H-M   'P 1'
_cell_length_a   10.04015488
_cell_length_b   10.04015532
_cell_length_c   10.04001807
_cell_angle_alpha   60.14756066
_cell_angle_beta   60.14756103
_cell_angle_gamma   60.12292152
_symmetry_Int_Tables_number   1
_chemical_formula_structural   Pr14Nd2Cd4CoPt3
_chemical_formula_sum   'Pr14 Nd2 Cd4 Co1 Pt3'
_cell_volume   717.90836014
_cell_formula_units_Z   1
loop_
 _symmetry_equiv_pos_site_id
 _symmetry_equiv_pos_as_xyz
  1  'x, y, z'
loop_
 _atom_site_type_symbol
 _atom_site_label
 _atom_site_symmetry_multiplicity
 _atom_site_fract_x
 _atom_site_fract_y
 _atom_site_fract_z
 _atom_site_occupancy
  Pr  Pr0  1  0.345450  0.953189  0.345192  1
  Pr  Pr1  1  0.953189  0.345450  0.345192  1
  Pr  Pr2  1  0.819041  0.189719  0.189756  1
  Pr  Pr3  1  0.191274  0.808050  0.808284  1
  Pr  Pr4  1  0.189719  0.819041  0.189756  1
  Pr  Pr5  1  0.808050  0.191274  0.808284  1
  Pr  Pr6  1  0.189830  0.189830  0.819152  1
  Pr  Pr7  1  0.808277  0.808277  0.191263  1
  Pr  Pr8  1  0.938567  0.562185  0.562213  1
  Pr  Pr9  1  0.562470  0.935736  0.935676  1
  Pr  Pr10  1  0.562185  0.938567  0.562213  1
  Pr  Pr11  1  0.935736  0.562470  0.935676  1
  Pr  Pr12  1  0.562168  0.562168  0.938663  1
  Pr  Pr13  1  0.935666  0.935666  0.562588  1
  Nd  Nd14  1  0.350313  0.350313  0.350141  1
  Nd  Nd15  1  0.345346  0.345346  0.953694  1
  Cd  Cd16  1  0.579637  0.579637  0.579889  1
  Cd  Cd17  1  0.580491  0.580491  0.259495  1
  Cd  Cd18  1  0.580369  0.259520  0.580758  1
  Cd  Cd19  1  0.259520  0.580369  0.580758  1
  Co  Co20  1  0.142729  0.142729  0.142274  1
  Pt  Pt21  1  0.144154  0.144154  0.571672  1
  Pt  Pt22  1  0.144573  0.571243  0.143707  1
  Pt  Pt23  1  0.571243  0.144573  0.143707  1
