# generated using pymatgen
data_HoEr3Pd4F28
_symmetry_space_group_name_H-M   'P 1'
_cell_length_a   5.49441507
_cell_length_b   8.78373310
_cell_length_c   11.86976301
_cell_angle_alpha   62.59139926
_cell_angle_beta   89.98939053
_cell_angle_gamma   89.99177347
_symmetry_Int_Tables_number   1
_chemical_formula_structural   HoEr3Pd4F28
_chemical_formula_sum   'Ho1 Er3 Pd4 F28'
_cell_volume   508.54747627
_cell_formula_units_Z   1
loop_
 _symmetry_equiv_pos_site_id
 _symmetry_equiv_pos_as_xyz
  1  'x, y, z'
loop_
 _atom_site_type_symbol
 _atom_site_label
 _atom_site_symmetry_multiplicity
 _atom_site_fract_x
 _atom_site_fract_y
 _atom_site_fract_z
 _atom_site_occupancy
  Ho  Ho0  1  0.761495  0.813813  0.764534  1
  Er  Er1  1  0.261653  0.186914  0.735475  1
  Er  Er2  1  0.238363  0.186211  0.235567  1
  Er  Er3  1  0.738513  0.813733  0.264509  1
  Pd  Pd4  1  0.758803  0.271707  0.957194  1
  Pd  Pd5  1  0.258757  0.727720  0.542548  1
  Pd  Pd6  1  0.241285  0.727627  0.043512  1
  Pd  Pd7  1  0.740830  0.272568  0.456759  1
  F  F8  1  0.435856  0.701566  0.916621  1
  F  F9  1  0.936146  0.298606  0.583460  1
  F  F10  1  0.563576  0.298263  0.083717  1
  F  F11  1  0.064415  0.701438  0.415703  1
  F  F12  1  0.439284  0.279092  0.541740  1
  F  F13  1  0.939749  0.720820  0.958916  1
  F  F14  1  0.561121  0.721369  0.458109  1
  F  F15  1  0.060482  0.278381  0.041996  1
  F  F16  1  0.775376  0.520574  0.858141  1
  F  F17  1  0.275129  0.478698  0.641669  1
  F  F18  1  0.225112  0.478488  0.142240  1
  F  F19  1  0.724468  0.521589  0.358011  1
  F  F20  1  0.754071  0.022930  0.049624  1
  F  F21  1  0.254086  0.976541  0.450384  1
  F  F22  1  0.245772  0.976404  0.950919  1
  F  F23  1  0.745644  0.023853  0.548986  1
  F  F24  1  0.964988  0.724250  0.635274  1
  F  F25  1  0.465344  0.275484  0.863991  1
  F  F26  1  0.033923  0.275638  0.363505  1
  F  F27  1  0.534747  0.724403  0.136478  1
  F  F28  1  0.052382  0.745573  0.176240  1
  F  F29  1  0.551539  0.254555  0.324106  1
  F  F30  1  0.947886  0.253707  0.824442  1
  F  F31  1  0.446504  0.745581  0.675587  1
  F  F32  1  0.415570  0.970212  0.232415  1
  F  F33  1  0.915541  0.029727  0.267694  1
  F  F34  1  0.585075  0.031315  0.767800  1
  F  F35  1  0.086514  0.970647  0.732129  1
