# generated using pymatgen
data_Y3Er13Cd4TcNi3
_symmetry_space_group_name_H-M   'P 1'
_cell_length_a   9.53912501
_cell_length_b   9.53933204
_cell_length_c   9.53762128
_cell_angle_alpha   59.50966296
_cell_angle_beta   59.48223074
_cell_angle_gamma   59.47571313
_symmetry_Int_Tables_number   1
_chemical_formula_structural   Y3Er13Cd4TcNi3
_chemical_formula_sum   'Y3 Er13 Cd4 Tc1 Ni3'
_cell_volume   606.56377029
_cell_formula_units_Z   1
loop_
 _symmetry_equiv_pos_site_id
 _symmetry_equiv_pos_as_xyz
  1  'x, y, z'
loop_
 _atom_site_type_symbol
 _atom_site_label
 _atom_site_symmetry_multiplicity
 _atom_site_fract_x
 _atom_site_fract_y
 _atom_site_fract_z
 _atom_site_occupancy
  Y  Y0  1  0.189375  0.805787  0.189171  1
  Y  Y1  1  0.814857  0.815616  0.185481  1
  Y  Y2  1  0.188624  0.189022  0.805984  1
  Er  Er3  1  0.597005  0.597098  0.597824  1
  Er  Er4  1  0.602270  0.601394  0.204089  1
  Er  Er5  1  0.602395  0.204053  0.601717  1
  Er  Er6  1  0.204034  0.602041  0.602199  1
  Er  Er7  1  0.061689  0.436587  0.437432  1
  Er  Er8  1  0.437004  0.061529  0.061066  1
  Er  Er9  1  0.437097  0.061799  0.437128  1
  Er  Er10  1  0.061350  0.436495  0.061273  1
  Er  Er11  1  0.437515  0.436661  0.061670  1
  Er  Er12  1  0.061067  0.061445  0.436997  1
  Er  Er13  1  0.186413  0.814712  0.814020  1
  Er  Er14  1  0.804554  0.190211  0.189637  1
  Er  Er15  1  0.814695  0.186443  0.814700  1
  Cd  Cd16  1  0.829777  0.829763  0.829343  1
  Cd  Cd17  1  0.829333  0.829849  0.506552  1
  Cd  Cd18  1  0.829387  0.505976  0.829930  1
  Cd  Cd19  1  0.506498  0.829380  0.829398  1
  Tc  Tc20  1  0.395015  0.394062  0.393980  1
  Ni  Ni21  1  0.392336  0.392331  0.825583  1
  Ni  Ni22  1  0.392098  0.825659  0.392418  1
  Ni  Ni23  1  0.825606  0.392086  0.392404  1
