# generated using pymatgen
data_DyTm2MoO7
_symmetry_space_group_name_H-M   'P 1'
_cell_length_a   6.39207300
_cell_length_b   6.39207233
_cell_length_c   7.39539800
_cell_angle_alpha   90.00000000
_cell_angle_beta   90.00000000
_cell_angle_gamma   108.93555574
_symmetry_Int_Tables_number   1
_chemical_formula_structural   DyTm2MoO7
_chemical_formula_sum   'Dy2 Tm4 Mo2 O14'
_cell_volume   285.81361529
_cell_formula_units_Z   2
loop_
 _symmetry_equiv_pos_site_id
 _symmetry_equiv_pos_as_xyz
  1  'x, y, z'
loop_
 _atom_site_type_symbol
 _atom_site_label
 _atom_site_symmetry_multiplicity
 _atom_site_fract_x
 _atom_site_fract_y
 _atom_site_fract_z
 _atom_site_occupancy
  Dy  Dy0  1  0.523479  0.523479  0.500000  1
  Dy  Dy1  1  0.476521  0.476521  0.000000  1
  Tm  Tm2  1  0.998565  0.464728  0.745773  1
  Tm  Tm3  1  0.001435  0.535272  0.245773  1
  Tm  Tm4  1  0.535272  0.001435  0.754227  1
  Tm  Tm5  1  0.464728  0.998565  0.254227  1
  Mo  Mo6  1  0.001996  0.001996  0.500000  1
  Mo  Mo7  1  0.998004  0.998004  0.000000  1
  O  O8  1  0.638648  0.361352  0.750000  1
  O  O9  1  0.361352  0.638648  0.250000  1
  O  O10  1  0.922770  0.077230  0.750000  1
  O  O11  1  0.077230  0.922770  0.250000  1
  O  O12  1  0.919036  0.671889  0.528107  1
  O  O13  1  0.080964  0.328111  0.028107  1
  O  O14  1  0.328111  0.080964  0.971893  1
  O  O15  1  0.671889  0.919036  0.471893  1
  O  O16  1  0.366531  0.633469  0.750000  1
  O  O17  1  0.633469  0.366531  0.250000  1
  O  O18  1  0.935711  0.681441  0.963895  1
  O  O19  1  0.064289  0.318559  0.463895  1
  O  O20  1  0.318559  0.064289  0.536105  1
  O  O21  1  0.681441  0.935711  0.036105  1
