# generated using pymatgen
data_LiLa3(CdHg3)2
_symmetry_space_group_name_H-M   'P 1'
_cell_length_a   5.34283400
_cell_length_b   7.27471300
_cell_length_c   15.96756800
_cell_angle_alpha   90.00000000
_cell_angle_beta   90.00133588
_cell_angle_gamma   90.00000000
_symmetry_Int_Tables_number   1
_chemical_formula_structural   LiLa3(CdHg3)2
_chemical_formula_sum   'Li2 La6 Cd4 Hg12'
_cell_volume   620.62078974
_cell_formula_units_Z   2
loop_
 _symmetry_equiv_pos_site_id
 _symmetry_equiv_pos_as_xyz
  1  'x, y, z'
loop_
 _atom_site_type_symbol
 _atom_site_label
 _atom_site_symmetry_multiplicity
 _atom_site_fract_x
 _atom_site_fract_y
 _atom_site_fract_z
 _atom_site_occupancy
  Li  Li0  1  0.000450  0.500000  0.666401  1
  Li  Li1  1  0.500459  0.000000  0.833596  1
  La  La2  1  0.000043  0.000000  0.003117  1
  La  La3  1  0.499406  0.500000  0.167573  1
  La  La4  1  0.999415  0.000000  0.332433  1
  La  La5  1  0.500049  0.500000  0.496895  1
  La  La6  1  0.000607  0.000000  0.664662  1
  La  La7  1  0.500584  0.500000  0.835328  1
  Cd  Cd8  1  0.999975  0.500000  0.000214  1
  Cd  Cd9  1  0.499537  0.000000  0.166502  1
  Cd  Cd10  1  0.999539  0.500000  0.333495  1
  Cd  Cd11  1  0.499979  0.000000  0.499787  1
  Hg  Hg12  1  0.499995  0.243791  0.996959  1
  Hg  Hg13  1  0.499995  0.756210  0.996959  1
  Hg  Hg14  1  0.999392  0.254016  0.167020  1
  Hg  Hg15  1  0.999392  0.745984  0.167020  1
  Hg  Hg16  1  0.499387  0.245966  0.332974  1
  Hg  Hg17  1  0.499387  0.754035  0.332974  1
  Hg  Hg18  1  0.999993  0.256192  0.503043  1
  Hg  Hg19  1  0.999993  0.743808  0.503043  1
  Hg  Hg20  1  0.500606  0.249799  0.669791  1
  Hg  Hg21  1  0.500606  0.750202  0.669791  1
  Hg  Hg22  1  0.000603  0.250190  0.830212  1
  Hg  Hg23  1  0.000603  0.749810  0.830212  1
