# generated using pymatgen
data_YbYIr2O7
_symmetry_space_group_name_H-M   'P 1'
_cell_length_a   7.22180201
_cell_length_b   7.23488978
_cell_length_c   7.23489054
_cell_angle_alpha   60.08361732
_cell_angle_beta   60.05982567
_cell_angle_gamma   60.05982609
_symmetry_Int_Tables_number   1
_chemical_formula_structural   YbYIr2O7
_chemical_formula_sum   'Yb2 Y2 Ir4 O14'
_cell_volume   267.70765057
_cell_formula_units_Z   2
loop_
 _symmetry_equiv_pos_site_id
 _symmetry_equiv_pos_as_xyz
  1  'x, y, z'
loop_
 _atom_site_type_symbol
 _atom_site_label
 _atom_site_symmetry_multiplicity
 _atom_site_fract_x
 _atom_site_fract_y
 _atom_site_fract_z
 _atom_site_occupancy
  Yb  Yb0  1  0.125000  0.625000  0.125000  1
  Yb  Yb1  1  0.125000  0.125000  0.625000  1
  Y  Y2  1  0.625000  0.125000  0.125000  1
  Y  Y3  1  0.125000  0.125000  0.125000  1
  Ir  Ir4  1  0.125000  0.625000  0.625000  1
  Ir  Ir5  1  0.625000  0.125000  0.625000  1
  Ir  Ir6  1  0.625000  0.625000  0.125000  1
  Ir  Ir7  1  0.625000  0.625000  0.625000  1
  O  O8  1  0.702615  0.709289  0.293734  1
  O  O9  1  0.294362  0.293734  0.709289  1
  O  O10  1  0.702615  0.293734  0.709289  1
  O  O11  1  0.294362  0.709289  0.293734  1
  O  O12  1  0.296179  0.703821  0.703821  1
  O  O13  1  0.707463  0.292537  0.292537  1
  O  O14  1  0.547385  0.540711  0.956266  1
  O  O15  1  0.955638  0.956266  0.540711  1
  O  O16  1  0.547385  0.956266  0.540711  1
  O  O17  1  0.955638  0.540711  0.956266  1
  O  O18  1  0.953821  0.546179  0.546179  1
  O  O19  1  0.542537  0.957463  0.957463  1
  O  O20  1  0.254619  0.245381  0.245381  1
  O  O21  1  0.995381  0.004619  0.004619  1
