# generated using pymatgen
data_Ho8Sn(Pd5Pt)4
_symmetry_space_group_name_H-M   'P 1'
_cell_length_a   8.38415801
_cell_length_b   8.36894701
_cell_length_c   8.41118200
_cell_angle_alpha   90.00000000
_cell_angle_beta   90.00000000
_cell_angle_gamma   90.00515053
_symmetry_Int_Tables_number   1
_chemical_formula_structural   Ho8Sn(Pd5Pt)4
_chemical_formula_sum   'Ho8 Sn1 Pd20 Pt4'
_cell_volume   590.18382255
_cell_formula_units_Z   1
loop_
 _symmetry_equiv_pos_site_id
 _symmetry_equiv_pos_as_xyz
  1  'x, y, z'
loop_
 _atom_site_type_symbol
 _atom_site_label
 _atom_site_symmetry_multiplicity
 _atom_site_fract_x
 _atom_site_fract_y
 _atom_site_fract_z
 _atom_site_occupancy
  Ho  Ho0  1  0.253532  0.254391  0.253170  1
  Ho  Ho1  1  0.747063  0.746361  0.746287  1
  Ho  Ho2  1  0.747063  0.746361  0.253713  1
  Ho  Ho3  1  0.746478  0.253634  0.745986  1
  Ho  Ho4  1  0.253532  0.254391  0.746830  1
  Ho  Ho5  1  0.252984  0.745548  0.252864  1
  Ho  Ho6  1  0.252984  0.745548  0.747136  1
  Ho  Ho7  1  0.746478  0.253634  0.254014  1
  Sn  Sn8  1  0.999933  0.000109  0.000000  1
  Pd  Pd9  1  0.734759  0.500177  0.000000  1
  Pd  Pd10  1  0.999924  0.265350  0.500000  1
  Pd  Pd11  1  0.500212  0.265118  0.000000  1
  Pd  Pd12  1  0.999965  0.734634  0.500000  1
  Pd  Pd13  1  0.500278  0.734903  0.000000  1
  Pd  Pd14  1  0.500026  0.000044  0.265279  1
  Pd  Pd15  1  0.265523  0.000099  0.500000  1
  Pd  Pd16  1  0.500026  0.000044  0.734721  1
  Pd  Pd17  1  0.734593  0.000084  0.500000  1
  Pd  Pd18  1  0.999997  0.500091  0.265363  1
  Pd  Pd19  1  0.999997  0.500091  0.734637  1
  Pd  Pd20  1  0.500117  0.745120  0.500000  1
  Pd  Pd21  1  0.499921  0.500065  0.254562  1
  Pd  Pd22  1  0.499921  0.500065  0.745438  1
  Pd  Pd23  1  0.307979  0.999864  0.000000  1
  Pd  Pd24  1  0.692233  0.999853  0.000000  1
  Pd  Pd25  1  0.999819  0.307688  0.000000  1
  Pd  Pd26  1  0.999759  0.692403  0.000000  1
  Pd  Pd27  1  0.999978  0.999827  0.308233  1
  Pd  Pd28  1  0.999978  0.999827  0.691767  1
  Pt  Pt29  1  0.264842  0.500145  0.000000  1
  Pt  Pt30  1  0.254574  0.499976  0.500000  1
  Pt  Pt31  1  0.745407  0.500002  0.500000  1
  Pt  Pt32  1  0.500120  0.254552  0.500000  1
