# generated using pymatgen
data_TbYb6Dy(Cu2Sn5)2
_symmetry_space_group_name_H-M   'P 1'
_cell_length_a   4.44617300
_cell_length_b   8.82818000
_cell_length_c   14.09386900
_cell_angle_alpha   90.00000000
_cell_angle_beta   90.00000000
_cell_angle_gamma   90.00000000
_symmetry_Int_Tables_number   1
_chemical_formula_structural   TbYb6Dy(Cu2Sn5)2
_chemical_formula_sum   'Tb1 Yb6 Dy1 Cu4 Sn10'
_cell_volume   553.20712767
_cell_formula_units_Z   1
loop_
 _symmetry_equiv_pos_site_id
 _symmetry_equiv_pos_as_xyz
  1  'x, y, z'
loop_
 _atom_site_type_symbol
 _atom_site_label
 _atom_site_symmetry_multiplicity
 _atom_site_fract_x
 _atom_site_fract_y
 _atom_site_fract_z
 _atom_site_occupancy
  Tb  Tb0  1  0.500000  0.699158  0.000000  1
  Yb  Yb1  1  0.500000  0.792687  0.742392  1
  Yb  Yb2  1  0.000000  0.207322  0.757600  1
  Yb  Yb3  1  0.000000  0.207322  0.242400  1
  Yb  Yb4  1  0.500000  0.137034  0.000000  1
  Yb  Yb5  1  0.000000  0.863019  0.500000  1
  Yb  Yb6  1  0.500000  0.792687  0.257608  1
  Dy  Dy7  1  0.000000  0.300854  0.500000  1
  Cu  Cu8  1  0.500000  0.378064  0.644547  1
  Cu  Cu9  1  0.000000  0.621898  0.855379  1
  Cu  Cu10  1  0.000000  0.621898  0.144621  1
  Cu  Cu11  1  0.500000  0.378064  0.355453  1
  Sn  Sn12  1  0.500000  0.085540  0.395922  1
  Sn  Sn13  1  0.000000  0.555040  0.663743  1
  Sn  Sn14  1  0.000000  0.406843  0.000000  1
  Sn  Sn15  1  0.500000  0.444903  0.163789  1
  Sn  Sn16  1  0.500000  0.593083  0.500000  1
  Sn  Sn17  1  0.500000  0.444903  0.836211  1
  Sn  Sn18  1  0.000000  0.914551  0.895868  1
  Sn  Sn19  1  0.000000  0.555040  0.336257  1
  Sn  Sn20  1  0.500000  0.085540  0.604078  1
  Sn  Sn21  1  0.000000  0.914551  0.104132  1
