# generated using pymatgen
data_Pr4LuIr2Rh
_symmetry_space_group_name_H-M   'P 1'
_cell_length_a   11.21184100
_cell_length_b   11.21184100
_cell_length_c   6.58594300
_cell_angle_alpha   90.00000000
_cell_angle_beta   90.00000000
_cell_angle_gamma   90.00000000
_symmetry_Int_Tables_number   1
_chemical_formula_structural   Pr4LuIr2Rh
_chemical_formula_sum   'Pr16 Lu4 Ir8 Rh4'
_cell_volume   827.88845831
_cell_formula_units_Z   4
loop_
 _symmetry_equiv_pos_site_id
 _symmetry_equiv_pos_as_xyz
  1  'x, y, z'
loop_
 _atom_site_type_symbol
 _atom_site_label
 _atom_site_symmetry_multiplicity
 _atom_site_fract_x
 _atom_site_fract_y
 _atom_site_fract_z
 _atom_site_occupancy
  Pr  Pr0  1  0.286986  0.087439  0.382728  1
  Pr  Pr1  1  0.286986  0.912561  0.882728  1
  Pr  Pr2  1  0.713014  0.087439  0.882728  1
  Pr  Pr3  1  0.713014  0.912561  0.382728  1
  Pr  Pr4  1  0.587439  0.786986  0.882728  1
  Pr  Pr5  1  0.587439  0.213014  0.382728  1
  Pr  Pr6  1  0.412561  0.786986  0.382728  1
  Pr  Pr7  1  0.412561  0.213014  0.882728  1
  Pr  Pr8  1  0.213014  0.412561  0.617272  1
  Pr  Pr9  1  0.213014  0.587439  0.117272  1
  Pr  Pr10  1  0.786986  0.412561  0.117272  1
  Pr  Pr11  1  0.786986  0.587439  0.617272  1
  Pr  Pr12  1  0.912561  0.713014  0.117272  1
  Pr  Pr13  1  0.912561  0.286986  0.617272  1
  Pr  Pr14  1  0.087439  0.713014  0.617272  1
  Pr  Pr15  1  0.087439  0.286986  0.117272  1
  Lu  Lu16  1  0.000000  0.000000  0.500000  1
  Lu  Lu17  1  0.000000  0.000000  0.000000  1
  Lu  Lu18  1  0.500000  0.500000  0.000000  1
  Lu  Lu19  1  0.500000  0.500000  0.500000  1
  Ir  Ir20  1  0.853173  0.146827  0.250000  1
  Ir  Ir21  1  0.853173  0.853173  0.750000  1
  Ir  Ir22  1  0.146827  0.146827  0.750000  1
  Ir  Ir23  1  0.146827  0.853173  0.250000  1
  Ir  Ir24  1  0.646827  0.353173  0.750000  1
  Ir  Ir25  1  0.646827  0.646827  0.250000  1
  Ir  Ir26  1  0.353173  0.353173  0.250000  1
  Ir  Ir27  1  0.353173  0.646827  0.750000  1
  Rh  Rh28  1  0.500000  0.000000  0.116258  1
  Rh  Rh29  1  0.500000  0.000000  0.616258  1
  Rh  Rh30  1  0.000000  0.500000  0.883742  1
  Rh  Rh31  1  0.000000  0.500000  0.383742  1
