# generated using pymatgen
data_Cu4Pd3Au
_symmetry_space_group_name_H-M   'P 1'
_cell_length_a   5.27032323
_cell_length_b   5.27032342
_cell_length_c   4.29982400
_cell_angle_alpha   90.00000000
_cell_angle_beta   90.00000000
_cell_angle_gamma   110.75484200
_symmetry_Int_Tables_number   1
_chemical_formula_structural   Cu4Pd3Au
_chemical_formula_sum   'Cu4 Pd3 Au1'
_cell_volume   111.68264743
_cell_formula_units_Z   1
loop_
 _symmetry_equiv_pos_site_id
 _symmetry_equiv_pos_as_xyz
  1  'x, y, z'
loop_
 _atom_site_type_symbol
 _atom_site_label
 _atom_site_symmetry_multiplicity
 _atom_site_fract_x
 _atom_site_fract_y
 _atom_site_fract_z
 _atom_site_occupancy
  Cu  Cu0  1  0.129640  0.367314  0.250000  1
  Cu  Cu1  1  0.632687  0.870361  0.250000  1
  Cu  Cu2  1  0.360031  0.122839  0.750001  1
  Cu  Cu3  1  0.877162  0.639970  0.750001  1
  Pd  Pd4  1  0.131723  0.868278  0.250000  1
  Pd  Pd5  1  0.866601  0.133400  0.750001  1
  Pd  Pd6  1  0.372840  0.627161  0.750001  1
  Au  Au7  1  0.629320  0.370681  0.250000  1
