# generated using pymatgen
data_VSn3P8(PbO8)4
_symmetry_space_group_name_H-M   'P 1'
_cell_length_a   14.99599188
_cell_length_b   4.91991335
_cell_length_c   9.99403326
_cell_angle_alpha   63.18543323
_cell_angle_beta   89.90074024
_cell_angle_gamma   89.84169681
_symmetry_Int_Tables_number   1
_chemical_formula_structural   VSn3P8(PbO8)4
_chemical_formula_sum   'V1 Sn3 P8 Pb4 O32'
_cell_volume   658.06063119
_cell_formula_units_Z   1
loop_
 _symmetry_equiv_pos_site_id
 _symmetry_equiv_pos_as_xyz
  1  'x, y, z'
loop_
 _atom_site_type_symbol
 _atom_site_label
 _atom_site_symmetry_multiplicity
 _atom_site_fract_x
 _atom_site_fract_y
 _atom_site_fract_z
 _atom_site_occupancy
  V  V0  1  0.142921  0.189502  0.550224  1
  Sn  Sn1  1  0.641054  0.814778  0.949102  1
  Sn  Sn2  1  0.859390  0.815161  0.449494  1
  Sn  Sn3  1  0.356676  0.186716  0.049924  1
  P  P4  1  0.027414  0.552683  0.699336  1
  P  P5  1  0.522970  0.449726  0.795885  1
  P  P6  1  0.979121  0.443925  0.299761  1
  P  P7  1  0.475312  0.550627  0.204181  1
  P  P8  1  0.737958  0.173478  0.609495  1
  P  P9  1  0.235509  0.832428  0.887749  1
  P  P10  1  0.259397  0.826587  0.394395  1
  P  P11  1  0.763040  0.172656  0.108998  1
  Pb  Pb12  1  0.396216  0.124105  0.589418  1
  Pb  Pb13  1  0.901142  0.871579  0.911846  1
  Pb  Pb14  1  0.599318  0.877113  0.410055  1
  Pb  Pb15  1  0.099451  0.124144  0.092490  1
  O  O16  1  0.107646  0.405553  0.657572  1
  O  O17  1  0.607837  0.566999  0.838915  1
  O  O18  1  0.894189  0.564111  0.341756  1
  O  O19  1  0.390709  0.431271  0.161710  1
  O  O20  1  0.048012  0.893086  0.649541  1
  O  O21  1  0.538423  0.107384  0.835905  1
  O  O22  1  0.961117  0.106784  0.332850  1
  O  O23  1  0.459240  0.892924  0.163550  1
  O  O24  1  0.939611  0.525567  0.623774  1
  O  O25  1  0.437551  0.479019  0.876974  1
  O  O26  1  0.064608  0.455732  0.384227  1
  O  O27  1  0.561315  0.522094  0.123860  1
  O  O28  1  0.503685  0.634005  0.626659  1
  O  O29  1  0.009638  0.380510  0.869431  1
  O  O30  1  0.494566  0.367044  0.373605  1
  O  O31  1  0.998962  0.634538  0.130410  1
  O  O32  1  0.849580  0.110547  0.048480  1
  O  O33  1  0.347735  0.875947  0.454359  1
  O  O34  1  0.150448  0.890846  0.952584  1
  O  O35  1  0.651840  0.110267  0.549541  1
  O  O36  1  0.751216  0.528370  0.034626  1
  O  O37  1  0.243743  0.474779  0.463298  1
  O  O38  1  0.248389  0.477274  0.958392  1
  O  O39  1  0.749806  0.528669  0.535456  1
  O  O40  1  0.678970  0.018436  0.082666  1
  O  O41  1  0.178861  0.983868  0.430056  1
  O  O42  1  0.320351  0.983533  0.915163  1
  O  O43  1  0.822387  0.018568  0.583452  1
  O  O44  1  0.261961  0.945337  0.219240  1
  O  O45  1  0.766155  0.065760  0.282527  1
  O  O46  1  0.734848  0.065898  0.783427  1
  O  O47  1  0.229712  0.950067  0.713641  1
