# generated using pymatgen
data_Tm2Lu2Al17GeIr6
_symmetry_space_group_name_H-M   'P 1'
_cell_length_a   7.52776200
_cell_length_b   7.52776122
_cell_length_c   9.40993600
_cell_angle_alpha   90.00000000
_cell_angle_beta   90.00000000
_cell_angle_gamma   119.58502811
_symmetry_Int_Tables_number   1
_chemical_formula_structural   Tm2Lu2Al17GeIr6
_chemical_formula_sum   'Tm2 Lu2 Al17 Ge1 Ir6'
_cell_volume   463.71365759
_cell_formula_units_Z   1
loop_
 _symmetry_equiv_pos_site_id
 _symmetry_equiv_pos_as_xyz
  1  'x, y, z'
loop_
 _atom_site_type_symbol
 _atom_site_label
 _atom_site_symmetry_multiplicity
 _atom_site_fract_x
 _atom_site_fract_y
 _atom_site_fract_z
 _atom_site_occupancy
  Tm  Tm0  1  0.994725  0.677302  0.250000  1
  Tm  Tm1  1  0.677302  0.994725  0.250000  1
  Lu  Lu2  1  0.003337  0.328149  0.750000  1
  Lu  Lu3  1  0.328149  0.003337  0.750000  1
  Al  Al4  1  0.871983  0.871983  0.750000  1
  Al  Al5  1  0.999900  0.337980  0.074262  1
  Al  Al6  1  0.998564  0.664508  0.924144  1
  Al  Al7  1  0.998564  0.664508  0.575856  1
  Al  Al8  1  0.337980  0.999900  0.425738  1
  Al  Al9  1  0.999900  0.337980  0.425738  1
  Al  Al10  1  0.664508  0.998564  0.575856  1
  Al  Al11  1  0.664508  0.998564  0.924144  1
  Al  Al12  1  0.337980  0.999900  0.074262  1
  Al  Al13  1  0.332122  0.332122  0.560561  1
  Al  Al14  1  0.663975  0.663975  0.447309  1
  Al  Al15  1  0.663975  0.663975  0.052691  1
  Al  Al16  1  0.332122  0.332122  0.939439  1
  Al  Al17  1  0.337414  0.554535  0.250000  1
  Al  Al18  1  0.661175  0.450449  0.750000  1
  Al  Al19  1  0.554535  0.337414  0.250000  1
  Al  Al20  1  0.450449  0.661175  0.750000  1
  Ge  Ge21  1  0.136320  0.136320  0.250000  1
  Ir  Ir22  1  0.669770  0.326149  0.000100  1
  Ir  Ir23  1  0.326149  0.669770  0.000100  1
  Ir  Ir24  1  0.326149  0.669770  0.499900  1
  Ir  Ir25  1  0.669770  0.326149  0.499900  1
  Ir  Ir26  1  0.999337  0.999337  0.001134  1
  Ir  Ir27  1  0.999337  0.999337  0.498866  1
