# generated using pymatgen
data_V24PS7
_symmetry_space_group_name_H-M   'P 1'
_cell_length_a   9.36701400
_cell_length_b   9.30440046
_cell_length_c   4.66464655
_cell_angle_alpha   89.77929169
_cell_angle_beta   90.00000000
_cell_angle_gamma   90.00000000
_symmetry_Int_Tables_number   1
_chemical_formula_structural   V24PS7
_chemical_formula_sum   'V24 P1 S7'
_cell_volume   406.54168543
_cell_formula_units_Z   1
loop_
 _symmetry_equiv_pos_site_id
 _symmetry_equiv_pos_as_xyz
  1  'x, y, z'
loop_
 _atom_site_type_symbol
 _atom_site_label
 _atom_site_symmetry_multiplicity
 _atom_site_fract_x
 _atom_site_fract_y
 _atom_site_fract_z
 _atom_site_occupancy
  V  V0  1  0.590561  0.090427  0.499105  1
  V  V1  1  0.910154  0.410322  0.000010  1
  V  V2  1  0.298846  0.796972  0.997986  1
  V  V3  1  0.201965  0.706722  0.494426  1
  V  V4  1  0.851798  0.000000  0.750000  1
  V  V5  1  0.146668  0.000000  0.750000  1
  V  V6  1  0.910154  0.589678  0.499990  1
  V  V7  1  0.590561  0.909573  0.000895  1
  V  V8  1  0.702179  0.797172  0.500087  1
  V  V9  1  0.797315  0.297879  0.501217  1
  V  V10  1  0.352378  0.500000  0.750000  1
  V  V11  1  0.090103  0.589346  0.998621  1
  V  V12  1  0.647684  0.500000  0.750000  1
  V  V13  1  0.412109  0.910877  0.500967  1
  V  V14  1  0.997647  0.148517  0.250543  1
  V  V15  1  0.090103  0.410654  0.501379  1
  V  V16  1  0.201965  0.293278  0.005574  1
  V  V17  1  0.412109  0.089123  0.999033  1
  V  V18  1  0.500230  0.353015  0.249291  1
  V  V19  1  0.997647  0.851483  0.249457  1
  V  V20  1  0.702179  0.202828  0.999913  1
  V  V21  1  0.797315  0.702121  0.998783  1
  V  V22  1  0.500230  0.646985  0.250709  1
  V  V23  1  0.298846  0.203028  0.502014  1
  P  P24  1  0.207755  0.000000  0.250000  1
  S  S25  1  0.790606  0.000000  0.250000  1
  S  S26  1  0.709661  0.500000  0.250000  1
  S  S27  1  0.290213  0.500000  0.250000  1
  S  S28  1  0.500679  0.291244  0.749597  1
  S  S29  1  0.999830  0.209310  0.749560  1
  S  S30  1  0.500679  0.708756  0.750403  1
  S  S31  1  0.999830  0.790690  0.750440  1
