# generated using pymatgen
data_Ce6Si2Os
_symmetry_space_group_name_H-M   'P 1'
_cell_length_a   7.99791500
_cell_length_b   7.99791426
_cell_length_c   3.94523900
_cell_angle_alpha   90.00000000
_cell_angle_beta   90.00000000
_cell_angle_gamma   119.99999893
_symmetry_Int_Tables_number   1
_chemical_formula_structural   Ce6Si2Os
_chemical_formula_sum   'Ce6 Si2 Os1'
_cell_volume   218.55335727
_cell_formula_units_Z   1
loop_
 _symmetry_equiv_pos_site_id
 _symmetry_equiv_pos_as_xyz
  1  'x, y, z'
loop_
 _atom_site_type_symbol
 _atom_site_label
 _atom_site_symmetry_multiplicity
 _atom_site_fract_x
 _atom_site_fract_y
 _atom_site_fract_z
 _atom_site_occupancy
  Ce  Ce0  1  0.741121  0.000000  0.000000  1
  Ce  Ce1  1  0.258879  0.258879  0.000000  1
  Ce  Ce2  1  0.000000  0.741121  0.000000  1
  Ce  Ce3  1  0.414999  0.000000  0.500001  1
  Ce  Ce4  1  0.000000  0.415000  0.500001  1
  Ce  Ce5  1  0.585001  0.585000  0.500001  1
  Si  Si6  1  0.666667  0.333333  0.000000  1
  Si  Si7  1  0.333333  0.666666  0.000000  1
  Os  Os8  1  0.000000  0.000000  0.500001  1
