# generated using pymatgen
data_Hf18MnRe7MoRh
_symmetry_space_group_name_H-M   'P 1'
_cell_length_a   8.62795600
_cell_length_b   8.62795630
_cell_length_c   8.50960600
_cell_angle_alpha   90.00000000
_cell_angle_beta   90.00000000
_cell_angle_gamma   119.99999119
_symmetry_Int_Tables_number   1
_chemical_formula_structural   Hf18MnRe7MoRh
_chemical_formula_sum   'Hf18 Mn1 Re7 Mo1 Rh1'
_cell_volume   548.60022453
_cell_formula_units_Z   1
loop_
 _symmetry_equiv_pos_site_id
 _symmetry_equiv_pos_as_xyz
  1  'x, y, z'
loop_
 _atom_site_type_symbol
 _atom_site_label
 _atom_site_symmetry_multiplicity
 _atom_site_fract_x
 _atom_site_fract_y
 _atom_site_fract_z
 _atom_site_occupancy
  Hf  Hf0  1  0.201645  0.798355  0.442435  1
  Hf  Hf1  1  0.201645  0.403290  0.442435  1
  Hf  Hf2  1  0.596710  0.798355  0.442435  1
  Hf  Hf3  1  0.803216  0.196784  0.553501  1
  Hf  Hf4  1  0.803216  0.606431  0.553501  1
  Hf  Hf5  1  0.393569  0.196784  0.553501  1
  Hf  Hf6  1  0.804999  0.195001  0.946028  1
  Hf  Hf7  1  0.804999  0.609998  0.946028  1
  Hf  Hf8  1  0.390002  0.195001  0.946028  1
  Hf  Hf9  1  0.200632  0.799368  0.058367  1
  Hf  Hf10  1  0.200632  0.401264  0.058367  1
  Hf  Hf11  1  0.598736  0.799368  0.058367  1
  Hf  Hf12  1  0.539445  0.460555  0.249162  1
  Hf  Hf13  1  0.539445  0.078890  0.249162  1
  Hf  Hf14  1  0.921110  0.460555  0.249162  1
  Hf  Hf15  1  0.458039  0.541961  0.750991  1
  Hf  Hf16  1  0.458039  0.916077  0.750991  1
  Hf  Hf17  1  0.083923  0.541961  0.750991  1
  Mn  Mn18  1  0.333333  0.666667  0.250050  1
  Re  Re19  1  0.889204  0.110796  0.250547  1
  Re  Re20  1  0.889204  0.778410  0.250547  1
  Re  Re21  1  0.221590  0.110796  0.250547  1
  Re  Re22  1  0.111562  0.888438  0.748935  1
  Re  Re23  1  0.111562  0.223122  0.748935  1
  Re  Re24  1  0.776878  0.888438  0.748935  1
  Re  Re25  1  0.000000  0.000000  0.999905  1
  Mo  Mo26  1  0.000000  0.000000  0.498969  1
  Rh  Rh27  1  0.666667  0.333333  0.751180  1
