# generated using pymatgen
data_Ta3Ti9(P4Ir)2
_symmetry_space_group_name_H-M   'P 1'
_cell_length_a   7.30516524
_cell_length_b   7.30516378
_cell_length_c   13.78616070
_cell_angle_alpha   76.27916065
_cell_angle_beta   76.27916367
_cell_angle_gamma   27.40955642
_symmetry_Int_Tables_number   1
_chemical_formula_structural   Ta3Ti9(P4Ir)2
_chemical_formula_sum   'Ta3 Ti9 P8 Ir2'
_cell_volume   328.43127474
_cell_formula_units_Z   1
loop_
 _symmetry_equiv_pos_site_id
 _symmetry_equiv_pos_as_xyz
  1  'x, y, z'
loop_
 _atom_site_type_symbol
 _atom_site_label
 _atom_site_symmetry_multiplicity
 _atom_site_fract_x
 _atom_site_fract_y
 _atom_site_fract_z
 _atom_site_occupancy
  Ta  Ta0  1  0.500000  0.500000  0.500000  1
  Ta  Ta1  1  0.423492  0.423492  0.174320  1
  Ta  Ta2  1  0.576508  0.576508  0.825680  1
  Ti  Ti3  1  0.000000  0.000000  0.000000  1
  Ti  Ti4  1  0.211670  0.211670  0.209122  1
  Ti  Ti5  1  0.788330  0.788330  0.790878  1
  Ti  Ti6  1  0.340229  0.340229  0.966149  1
  Ti  Ti7  1  0.659771  0.659771  0.033851  1
  Ti  Ti8  1  0.004181  0.004181  0.334188  1
  Ti  Ti9  1  0.995819  0.995819  0.665812  1
  Ti  Ti10  1  0.175108  0.175108  0.465763  1
  Ti  Ti11  1  0.824892  0.824892  0.534237  1
  P  P12  1  0.181463  0.181463  0.898988  1
  P  P13  1  0.818537  0.818537  0.101012  1
  P  P14  1  0.372709  0.372709  0.395932  1
  P  P15  1  0.627291  0.627291  0.604068  1
  P  P16  1  0.364798  0.364798  0.659874  1
  P  P17  1  0.635202  0.635202  0.340126  1
  P  P18  1  0.061937  0.061937  0.152287  1
  P  P19  1  0.938063  0.938063  0.847713  1
  Ir  Ir20  1  0.193823  0.193823  0.676674  1
  Ir  Ir21  1  0.806177  0.806177  0.323326  1
