# generated using pymatgen
data_Th6Sn7Pd16S
_symmetry_space_group_name_H-M   'P 1'
_cell_length_a   9.34555025
_cell_length_b   9.34554952
_cell_length_c   9.34555000
_cell_angle_alpha   59.99999830
_cell_angle_beta   60.00000088
_cell_angle_gamma   59.99999801
_symmetry_Int_Tables_number   1
_chemical_formula_structural   Th6Sn7Pd16S
_chemical_formula_sum   'Th6 Sn7 Pd16 S1'
_cell_volume   577.16445677
_cell_formula_units_Z   1
loop_
 _symmetry_equiv_pos_site_id
 _symmetry_equiv_pos_as_xyz
  1  'x, y, z'
loop_
 _atom_site_type_symbol
 _atom_site_label
 _atom_site_symmetry_multiplicity
 _atom_site_fract_x
 _atom_site_fract_y
 _atom_site_fract_z
 _atom_site_occupancy
  Th  Th0  1  0.716493  0.283507  0.283507  1
  Th  Th1  1  0.283507  0.716493  0.716493  1
  Th  Th2  1  0.283507  0.716493  0.283507  1
  Th  Th3  1  0.716493  0.283507  0.716493  1
  Th  Th4  1  0.283507  0.283507  0.716493  1
  Th  Th5  1  0.716493  0.716493  0.283507  1
  Sn  Sn6  1  0.000000  0.000000  0.000000  1
  Sn  Sn7  1  0.500000  0.000000  0.000000  1
  Sn  Sn8  1  0.000000  0.500000  0.500000  1
  Sn  Sn9  1  0.000000  0.500000  0.000000  1
  Sn  Sn10  1  0.500000  0.000000  0.500000  1
  Sn  Sn11  1  0.000000  0.000000  0.500000  1
  Sn  Sn12  1  0.500000  0.500000  0.000000  1
  Pd  Pd13  1  0.119667  0.119667  0.119667  1
  Pd  Pd14  1  0.880333  0.880333  0.880333  1
  Pd  Pd15  1  0.119667  0.119667  0.640997  1
  Pd  Pd16  1  0.119667  0.640997  0.119667  1
  Pd  Pd17  1  0.880333  0.880333  0.359003  1
  Pd  Pd18  1  0.880333  0.359003  0.880333  1
  Pd  Pd19  1  0.640997  0.119667  0.119667  1
  Pd  Pd20  1  0.359003  0.880333  0.880333  1
  Pd  Pd21  1  0.334777  0.334777  0.334777  1
  Pd  Pd22  1  0.665223  0.665223  0.665223  1
  Pd  Pd23  1  0.334777  0.334777  0.995667  1
  Pd  Pd24  1  0.334777  0.995667  0.334777  1
  Pd  Pd25  1  0.665223  0.665223  0.004333  1
  Pd  Pd26  1  0.665223  0.004333  0.665223  1
  Pd  Pd27  1  0.995667  0.334777  0.334777  1
  Pd  Pd28  1  0.004333  0.665223  0.665223  1
  S  S29  1  0.500000  0.500000  0.500000  1
