# generated using pymatgen
data_Er5Lu15(Cd3Ru)2
_symmetry_space_group_name_H-M   'P 1'
_cell_length_a   9.40015958
_cell_length_b   9.39976792
_cell_length_c   9.68331100
_cell_angle_alpha   90.00000000
_cell_angle_beta   90.00000000
_cell_angle_gamma   119.98047924
_symmetry_Int_Tables_number   1
_chemical_formula_structural   Er5Lu15(Cd3Ru)2
_chemical_formula_sum   'Er5 Lu15 Cd6 Ru2'
_cell_volume   741.12636502
_cell_formula_units_Z   1
loop_
 _symmetry_equiv_pos_site_id
 _symmetry_equiv_pos_as_xyz
  1  'x, y, z'
loop_
 _atom_site_type_symbol
 _atom_site_label
 _atom_site_symmetry_multiplicity
 _atom_site_fract_x
 _atom_site_fract_y
 _atom_site_fract_z
 _atom_site_occupancy
  Er  Er0  1  0.540374  0.081351  0.250000  1
  Er  Er1  1  0.918709  0.459608  0.250000  1
  Er  Er2  1  0.459567  0.540399  0.750000  1
  Er  Er3  1  0.459732  0.919642  0.750000  1
  Er  Er4  1  0.080331  0.540274  0.750000  1
  Lu  Lu5  1  0.000195  0.999874  0.499866  1
  Lu  Lu6  1  0.000195  0.999874  0.000134  1
  Lu  Lu7  1  0.210096  0.789889  0.440751  1
  Lu  Lu8  1  0.210659  0.419851  0.440628  1
  Lu  Lu9  1  0.580152  0.789374  0.440621  1
  Lu  Lu10  1  0.789957  0.210001  0.559072  1
  Lu  Lu11  1  0.789322  0.579745  0.558627  1
  Lu  Lu12  1  0.420245  0.210636  0.558588  1
  Lu  Lu13  1  0.789957  0.210001  0.940928  1
  Lu  Lu14  1  0.789322  0.579745  0.941373  1
  Lu  Lu15  1  0.420245  0.210636  0.941412  1
  Lu  Lu16  1  0.210096  0.789889  0.059249  1
  Lu  Lu17  1  0.210659  0.419851  0.059372  1
  Lu  Lu18  1  0.580152  0.789374  0.059379  1
  Lu  Lu19  1  0.540088  0.459928  0.250000  1
  Cd  Cd20  1  0.886432  0.113695  0.250000  1
  Cd  Cd21  1  0.885014  0.772067  0.250000  1
  Cd  Cd22  1  0.227994  0.114956  0.250000  1
  Cd  Cd23  1  0.113544  0.886499  0.750000  1
  Cd  Cd24  1  0.113966  0.227282  0.750000  1
  Cd  Cd25  1  0.772642  0.885962  0.750000  1
  Ru  Ru26  1  0.333600  0.666373  0.250000  1
  Ru  Ru27  1  0.666759  0.333227  0.750000  1
