# generated using pymatgen
data_Sm3(H6Rh)2
_symmetry_space_group_name_H-M   'P 1'
_cell_length_a   4.84796200
_cell_length_b   4.84796165
_cell_length_c   8.31058300
_cell_angle_alpha   90.00000000
_cell_angle_beta   90.00000000
_cell_angle_gamma   119.99997509
_symmetry_Int_Tables_number   1
_chemical_formula_structural   Sm3(H6Rh)2
_chemical_formula_sum   'Sm3 H12 Rh2'
_cell_volume   169.15335449
_cell_formula_units_Z   1
loop_
 _symmetry_equiv_pos_site_id
 _symmetry_equiv_pos_as_xyz
  1  'x, y, z'
loop_
 _atom_site_type_symbol
 _atom_site_label
 _atom_site_symmetry_multiplicity
 _atom_site_fract_x
 _atom_site_fract_y
 _atom_site_fract_z
 _atom_site_occupancy
  Sm  Sm0  1  0.000000  0.000000  0.000000  1
  Sm  Sm1  1  0.666667  0.333333  0.362644  1
  Sm  Sm2  1  0.333333  0.666667  0.637356  1
  H  H3  1  0.170837  0.829163  0.373471  1
  H  H4  1  0.658326  0.829163  0.373471  1
  H  H5  1  0.170837  0.341674  0.373471  1
  H  H6  1  0.829163  0.170837  0.626529  1
  H  H7  1  0.341674  0.170837  0.626529  1
  H  H8  1  0.829163  0.658326  0.626529  1
  H  H9  1  0.499618  0.999235  0.874488  1
  H  H10  1  0.499618  0.500382  0.874488  1
  H  H11  1  0.000765  0.500382  0.874488  1
  H  H12  1  0.500382  0.000765  0.125512  1
  H  H13  1  0.500382  0.499618  0.125512  1
  H  H14  1  0.999235  0.499618  0.125512  1
  Rh  Rh15  1  0.666667  0.333333  0.755113  1
  Rh  Rh16  1  0.333333  0.666667  0.244887  1
