# generated using pymatgen
data_Th3Ge2Rh3Au
_symmetry_space_group_name_H-M   'P 1'
_cell_length_a   7.29909913
_cell_length_b   7.55915988
_cell_length_c   3.99980000
_cell_angle_alpha   90.00000000
_cell_angle_beta   90.00000000
_cell_angle_gamma   121.18577090
_symmetry_Int_Tables_number   1
_chemical_formula_structural   Th3Ge2Rh3Au
_chemical_formula_sum   'Th3 Ge2 Rh3 Au1'
_cell_volume   188.79803506
_cell_formula_units_Z   1
loop_
 _symmetry_equiv_pos_site_id
 _symmetry_equiv_pos_as_xyz
  1  'x, y, z'
loop_
 _atom_site_type_symbol
 _atom_site_label
 _atom_site_symmetry_multiplicity
 _atom_site_fract_x
 _atom_site_fract_y
 _atom_site_fract_z
 _atom_site_occupancy
  Th  Th0  1  0.000000  0.409175  0.500000  1
  Th  Th1  1  0.602643  0.599252  0.500000  1
  Th  Th2  1  0.397357  0.996609  0.500000  1
  Ge  Ge3  1  0.253658  0.253246  0.000000  1
  Ge  Ge4  1  0.746342  0.999588  0.000000  1
  Rh  Rh5  1  0.350332  0.656162  0.000000  1
  Rh  Rh6  1  0.649668  0.305829  0.000000  1
  Rh  Rh7  1  0.000000  0.037198  0.500000  1
  Au  Au8  1  0.000000  0.742943  0.000000  1
