# generated using pymatgen
data_Tm12InCo2Ni3
_symmetry_space_group_name_H-M   'P 1'
_cell_length_a   8.17627415
_cell_length_b   8.17627390
_cell_length_c   8.17627288
_cell_angle_alpha   110.02600055
_cell_angle_beta   111.06983114
_cell_angle_gamma   107.34039854
_symmetry_Int_Tables_number   1
_chemical_formula_structural   Tm12InCo2Ni3
_chemical_formula_sum   'Tm12 In1 Co2 Ni3'
_cell_volume   420.29884339
_cell_formula_units_Z   1
loop_
 _symmetry_equiv_pos_site_id
 _symmetry_equiv_pos_as_xyz
  1  'x, y, z'
loop_
 _atom_site_type_symbol
 _atom_site_label
 _atom_site_symmetry_multiplicity
 _atom_site_fract_x
 _atom_site_fract_y
 _atom_site_fract_z
 _atom_site_occupancy
  Tm  Tm0  1  0.290444  0.183685  0.474128  1
  Tm  Tm1  1  0.709556  0.816315  0.525872  1
  Tm  Tm2  1  0.290444  0.816315  0.106758  1
  Tm  Tm3  1  0.709556  0.183685  0.893242  1
  Tm  Tm4  1  0.622786  0.317408  0.305376  1
  Tm  Tm5  1  0.377214  0.682592  0.694624  1
  Tm  Tm6  1  0.012032  0.317408  0.694624  1
  Tm  Tm7  1  0.987968  0.682592  0.305376  1
  Tm  Tm8  1  0.216142  0.408504  0.192363  1
  Tm  Tm9  1  0.783858  0.591496  0.807637  1
  Tm  Tm10  1  0.216142  0.023779  0.807637  1
  Tm  Tm11  1  0.783858  0.976221  0.192363  1
  In  In12  1  0.500000  0.500000  0.000000  1
  Co  Co13  1  0.384573  0.884573  0.500000  1
  Co  Co14  1  0.615427  0.115427  0.500000  1
  Ni  Ni15  1  0.000000  0.365290  0.365290  1
  Ni  Ni16  1  0.000000  0.634710  0.634710  1
  Ni  Ni17  1  0.000000  0.000000  0.000000  1
