# generated using pymatgen
data_ZrAlNi3Pd
_symmetry_space_group_name_H-M   'P 1'
_cell_length_a   4.83970155
_cell_length_b   4.83970144
_cell_length_c   4.83970226
_cell_angle_alpha   60.90370247
_cell_angle_beta   60.90369812
_cell_angle_gamma   60.90370274
_symmetry_Int_Tables_number   1
_chemical_formula_structural   ZrAlNi3Pd
_chemical_formula_sum   'Zr1 Al1 Ni3 Pd1'
_cell_volume   81.78959288
_cell_formula_units_Z   1
loop_
 _symmetry_equiv_pos_site_id
 _symmetry_equiv_pos_as_xyz
  1  'x, y, z'
loop_
 _atom_site_type_symbol
 _atom_site_label
 _atom_site_symmetry_multiplicity
 _atom_site_fract_x
 _atom_site_fract_y
 _atom_site_fract_z
 _atom_site_occupancy
  Zr  Zr0  1  0.742647  0.742647  0.742647  1
  Al  Al1  1  0.129993  0.129993  0.129993  1
  Ni  Ni2  1  0.626949  0.126575  0.126575  1
  Ni  Ni3  1  0.126575  0.626949  0.126575  1
  Ni  Ni4  1  0.126575  0.126575  0.626949  1
  Pd  Pd5  1  0.497261  0.497261  0.497261  1
