# generated using pymatgen
data_YTh3(Pd3Pt)3
_symmetry_space_group_name_H-M   'P 1'
_cell_length_a   5.91585800
_cell_length_b   5.92725372
_cell_length_c   9.76625986
_cell_angle_alpha   90.16105449
_cell_angle_beta   90.00000000
_cell_angle_gamma   119.93642134
_symmetry_Int_Tables_number   1
_chemical_formula_structural   YTh3(Pd3Pt)3
_chemical_formula_sum   'Y1 Th3 Pd9 Pt3'
_cell_volume   296.76027230
_cell_formula_units_Z   1
loop_
 _symmetry_equiv_pos_site_id
 _symmetry_equiv_pos_as_xyz
  1  'x, y, z'
loop_
 _atom_site_type_symbol
 _atom_site_label
 _atom_site_symmetry_multiplicity
 _atom_site_fract_x
 _atom_site_fract_y
 _atom_site_fract_z
 _atom_site_occupancy
  Y  Y0  1  0.000000  0.000000  0.500000  1
  Th  Th1  1  0.000000  0.000000  0.000000  1
  Th  Th2  1  0.333364  0.666728  0.254004  1
  Th  Th3  1  0.666636  0.333272  0.745996  1
  Pd  Pd4  1  0.500000  0.500000  0.500000  1
  Pd  Pd5  1  0.000000  0.500000  0.500000  1
  Pd  Pd6  1  0.500000  0.000000  0.000000  1
  Pd  Pd7  1  0.825863  0.651727  0.250091  1
  Pd  Pd8  1  0.348383  0.174182  0.250819  1
  Pd  Pd9  1  0.825798  0.174182  0.250819  1
  Pd  Pd10  1  0.174137  0.348273  0.749909  1
  Pd  Pd11  1  0.651617  0.825818  0.749181  1
  Pd  Pd12  1  0.174202  0.825818  0.749181  1
  Pt  Pt13  1  0.500000  0.000000  0.500000  1
  Pt  Pt14  1  0.500000  0.500000  0.000000  1
  Pt  Pt15  1  0.000000  0.500000  0.000000  1
