# generated using pymatgen
data_TiMoIr5Rh
_symmetry_space_group_name_H-M   'P 1'
_cell_length_a   5.52690700
_cell_length_b   5.52010823
_cell_length_c   4.42429600
_cell_angle_alpha   90.00000000
_cell_angle_beta   90.00000000
_cell_angle_gamma   120.04074460
_symmetry_Int_Tables_number   1
_chemical_formula_structural   TiMoIr5Rh
_chemical_formula_sum   'Ti1 Mo1 Ir5 Rh1'
_cell_volume   116.84929644
_cell_formula_units_Z   1
loop_
 _symmetry_equiv_pos_site_id
 _symmetry_equiv_pos_as_xyz
  1  'x, y, z'
loop_
 _atom_site_type_symbol
 _atom_site_label
 _atom_site_symmetry_multiplicity
 _atom_site_fract_x
 _atom_site_fract_y
 _atom_site_fract_z
 _atom_site_occupancy
  Ti  Ti0  1  0.333504  0.667010  0.250000  1
  Mo  Mo1  1  0.666314  0.332628  0.750000  1
  Ir  Ir2  1  0.833480  0.666961  0.250000  1
  Ir  Ir3  1  0.165502  0.835468  0.750000  1
  Ir  Ir4  1  0.669967  0.835468  0.750000  1
  Ir  Ir5  1  0.332398  0.166161  0.250000  1
  Ir  Ir6  1  0.833762  0.166161  0.250000  1
  Rh  Rh7  1  0.165072  0.330143  0.750000  1
