# generated using pymatgen
data_Ho4Er8OsRu3
_symmetry_space_group_name_H-M   'P 1'
_cell_length_a   6.26731501
_cell_length_b   7.30703496
_cell_length_c   9.04249100
_cell_angle_alpha   90.00000000
_cell_angle_beta   90.00000000
_cell_angle_gamma   90.08107232
_symmetry_Int_Tables_number   1
_chemical_formula_structural   Ho4Er8OsRu3
_chemical_formula_sum   'Ho4 Er8 Os1 Ru3'
_cell_volume   414.10489080
_cell_formula_units_Z   1
loop_
 _symmetry_equiv_pos_site_id
 _symmetry_equiv_pos_as_xyz
  1  'x, y, z'
loop_
 _atom_site_type_symbol
 _atom_site_label
 _atom_site_symmetry_multiplicity
 _atom_site_fract_x
 _atom_site_fract_y
 _atom_site_fract_z
 _atom_site_occupancy
  Ho  Ho0  1  0.868234  0.540105  0.250000  1
  Ho  Ho1  1  0.632096  0.039902  0.250000  1
  Ho  Ho2  1  0.130325  0.460502  0.750000  1
  Ho  Ho3  1  0.367835  0.961537  0.750000  1
  Er  Er4  1  0.333781  0.675509  0.062388  1
  Er  Er5  1  0.167242  0.175966  0.436182  1
  Er  Er6  1  0.667983  0.324322  0.563647  1
  Er  Er7  1  0.831559  0.823624  0.935737  1
  Er  Er8  1  0.667983  0.324322  0.936353  1
  Er  Er9  1  0.831559  0.823624  0.564263  1
  Er  Er10  1  0.333781  0.675509  0.437612  1
  Er  Er11  1  0.167242  0.175966  0.063818  1
  Os  Os12  1  0.539914  0.616455  0.750000  1
  Ru  Ru13  1  0.038957  0.883423  0.250000  1
  Ru  Ru14  1  0.460856  0.382978  0.250000  1
  Ru  Ru15  1  0.960650  0.116253  0.750000  1
