# generated using pymatgen
data_Na3Er2Ga2P10Ir19
_symmetry_space_group_name_H-M   'P 1'
_cell_length_a   12.72351552
_cell_length_b   12.83118664
_cell_length_c   3.96025000
_cell_angle_alpha   90.00000000
_cell_angle_beta   90.00000000
_cell_angle_gamma   120.28033380
_symmetry_Int_Tables_number   1
_chemical_formula_structural   Na3Er2Ga2P10Ir19
_chemical_formula_sum   'Na3 Er2 Ga2 P10 Ir19'
_cell_volume   558.33316840
_cell_formula_units_Z   1
loop_
 _symmetry_equiv_pos_site_id
 _symmetry_equiv_pos_as_xyz
  1  'x, y, z'
loop_
 _atom_site_type_symbol
 _atom_site_label
 _atom_site_symmetry_multiplicity
 _atom_site_fract_x
 _atom_site_fract_y
 _atom_site_fract_z
 _atom_site_occupancy
  Na  Na0  1  0.823704  0.820738  0.500000  1
  Na  Na1  1  0.176296  0.997035  0.500000  1
  Na  Na2  1  0.000000  0.179048  0.500000  1
  Er  Er3  1  0.662632  0.329716  0.000000  1
  Er  Er4  1  0.337368  0.667085  0.000000  1
  Ga  Ga5  1  0.647543  0.648200  0.000000  1
  Ga  Ga6  1  0.352457  0.000658  0.000000  1
  P  P7  1  0.686715  0.168351  0.500000  1
  P  P8  1  0.820941  0.513109  0.500000  1
  P  P9  1  0.477660  0.308932  0.500000  1
  P  P10  1  0.179059  0.692168  0.500000  1
  P  P11  1  0.522340  0.831273  0.500000  1
  P  P12  1  0.313285  0.481635  0.500000  1
  P  P13  1  0.000000  0.355191  0.000000  1
  P  P14  1  0.172222  0.176626  0.000000  1
  P  P15  1  0.827778  0.004402  0.000000  1
  P  P16  1  0.000000  0.814418  0.000000  1
  Ir  Ir17  1  0.809377  0.185502  0.000000  1
  Ir  Ir18  1  0.822718  0.610488  0.000000  1
  Ir  Ir19  1  0.380848  0.210545  0.000000  1
  Ir  Ir20  1  0.177282  0.787770  0.000000  1
  Ir  Ir21  1  0.619152  0.829697  0.000000  1
  Ir  Ir22  1  0.190623  0.376125  0.000000  1
  Ir  Ir23  1  0.441990  0.458898  0.000000  1
  Ir  Ir24  1  0.558010  0.016908  0.000000  1
  Ir  Ir25  1  0.000000  0.533201  0.000000  1
  Ir  Ir26  1  0.280425  0.286696  0.500000  1
  Ir  Ir27  1  0.719575  0.006270  0.500000  1
  Ir  Ir28  1  0.000000  0.705107  0.500000  1
  Ir  Ir29  1  0.863852  0.360620  0.500000  1
  Ir  Ir30  1  0.630463  0.502536  0.500000  1
  Ir  Ir31  1  0.492512  0.135492  0.500000  1
  Ir  Ir32  1  0.369537  0.872072  0.500000  1
  Ir  Ir33  1  0.507488  0.642978  0.500000  1
  Ir  Ir34  1  0.136148  0.496767  0.500000  1
  Ir  Ir35  1  0.000000  0.993749  0.000000  1
