# generated using pymatgen
data_Tb7Er(Si4Mo3)4
_symmetry_space_group_name_H-M   'P 1'
_cell_length_a   6.79350702
_cell_length_b   6.96594421
_cell_length_c   12.94988607
_cell_angle_alpha   89.96906824
_cell_angle_beta   89.99636079
_cell_angle_gamma   89.94826962
_symmetry_Int_Tables_number   1
_chemical_formula_structural   Tb7Er(Si4Mo3)4
_chemical_formula_sum   'Tb7 Er1 Si16 Mo12'
_cell_volume   612.82959081
_cell_formula_units_Z   1
loop_
 _symmetry_equiv_pos_site_id
 _symmetry_equiv_pos_as_xyz
  1  'x, y, z'
loop_
 _atom_site_type_symbol
 _atom_site_label
 _atom_site_symmetry_multiplicity
 _atom_site_fract_x
 _atom_site_fract_y
 _atom_site_fract_z
 _atom_site_occupancy
  Tb  Tb0  1  0.497274  0.333319  0.094085  1
  Tb  Tb1  1  0.997386  0.166588  0.405982  1
  Tb  Tb2  1  0.502805  0.666516  0.594099  1
  Tb  Tb3  1  0.002305  0.833230  0.906417  1
  Tb  Tb4  1  0.502502  0.666958  0.906351  1
  Tb  Tb5  1  0.002573  0.833443  0.594104  1
  Tb  Tb6  1  0.497186  0.333349  0.405310  1
  Er  Er7  1  0.996687  0.167088  0.094406  1
  Si  Si8  1  0.657964  0.042892  0.547746  1
  Si  Si9  1  0.158231  0.456752  0.952868  1
  Si  Si10  1  0.340373  0.958363  0.047952  1
  Si  Si11  1  0.841794  0.542736  0.452083  1
  Si  Si12  1  0.342136  0.957044  0.451832  1
  Si  Si13  1  0.842271  0.541158  0.047957  1
  Si  Si14  1  0.658383  0.042731  0.952876  1
  Si  Si15  1  0.158204  0.457514  0.547640  1
  Si  Si16  1  0.535309  0.364406  0.750390  1
  Si  Si17  1  0.035323  0.135216  0.750139  1
  Si  Si18  1  0.465052  0.635883  0.249578  1
  Si  Si19  1  0.965153  0.865635  0.249416  1
  Si  Si20  1  0.803348  0.626987  0.750379  1
  Si  Si21  1  0.303118  0.872279  0.750220  1
  Si  Si22  1  0.195982  0.371838  0.249383  1
  Si  Si23  1  0.697685  0.127914  0.249463  1
  Mo  Mo24  1  0.831191  0.334495  0.625607  1
  Mo  Mo25  1  0.330346  0.164900  0.874919  1
  Mo  Mo26  1  0.168884  0.665516  0.125376  1
  Mo  Mo27  1  0.669697  0.835197  0.374140  1
  Mo  Mo28  1  0.168712  0.665456  0.374010  1
  Mo  Mo29  1  0.669923  0.835368  0.125032  1
  Mo  Mo30  1  0.831487  0.333847  0.874979  1
  Mo  Mo31  1  0.330770  0.164971  0.625466  1
  Mo  Mo32  1  0.665666  0.000342  0.750271  1
  Mo  Mo33  1  0.165630  0.499599  0.750219  1
  Mo  Mo34  1  0.334147  0.000467  0.249588  1
  Mo  Mo35  1  0.834508  0.500001  0.249714  1
