# generated using pymatgen
data_Mg8Pd3PtO16
_symmetry_space_group_name_H-M   'P 1'
_cell_length_a   6.08798700
_cell_length_b   6.09580119
_cell_length_c   8.57503030
_cell_angle_alpha   89.74928703
_cell_angle_beta   90.00000000
_cell_angle_gamma   90.00000000
_symmetry_Int_Tables_number   1
_chemical_formula_structural   Mg8Pd3PtO16
_chemical_formula_sum   'Mg8 Pd3 Pt1 O16'
_cell_volume   318.22626140
_cell_formula_units_Z   1
loop_
 _symmetry_equiv_pos_site_id
 _symmetry_equiv_pos_as_xyz
  1  'x, y, z'
loop_
 _atom_site_type_symbol
 _atom_site_label
 _atom_site_symmetry_multiplicity
 _atom_site_fract_x
 _atom_site_fract_y
 _atom_site_fract_z
 _atom_site_occupancy
  Mg  Mg0  1  0.000318  0.242385  0.999213  1
  Mg  Mg1  1  0.000318  0.757615  0.500787  1
  Mg  Mg2  1  0.242939  0.000000  0.750000  1
  Mg  Mg3  1  0.251234  0.250573  0.375174  1
  Mg  Mg4  1  0.251234  0.749427  0.124826  1
  Mg  Mg5  1  0.748978  0.250534  0.625292  1
  Mg  Mg6  1  0.748978  0.749466  0.874708  1
  Mg  Mg7  1  0.758216  0.000000  0.250000  1
  Pd  Pd8  1  0.245747  0.500000  0.750000  1
  Pd  Pd9  1  0.499324  0.245831  0.999172  1
  Pd  Pd10  1  0.499324  0.754169  0.500828  1
  Pt  Pt11  1  0.753745  0.500000  0.250000  1
  O  O12  1  0.018534  0.256996  0.755554  1
  O  O13  1  0.018534  0.743004  0.744446  1
  O  O14  1  0.252730  0.479456  0.987478  1
  O  O15  1  0.252730  0.520544  0.512522  1
  O  O16  1  0.256989  0.018481  0.993642  1
  O  O17  1  0.256989  0.981519  0.506358  1
  O  O18  1  0.478283  0.253254  0.761985  1
  O  O19  1  0.478283  0.746746  0.738015  1
  O  O20  1  0.521069  0.253230  0.236950  1
  O  O21  1  0.521069  0.746770  0.263050  1
  O  O22  1  0.742803  0.981745  0.494501  1
  O  O23  1  0.742803  0.018255  0.005499  1
  O  O24  1  0.746884  0.478864  0.012087  1
  O  O25  1  0.746884  0.521136  0.487913  1
  O  O26  1  0.982529  0.257051  0.243754  1
  O  O27  1  0.982529  0.742949  0.256246  1
