# generated using pymatgen
data_BaTbPrSe4
_symmetry_space_group_name_H-M   'P 1'
_cell_length_a   4.30436700
_cell_length_b   12.94483000
_cell_length_c   15.44590600
_cell_angle_alpha   90.00000000
_cell_angle_beta   90.00000000
_cell_angle_gamma   90.00000000
_symmetry_Int_Tables_number   1
_chemical_formula_structural   BaTbPrSe4
_chemical_formula_sum   'Ba4 Tb4 Pr4 Se16'
_cell_volume   860.63505586
_cell_formula_units_Z   4
loop_
 _symmetry_equiv_pos_site_id
 _symmetry_equiv_pos_as_xyz
  1  'x, y, z'
loop_
 _atom_site_type_symbol
 _atom_site_label
 _atom_site_symmetry_multiplicity
 _atom_site_fract_x
 _atom_site_fract_y
 _atom_site_fract_z
 _atom_site_occupancy
  Ba  Ba0  1  0.250000  0.758724  0.339205  1
  Ba  Ba1  1  0.250000  0.258724  0.160795  1
  Ba  Ba2  1  0.750000  0.241276  0.660795  1
  Ba  Ba3  1  0.750000  0.741276  0.839205  1
  Tb  Tb4  1  0.250000  0.423743  0.900515  1
  Tb  Tb5  1  0.250000  0.923743  0.599485  1
  Tb  Tb6  1  0.750000  0.576257  0.099485  1
  Tb  Tb7  1  0.750000  0.076257  0.400515  1
  Pr  Pr8  1  0.250000  0.428224  0.390081  1
  Pr  Pr9  1  0.250000  0.928224  0.109919  1
  Pr  Pr10  1  0.750000  0.571776  0.609919  1
  Pr  Pr11  1  0.750000  0.071776  0.890081  1
  Se  Se12  1  0.250000  0.214884  0.828220  1
  Se  Se13  1  0.250000  0.714884  0.671780  1
  Se  Se14  1  0.750000  0.785116  0.171780  1
  Se  Se15  1  0.750000  0.285116  0.328220  1
  Se  Se16  1  0.250000  0.127230  0.522751  1
  Se  Se17  1  0.250000  0.627230  0.977249  1
  Se  Se18  1  0.750000  0.872770  0.477249  1
  Se  Se19  1  0.750000  0.372770  0.022751  1
  Se  Se20  1  0.250000  0.521589  0.212258  1
  Se  Se21  1  0.250000  0.021589  0.287742  1
  Se  Se22  1  0.750000  0.478411  0.787742  1
  Se  Se23  1  0.750000  0.978411  0.712258  1
  Se  Se24  1  0.250000  0.415089  0.580642  1
  Se  Se25  1  0.250000  0.915089  0.919358  1
  Se  Se26  1  0.750000  0.584911  0.419358  1
  Se  Se27  1  0.750000  0.084911  0.080642  1
