# generated using pymatgen
data_Dy4Al18Co5Au
_symmetry_space_group_name_H-M   'P 1'
_cell_length_a   7.42972183
_cell_length_b   7.42972238
_cell_length_c   9.34759200
_cell_angle_alpha   89.78877464
_cell_angle_beta   89.78878375
_cell_angle_gamma   119.15896286
_symmetry_Int_Tables_number   1
_chemical_formula_structural   Dy4Al18Co5Au
_chemical_formula_sum   'Dy4 Al18 Co5 Au1'
_cell_volume   450.59104075
_cell_formula_units_Z   1
loop_
 _symmetry_equiv_pos_site_id
 _symmetry_equiv_pos_as_xyz
  1  'x, y, z'
loop_
 _atom_site_type_symbol
 _atom_site_label
 _atom_site_symmetry_multiplicity
 _atom_site_fract_x
 _atom_site_fract_y
 _atom_site_fract_z
 _atom_site_occupancy
  Dy  Dy0  1  0.995559  0.677591  0.251324  1
  Dy  Dy1  1  0.004441  0.322409  0.748676  1
  Dy  Dy2  1  0.677591  0.995559  0.251324  1
  Dy  Dy3  1  0.322409  0.004441  0.748676  1
  Al  Al4  1  0.137452  0.137452  0.263277  1
  Al  Al5  1  0.862548  0.862548  0.736723  1
  Al  Al6  1  0.332269  0.332269  0.542426  1
  Al  Al7  1  0.655051  0.655051  0.051898  1
  Al  Al8  1  0.344949  0.344949  0.948102  1
  Al  Al9  1  0.667731  0.667731  0.457574  1
  Al  Al10  1  0.340036  0.557894  0.252376  1
  Al  Al11  1  0.659964  0.442106  0.747624  1
  Al  Al12  1  0.557894  0.340036  0.252376  1
  Al  Al13  1  0.442106  0.659964  0.747624  1
  Al  Al14  1  0.001342  0.349703  0.076426  1
  Al  Al15  1  0.003354  0.663113  0.569693  1
  Al  Al16  1  0.336887  0.996646  0.430307  1
  Al  Al17  1  0.650297  0.998658  0.923574  1
  Al  Al18  1  0.998658  0.650297  0.923574  1
  Al  Al19  1  0.996646  0.336887  0.430307  1
  Al  Al20  1  0.663113  0.003354  0.569693  1
  Al  Al21  1  0.349703  0.001342  0.076426  1
  Co  Co22  1  0.000000  0.000000  0.500000  1
  Co  Co23  1  0.671041  0.328959  0.000000  1
  Co  Co24  1  0.329009  0.670991  0.500000  1
  Co  Co25  1  0.328959  0.671041  0.000000  1
  Co  Co26  1  0.670991  0.329009  0.500000  1
  Au  Au27  1  0.000000  0.000000  0.000000  1
