# generated using pymatgen
data_Yb5HoSi24Ir3Ru5
_symmetry_space_group_name_H-M   'P 1'
_cell_length_a   10.12244283
_cell_length_b   10.12296435
_cell_length_c   8.14992743
_cell_angle_alpha   89.95739316
_cell_angle_beta   90.05927980
_cell_angle_gamma   132.51730693
_symmetry_Int_Tables_number   1
_chemical_formula_structural   Yb5HoSi24Ir3Ru5
_chemical_formula_sum   'Yb5 Ho1 Si24 Ir3 Ru5'
_cell_volume   615.54128622
_cell_formula_units_Z   1
loop_
 _symmetry_equiv_pos_site_id
 _symmetry_equiv_pos_as_xyz
  1  'x, y, z'
loop_
 _atom_site_type_symbol
 _atom_site_label
 _atom_site_symmetry_multiplicity
 _atom_site_fract_x
 _atom_site_fract_y
 _atom_site_fract_z
 _atom_site_occupancy
  Yb  Yb0  1  0.499372  0.499909  0.499689  1
  Yb  Yb1  1  0.999409  0.999803  0.000236  1
  Yb  Yb2  1  0.502443  0.001680  0.750372  1
  Yb  Yb3  1  0.998784  0.498032  0.249595  1
  Yb  Yb4  1  0.497196  0.996460  0.249010  1
  Ho  Ho5  1  0.002893  0.501602  0.751895  1
  Si  Si6  1  0.795895  0.202038  0.498556  1
  Si  Si7  1  0.297224  0.704638  0.000206  1
  Si  Si8  1  0.205350  0.796093  0.499862  1
  Si  Si9  1  0.703890  0.293744  0.001368  1
  Si  Si10  1  0.329747  0.334847  0.833013  1
  Si  Si11  1  0.663720  0.670101  0.167216  1
  Si  Si12  1  0.168147  0.165659  0.332314  1
  Si  Si13  1  0.832920  0.831657  0.667340  1
  Si  Si14  1  0.119450  0.887254  0.726263  1
  Si  Si15  1  0.112596  0.879706  0.273196  1
  Si  Si16  1  0.610029  0.378221  0.227053  1
  Si  Si17  1  0.622765  0.391811  0.773610  1
  Si  Si18  1  0.875511  0.108013  0.267996  1
  Si  Si19  1  0.893644  0.125209  0.730978  1
  Si  Si20  1  0.387349  0.619775  0.774649  1
  Si  Si21  1  0.379342  0.612526  0.225808  1
  Si  Si22  1  0.343801  0.111079  0.501894  1
  Si  Si23  1  0.889283  0.658290  0.498653  1
  Si  Si24  1  0.388585  0.157178  0.005150  1
  Si  Si25  1  0.841540  0.610967  0.994047  1
  Si  Si26  1  0.657346  0.888874  0.494879  1
  Si  Si27  1  0.110599  0.341264  0.506021  1
  Si  Si28  1  0.614778  0.848214  0.996848  1
  Si  Si29  1  0.153977  0.385624  0.002741  1
  Ir  Ir30  1  0.672423  0.331885  0.501571  1
  Ir  Ir31  1  0.167677  0.829268  0.998729  1
  Ir  Ir32  1  0.329568  0.667348  0.501218  1
  Ru  Ru33  1  0.831550  0.173149  0.998157  1
  Ru  Ru34  1  0.126971  0.124793  0.625736  1
  Ru  Ru35  1  0.874438  0.873391  0.373851  1
  Ru  Ru36  1  0.374430  0.373945  0.126201  1
  Ru  Ru37  1  0.625355  0.625951  0.874081  1
