# generated using pymatgen
data_LiSc3V4(Co4P3)4
_symmetry_space_group_name_H-M   'P 1'
_cell_length_a   3.58526100
_cell_length_b   10.22029644
_cell_length_c   11.74612760
_cell_angle_alpha   89.85308697
_cell_angle_beta   90.00000000
_cell_angle_gamma   90.00000000
_symmetry_Int_Tables_number   1
_chemical_formula_structural   LiSc3V4(Co4P3)4
_chemical_formula_sum   'Li1 Sc3 V4 Co16 P12'
_cell_volume   430.40524647
_cell_formula_units_Z   1
loop_
 _symmetry_equiv_pos_site_id
 _symmetry_equiv_pos_as_xyz
  1  'x, y, z'
loop_
 _atom_site_type_symbol
 _atom_site_label
 _atom_site_symmetry_multiplicity
 _atom_site_fract_x
 _atom_site_fract_y
 _atom_site_fract_z
 _atom_site_occupancy
  Li  Li0  1  0.250000  0.579532  0.704250  1
  Sc  Sc1  1  0.250000  0.918136  0.206617  1
  Sc  Sc2  1  0.750000  0.418507  0.293268  1
  Sc  Sc3  1  0.750000  0.082356  0.794361  1
  V  V4  1  0.250000  0.706041  0.989267  1
  V  V5  1  0.250000  0.792837  0.491244  1
  V  V6  1  0.750000  0.293983  0.010798  1
  V  V7  1  0.750000  0.207359  0.511848  1
  Co  Co8  1  0.250000  0.404771  0.485977  1
  Co  Co9  1  0.250000  0.094196  0.987137  1
  Co  Co10  1  0.750000  0.592424  0.511625  1
  Co  Co11  1  0.750000  0.907457  0.014313  1
  Co  Co12  1  0.250000  0.221062  0.177328  1
  Co  Co13  1  0.250000  0.278410  0.675949  1
  Co  Co14  1  0.750000  0.783227  0.824384  1
  Co  Co15  1  0.750000  0.721036  0.322434  1
  Co  Co16  1  0.250000  0.885253  0.699851  1
  Co  Co17  1  0.250000  0.613726  0.200196  1
  Co  Co18  1  0.750000  0.114067  0.300367  1
  Co  Co19  1  0.750000  0.384181  0.799498  1
  Co  Co20  1  0.250000  0.466870  0.932693  1
  Co  Co21  1  0.250000  0.035063  0.433472  1
  Co  Co22  1  0.750000  0.536180  0.065738  1
  Co  Co23  1  0.750000  0.962918  0.567292  1
  P  P24  1  0.250000  0.419771  0.115977  1
  P  P25  1  0.250000  0.080056  0.617238  1
  P  P26  1  0.750000  0.581781  0.878118  1
  P  P27  1  0.750000  0.918490  0.383647  1
  P  P28  1  0.250000  0.266001  0.864185  1
  P  P29  1  0.250000  0.235900  0.365432  1
  P  P30  1  0.750000  0.736037  0.134710  1
  P  P31  1  0.750000  0.758762  0.637516  1
  P  P32  1  0.250000  0.593643  0.389988  1
  P  P33  1  0.250000  0.906151  0.889376  1
  P  P34  1  0.750000  0.409410  0.612531  1
  P  P35  1  0.750000  0.094407  0.111374  1
