# generated using pymatgen
data_ZrNb(Ag3Se4)2
_symmetry_space_group_name_H-M   'P 1'
_cell_length_a   8.89294300
_cell_length_b   8.89294300
_cell_length_c   6.28181500
_cell_angle_alpha   90.00000000
_cell_angle_beta   90.00000000
_cell_angle_gamma   90.00000000
_symmetry_Int_Tables_number   1
_chemical_formula_structural   ZrNb(Ag3Se4)2
_chemical_formula_sum   'Zr1 Nb1 Ag6 Se8'
_cell_volume   496.79379131
_cell_formula_units_Z   1
loop_
 _symmetry_equiv_pos_site_id
 _symmetry_equiv_pos_as_xyz
  1  'x, y, z'
loop_
 _atom_site_type_symbol
 _atom_site_label
 _atom_site_symmetry_multiplicity
 _atom_site_fract_x
 _atom_site_fract_y
 _atom_site_fract_z
 _atom_site_occupancy
  Zr  Zr0  1  0.500000  0.500000  0.000000  1
  Nb  Nb1  1  0.000000  0.000000  0.000000  1
  Ag  Ag2  1  0.249276  0.750724  0.000000  1
  Ag  Ag3  1  0.750724  0.249276  0.000000  1
  Ag  Ag4  1  0.249276  0.249276  0.000000  1
  Ag  Ag5  1  0.750724  0.750724  0.000000  1
  Ag  Ag6  1  0.000000  0.000000  0.500000  1
  Ag  Ag7  1  0.500000  0.500000  0.500000  1
  Se  Se8  1  0.500000  0.262436  0.763823  1
  Se  Se9  1  0.000000  0.771198  0.771577  1
  Se  Se10  1  0.500000  0.737564  0.763823  1
  Se  Se11  1  0.000000  0.228802  0.771577  1
  Se  Se12  1  0.771198  0.000000  0.228423  1
  Se  Se13  1  0.262436  0.500000  0.236177  1
  Se  Se14  1  0.228802  0.000000  0.228423  1
  Se  Se15  1  0.737564  0.500000  0.236177  1
