# generated using pymatgen
data_Gd2Th2(Al8Pd3)3
_symmetry_space_group_name_H-M   'P 1'
_cell_length_a   7.62317854
_cell_length_b   7.63117059
_cell_length_c   13.41059700
_cell_angle_alpha   84.70660314
_cell_angle_beta   100.70687073
_cell_angle_gamma   119.94058119
_symmetry_Int_Tables_number   1
_chemical_formula_structural   Gd2Th2(Al8Pd3)3
_chemical_formula_sum   'Gd2 Th2 Al24 Pd9'
_cell_volume   664.26018534
_cell_formula_units_Z   1
loop_
 _symmetry_equiv_pos_site_id
 _symmetry_equiv_pos_as_xyz
  1  'x, y, z'
loop_
 _atom_site_type_symbol
 _atom_site_label
 _atom_site_symmetry_multiplicity
 _atom_site_fract_x
 _atom_site_fract_y
 _atom_site_fract_z
 _atom_site_occupancy
  Gd  Gd0  1  0.769224  0.502188  0.807304  1
  Gd  Gd1  1  0.230776  0.497812  0.192696  1
  Th  Th2  1  0.436834  0.831803  0.806727  1
  Th  Th3  1  0.563166  0.168197  0.193273  1
  Al  Al4  1  0.480450  0.169157  0.945841  1
  Al  Al5  1  0.519550  0.830843  0.054159  1
  Al  Al6  1  0.021731  0.165339  0.559908  1
  Al  Al7  1  0.978269  0.834661  0.440092  1
  Al  Al8  1  0.353121  0.832798  0.557819  1
  Al  Al9  1  0.646879  0.167202  0.442181  1
  Al  Al10  1  0.617170  0.831790  0.333977  1
  Al  Al11  1  0.382830  0.168210  0.666023  1
  Al  Al12  1  0.053701  0.489883  0.665960  1
  Al  Al13  1  0.946299  0.510117  0.334040  1
  Al  Al14  1  0.733863  0.840139  0.665483  1
  Al  Al15  1  0.266137  0.159861  0.334517  1
  Al  Al16  1  0.146459  0.496236  0.948190  1
  Al  Al17  1  0.853541  0.503764  0.051810  1
  Al  Al18  1  0.820518  0.834232  0.954902  1
  Al  Al19  1  0.179482  0.165768  0.045098  1
  Al  Al20  1  0.311322  0.498459  0.440634  1
  Al  Al21  1  0.688678  0.501541  0.559366  1
  Al  Al22  1  0.099006  0.833293  0.184204  1
  Al  Al23  1  0.900994  0.166707  0.815796  1
  Al  Al24  1  0.306151  0.366671  0.814181  1
  Al  Al25  1  0.693849  0.633329  0.185819  1
  Al  Al26  1  0.100376  0.961236  0.815327  1
  Al  Al27  1  0.899624  0.038764  0.184673  1
  Pd  Pd28  1  0.386212  0.505853  0.637012  1
  Pd  Pd29  1  0.613788  0.494147  0.362988  1
  Pd  Pd30  1  0.172917  0.830155  0.999376  1
  Pd  Pd31  1  0.827083  0.169845  0.000624  1
  Pd  Pd32  1  0.292714  0.834420  0.362703  1
  Pd  Pd33  1  0.707286  0.165580  0.637297  1
  Pd  Pd34  1  0.048246  0.826662  0.637848  1
  Pd  Pd35  1  0.951754  0.173338  0.362152  1
  Pd  Pd36  1  0.500000  0.500000  0.000000  1
