# generated using pymatgen
data_ZrTaBr9
_symmetry_space_group_name_H-M   'P 1'
_cell_length_a   12.51095800
_cell_length_b   7.30425291
_cell_length_c   10.02715000
_cell_angle_alpha   75.74823185
_cell_angle_beta   90.00000000
_cell_angle_gamma   90.00000000
_symmetry_Int_Tables_number   1
_chemical_formula_structural   ZrTaBr9
_chemical_formula_sum   'Zr2 Ta2 Br18'
_cell_volume   888.11198673
_cell_formula_units_Z   2
loop_
 _symmetry_equiv_pos_site_id
 _symmetry_equiv_pos_as_xyz
  1  'x, y, z'
loop_
 _atom_site_type_symbol
 _atom_site_label
 _atom_site_symmetry_multiplicity
 _atom_site_fract_x
 _atom_site_fract_y
 _atom_site_fract_z
 _atom_site_occupancy
  Zr  Zr0  1  0.250000  0.758136  0.467752  1
  Zr  Zr1  1  0.750000  0.241864  0.532248  1
  Ta  Ta2  1  0.250000  0.645237  0.855996  1
  Ta  Ta3  1  0.750000  0.354763  0.144004  1
  Br  Br4  1  0.610612  0.441734  0.319638  1
  Br  Br5  1  0.110612  0.558266  0.680362  1
  Br  Br6  1  0.389388  0.558266  0.680362  1
  Br  Br7  1  0.889388  0.441734  0.319638  1
  Br  Br8  1  0.750000  0.683330  0.011416  1
  Br  Br9  1  0.250000  0.316670  0.988584  1
  Br  Br10  1  0.750000  0.517346  0.640769  1
  Br  Br11  1  0.250000  0.482654  0.359231  1
  Br  Br12  1  0.750000  0.025299  0.330478  1
  Br  Br13  1  0.250000  0.974701  0.669522  1
  Br  Br14  1  0.896480  0.245572  0.022690  1
  Br  Br15  1  0.396480  0.754428  0.977310  1
  Br  Br16  1  0.103520  0.754428  0.977310  1
  Br  Br17  1  0.603520  0.245572  0.022690  1
  Br  Br18  1  0.904612  0.054167  0.655092  1
  Br  Br19  1  0.404612  0.945833  0.344908  1
  Br  Br20  1  0.095388  0.945833  0.344908  1
  Br  Br21  1  0.595388  0.054167  0.655092  1
