# generated using pymatgen
data_Dy5Er7In2Fe2Os
_symmetry_space_group_name_H-M   'P 1'
_cell_length_a   8.33031433
_cell_length_b   8.33270019
_cell_length_c   8.33241145
_cell_angle_alpha   108.68566296
_cell_angle_beta   108.75894485
_cell_angle_gamma   110.98957091
_symmetry_Int_Tables_number   1
_chemical_formula_structural   Dy5Er7In2Fe2Os
_chemical_formula_sum   'Dy5 Er7 In2 Fe2 Os1'
_cell_volume   444.95359741
_cell_formula_units_Z   1
loop_
 _symmetry_equiv_pos_site_id
 _symmetry_equiv_pos_as_xyz
  1  'x, y, z'
loop_
 _atom_site_type_symbol
 _atom_site_label
 _atom_site_symmetry_multiplicity
 _atom_site_fract_x
 _atom_site_fract_y
 _atom_site_fract_z
 _atom_site_occupancy
  Dy  Dy0  1  0.307094  0.307326  0.614631  1
  Dy  Dy1  1  0.693067  0.693325  0.385715  1
  Dy  Dy2  1  0.307087  0.692449  0.999749  1
  Dy  Dy3  1  0.693091  0.307340  0.999736  1
  Dy  Dy4  1  0.430420  0.192050  0.238358  1
  Er  Er5  1  0.570523  0.808293  0.762255  1
  Er  Er6  1  0.953714  0.191680  0.762068  1
  Er  Er7  1  0.191329  0.953230  0.761377  1
  Er  Er8  1  0.045868  0.807940  0.237917  1
  Er  Er9  1  0.808564  0.046252  0.237993  1
  Er  Er10  1  0.191307  0.429961  0.238103  1
  Er  Er11  1  0.808570  0.570576  0.762320  1
  In  In12  1  0.499942  0.999596  0.500352  1
  In  In13  1  0.000067  0.500037  0.500025  1
  Fe  Fe14  1  0.384880  0.385059  0.999804  1
  Fe  Fe15  1  0.615306  0.615278  0.000027  1
  Os  Os16  1  0.999172  0.999606  0.999571  1
