# generated using pymatgen
data_Ca2Nd8Si5Pb
_symmetry_space_group_name_H-M   'P 1'
_cell_length_a   9.08923990
_cell_length_b   9.08924025
_cell_length_c   9.08924000
_cell_angle_alpha   129.27061609
_cell_angle_beta   129.27063417
_cell_angle_gamma   74.57551278
_symmetry_Int_Tables_number   1
_chemical_formula_structural   Ca2Nd8Si5Pb
_chemical_formula_sum   'Ca2 Nd8 Si5 Pb1'
_cell_volume   438.52468212
_cell_formula_units_Z   1
loop_
 _symmetry_equiv_pos_site_id
 _symmetry_equiv_pos_as_xyz
  1  'x, y, z'
loop_
 _atom_site_type_symbol
 _atom_site_label
 _atom_site_symmetry_multiplicity
 _atom_site_fract_x
 _atom_site_fract_y
 _atom_site_fract_z
 _atom_site_occupancy
  Ca  Ca0  1  0.991063  0.991063  0.000000  1
  Ca  Ca1  1  0.508937  0.508937  0.000000  1
  Nd  Nd2  1  0.827550  0.309715  0.854389  1
  Nd  Nd3  1  0.190285  0.672450  0.145611  1
  Nd  Nd4  1  0.455327  0.973161  0.145611  1
  Nd  Nd5  1  0.309715  0.455327  0.482165  1
  Nd  Nd6  1  0.044673  0.190285  0.517835  1
  Nd  Nd7  1  0.526839  0.044673  0.854389  1
  Nd  Nd8  1  0.672450  0.526839  0.482165  1
  Nd  Nd9  1  0.973161  0.827550  0.517835  1
  Si  Si10  1  0.114162  0.614162  0.728323  1
  Si  Si11  1  0.885838  0.385838  0.271677  1
  Si  Si12  1  0.614162  0.885838  0.500000  1
  Si  Si13  1  0.385838  0.114162  0.500000  1
  Si  Si14  1  0.250000  0.250000  0.000000  1
  Pb  Pb15  1  0.750000  0.750000  0.000000  1
