# generated using pymatgen
data_Zr8Tc4NiOs3
_symmetry_space_group_name_H-M   'P 1'
_cell_length_a   6.54540800
_cell_length_b   4.63945800
_cell_length_c   9.25077000
_cell_angle_alpha   90.00000000
_cell_angle_beta   89.99985821
_cell_angle_gamma   90.00000000
_symmetry_Int_Tables_number   1
_chemical_formula_structural   Zr8Tc4NiOs3
_chemical_formula_sum   'Zr8 Tc4 Ni1 Os3'
_cell_volume   280.91947866
_cell_formula_units_Z   1
loop_
 _symmetry_equiv_pos_site_id
 _symmetry_equiv_pos_as_xyz
  1  'x, y, z'
loop_
 _atom_site_type_symbol
 _atom_site_label
 _atom_site_symmetry_multiplicity
 _atom_site_fract_x
 _atom_site_fract_y
 _atom_site_fract_z
 _atom_site_occupancy
  Zr  Zr0  1  0.998266  0.749999  0.125005  1
  Zr  Zr1  1  0.501794  0.749999  0.125007  1
  Zr  Zr2  1  0.999031  0.249999  0.375295  1
  Zr  Zr3  1  0.501040  0.249999  0.375296  1
  Zr  Zr4  1  0.500009  0.749999  0.625002  1
  Zr  Zr5  1  0.999920  0.749999  0.625005  1
  Zr  Zr6  1  0.500972  0.249999  0.874698  1
  Zr  Zr7  1  0.998961  0.249999  0.874699  1
  Tc  Tc8  1  0.750027  0.249999  0.125011  1
  Tc  Tc9  1  0.250028  0.749999  0.372093  1
  Tc  Tc10  1  0.749970  0.249999  0.625010  1
  Tc  Tc11  1  0.249975  0.749999  0.877897  1
  Ni  Ni12  1  0.250036  0.249999  0.124969  1
  Os  Os13  1  0.750030  0.749999  0.374280  1
  Os  Os14  1  0.249973  0.249999  0.624992  1
  Os  Os15  1  0.749970  0.749999  0.875739  1
