# generated using pymatgen
data_Na2CoH7
_symmetry_space_group_name_H-M   'P 1'
_cell_length_a   5.35875961
_cell_length_b   5.07616132
_cell_length_c   5.00194814
_cell_angle_alpha   62.97051286
_cell_angle_beta   120.88949828
_cell_angle_gamma   123.69238386
_symmetry_Int_Tables_number   1
_chemical_formula_structural   Na2CoH7
_chemical_formula_sum   'Na2 Co1 H7'
_cell_volume   94.36802205
_cell_formula_units_Z   1
loop_
 _symmetry_equiv_pos_site_id
 _symmetry_equiv_pos_as_xyz
  1  'x, y, z'
loop_
 _atom_site_type_symbol
 _atom_site_label
 _atom_site_symmetry_multiplicity
 _atom_site_fract_x
 _atom_site_fract_y
 _atom_site_fract_z
 _atom_site_occupancy
  Na  Na0  1  0.947507  0.213396  0.031114  1
  Na  Na1  1  0.455579  0.698977  0.544090  1
  Co  Co2  1  0.685405  0.440437  0.275790  1
  H  H3  1  0.897720  0.252463  0.488266  1
  H  H4  1  0.907281  0.672330  0.082300  1
  H  H5  1  0.525159  0.260212  0.011304  1
  H  H6  1  0.515554  0.260466  0.517669  1
  H  H7  1  0.388581  0.155981  0.128332  1
  H  H8  1  0.498148  0.654348  0.083791  1
  H  H9  1  0.914844  0.672700  0.486773  1
