# generated using pymatgen
data_Dy3Er17(Cd3Ni)2
_symmetry_space_group_name_H-M   'P 1'
_cell_length_a   9.51405500
_cell_length_b   9.51405484
_cell_length_c   9.67392200
_cell_angle_alpha   90.00000000
_cell_angle_beta   90.00000000
_cell_angle_gamma   119.99999014
_symmetry_Int_Tables_number   1
_chemical_formula_structural   Dy3Er17(Cd3Ni)2
_chemical_formula_sum   'Dy3 Er17 Cd6 Ni2'
_cell_volume   758.34104762
_cell_formula_units_Z   1
loop_
 _symmetry_equiv_pos_site_id
 _symmetry_equiv_pos_as_xyz
  1  'x, y, z'
loop_
 _atom_site_type_symbol
 _atom_site_label
 _atom_site_symmetry_multiplicity
 _atom_site_fract_x
 _atom_site_fract_y
 _atom_site_fract_z
 _atom_site_occupancy
  Dy  Dy0  1  0.456898  0.543102  0.750000  1
  Dy  Dy1  1  0.456898  0.913795  0.750000  1
  Dy  Dy2  1  0.086205  0.543102  0.750000  1
  Er  Er3  1  0.000000  0.000000  0.499904  1
  Er  Er4  1  0.000000  0.000000  0.000096  1
  Er  Er5  1  0.543553  0.456447  0.250000  1
  Er  Er6  1  0.543553  0.087105  0.250000  1
  Er  Er7  1  0.912895  0.456447  0.250000  1
  Er  Er8  1  0.210550  0.789450  0.436654  1
  Er  Er9  1  0.210550  0.421100  0.436654  1
  Er  Er10  1  0.578900  0.789450  0.436654  1
  Er  Er11  1  0.789221  0.210779  0.561700  1
  Er  Er12  1  0.789221  0.578442  0.561700  1
  Er  Er13  1  0.421558  0.210779  0.561700  1
  Er  Er14  1  0.789221  0.210779  0.938300  1
  Er  Er15  1  0.789221  0.578442  0.938300  1
  Er  Er16  1  0.421558  0.210779  0.938300  1
  Er  Er17  1  0.210550  0.789450  0.063346  1
  Er  Er18  1  0.210550  0.421100  0.063346  1
  Er  Er19  1  0.578900  0.789450  0.063346  1
  Cd  Cd20  1  0.884523  0.115477  0.250000  1
  Cd  Cd21  1  0.884523  0.769048  0.250000  1
  Cd  Cd22  1  0.230952  0.115477  0.250000  1
  Cd  Cd23  1  0.114527  0.885473  0.750000  1
  Cd  Cd24  1  0.114527  0.229054  0.750000  1
  Cd  Cd25  1  0.770946  0.885473  0.750000  1
  Ni  Ni26  1  0.333333  0.666667  0.250000  1
  Ni  Ni27  1  0.666667  0.333333  0.750000  1
