# generated using pymatgen
data_Lu2HfGa5Ir
_symmetry_space_group_name_H-M   'P 1'
_cell_length_a   6.85093300
_cell_length_b   6.76319793
_cell_length_c   4.17110400
_cell_angle_alpha   90.00000000
_cell_angle_beta   90.00000000
_cell_angle_gamma   120.43006513
_symmetry_Int_Tables_number   1
_chemical_formula_structural   Lu2HfGa5Ir
_chemical_formula_sum   'Lu2 Hf1 Ga5 Ir1'
_cell_volume   166.64221909
_cell_formula_units_Z   1
loop_
 _symmetry_equiv_pos_site_id
 _symmetry_equiv_pos_as_xyz
  1  'x, y, z'
loop_
 _atom_site_type_symbol
 _atom_site_label
 _atom_site_symmetry_multiplicity
 _atom_site_fract_x
 _atom_site_fract_y
 _atom_site_fract_z
 _atom_site_occupancy
  Lu  Lu0  1  0.004917  0.590223  0.000000  1
  Lu  Lu1  1  0.414694  0.409777  0.000000  1
  Hf  Hf2  1  0.594693  0.000000  0.000000  1
  Ga  Ga3  1  0.240262  0.000000  0.500000  1
  Ga  Ga4  1  0.000273  0.244508  0.500000  1
  Ga  Ga5  1  0.755764  0.755492  0.500000  1
  Ga  Ga6  1  0.341215  0.677884  0.500000  1
  Ga  Ga7  1  0.663332  0.322116  0.500000  1
  Ir  Ir8  1  0.984851  0.000000  0.000000  1
