# generated using pymatgen
data_Tb9Nd(In2Pt)4
_symmetry_space_group_name_H-M   'P 1'
_cell_length_a   3.65991500
_cell_length_b   8.20033808
_cell_length_c   18.43601160
_cell_angle_alpha   89.91869560
_cell_angle_beta   90.00000000
_cell_angle_gamma   90.00000000
_symmetry_Int_Tables_number   1
_chemical_formula_structural   Tb9Nd(In2Pt)4
_chemical_formula_sum   'Tb9 Nd1 In8 Pt4'
_cell_volume   553.31098499
_cell_formula_units_Z   1
loop_
 _symmetry_equiv_pos_site_id
 _symmetry_equiv_pos_as_xyz
  1  'x, y, z'
loop_
 _atom_site_type_symbol
 _atom_site_label
 _atom_site_symmetry_multiplicity
 _atom_site_fract_x
 _atom_site_fract_y
 _atom_site_fract_z
 _atom_site_occupancy
  Tb  Tb0  1  0.000000  0.116630  0.414579  1
  Tb  Tb1  1  0.000000  0.883370  0.585421  1
  Tb  Tb2  1  0.000000  0.382156  0.914291  1
  Tb  Tb3  1  0.000000  0.617844  0.085709  1
  Tb  Tb4  1  0.000000  0.243142  0.220354  1
  Tb  Tb5  1  0.000000  0.756858  0.779646  1
  Tb  Tb6  1  0.000000  0.257192  0.719725  1
  Tb  Tb7  1  0.000000  0.742808  0.280275  1
  Tb  Tb8  1  0.000000  0.500000  0.500000  1
  Nd  Nd9  1  0.000000  0.000000  0.000000  1
  In  In10  1  0.500000  0.424035  0.351248  1
  In  In11  1  0.500000  0.575965  0.648752  1
  In  In12  1  0.500000  0.076769  0.849076  1
  In  In13  1  0.500000  0.923231  0.150924  1
  In  In14  1  0.500000  0.296322  0.068048  1
  In  In15  1  0.500000  0.703678  0.931952  1
  In  In16  1  0.500000  0.207561  0.566990  1
  In  In17  1  0.500000  0.792439  0.433010  1
  Pt  Pt18  1  0.500000  0.024324  0.303720  1
  Pt  Pt19  1  0.500000  0.975676  0.696280  1
  Pt  Pt20  1  0.500000  0.475595  0.802925  1
  Pt  Pt21  1  0.500000  0.524405  0.197075  1
