# generated using pymatgen
data_Zn14AgB6Rh17
_symmetry_space_group_name_H-M   'P 1'
_cell_length_a   2.88362500
_cell_length_b   11.35398900
_cell_length_c   14.96000600
_cell_angle_alpha   90.00000000
_cell_angle_beta   90.00000000
_cell_angle_gamma   90.00000000
_symmetry_Int_Tables_number   1
_chemical_formula_structural   Zn14AgB6Rh17
_chemical_formula_sum   'Zn14 Ag1 B6 Rh17'
_cell_volume   489.80026853
_cell_formula_units_Z   1
loop_
 _symmetry_equiv_pos_site_id
 _symmetry_equiv_pos_as_xyz
  1  'x, y, z'
loop_
 _atom_site_type_symbol
 _atom_site_label
 _atom_site_symmetry_multiplicity
 _atom_site_fract_x
 _atom_site_fract_y
 _atom_site_fract_z
 _atom_site_occupancy
  Zn  Zn0  1  0.500000  0.500000  0.349746  1
  Zn  Zn1  1  0.500000  0.000000  0.652502  1
  Zn  Zn2  1  0.500000  0.386826  0.000108  1
  Zn  Zn3  1  0.500000  0.116865  0.993676  1
  Zn  Zn4  1  0.500000  0.613174  0.000108  1
  Zn  Zn5  1  0.500000  0.883135  0.993676  1
  Zn  Zn6  1  0.500000  0.373184  0.770034  1
  Zn  Zn7  1  0.500000  0.135772  0.236518  1
  Zn  Zn8  1  0.500000  0.626816  0.770034  1
  Zn  Zn9  1  0.500000  0.864228  0.236518  1
  Zn  Zn10  1  0.500000  0.297482  0.602180  1
  Zn  Zn11  1  0.500000  0.204628  0.400004  1
  Zn  Zn12  1  0.500000  0.702518  0.602180  1
  Zn  Zn13  1  0.500000  0.795372  0.400004  1
  Ag  Ag14  1  0.000000  0.000000  0.123019  1
  B  B15  1  0.500000  0.500000  0.531061  1
  B  B16  1  0.500000  0.000000  0.469670  1
  B  B17  1  0.500000  0.143149  0.820424  1
  B  B18  1  0.500000  0.357855  0.177931  1
  B  B19  1  0.500000  0.856851  0.820424  1
  B  B20  1  0.500000  0.642145  0.177931  1
  Rh  Rh21  1  0.000000  0.248344  0.892121  1
  Rh  Rh22  1  0.000000  0.251802  0.104991  1
  Rh  Rh23  1  0.000000  0.751656  0.892121  1
  Rh  Rh24  1  0.000000  0.748198  0.104991  1
  Rh  Rh25  1  0.000000  0.500000  0.642727  1
  Rh  Rh26  1  0.000000  0.000000  0.357095  1
  Rh  Rh27  1  0.000000  0.174776  0.716900  1
  Rh  Rh28  1  0.000000  0.328589  0.282205  1
  Rh  Rh29  1  0.000000  0.825224  0.716900  1
  Rh  Rh30  1  0.000000  0.671411  0.282205  1
  Rh  Rh31  1  0.000000  0.500000  0.137424  1
  Rh  Rh32  1  0.000000  0.000000  0.860521  1
  Rh  Rh33  1  0.000000  0.121173  0.529698  1
  Rh  Rh34  1  0.000000  0.378524  0.471288  1
  Rh  Rh35  1  0.000000  0.878827  0.529698  1
  Rh  Rh36  1  0.000000  0.621476  0.471288  1
  Rh  Rh37  1  0.000000  0.500000  0.880077  1
