# generated using pymatgen
data_YF37
_symmetry_space_group_name_H-M   'P 1'
_cell_length_a   6.24061497
_cell_length_b   10.81411709
_cell_length_c   10.64946220
_cell_angle_alpha   87.36324439
_cell_angle_beta   98.72372863
_cell_angle_gamma   73.53331151
_symmetry_Int_Tables_number   1
_chemical_formula_structural   YF37
_chemical_formula_sum   'Y1 F37'
_cell_volume   678.23717488
_cell_formula_units_Z   1
loop_
 _symmetry_equiv_pos_site_id
 _symmetry_equiv_pos_as_xyz
  1  'x, y, z'
loop_
 _atom_site_type_symbol
 _atom_site_label
 _atom_site_symmetry_multiplicity
 _atom_site_fract_x
 _atom_site_fract_y
 _atom_site_fract_z
 _atom_site_occupancy
  Y  Y0  1  0.763919  0.808849  0.828080  1
  F  F1  1  0.275381  0.131627  0.186934  1
  F  F2  1  0.300684  0.381260  0.902967  1
  F  F3  1  0.705088  0.613855  0.125082  1
  F  F4  1  0.336083  0.264611  0.569850  1
  F  F5  1  0.663501  0.750269  0.432237  1
  F  F6  1  0.880678  0.220412  0.803444  1
  F  F7  1  0.160794  0.791123  0.181602  1
  F  F8  1  0.698357  0.856509  0.016992  1
  F  F9  1  0.319544  0.127382  0.009467  1
  F  F10  1  0.775191  0.608845  0.878016  1
  F  F11  1  0.207623  0.410572  0.161671  1
  F  F12  1  0.442503  0.441429  0.845863  1
  F  F13  1  0.547414  0.550739  0.158859  1
  F  F14  1  0.753103  0.661580  0.690860  1
  F  F15  1  0.244630  0.389307  0.297312  1
  F  F16  1  0.774328  0.955392  0.602837  1
  F  F17  1  0.219502  0.001955  0.468649  1
  F  F18  1  0.299492  0.188264  0.672718  1
  F  F19  1  0.693509  0.814580  0.319239  1
  F  F20  1  0.822122  0.070255  0.647335  1
  F  F21  1  0.161894  0.927388  0.368724  1
  F  F22  1  0.782960  0.990875  0.912660  1
  F  F23  1  0.180752  0.002088  0.061815  1
  F  F24  1  0.881861  0.351149  0.781995  1
  F  F25  1  0.094842  0.676819  0.201657  1
  F  F26  1  0.147330  0.746965  0.877492  1
  F  F27  1  0.803585  0.280006  0.070903  1
  F  F28  1  0.422155  0.928129  0.725859  1
  F  F29  1  0.557941  0.081127  0.288005  1
  F  F30  1  0.122374  0.738450  0.564274  1
  F  F31  1  0.901209  0.234211  0.416570  1
  F  F32  1  0.219360  0.620506  0.645002  1
  F  F33  1  0.805928  0.358735  0.347388  1
  F  F34  1  0.283240  0.837853  0.803551  1
  F  F35  1  0.720660  0.194647  0.143475  1
  F  F36  1  0.518700  0.438305  0.531643  1
  F  F37  1  0.511764  0.553931  0.458971  1
