# generated using pymatgen
data_FeCo2(PRu)3
_symmetry_space_group_name_H-M   'P 1'
_cell_length_a   3.72420400
_cell_length_b   5.74226377
_cell_length_c   20.01601094
_cell_angle_alpha   89.62893064
_cell_angle_beta   90.00000000
_cell_angle_gamma   90.00000000
_symmetry_Int_Tables_number   1
_chemical_formula_structural   FeCo2(PRu)3
_chemical_formula_sum   'Fe4 Co8 P12 Ru12'
_cell_volume   428.04065648
_cell_formula_units_Z   4
loop_
 _symmetry_equiv_pos_site_id
 _symmetry_equiv_pos_as_xyz
  1  'x, y, z'
loop_
 _atom_site_type_symbol
 _atom_site_label
 _atom_site_symmetry_multiplicity
 _atom_site_fract_x
 _atom_site_fract_y
 _atom_site_fract_z
 _atom_site_occupancy
  Fe  Fe0  1  0.500000  0.359567  0.811199  1
  Fe  Fe1  1  0.500000  0.361982  0.477997  1
  Fe  Fe2  1  0.500000  0.361124  0.144476  1
  Fe  Fe3  1  0.500000  0.860784  0.688665  1
  Co  Co4  1  0.500000  0.861375  0.355565  1
  Co  Co5  1  0.500000  0.861166  0.022285  1
  Co  Co6  1  0.000000  0.639604  0.856228  1
  Co  Co7  1  0.000000  0.642196  0.523188  1
  Co  Co8  1  0.000000  0.640503  0.189534  1
  Co  Co9  1  0.000000  0.138960  0.977182  1
  Co  Co10  1  0.000000  0.141496  0.643272  1
  Co  Co11  1  0.000000  0.138776  0.310581  1
  P  P12  1  0.500000  0.737016  0.793404  1
  P  P13  1  0.500000  0.740061  0.460501  1
  P  P14  1  0.500000  0.738692  0.127022  1
  P  P15  1  0.500000  0.237818  0.706565  1
  P  P16  1  0.500000  0.239230  0.373374  1
  P  P17  1  0.500000  0.239013  0.039987  1
  P  P18  1  0.000000  0.259389  0.872177  1
  P  P19  1  0.000000  0.262718  0.538994  1
  P  P20  1  0.000000  0.261234  0.205855  1
  P  P21  1  0.000000  0.760322  0.960310  1
  P  P22  1  0.000000  0.761637  0.627773  1
  P  P23  1  0.000000  0.760172  0.293807  1
  Ru  Ru24  1  0.500000  0.476006  0.944533  1
  Ru  Ru25  1  0.500000  0.476921  0.611523  1
  Ru  Ru26  1  0.500000  0.475928  0.277928  1
  Ru  Ru27  1  0.500000  0.973388  0.888290  1
  Ru  Ru28  1  0.500000  0.976745  0.555133  1
  Ru  Ru29  1  0.500000  0.974749  0.221645  1
  Ru  Ru30  1  0.000000  0.521256  0.722507  1
  Ru  Ru31  1  0.000000  0.524465  0.389573  1
  Ru  Ru32  1  0.000000  0.524468  0.055956  1
  Ru  Ru33  1  0.000000  0.021179  0.777302  1
  Ru  Ru34  1  0.000000  0.025501  0.444491  1
  Ru  Ru35  1  0.000000  0.024557  0.111179  1
