# generated using pymatgen
data_DyNpU4F24
_symmetry_space_group_name_H-M   'P 1'
_cell_length_a   8.33069186
_cell_length_b   8.33067680
_cell_length_c   8.41942544
_cell_angle_alpha   62.93493016
_cell_angle_beta   62.96692973
_cell_angle_gamma   79.98484550
_symmetry_Int_Tables_number   1
_chemical_formula_structural   DyNpU4F24
_chemical_formula_sum   'Dy1 Np1 U4 F24'
_cell_volume   463.07612273
_cell_formula_units_Z   1
loop_
 _symmetry_equiv_pos_site_id
 _symmetry_equiv_pos_as_xyz
  1  'x, y, z'
loop_
 _atom_site_type_symbol
 _atom_site_label
 _atom_site_symmetry_multiplicity
 _atom_site_fract_x
 _atom_site_fract_y
 _atom_site_fract_z
 _atom_site_occupancy
  Dy  Dy0  1  0.787911  0.212536  0.249617  1
  Np  Np1  1  0.212766  0.787403  0.750068  1
  U  U2  1  0.635044  0.775127  0.172731  1
  U  U3  1  0.778574  0.634232  0.670767  1
  U  U4  1  0.365890  0.221910  0.828862  1
  U  U5  1  0.225073  0.365270  0.327018  1
  F  F6  1  0.739323  0.675189  0.397269  1
  F  F7  1  0.592702  0.187713  0.578714  1
  F  F8  1  0.738824  0.501531  0.210608  1
  F  F9  1  0.324602  0.260789  0.102887  1
  F  F10  1  0.073536  0.177184  0.038838  1
  F  F11  1  0.188681  0.597883  0.073303  1
  F  F12  1  0.402532  0.810708  0.426492  1
  F  F13  1  0.395238  0.604886  0.249751  1
  F  F14  1  0.604212  0.395539  0.750094  1
  F  F15  1  0.500026  0.737061  0.715898  1
  F  F16  1  0.823967  0.926814  0.460224  1
  F  F17  1  0.170337  0.069637  0.544471  1
  F  F18  1  0.262934  0.500143  0.783899  1
  F  F19  1  0.254867  0.319420  0.607324  1
  F  F20  1  0.721062  0.023526  0.157263  1
  F  F21  1  0.003309  0.505042  0.494923  1
  F  F22  1  0.976076  0.278888  0.342810  1
  F  F23  1  0.812127  0.406909  0.921921  1
  F  F24  1  0.498166  0.260485  0.289988  1
  F  F25  1  0.930047  0.828952  0.956295  1
  F  F26  1  0.274818  0.968092  0.852606  1
  F  F27  1  0.680389  0.745101  0.892458  1
  F  F28  1  0.031563  0.725073  0.648161  1
  F  F29  1  0.495405  0.996959  0.004740  1
