# generated using pymatgen
data_AcTm(CrN3)2
_symmetry_space_group_name_H-M   'P 1'
_cell_length_a   7.04150979
_cell_length_b   7.04150930
_cell_length_c   5.82416000
_cell_angle_alpha   78.94869656
_cell_angle_beta   78.94871392
_cell_angle_gamma   90.03036935
_symmetry_Int_Tables_number   1
_chemical_formula_structural   AcTm(CrN3)2
_chemical_formula_sum   'Ac2 Tm2 Cr4 N12'
_cell_volume   277.95921955
_cell_formula_units_Z   2
loop_
 _symmetry_equiv_pos_site_id
 _symmetry_equiv_pos_as_xyz
  1  'x, y, z'
loop_
 _atom_site_type_symbol
 _atom_site_label
 _atom_site_symmetry_multiplicity
 _atom_site_fract_x
 _atom_site_fract_y
 _atom_site_fract_z
 _atom_site_occupancy
  Ac  Ac0  1  0.324063  0.675937  0.750000  1
  Ac  Ac1  1  0.675937  0.324063  0.250000  1
  Tm  Tm2  1  0.089124  0.910876  0.250000  1
  Tm  Tm3  1  0.910876  0.089124  0.750000  1
  Cr  Cr4  1  0.372671  0.195824  0.779110  1
  Cr  Cr5  1  0.627329  0.804176  0.220890  1
  Cr  Cr6  1  0.804176  0.627329  0.720890  1
  Cr  Cr7  1  0.195824  0.372671  0.279110  1
  N  N8  1  0.991236  0.794116  0.641080  1
  N  N9  1  0.880913  0.407480  0.806349  1
  N  N10  1  0.794116  0.991236  0.141080  1
  N  N11  1  0.119087  0.592520  0.193651  1
  N  N12  1  0.008764  0.205884  0.358920  1
  N  N13  1  0.205884  0.008764  0.858920  1
  N  N14  1  0.592520  0.119087  0.693651  1
  N  N15  1  0.636386  0.672877  0.977761  1
  N  N16  1  0.363614  0.327123  0.022239  1
  N  N17  1  0.407480  0.880913  0.306349  1
  N  N18  1  0.672877  0.636386  0.477761  1
  N  N19  1  0.327123  0.363614  0.522239  1
