# generated using pymatgen
data_Ce4Rh4PbAu
_symmetry_space_group_name_H-M   'P 1'
_cell_length_a   7.66788400
_cell_length_b   7.66788400
_cell_length_c   3.68960300
_cell_angle_alpha   90.00000000
_cell_angle_beta   90.00000000
_cell_angle_gamma   90.00000000
_symmetry_Int_Tables_number   1
_chemical_formula_structural   Ce4Rh4PbAu
_chemical_formula_sum   'Ce4 Rh4 Pb1 Au1'
_cell_volume   216.93554000
_cell_formula_units_Z   1
loop_
 _symmetry_equiv_pos_site_id
 _symmetry_equiv_pos_as_xyz
  1  'x, y, z'
loop_
 _atom_site_type_symbol
 _atom_site_label
 _atom_site_symmetry_multiplicity
 _atom_site_fract_x
 _atom_site_fract_y
 _atom_site_fract_z
 _atom_site_occupancy
  Ce  Ce0  1  0.678415  0.166121  0.500000  1
  Ce  Ce1  1  0.321585  0.833879  0.500000  1
  Ce  Ce2  1  0.166121  0.321585  0.500000  1
  Ce  Ce3  1  0.833879  0.678415  0.500000  1
  Rh  Rh4  1  0.132640  0.635755  0.000000  1
  Rh  Rh5  1  0.867360  0.364245  0.000000  1
  Rh  Rh6  1  0.635755  0.867360  0.000000  1
  Rh  Rh7  1  0.364245  0.132640  0.000000  1
  Pb  Pb8  1  0.500000  0.500000  0.000000  1
  Au  Au9  1  0.000000  0.000000  0.000000  1
