# generated using pymatgen
data_Ti24BS7
_symmetry_space_group_name_H-M   'P 1'
_cell_length_a   9.84208797
_cell_length_b   9.86497886
_cell_length_c   4.95392200
_cell_angle_alpha   89.74876842
_cell_angle_beta   89.81201740
_cell_angle_gamma   90.04403067
_symmetry_Int_Tables_number   1
_chemical_formula_structural   Ti24BS7
_chemical_formula_sum   'Ti24 B1 S7'
_cell_volume   480.97878412
_cell_formula_units_Z   1
loop_
 _symmetry_equiv_pos_site_id
 _symmetry_equiv_pos_as_xyz
  1  'x, y, z'
loop_
 _atom_site_type_symbol
 _atom_site_label
 _atom_site_symmetry_multiplicity
 _atom_site_fract_x
 _atom_site_fract_y
 _atom_site_fract_z
 _atom_site_occupancy
  Ti  Ti0  1  0.969401  0.857192  0.275707  1
  Ti  Ti1  1  0.361171  0.527282  0.781655  1
  Ti  Ti2  1  0.640094  0.470670  0.779268  1
  Ti  Ti3  1  0.027602  0.137338  0.283761  1
  Ti  Ti4  1  0.529952  0.638518  0.219078  1
  Ti  Ti5  1  0.133875  0.965539  0.722012  1
  Ti  Ti6  1  0.862730  0.022658  0.718678  1
  Ti  Ti7  1  0.472184  0.361426  0.217852  1
  Ti  Ti8  1  0.819603  0.283979  0.017973  1
  Ti  Ti9  1  0.791435  0.682029  0.522290  1
  Ti  Ti10  1  0.215050  0.319633  0.516559  1
  Ti  Ti11  1  0.176031  0.716511  0.012071  1
  Ti  Ti12  1  0.680516  0.214938  0.483515  1
  Ti  Ti13  1  0.718779  0.820393  0.978416  1
  Ti  Ti14  1  0.283899  0.180271  0.983402  1
  Ti  Ti15  1  0.319510  0.784271  0.484324  1
  Ti  Ti16  1  0.914883  0.393464  0.545384  1
  Ti  Ti17  1  0.896162  0.592861  0.027122  1
  Ti  Ti18  1  0.106795  0.415088  0.041347  1
  Ti  Ti19  1  0.080963  0.613039  0.557366  1
  Ti  Ti20  1  0.585983  0.106493  0.958221  1
  Ti  Ti21  1  0.607163  0.914604  0.459284  1
  Ti  Ti22  1  0.393269  0.084703  0.456133  1
  Ti  Ti23  1  0.414503  0.893905  0.958060  1
  B  B24  1  0.957950  0.795462  0.789747  1
  S  S25  1  0.460315  0.292207  0.711057  1
  S  S26  1  0.793031  0.038827  0.211481  1
  S  S27  1  0.206236  0.958382  0.211135  1
  S  S28  1  0.540149  0.707647  0.712766  1
  S  S29  1  0.039410  0.206552  0.790138  1
  S  S30  1  0.710516  0.462666  0.285060  1
  S  S31  1  0.290844  0.541457  0.289135  1
