# generated using pymatgen
data_Ca3La17Sn11Bi5
_symmetry_space_group_name_H-M   'P 1'
_cell_length_a   8.50672777
_cell_length_b   8.59470010
_cell_length_c   16.45330819
_cell_angle_alpha   89.87879828
_cell_angle_beta   89.99368607
_cell_angle_gamma   89.99038925
_symmetry_Int_Tables_number   1
_chemical_formula_structural   Ca3La17Sn11Bi5
_chemical_formula_sum   'Ca3 La17 Sn11 Bi5'
_cell_volume   1202.94428886
_cell_formula_units_Z   1
loop_
 _symmetry_equiv_pos_site_id
 _symmetry_equiv_pos_as_xyz
  1  'x, y, z'
loop_
 _atom_site_type_symbol
 _atom_site_label
 _atom_site_symmetry_multiplicity
 _atom_site_fract_x
 _atom_site_fract_y
 _atom_site_fract_z
 _atom_site_occupancy
  Ca  Ca0  1  0.288103  0.001163  0.749131  1
  Ca  Ca1  1  0.788014  0.498068  0.751842  1
  Ca  Ca2  1  0.212877  0.501353  0.249193  1
  La  La3  1  0.966931  0.817974  0.896129  1
  La  La4  1  0.469718  0.684007  0.605638  1
  La  La5  1  0.533395  0.321501  0.103135  1
  La  La6  1  0.035563  0.178581  0.396536  1
  La  La7  1  0.976498  0.821363  0.604437  1
  La  La8  1  0.477550  0.680069  0.896345  1
  La  La9  1  0.526552  0.318358  0.395980  1
  La  La10  1  0.025335  0.181167  0.102715  1
  La  La11  1  0.881387  0.660190  0.379158  1
  La  La12  1  0.382649  0.838074  0.120113  1
  La  La13  1  0.614055  0.160624  0.620531  1
  La  La14  1  0.113522  0.339365  0.880090  1
  La  La15  1  0.120974  0.333273  0.620189  1
  La  La16  1  0.622510  0.162339  0.881309  1
  La  La17  1  0.376811  0.838994  0.381003  1
  La  La18  1  0.877673  0.660502  0.118430  1
  La  La19  1  0.708905  0.000275  0.244895  1
  Sn  Sn20  1  0.722194  0.969725  0.043762  1
  Sn  Sn21  1  0.277586  0.030227  0.542442  1
  Sn  Sn22  1  0.777313  0.469041  0.957243  1
  Sn  Sn23  1  0.171436  0.639454  0.750059  1
  Sn  Sn24  1  0.671791  0.859613  0.749626  1
  Sn  Sn25  1  0.333927  0.140089  0.249977  1
  Sn  Sn26  1  0.827914  0.359498  0.251161  1
  Sn  Sn27  1  0.919077  0.113839  0.749449  1
  Sn  Sn28  1  0.419161  0.385516  0.750625  1
  Sn  Sn29  1  0.580103  0.618386  0.251596  1
  Sn  Sn30  1  0.079551  0.885594  0.250191  1
  Bi  Bi31  1  0.776880  0.469667  0.542919  1
  Bi  Bi32  1  0.277539  0.030858  0.957400  1
  Bi  Bi33  1  0.722209  0.969331  0.456983  1
  Bi  Bi34  1  0.222455  0.531516  0.042232  1
  Bi  Bi35  1  0.221840  0.530407  0.457537  1
