# generated using pymatgen
data_Dy5MnRuO12
_symmetry_space_group_name_H-M   'P 1'
_cell_length_a   6.84401047
_cell_length_b   6.84401220
_cell_length_c   7.25467406
_cell_angle_alpha   74.52982374
_cell_angle_beta   74.52981873
_cell_angle_gamma   50.54228814
_symmetry_Int_Tables_number   1
_chemical_formula_structural   Dy5MnRuO12
_chemical_formula_sum   'Dy5 Mn1 Ru1 O12'
_cell_volume   250.69385561
_cell_formula_units_Z   1
loop_
 _symmetry_equiv_pos_site_id
 _symmetry_equiv_pos_as_xyz
  1  'x, y, z'
loop_
 _atom_site_type_symbol
 _atom_site_label
 _atom_site_symmetry_multiplicity
 _atom_site_fract_x
 _atom_site_fract_y
 _atom_site_fract_z
 _atom_site_occupancy
  Dy  Dy0  1  0.692569  0.693859  0.666870  1
  Dy  Dy1  1  0.691183  0.705430  0.140670  1
  Dy  Dy2  1  0.000126  0.999874  0.000000  1
  Dy  Dy3  1  0.294570  0.308817  0.859330  1
  Dy  Dy4  1  0.306141  0.307431  0.333130  1
  Mn  Mn5  1  0.252220  0.747780  0.500000  1
  Ru  Ru6  1  0.761605  0.238395  0.500000  1
  O  O7  1  0.399720  0.906747  0.924811  1
  O  O8  1  0.575228  0.095887  0.582702  1
  O  O9  1  0.904113  0.424772  0.417298  1
  O  O10  1  0.093253  0.600280  0.075189  1
  O  O11  1  0.007168  0.993006  0.319367  1
  O  O12  1  0.498023  0.501842  0.682582  1
  O  O13  1  0.899090  0.403942  0.926075  1
  O  O14  1  0.100483  0.576699  0.581264  1
  O  O15  1  0.423301  0.899517  0.418736  1
  O  O16  1  0.596058  0.100910  0.073925  1
  O  O17  1  0.498158  0.501977  0.317418  1
  O  O18  1  0.006994  0.992832  0.680633  1
