# generated using pymatgen
data_Tb4NdBi3O14
_symmetry_space_group_name_H-M   'P 1'
_cell_length_a   6.63123623
_cell_length_b   6.67628393
_cell_length_c   7.80298093
_cell_angle_alpha   106.84140059
_cell_angle_beta   89.63051522
_cell_angle_gamma   98.63479845
_symmetry_Int_Tables_number   1
_chemical_formula_structural   Tb4NdBi3O14
_chemical_formula_sum   'Tb4 Nd1 Bi3 O14'
_cell_volume   326.63902350
_cell_formula_units_Z   1
loop_
 _symmetry_equiv_pos_site_id
 _symmetry_equiv_pos_as_xyz
  1  'x, y, z'
loop_
 _atom_site_type_symbol
 _atom_site_label
 _atom_site_symmetry_multiplicity
 _atom_site_fract_x
 _atom_site_fract_y
 _atom_site_fract_z
 _atom_site_occupancy
  Tb  Tb0  1  0.459906  0.007967  0.253330  1
  Tb  Tb1  1  0.536094  0.000054  0.751287  1
  Tb  Tb2  1  0.271578  0.534227  0.884331  1
  Tb  Tb3  1  0.738147  0.459777  0.112391  1
  Nd  Nd4  1  0.750751  0.484691  0.620374  1
  Bi  Bi5  1  0.994417  0.998749  0.499704  1
  Bi  Bi6  1  0.999110  0.996484  0.997874  1
  Bi  Bi7  1  0.284669  0.535432  0.387079  1
  O  O8  1  0.451660  0.653552  0.167055  1
  O  O9  1  0.552102  0.353256  0.841069  1
  O  O10  1  0.300746  0.920566  0.952223  1
  O  O11  1  0.699149  0.075869  0.049874  1
  O  O12  1  0.297037  0.930938  0.515132  1
  O  O13  1  0.698275  0.081071  0.491211  1
  O  O14  1  0.547372  0.361959  0.338280  1
  O  O15  1  0.454148  0.642086  0.658266  1
  O  O16  1  0.927461  0.662401  0.950531  1
  O  O17  1  0.067863  0.323967  0.027440  1
  O  O18  1  0.075080  0.333270  0.630331  1
  O  O19  1  0.905140  0.666405  0.377872  1
  O  O20  1  0.871684  0.902751  0.725978  1
  O  O21  1  0.117607  0.074533  0.268368  1
