# generated using pymatgen
data_Mg3Ga2PdO8
_symmetry_space_group_name_H-M   'P 1'
_cell_length_a   5.95088957
_cell_length_b   5.95088976
_cell_length_c   6.00208571
_cell_angle_alpha   119.71823238
_cell_angle_beta   119.71823235
_cell_angle_gamma   60.00001649
_symmetry_Int_Tables_number   1
_chemical_formula_structural   Mg3Ga2PdO8
_chemical_formula_sum   'Mg3 Ga2 Pd1 O8'
_cell_volume   150.93418011
_cell_formula_units_Z   1
loop_
 _symmetry_equiv_pos_site_id
 _symmetry_equiv_pos_as_xyz
  1  'x, y, z'
loop_
 _atom_site_type_symbol
 _atom_site_label
 _atom_site_symmetry_multiplicity
 _atom_site_fract_x
 _atom_site_fract_y
 _atom_site_fract_z
 _atom_site_occupancy
  Mg  Mg0  1  0.874999  0.375000  0.624999  1
  Mg  Mg1  1  0.375000  0.874999  0.624999  1
  Mg  Mg2  1  0.375000  0.375000  0.624999  1
  Ga  Ga3  1  0.011231  0.011231  0.033693  1
  Ga  Ga4  1  0.738769  0.738769  0.216306  1
  Pd  Pd5  1  0.374999  0.374999  0.124999  1
  O  O6  1  0.618238  0.133502  0.369976  1
  O  O7  1  0.133502  0.618238  0.369976  1
  O  O8  1  0.618238  0.618238  0.369976  1
  O  O9  1  0.135118  0.135118  0.405354  1
  O  O10  1  0.614883  0.614883  0.844648  1
  O  O11  1  0.131763  0.131763  0.880022  1
  O  O12  1  0.616497  0.131763  0.880024  1
  O  O13  1  0.131763  0.616497  0.880024  1
