# generated using pymatgen
data_Tb2Pr2B4I5
_symmetry_space_group_name_H-M   'P 1'
_cell_length_a   9.81830171
_cell_length_b   9.81830095
_cell_length_c   9.81292585
_cell_angle_alpha   75.29742099
_cell_angle_beta   75.29742311
_cell_angle_gamma   25.41235711
_symmetry_Int_Tables_number   1
_chemical_formula_structural   Tb2Pr2B4I5
_chemical_formula_sum   'Tb2 Pr2 B4 I5'
_cell_volume   391.95863996
_cell_formula_units_Z   1
loop_
 _symmetry_equiv_pos_site_id
 _symmetry_equiv_pos_as_xyz
  1  'x, y, z'
loop_
 _atom_site_type_symbol
 _atom_site_label
 _atom_site_symmetry_multiplicity
 _atom_site_fract_x
 _atom_site_fract_y
 _atom_site_fract_z
 _atom_site_occupancy
  Tb  Tb0  1  0.503689  0.503689  0.753380  1
  Tb  Tb1  1  0.498137  0.498137  0.245507  1
  Pr  Pr2  1  0.134145  0.134145  0.931351  1
  Pr  Pr3  1  0.867561  0.867561  0.067235  1
  B  B4  1  0.315478  0.686190  0.999485  1
  B  B5  1  0.686190  0.315478  0.999485  1
  B  B6  1  0.000613  0.000613  0.097119  1
  B  B7  1  0.001033  0.001033  0.901852  1
  I  I8  1  0.671995  0.671995  0.670779  1
  I  I9  1  0.329911  0.329911  0.328391  1
  I  I10  1  0.330581  0.330581  0.839371  1
  I  I11  1  0.671584  0.671584  0.158114  1
  I  I12  1  0.003385  0.003385  0.498130  1
