# generated using pymatgen
data_TbSmFe3Tc14C3
_symmetry_space_group_name_H-M   'P 1'
_cell_length_a   6.90482700
_cell_length_b   6.90482768
_cell_length_c   6.90482676
_cell_angle_alpha   82.51276203
_cell_angle_beta   82.51276201
_cell_angle_gamma   82.51275350
_symmetry_Int_Tables_number   1
_chemical_formula_structural   TbSmFe3Tc14C3
_chemical_formula_sum   'Tb1 Sm1 Fe3 Tc14 C3'
_cell_volume   321.45169299
_cell_formula_units_Z   1
loop_
 _symmetry_equiv_pos_site_id
 _symmetry_equiv_pos_as_xyz
  1  'x, y, z'
loop_
 _atom_site_type_symbol
 _atom_site_label
 _atom_site_symmetry_multiplicity
 _atom_site_fract_x
 _atom_site_fract_y
 _atom_site_fract_z
 _atom_site_occupancy
  Tb  Tb0  1  0.348199  0.348199  0.348199  1
  Sm  Sm1  1  0.651145  0.651145  0.651145  1
  Fe  Fe2  1  0.999964  0.999964  0.499985  1
  Fe  Fe3  1  0.499985  0.999964  0.999964  1
  Fe  Fe4  1  0.999964  0.499985  0.999964  1
  Tc  Tc5  1  0.724125  0.275680  0.000249  1
  Tc  Tc6  1  0.000249  0.724125  0.275680  1
  Tc  Tc7  1  0.275680  0.000249  0.724125  1
  Tc  Tc8  1  0.000249  0.275680  0.724125  1
  Tc  Tc9  1  0.724125  0.000249  0.275680  1
  Tc  Tc10  1  0.275680  0.724125  0.000249  1
  Tc  Tc11  1  0.347658  0.347658  0.861982  1
  Tc  Tc12  1  0.861982  0.347658  0.347658  1
  Tc  Tc13  1  0.347658  0.861982  0.347658  1
  Tc  Tc14  1  0.651831  0.651831  0.139208  1
  Tc  Tc15  1  0.139208  0.651831  0.651831  1
  Tc  Tc16  1  0.651831  0.139208  0.651831  1
  Tc  Tc17  1  0.899483  0.899483  0.899483  1
  Tc  Tc18  1  0.100805  0.100805  0.100805  1
  C  C19  1  0.498880  0.498880  0.002420  1
  C  C20  1  0.002420  0.498880  0.498880  1
  C  C21  1  0.498880  0.002420  0.498880  1
