# generated using pymatgen
data_SrCd2Ni6(TeO6)3
_symmetry_space_group_name_H-M   'P 1'
_cell_length_a   9.49125480
_cell_length_b   9.49125480
_cell_length_c   9.03425100
_cell_angle_alpha   90.00000000
_cell_angle_beta   90.00000000
_cell_angle_gamma   120.00000557
_symmetry_Int_Tables_number   1
_chemical_formula_structural   SrCd2Ni6(TeO6)3
_chemical_formula_sum   'Sr2 Cd4 Ni12 Te6 O36'
_cell_volume   704.80670134
_cell_formula_units_Z   2
loop_
 _symmetry_equiv_pos_site_id
 _symmetry_equiv_pos_as_xyz
  1  'x, y, z'
loop_
 _atom_site_type_symbol
 _atom_site_label
 _atom_site_symmetry_multiplicity
 _atom_site_fract_x
 _atom_site_fract_y
 _atom_site_fract_z
 _atom_site_occupancy
  Sr  Sr0  1  0.000000  0.000000  0.500000  1
  Sr  Sr1  1  0.000000  0.000000  0.000000  1
  Cd  Cd2  1  0.333333  0.666667  0.436209  1
  Cd  Cd3  1  0.666667  0.333333  0.936209  1
  Cd  Cd4  1  0.666667  0.333333  0.563791  1
  Cd  Cd5  1  0.333333  0.666667  0.063791  1
  Ni  Ni6  1  0.357979  0.007829  0.588200  1
  Ni  Ni7  1  0.649851  0.642021  0.588200  1
  Ni  Ni8  1  0.992171  0.350149  0.588200  1
  Ni  Ni9  1  0.642021  0.992171  0.088200  1
  Ni  Ni10  1  0.350149  0.357979  0.088200  1
  Ni  Ni11  1  0.007829  0.649851  0.088200  1
  Ni  Ni12  1  0.642021  0.992171  0.411800  1
  Ni  Ni13  1  0.350149  0.357979  0.411800  1
  Ni  Ni14  1  0.007829  0.649851  0.411800  1
  Ni  Ni15  1  0.357979  0.007829  0.911800  1
  Ni  Ni16  1  0.649851  0.642021  0.911800  1
  Ni  Ni17  1  0.992171  0.350149  0.911800  1
  Te  Te18  1  0.664457  0.641868  0.250000  1
  Te  Te19  1  0.977411  0.335543  0.250000  1
  Te  Te20  1  0.358132  0.022589  0.250000  1
  Te  Te21  1  0.335543  0.358132  0.750000  1
  Te  Te22  1  0.022589  0.664457  0.750000  1
  Te  Te23  1  0.641868  0.977411  0.750000  1
  O  O24  1  0.201912  0.899708  0.408175  1
  O  O25  1  0.697796  0.798088  0.408175  1
  O  O26  1  0.100292  0.302204  0.408175  1
  O  O27  1  0.798088  0.100292  0.908175  1
  O  O28  1  0.302204  0.201912  0.908175  1
  O  O29  1  0.899708  0.697796  0.908175  1
  O  O30  1  0.798088  0.100292  0.591825  1
  O  O31  1  0.302204  0.201912  0.591825  1
  O  O32  1  0.899708  0.697796  0.591825  1
  O  O33  1  0.201912  0.899708  0.091825  1
  O  O34  1  0.697796  0.798088  0.091825  1
  O  O35  1  0.100292  0.302204  0.091825  1
  O  O36  1  0.483452  0.877050  0.589238  1
  O  O37  1  0.393598  0.516548  0.589238  1
  O  O38  1  0.122950  0.606402  0.589238  1
  O  O39  1  0.516548  0.122950  0.089238  1
  O  O40  1  0.606402  0.483452  0.089238  1
  O  O41  1  0.877050  0.393598  0.089238  1
  O  O42  1  0.516548  0.122950  0.410762  1
  O  O43  1  0.606402  0.483452  0.410762  1
  O  O44  1  0.877050  0.393598  0.410762  1
  O  O45  1  0.483452  0.877050  0.910762  1
  O  O46  1  0.393598  0.516548  0.910762  1
  O  O47  1  0.122950  0.606402  0.910762  1
  O  O48  1  0.127988  0.579865  0.250000  1
  O  O49  1  0.451876  0.872012  0.250000  1
  O  O50  1  0.420135  0.548124  0.250000  1
  O  O51  1  0.872012  0.420135  0.750000  1
  O  O52  1  0.548124  0.127988  0.750000  1
  O  O53  1  0.579865  0.451876  0.750000  1
  O  O54  1  0.893832  0.709014  0.250000  1
  O  O55  1  0.815181  0.106168  0.250000  1
  O  O56  1  0.290986  0.184819  0.250000  1
  O  O57  1  0.106168  0.290986  0.750000  1
  O  O58  1  0.184819  0.893832  0.750000  1
  O  O59  1  0.709014  0.815181  0.750000  1
