# generated using pymatgen
data_CeEr3Lu4(ReB6)4
_symmetry_space_group_name_H-M   'P 1'
_cell_length_a   3.65321900
_cell_length_b   9.10985669
_cell_length_c   11.48985887
_cell_angle_alpha   89.95537642
_cell_angle_beta   90.00000000
_cell_angle_gamma   90.00000000
_symmetry_Int_Tables_number   1
_chemical_formula_structural   CeEr3Lu4(ReB6)4
_chemical_formula_sum   'Ce1 Er3 Lu4 Re4 B24'
_cell_volume   382.38585203
_cell_formula_units_Z   1
loop_
 _symmetry_equiv_pos_site_id
 _symmetry_equiv_pos_as_xyz
  1  'x, y, z'
loop_
 _atom_site_type_symbol
 _atom_site_label
 _atom_site_symmetry_multiplicity
 _atom_site_fract_x
 _atom_site_fract_y
 _atom_site_fract_z
 _atom_site_occupancy
  Ce  Ce0  1  0.000000  0.177152  0.914045  1
  Er  Er1  1  0.000000  0.323611  0.413931  1
  Er  Er2  1  0.000000  0.676839  0.585632  1
  Er  Er3  1  0.000000  0.822437  0.086790  1
  Lu  Lu4  1  0.000000  0.943458  0.370812  1
  Lu  Lu5  1  0.000000  0.056014  0.628605  1
  Lu  Lu6  1  0.000000  0.444378  0.130118  1
  Lu  Lu7  1  0.000000  0.556786  0.870254  1
  Re  Re8  1  0.000000  0.639286  0.320339  1
  Re  Re9  1  0.000000  0.360308  0.679851  1
  Re  Re10  1  0.000000  0.139188  0.179643  1
  Re  Re11  1  0.000000  0.860829  0.820306  1
  B  B12  1  0.500000  0.553342  0.432982  1
  B  B13  1  0.500000  0.446667  0.566773  1
  B  B14  1  0.500000  0.053760  0.068074  1
  B  B15  1  0.500000  0.945642  0.932364  1
  B  B16  1  0.500000  0.750702  0.418822  1
  B  B17  1  0.500000  0.249641  0.580540  1
  B  B18  1  0.500000  0.250681  0.082524  1
  B  B19  1  0.500000  0.748677  0.918727  1
  B  B20  1  0.500000  0.793537  0.265400  1
  B  B21  1  0.500000  0.207234  0.733716  1
  B  B22  1  0.500000  0.293472  0.235279  1
  B  B23  1  0.500000  0.706393  0.765284  1
  B  B24  1  0.500000  0.631007  0.184896  1
  B  B25  1  0.500000  0.369582  0.814479  1
  B  B26  1  0.500000  0.130527  0.315606  1
  B  B27  1  0.500000  0.868494  0.684092  1
  B  B28  1  0.500000  0.981660  0.213513  1
  B  B29  1  0.500000  0.016593  0.786584  1
  B  B30  1  0.500000  0.482051  0.287599  1
  B  B31  1  0.500000  0.518292  0.712188  1
  B  B32  1  0.500000  0.600186  0.027887  1
  B  B33  1  0.500000  0.401896  0.972825  1
  B  B34  1  0.500000  0.099486  0.472138  1
  B  B35  1  0.500000  0.900190  0.527377  1
