# generated using pymatgen
data_Tb7Er13(Bi2As)4
_symmetry_space_group_name_H-M   'P 1'
_cell_length_a   8.03529982
_cell_length_b   9.16411418
_cell_length_c   12.00462908
_cell_angle_alpha   90.01149235
_cell_angle_beta   90.04761589
_cell_angle_gamma   89.98012566
_symmetry_Int_Tables_number   1
_chemical_formula_structural   Tb7Er13(Bi2As)4
_chemical_formula_sum   'Tb7 Er13 Bi8 As4'
_cell_volume   883.97735389
_cell_formula_units_Z   1
loop_
 _symmetry_equiv_pos_site_id
 _symmetry_equiv_pos_as_xyz
  1  'x, y, z'
loop_
 _atom_site_type_symbol
 _atom_site_label
 _atom_site_symmetry_multiplicity
 _atom_site_fract_x
 _atom_site_fract_y
 _atom_site_fract_z
 _atom_site_occupancy
  Tb  Tb0  1  0.816934  0.554529  0.062426  1
  Tb  Tb1  1  0.682041  0.945055  0.561954  1
  Tb  Tb2  1  0.183424  0.054610  0.937738  1
  Tb  Tb3  1  0.158551  0.750155  0.212268  1
  Tb  Tb4  1  0.342377  0.750056  0.711307  1
  Tb  Tb5  1  0.842225  0.250734  0.788474  1
  Tb  Tb6  1  0.658335  0.249901  0.288283  1
  Er  Er7  1  0.317285  0.443652  0.437617  1
  Er  Er8  1  0.181339  0.441815  0.937866  1
  Er  Er9  1  0.318919  0.058031  0.437975  1
  Er  Er10  1  0.818784  0.941891  0.062249  1
  Er  Er11  1  0.681365  0.558088  0.562085  1
  Er  Er12  1  0.465321  0.749713  0.000555  1
  Er  Er13  1  0.034136  0.750547  0.500410  1
  Er  Er14  1  0.534493  0.249989  0.999736  1
  Er  Er15  1  0.965750  0.250360  0.499514  1
  Er  Er16  1  0.636578  0.750700  0.292290  1
  Er  Er17  1  0.863904  0.749918  0.792253  1
  Er  Er18  1  0.363675  0.250558  0.707318  1
  Er  Er19  1  0.136535  0.250071  0.208234  1
  Bi  Bi20  1  0.926575  0.509930  0.327886  1
  Bi  Bi21  1  0.573932  0.990529  0.827669  1
  Bi  Bi22  1  0.073712  0.009970  0.672224  1
  Bi  Bi23  1  0.425973  0.490355  0.172856  1
  Bi  Bi24  1  0.073770  0.490637  0.672384  1
  Bi  Bi25  1  0.426353  0.009824  0.172891  1
  Bi  Bi26  1  0.926582  0.990569  0.327250  1
  Bi  Bi27  1  0.573638  0.509792  0.827144  1
  As  As28  1  0.409373  0.749460  0.475052  1
  As  As29  1  0.088688  0.747605  0.976645  1
  As  As30  1  0.588046  0.253596  0.523315  1
  As  As31  1  0.911387  0.247363  0.024129  1
