# generated using pymatgen
data_LaPr6PI12
_symmetry_space_group_name_H-M   'P 1'
_cell_length_a   10.05086191
_cell_length_b   10.05086269
_cell_length_c   10.05086242
_cell_angle_alpha   107.37547052
_cell_angle_beta   107.37546427
_cell_angle_gamma   107.37546980
_symmetry_Int_Tables_number   1
_chemical_formula_structural   LaPr6PI12
_chemical_formula_sum   'La1 Pr6 P1 I12'
_cell_volume   836.77010203
_cell_formula_units_Z   1
loop_
 _symmetry_equiv_pos_site_id
 _symmetry_equiv_pos_as_xyz
  1  'x, y, z'
loop_
 _atom_site_type_symbol
 _atom_site_label
 _atom_site_symmetry_multiplicity
 _atom_site_fract_x
 _atom_site_fract_y
 _atom_site_fract_z
 _atom_site_occupancy
  La  La0  1  0.994196  0.994196  0.994196  1
  Pr  Pr1  1  0.525274  0.597989  0.800513  1
  Pr  Pr2  1  0.800513  0.525274  0.597989  1
  Pr  Pr3  1  0.597989  0.800513  0.525274  1
  Pr  Pr4  1  0.474602  0.401236  0.197779  1
  Pr  Pr5  1  0.197779  0.474602  0.401236  1
  Pr  Pr6  1  0.401236  0.197779  0.474602  1
  P  P7  1  0.498713  0.498713  0.498713  1
  I  I8  1  0.272697  0.816628  0.424899  1
  I  I9  1  0.424899  0.272697  0.816628  1
  I  I10  1  0.816628  0.424899  0.272697  1
  I  I11  1  0.725657  0.181700  0.572684  1
  I  I12  1  0.572684  0.725657  0.181700  1
  I  I13  1  0.181700  0.572684  0.725657  1
  I  I14  1  0.037058  0.118816  0.346594  1
  I  I15  1  0.346594  0.037058  0.118816  1
  I  I16  1  0.118816  0.346594  0.037058  1
  I  I17  1  0.961758  0.879081  0.647496  1
  I  I18  1  0.647496  0.961758  0.879081  1
  I  I19  1  0.879081  0.647496  0.961758  1
