# generated using pymatgen
data_Dy4Zr3ReF28
_symmetry_space_group_name_H-M   'P 1'
_cell_length_a   5.70066745
_cell_length_b   9.04868991
_cell_length_c   12.19321072
_cell_angle_alpha   62.48072950
_cell_angle_beta   89.95670064
_cell_angle_gamma   89.95175711
_symmetry_Int_Tables_number   1
_chemical_formula_structural   Dy4Zr3ReF28
_chemical_formula_sum   'Dy4 Zr3 Re1 F28'
_cell_volume   557.80468218
_cell_formula_units_Z   1
loop_
 _symmetry_equiv_pos_site_id
 _symmetry_equiv_pos_as_xyz
  1  'x, y, z'
loop_
 _atom_site_type_symbol
 _atom_site_label
 _atom_site_symmetry_multiplicity
 _atom_site_fract_x
 _atom_site_fract_y
 _atom_site_fract_z
 _atom_site_occupancy
  Dy  Dy0  1  0.757437  0.816952  0.764711  1
  Dy  Dy1  1  0.256492  0.184926  0.731734  1
  Dy  Dy2  1  0.241965  0.184040  0.238304  1
  Dy  Dy3  1  0.743768  0.813877  0.267028  1
  Zr  Zr4  1  0.756151  0.273266  0.956559  1
  Zr  Zr5  1  0.256061  0.725464  0.544070  1
  Zr  Zr6  1  0.244518  0.725370  0.044700  1
  Re  Re7  1  0.741241  0.273649  0.455373  1
  F  F8  1  0.461389  0.709386  0.918210  1
  F  F9  1  0.940794  0.293122  0.580612  1
  F  F10  1  0.537887  0.289150  0.082629  1
  F  F11  1  0.040295  0.710238  0.417502  1
  F  F12  1  0.448787  0.278304  0.544015  1
  F  F13  1  0.945866  0.725568  0.950352  1
  F  F14  1  0.555274  0.720436  0.452469  1
  F  F15  1  0.053393  0.273794  0.051542  1
  F  F16  1  0.776337  0.525925  0.859667  1
  F  F17  1  0.269548  0.472494  0.639477  1
  F  F18  1  0.222437  0.472840  0.142610  1
  F  F19  1  0.728138  0.519168  0.358369  1
  F  F20  1  0.758439  0.020990  0.059469  1
  F  F21  1  0.260204  0.977875  0.443294  1
  F  F22  1  0.242378  0.977213  0.939663  1
  F  F23  1  0.742733  0.027152  0.550910  1
  F  F24  1  0.977842  0.732977  0.646266  1
  F  F25  1  0.481388  0.267451  0.851510  1
  F  F26  1  0.022405  0.271311  0.360883  1
  F  F27  1  0.521249  0.731583  0.147921  1
  F  F28  1  0.039237  0.748309  0.174200  1
  F  F29  1  0.545129  0.256399  0.326340  1
  F  F30  1  0.965373  0.252001  0.826931  1
  F  F31  1  0.463966  0.746553  0.673690  1
  F  F32  1  0.425780  0.972178  0.236472  1
  F  F33  1  0.924811  0.027559  0.268124  1
  F  F34  1  0.575213  0.029522  0.763801  1
  F  F35  1  0.076079  0.972959  0.730590  1
