# generated using pymatgen
data_HfGa4CuRh
_symmetry_space_group_name_H-M   'P 1'
_cell_length_a   4.20228800
_cell_length_b   4.20228800
_cell_length_c   6.55549800
_cell_angle_alpha   90.00000000
_cell_angle_beta   90.00000000
_cell_angle_gamma   90.00000000
_symmetry_Int_Tables_number   1
_chemical_formula_structural   HfGa4CuRh
_chemical_formula_sum   'Hf1 Ga4 Cu1 Rh1'
_cell_volume   115.76501046
_cell_formula_units_Z   1
loop_
 _symmetry_equiv_pos_site_id
 _symmetry_equiv_pos_as_xyz
  1  'x, y, z'
loop_
 _atom_site_type_symbol
 _atom_site_label
 _atom_site_symmetry_multiplicity
 _atom_site_fract_x
 _atom_site_fract_y
 _atom_site_fract_z
 _atom_site_occupancy
  Hf  Hf0  1  0.000000  0.000000  0.000000  1
  Ga  Ga1  1  0.000000  0.500000  0.284645  1
  Ga  Ga2  1  0.000000  0.500000  0.715355  1
  Ga  Ga3  1  0.500000  0.000000  0.284645  1
  Ga  Ga4  1  0.500000  0.000000  0.715355  1
  Cu  Cu5  1  0.500000  0.500000  0.000000  1
  Rh  Rh6  1  0.000000  0.000000  0.500000  1
