# generated using pymatgen
data_Cs6ErTe4Cl
_symmetry_space_group_name_H-M   'P 1'
_cell_length_a   12.39810600
_cell_length_b   12.39810621
_cell_length_c   9.05201700
_cell_angle_alpha   90.00000000
_cell_angle_beta   90.00000000
_cell_angle_gamma   119.99999943
_symmetry_Int_Tables_number   1
_chemical_formula_structural   Cs6ErTe4Cl
_chemical_formula_sum   'Cs12 Er2 Te8 Cl2'
_cell_volume   1204.99901734
_cell_formula_units_Z   2
loop_
 _symmetry_equiv_pos_site_id
 _symmetry_equiv_pos_as_xyz
  1  'x, y, z'
loop_
 _atom_site_type_symbol
 _atom_site_label
 _atom_site_symmetry_multiplicity
 _atom_site_fract_x
 _atom_site_fract_y
 _atom_site_fract_z
 _atom_site_occupancy
  Cs  Cs0  1  0.124653  0.875347  0.513750  1
  Cs  Cs1  1  0.750692  0.875347  0.513750  1
  Cs  Cs2  1  0.947210  0.473605  0.316916  1
  Cs  Cs3  1  0.526395  0.473605  0.316916  1
  Cs  Cs4  1  0.875347  0.750692  0.013750  1
  Cs  Cs5  1  0.249308  0.124653  0.013750  1
  Cs  Cs6  1  0.526395  0.052790  0.316916  1
  Cs  Cs7  1  0.124653  0.249308  0.513750  1
  Cs  Cs8  1  0.875347  0.124653  0.013750  1
  Cs  Cs9  1  0.052790  0.526395  0.816916  1
  Cs  Cs10  1  0.473605  0.947210  0.816916  1
  Cs  Cs11  1  0.473605  0.526395  0.816916  1
  Er  Er12  1  0.666667  0.333333  0.713063  1
  Er  Er13  1  0.333333  0.666667  0.213063  1
  Te  Te14  1  0.408930  0.204465  0.608263  1
  Te  Te15  1  0.591070  0.795535  0.108263  1
  Te  Te16  1  0.666667  0.333333  0.035820  1
  Te  Te17  1  0.795535  0.591070  0.608263  1
  Te  Te18  1  0.204465  0.408930  0.108263  1
  Te  Te19  1  0.333333  0.666667  0.535820  1
  Te  Te20  1  0.204465  0.795535  0.108263  1
  Te  Te21  1  0.795535  0.204465  0.608263  1
  Cl  Cl22  1  0.000000  0.000000  0.274932  1
  Cl  Cl23  1  0.000000  0.000000  0.774932  1
