# generated using pymatgen
data_Dy2Y8AlSb5
_symmetry_space_group_name_H-M   'P 1'
_cell_length_a   6.39483200
_cell_length_b   8.94788378
_cell_length_c   8.93066125
_cell_angle_alpha   120.06381749
_cell_angle_beta   90.00204952
_cell_angle_gamma   89.99593833
_symmetry_Int_Tables_number   1
_chemical_formula_structural   Dy2Y8AlSb5
_chemical_formula_sum   'Dy2 Y8 Al1 Sb5'
_cell_volume   442.26653744
_cell_formula_units_Z   1
loop_
 _symmetry_equiv_pos_site_id
 _symmetry_equiv_pos_as_xyz
  1  'x, y, z'
loop_
 _atom_site_type_symbol
 _atom_site_label
 _atom_site_symmetry_multiplicity
 _atom_site_fract_x
 _atom_site_fract_y
 _atom_site_fract_z
 _atom_site_occupancy
  Dy  Dy0  1  0.500886  0.338225  0.672916  1
  Dy  Dy1  1  0.500886  0.665309  0.327084  1
  Y  Y2  1  0.999149  0.665348  0.327371  1
  Y  Y3  1  0.999149  0.337977  0.672629  1
  Y  Y4  1  0.749929  0.248003  0.000000  1
  Y  Y5  1  0.749942  0.753107  0.761934  1
  Y  Y6  1  0.749942  0.991173  0.238066  1
  Y  Y7  1  0.250012  0.756781  0.000000  1
  Y  Y8  1  0.250004  0.246234  0.245317  1
  Y  Y9  1  0.250004  0.000918  0.754683  1
  Al  Al10  1  0.749757  0.604335  0.000000  1
  Sb  Sb11  1  0.749766  0.388051  0.389768  1
  Sb  Sb12  1  0.749766  0.998282  0.610232  1
  Sb  Sb13  1  0.250296  0.392105  0.000000  1
  Sb  Sb14  1  0.250256  0.611493  0.608832  1
  Sb  Sb15  1  0.250256  0.002662  0.391168  1
