# generated using pymatgen
data_Sc5CrReBC6
_symmetry_space_group_name_H-M   'P 1'
_cell_length_a   7.84776387
_cell_length_b   7.84776492
_cell_length_c   3.20588600
_cell_angle_alpha   90.00000000
_cell_angle_beta   90.00000000
_cell_angle_gamma   121.19789913
_symmetry_Int_Tables_number   1
_chemical_formula_structural   Sc5CrReBC6
_chemical_formula_sum   'Sc5 Cr1 Re1 B1 C6'
_cell_volume   168.88875383
_cell_formula_units_Z   1
loop_
 _symmetry_equiv_pos_site_id
 _symmetry_equiv_pos_as_xyz
  1  'x, y, z'
loop_
 _atom_site_type_symbol
 _atom_site_label
 _atom_site_symmetry_multiplicity
 _atom_site_fract_x
 _atom_site_fract_y
 _atom_site_fract_z
 _atom_site_occupancy
  Sc  Sc0  1  0.084277  0.332281  0.500000  1
  Sc  Sc1  1  0.335166  0.085678  0.500000  1
  Sc  Sc2  1  0.500204  0.499796  0.000000  1
  Sc  Sc3  1  0.914322  0.664834  0.500000  1
  Sc  Sc4  1  0.667719  0.915723  0.500000  1
  Cr  Cr5  1  0.710384  0.289616  0.000000  1
  Re  Re6  1  0.283834  0.716166  0.000000  1
  B  B7  1  0.999980  0.000020  0.000000  1
  C  C8  1  0.991512  0.491507  0.000000  1
  C  C9  1  0.508493  0.008488  0.000000  1
  C  C10  1  0.189591  0.189989  0.000000  1
  C  C11  1  0.810011  0.810409  0.000000  1
  C  C12  1  0.624746  0.375254  0.500000  1
  C  C13  1  0.379759  0.620241  0.500000  1
