# generated using pymatgen
data_CeZn2Pt2Au
_symmetry_space_group_name_H-M   'P 1'
_cell_length_a   5.28546375
_cell_length_b   5.28546361
_cell_length_c   5.28546465
_cell_angle_alpha   119.77390119
_cell_angle_beta   116.49789589
_cell_angle_gamma   93.28234381
_symmetry_Int_Tables_number   1
_chemical_formula_structural   CeZn2Pt2Au
_chemical_formula_sum   'Ce1 Zn2 Pt2 Au1'
_cell_volume   107.05752517
_cell_formula_units_Z   1
loop_
 _symmetry_equiv_pos_site_id
 _symmetry_equiv_pos_as_xyz
  1  'x, y, z'
loop_
 _atom_site_type_symbol
 _atom_site_label
 _atom_site_symmetry_multiplicity
 _atom_site_fract_x
 _atom_site_fract_y
 _atom_site_fract_z
 _atom_site_occupancy
  Ce  Ce0  1  0.007333  0.007333  0.000000  1
  Zn  Zn1  1  0.616159  0.866912  0.250753  1
  Zn  Zn2  1  0.616159  0.365406  0.749247  1
  Pt  Pt3  1  0.121623  0.372546  0.749076  1
  Pt  Pt4  1  0.623470  0.372546  0.250924  1
  Au  Au5  1  0.265255  0.765255  0.500000  1
