# generated using pymatgen
data_Er16Al3ZnPd4
_symmetry_space_group_name_H-M   'P 1'
_cell_length_a   9.51136483
_cell_length_b   9.49496518
_cell_length_c   9.49496500
_cell_angle_alpha   59.99999715
_cell_angle_beta   60.05701738
_cell_angle_gamma   60.05701655
_symmetry_Int_Tables_number   1
_chemical_formula_structural   Er16Al3ZnPd4
_chemical_formula_sum   'Er16 Al3 Zn1 Pd4'
_cell_volume   606.85973133
_cell_formula_units_Z   1
loop_
 _symmetry_equiv_pos_site_id
 _symmetry_equiv_pos_as_xyz
  1  'x, y, z'
loop_
 _atom_site_type_symbol
 _atom_site_label
 _atom_site_symmetry_multiplicity
 _atom_site_fract_x
 _atom_site_fract_y
 _atom_site_fract_z
 _atom_site_occupancy
  Er  Er0  1  0.355510  0.357507  0.357507  1
  Er  Er1  1  0.355510  0.357507  0.929476  1
  Er  Er2  1  0.355510  0.929476  0.357507  1
  Er  Er3  1  0.931848  0.356050  0.356050  1
  Er  Er4  1  0.807152  0.192837  0.192837  1
  Er  Er5  1  0.192309  0.808900  0.808900  1
  Er  Er6  1  0.192309  0.808900  0.189892  1
  Er  Er7  1  0.807152  0.192837  0.807174  1
  Er  Er8  1  0.192309  0.189892  0.808900  1
  Er  Er9  1  0.807152  0.807174  0.192837  1
  Er  Er10  1  0.936555  0.565273  0.565273  1
  Er  Er11  1  0.566087  0.934215  0.934215  1
  Er  Er12  1  0.566087  0.934215  0.565484  1
  Er  Er13  1  0.936555  0.565273  0.932897  1
  Er  Er14  1  0.566087  0.565484  0.934215  1
  Er  Er15  1  0.936555  0.932897  0.565273  1
  Al  Al16  1  0.579707  0.577538  0.577538  1
  Al  Al17  1  0.579707  0.577538  0.265217  1
  Al  Al18  1  0.579707  0.265217  0.577538  1
  Zn  Zn19  1  0.255997  0.581334  0.581334  1
  Pd  Pd20  1  0.145377  0.145014  0.145014  1
  Pd  Pd21  1  0.145377  0.145014  0.564595  1
  Pd  Pd22  1  0.145377  0.564595  0.145014  1
  Pd  Pd23  1  0.564065  0.145311  0.145311  1
