# generated using pymatgen
data_YHo7(CdPt)2
_symmetry_space_group_name_H-M   'P 1'
_cell_length_a   9.64832774
_cell_length_b   9.64832841
_cell_length_c   9.64754700
_cell_angle_alpha   60.00267562
_cell_angle_beta   60.00267332
_cell_angle_gamma   59.99464264
_symmetry_Int_Tables_number   1
_chemical_formula_structural   YHo7(CdPt)2
_chemical_formula_sum   'Y2 Ho14 Cd4 Pt4'
_cell_volume   635.04718681
_cell_formula_units_Z   2
loop_
 _symmetry_equiv_pos_site_id
 _symmetry_equiv_pos_as_xyz
  1  'x, y, z'
loop_
 _atom_site_type_symbol
 _atom_site_label
 _atom_site_symmetry_multiplicity
 _atom_site_fract_x
 _atom_site_fract_y
 _atom_site_fract_z
 _atom_site_occupancy
  Y  Y0  1  0.565209  0.565209  0.934791  1
  Y  Y1  1  0.934791  0.934791  0.565209  1
  Ho  Ho2  1  0.352468  0.352468  0.352875  1
  Ho  Ho3  1  0.352468  0.352468  0.942190  1
  Ho  Ho4  1  0.352875  0.942190  0.352468  1
  Ho  Ho5  1  0.942190  0.352875  0.352468  1
  Ho  Ho6  1  0.810511  0.189489  0.189489  1
  Ho  Ho7  1  0.189489  0.810511  0.810511  1
  Ho  Ho8  1  0.189489  0.810511  0.189489  1
  Ho  Ho9  1  0.810511  0.189489  0.810511  1
  Ho  Ho10  1  0.189441  0.189441  0.810559  1
  Ho  Ho11  1  0.810559  0.810559  0.189441  1
  Ho  Ho12  1  0.935471  0.564529  0.564529  1
  Ho  Ho13  1  0.564529  0.935471  0.935471  1
  Ho  Ho14  1  0.564529  0.935471  0.564529  1
  Ho  Ho15  1  0.935471  0.564529  0.935471  1
  Cd  Cd16  1  0.582004  0.582004  0.581798  1
  Cd  Cd17  1  0.582004  0.582004  0.254195  1
  Cd  Cd18  1  0.581798  0.254195  0.582004  1
  Cd  Cd19  1  0.254195  0.581798  0.582004  1
  Pt  Pt20  1  0.143586  0.143586  0.143313  1
  Pt  Pt21  1  0.143586  0.143586  0.569514  1
  Pt  Pt22  1  0.143313  0.569514  0.143586  1
  Pt  Pt23  1  0.569514  0.143313  0.143586  1
