# generated using pymatgen
data_Tb6CeHo9(CdRu)4
_symmetry_space_group_name_H-M   'P 1'
_cell_length_a   9.66849770
_cell_length_b   9.66849829
_cell_length_c   9.66849787
_cell_angle_alpha   59.40131868
_cell_angle_beta   59.40132414
_cell_angle_gamma   59.40132018
_symmetry_Int_Tables_number   1
_chemical_formula_structural   Tb6CeHo9(CdRu)4
_chemical_formula_sum   'Tb6 Ce1 Ho9 Cd4 Ru4'
_cell_volume   630.38324882
_cell_formula_units_Z   1
loop_
 _symmetry_equiv_pos_site_id
 _symmetry_equiv_pos_as_xyz
  1  'x, y, z'
loop_
 _atom_site_type_symbol
 _atom_site_label
 _atom_site_symmetry_multiplicity
 _atom_site_fract_x
 _atom_site_fract_y
 _atom_site_fract_z
 _atom_site_occupancy
  Tb  Tb0  1  0.561234  0.561234  0.939083  1
  Tb  Tb1  1  0.939377  0.560066  0.939377  1
  Tb  Tb2  1  0.560066  0.939377  0.939377  1
  Tb  Tb3  1  0.939377  0.939377  0.560066  1
  Tb  Tb4  1  0.561234  0.939083  0.561234  1
  Tb  Tb5  1  0.939083  0.561234  0.561234  1
  Ce  Ce6  1  0.340957  0.340957  0.340957  1
  Ho  Ho7  1  0.188792  0.188792  0.813061  1
  Ho  Ho8  1  0.812131  0.187361  0.812131  1
  Ho  Ho9  1  0.187360  0.812132  0.812131  1
  Ho  Ho10  1  0.812131  0.812132  0.187361  1
  Ho  Ho11  1  0.188791  0.813061  0.188791  1
  Ho  Ho12  1  0.813061  0.188792  0.188792  1
  Ho  Ho13  1  0.346532  0.346532  0.957313  1
  Ho  Ho14  1  0.346532  0.957313  0.346532  1
  Ho  Ho15  1  0.957313  0.346532  0.346532  1
  Cd  Cd16  1  0.579783  0.579783  0.258471  1
  Cd  Cd17  1  0.579783  0.258471  0.579783  1
  Cd  Cd18  1  0.258471  0.579783  0.579783  1
  Cd  Cd19  1  0.579523  0.579523  0.579523  1
  Ru  Ru20  1  0.146593  0.146593  0.575444  1
  Ru  Ru21  1  0.146593  0.575444  0.146593  1
  Ru  Ru22  1  0.575444  0.146593  0.146593  1
  Ru  Ru23  1  0.139840  0.139840  0.139840  1
