# generated using pymatgen
data_YMg4P12Ru9Rh10
_symmetry_space_group_name_H-M   'P 1'
_cell_length_a   12.49057600
_cell_length_b   12.49057553
_cell_length_c   3.92087900
_cell_angle_alpha   90.00000000
_cell_angle_beta   90.00000000
_cell_angle_gamma   120.00000655
_symmetry_Int_Tables_number   1
_chemical_formula_structural   YMg4P12Ru9Rh10
_chemical_formula_sum   'Y1 Mg4 P12 Ru9 Rh10'
_cell_volume   529.75975068
_cell_formula_units_Z   1
loop_
 _symmetry_equiv_pos_site_id
 _symmetry_equiv_pos_as_xyz
  1  'x, y, z'
loop_
 _atom_site_type_symbol
 _atom_site_label
 _atom_site_symmetry_multiplicity
 _atom_site_fract_x
 _atom_site_fract_y
 _atom_site_fract_z
 _atom_site_occupancy
  Y  Y0  1  0.666667  0.333333  0.000000  1
  Mg  Mg1  1  0.997561  0.177405  0.500000  1
  Mg  Mg2  1  0.822595  0.820155  0.500000  1
  Mg  Mg3  1  0.179845  0.002439  0.500000  1
  Mg  Mg4  1  0.333333  0.666667  0.000000  1
  P  P5  1  0.004267  0.822320  0.000000  1
  P  P6  1  0.177680  0.181947  0.000000  1
  P  P7  1  0.818053  0.995733  0.000000  1
  P  P8  1  0.685786  0.164825  0.500000  1
  P  P9  1  0.835175  0.520962  0.500000  1
  P  P10  1  0.479038  0.314214  0.500000  1
  P  P11  1  0.171466  0.688062  0.500000  1
  P  P12  1  0.516597  0.828534  0.500000  1
  P  P13  1  0.311938  0.483403  0.500000  1
  P  P14  1  0.001391  0.370343  0.000000  1
  P  P15  1  0.629657  0.631048  0.000000  1
  P  P16  1  0.368952  0.998609  0.000000  1
  Ru  Ru17  1  0.003088  0.721148  0.500000  1
  Ru  Ru18  1  0.278852  0.281940  0.500000  1
  Ru  Ru19  1  0.718060  0.996912  0.500000  1
  Ru  Ru20  1  0.870975  0.356886  0.500000  1
  Ru  Ru21  1  0.643114  0.514089  0.500000  1
  Ru  Ru22  1  0.485911  0.129025  0.500000  1
  Ru  Ru23  1  0.362028  0.872268  0.500000  1
  Ru  Ru24  1  0.510239  0.637972  0.500000  1
  Ru  Ru25  1  0.127732  0.489761  0.500000  1
  Rh  Rh26  1  0.991493  0.546393  0.000000  1
  Rh  Rh27  1  0.453607  0.445100  0.000000  1
  Rh  Rh28  1  0.554900  0.008507  0.000000  1
  Rh  Rh29  1  0.816987  0.182501  0.000000  1
  Rh  Rh30  1  0.817499  0.634489  0.000000  1
  Rh  Rh31  1  0.365511  0.183013  0.000000  1
  Rh  Rh32  1  0.185932  0.808052  0.000000  1
  Rh  Rh33  1  0.622120  0.814068  0.000000  1
  Rh  Rh34  1  0.191948  0.377880  0.000000  1
  Rh  Rh35  1  0.000000  0.000000  0.000000  1
