# generated using pymatgen
data_YHoU2(FeB4)4
_symmetry_space_group_name_H-M   'P 1'
_cell_length_a   3.37513500
_cell_length_b   5.88481676
_cell_length_c   11.38700461
_cell_angle_alpha   89.98964718
_cell_angle_beta   90.00000000
_cell_angle_gamma   90.00000000
_symmetry_Int_Tables_number   1
_chemical_formula_structural   YHoU2(FeB4)4
_chemical_formula_sum   'Y1 Ho1 U2 Fe4 B16'
_cell_volume   226.16926280
_cell_formula_units_Z   1
loop_
 _symmetry_equiv_pos_site_id
 _symmetry_equiv_pos_as_xyz
  1  'x, y, z'
loop_
 _atom_site_type_symbol
 _atom_site_label
 _atom_site_symmetry_multiplicity
 _atom_site_fract_x
 _atom_site_fract_y
 _atom_site_fract_z
 _atom_site_occupancy
  Y  Y0  1  0.500000  0.126779  0.648860  1
  Ho  Ho1  1  0.500000  0.873226  0.350999  1
  U  U2  1  0.500000  0.373409  0.150878  1
  U  U3  1  0.500000  0.626601  0.849387  1
  Fe  Fe4  1  0.500000  0.367446  0.408087  1
  Fe  Fe5  1  0.500000  0.632640  0.591142  1
  Fe  Fe6  1  0.500000  0.134352  0.911252  1
  Fe  Fe7  1  0.500000  0.865552  0.089442  1
  B  B8  1  0.000000  0.112909  0.046198  1
  B  B9  1  0.000000  0.887024  0.954257  1
  B  B10  1  0.000000  0.388183  0.544988  1
  B  B11  1  0.000000  0.612521  0.454299  1
  B  B12  1  0.000000  0.139541  0.467119  1
  B  B13  1  0.000000  0.860301  0.531957  1
  B  B14  1  0.000000  0.364084  0.966425  1
  B  B15  1  0.000000  0.635944  0.034044  1
  B  B16  1  0.000000  0.024143  0.190622  1
  B  B17  1  0.000000  0.975344  0.809982  1
  B  B18  1  0.000000  0.475813  0.690355  1
  B  B19  1  0.000000  0.524694  0.309338  1
  B  B20  1  0.000000  0.217727  0.314579  1
  B  B21  1  0.000000  0.781479  0.685243  1
  B  B22  1  0.000000  0.283752  0.815688  1
  B  B23  1  0.000000  0.716538  0.184857  1
