# generated using pymatgen
data_La5ThUO12
_symmetry_space_group_name_H-M   'P 1'
_cell_length_a   6.90923470
_cell_length_b   6.93124409
_cell_length_c   6.91217379
_cell_angle_alpha   99.15453146
_cell_angle_beta   98.84469966
_cell_angle_gamma   98.73202832
_symmetry_Int_Tables_number   1
_chemical_formula_structural   La5ThUO12
_chemical_formula_sum   'La5 Th1 U1 O12'
_cell_volume   317.60305851
_cell_formula_units_Z   1
loop_
 _symmetry_equiv_pos_site_id
 _symmetry_equiv_pos_as_xyz
  1  'x, y, z'
loop_
 _atom_site_type_symbol
 _atom_site_label
 _atom_site_symmetry_multiplicity
 _atom_site_fract_x
 _atom_site_fract_y
 _atom_site_fract_z
 _atom_site_occupancy
  La  La0  1  0.606052  0.143229  0.306248  1
  La  La1  1  0.394917  0.861761  0.694536  1
  La  La2  1  0.695458  0.393691  0.857438  1
  La  La3  1  0.857880  0.694609  0.395267  1
  La  La4  1  0.140973  0.303492  0.604876  1
  Th  Th5  1  0.305860  0.606084  0.140146  1
  U  U6  1  0.000857  0.999391  0.001579  1
  O  O7  1  0.437876  0.178247  0.592336  1
  O  O8  1  0.937029  0.694447  0.051699  1
  O  O9  1  0.181859  0.588587  0.426132  1
  O  O10  1  0.824108  0.410959  0.562599  1
  O  O11  1  0.555630  0.818163  0.397939  1
  O  O12  1  0.577253  0.439346  0.176842  1
  O  O13  1  0.404058  0.567913  0.832225  1
  O  O14  1  0.951237  0.068567  0.302234  1
  O  O15  1  0.048757  0.931515  0.698576  1
  O  O16  1  0.698996  0.050041  0.929821  1
  O  O17  1  0.077875  0.308922  0.958777  1
  O  O18  1  0.303324  0.941039  0.070730  1
