# generated using pymatgen
data_Hf2Ta2Pb4O13
_symmetry_space_group_name_H-M   'P 1'
_cell_length_a   7.61115661
_cell_length_b   7.61115688
_cell_length_c   7.61115632
_cell_angle_alpha   120.09282199
_cell_angle_beta   119.92006945
_cell_angle_gamma   89.98890347
_symmetry_Int_Tables_number   1
_chemical_formula_structural   Hf2Ta2Pb4O13
_chemical_formula_sum   'Hf2 Ta2 Pb4 O13'
_cell_volume   311.74063119
_cell_formula_units_Z   1
loop_
 _symmetry_equiv_pos_site_id
 _symmetry_equiv_pos_as_xyz
  1  'x, y, z'
loop_
 _atom_site_type_symbol
 _atom_site_label
 _atom_site_symmetry_multiplicity
 _atom_site_fract_x
 _atom_site_fract_y
 _atom_site_fract_z
 _atom_site_occupancy
  Hf  Hf0  1  0.749105  0.999674  0.749432  1
  Hf  Hf1  1  0.250242  0.999674  0.250568  1
  Ta  Ta2  1  0.749317  0.999920  0.250603  1
  Ta  Ta3  1  0.749317  0.498715  0.749397  1
  Pb  Pb4  1  0.249573  0.499498  0.750074  1
  Pb  Pb5  1  0.749424  0.499498  0.249926  1
  Pb  Pb6  1  0.249339  0.497939  0.248599  1
  Pb  Pb7  1  0.249339  0.000740  0.751401  1
  O  O8  1  0.079721  0.079721  0.000000  1
  O  O9  1  0.686759  0.686759  0.000000  1
  O  O10  1  0.683212  0.075697  0.011628  1
  O  O11  1  0.064069  0.671584  0.988372  1
  O  O12  1  0.064069  0.075697  0.392485  1
  O  O13  1  0.683212  0.671584  0.607515  1
  O  O14  1  0.424687  0.924687  0.500000  1
  O  O15  1  0.811251  0.311251  0.500000  1
  O  O16  1  0.813543  0.926905  0.488511  1
  O  O17  1  0.438395  0.325032  0.511489  1
  O  O18  1  0.438395  0.926905  0.113362  1
  O  O19  1  0.813543  0.325032  0.886638  1
  O  O20  1  0.378488  0.378488  0.000000  1
