# generated using pymatgen
data_Ho6Tm4In8Ir3Pt
_symmetry_space_group_name_H-M   'P 1'
_cell_length_a   3.62023400
_cell_length_b   8.06192179
_cell_length_c   18.16544934
_cell_angle_alpha   89.94861100
_cell_angle_beta   90.00000000
_cell_angle_gamma   90.00000000
_symmetry_Int_Tables_number   1
_chemical_formula_structural   Ho6Tm4In8Ir3Pt
_chemical_formula_sum   'Ho6 Tm4 In8 Ir3 Pt1'
_cell_volume   530.17737871
_cell_formula_units_Z   1
loop_
 _symmetry_equiv_pos_site_id
 _symmetry_equiv_pos_as_xyz
  1  'x, y, z'
loop_
 _atom_site_type_symbol
 _atom_site_label
 _atom_site_symmetry_multiplicity
 _atom_site_fract_x
 _atom_site_fract_y
 _atom_site_fract_z
 _atom_site_occupancy
  Ho  Ho0  1  0.000000  0.235038  0.222531  1
  Ho  Ho1  1  0.000000  0.757926  0.777596  1
  Ho  Ho2  1  0.000000  0.257540  0.722580  1
  Ho  Ho3  1  0.000000  0.750699  0.279405  1
  Ho  Ho4  1  0.000000  0.998865  0.999163  1
  Ho  Ho5  1  0.000000  0.499976  0.500311  1
  Tm  Tm6  1  0.000000  0.114027  0.412159  1
  Tm  Tm7  1  0.000000  0.885055  0.590186  1
  Tm  Tm8  1  0.000000  0.384894  0.909708  1
  Tm  Tm9  1  0.000000  0.615504  0.086849  1
  In  In10  1  0.500000  0.424095  0.351963  1
  In  In11  1  0.500000  0.571391  0.648677  1
  In  In12  1  0.500000  0.071728  0.851248  1
  In  In13  1  0.500000  0.927237  0.148379  1
  In  In14  1  0.500000  0.291864  0.065242  1
  In  In15  1  0.500000  0.705560  0.932318  1
  In  In16  1  0.500000  0.205913  0.567661  1
  In  In17  1  0.500000  0.793505  0.433101  1
  Ir  Ir18  1  0.500000  0.020492  0.304529  1
  Ir  Ir19  1  0.500000  0.983634  0.695979  1
  Ir  Ir20  1  0.500000  0.483949  0.804173  1
  Pt  Pt21  1  0.500000  0.521108  0.196246  1
