# generated using pymatgen
data_Ti16Pt7RhO4
_symmetry_space_group_name_H-M   'P 1'
_cell_length_a   8.28219444
_cell_length_b   8.28219364
_cell_length_c   8.28219369
_cell_angle_alpha   60.13553040
_cell_angle_beta   60.13553050
_cell_angle_gamma   60.13552696
_symmetry_Int_Tables_number   1
_chemical_formula_structural   Ti16Pt7RhO4
_chemical_formula_sum   'Ti16 Pt7 Rh1 O4'
_cell_volume   402.95123827
_cell_formula_units_Z   1
loop_
 _symmetry_equiv_pos_site_id
 _symmetry_equiv_pos_as_xyz
  1  'x, y, z'
loop_
 _atom_site_type_symbol
 _atom_site_label
 _atom_site_symmetry_multiplicity
 _atom_site_fract_x
 _atom_site_fract_y
 _atom_site_fract_z
 _atom_site_occupancy
  Ti  Ti0  1  0.121393  0.627786  0.627786  1
  Ti  Ti1  1  0.627786  0.121393  0.627786  1
  Ti  Ti2  1  0.627786  0.627786  0.121393  1
  Ti  Ti3  1  0.624931  0.624931  0.624931  1
  Ti  Ti4  1  0.817059  0.817059  0.179688  1
  Ti  Ti5  1  0.183125  0.183125  0.816420  1
  Ti  Ti6  1  0.817059  0.179688  0.817059  1
  Ti  Ti7  1  0.183125  0.816420  0.183125  1
  Ti  Ti8  1  0.179688  0.817059  0.817059  1
  Ti  Ti9  1  0.816420  0.183125  0.183125  1
  Ti  Ti10  1  0.433285  0.433285  0.067210  1
  Ti  Ti11  1  0.066951  0.066951  0.433345  1
  Ti  Ti12  1  0.433285  0.067210  0.433285  1
  Ti  Ti13  1  0.066951  0.433345  0.066951  1
  Ti  Ti14  1  0.067210  0.433285  0.433285  1
  Ti  Ti15  1  0.433345  0.066951  0.066951  1
  Pt  Pt16  1  0.777148  0.407355  0.407355  1
  Pt  Pt17  1  0.407355  0.777148  0.407355  1
  Pt  Pt18  1  0.407355  0.407355  0.777148  1
  Pt  Pt19  1  0.408676  0.408676  0.408676  1
  Pt  Pt20  1  0.472505  0.842566  0.842566  1
  Pt  Pt21  1  0.842566  0.472505  0.842566  1
  Pt  Pt22  1  0.842566  0.842566  0.472505  1
  Rh  Rh23  1  0.843073  0.843073  0.843073  1
  O  O24  1  0.624938  0.124757  0.124757  1
  O  O25  1  0.124757  0.624938  0.124757  1
  O  O26  1  0.124757  0.124757  0.624938  1
  O  O27  1  0.124903  0.124903  0.124903  1
