# generated using pymatgen
data_Pa4Al18(IrOs)3
_symmetry_space_group_name_H-M   'P 1'
_cell_length_a   7.61160551
_cell_length_b   7.61160586
_cell_length_c   9.33464869
_cell_angle_alpha   90.02162961
_cell_angle_beta   90.02163416
_cell_angle_gamma   119.12972484
_symmetry_Int_Tables_number   1
_chemical_formula_structural   Pa4Al18(IrOs)3
_chemical_formula_sum   'Pa4 Al18 Ir3 Os3'
_cell_volume   472.41444935
_cell_formula_units_Z   1
loop_
 _symmetry_equiv_pos_site_id
 _symmetry_equiv_pos_as_xyz
  1  'x, y, z'
loop_
 _atom_site_type_symbol
 _atom_site_label
 _atom_site_symmetry_multiplicity
 _atom_site_fract_x
 _atom_site_fract_y
 _atom_site_fract_z
 _atom_site_occupancy
  Pa  Pa0  1  0.994394  0.678293  0.247864  1
  Pa  Pa1  1  0.999724  0.318892  0.752238  1
  Pa  Pa2  1  0.681108  0.000276  0.247762  1
  Pa  Pa3  1  0.321707  0.005606  0.752136  1
  Al  Al4  1  0.133999  0.134378  0.250432  1
  Al  Al5  1  0.865622  0.866001  0.749568  1
  Al  Al6  1  0.006416  0.338550  0.077437  1
  Al  Al7  1  0.994911  0.660921  0.921756  1
  Al  Al8  1  0.996532  0.662948  0.577177  1
  Al  Al9  1  0.337052  0.003468  0.422823  1
  Al  Al10  1  0.004878  0.338673  0.423489  1
  Al  Al11  1  0.661327  0.995122  0.576511  1
  Al  Al12  1  0.661450  0.993584  0.922563  1
  Al  Al13  1  0.339079  0.005089  0.078244  1
  Al  Al14  1  0.334239  0.335032  0.550909  1
  Al  Al15  1  0.664968  0.665761  0.449091  1
  Al  Al16  1  0.665068  0.662781  0.048999  1
  Al  Al17  1  0.337219  0.334932  0.951001  1
  Al  Al18  1  0.344050  0.553165  0.250299  1
  Al  Al19  1  0.656266  0.448770  0.750331  1
  Al  Al20  1  0.551230  0.343734  0.249669  1
  Al  Al21  1  0.446835  0.655950  0.749701  1
  Ir  Ir22  1  0.326574  0.673426  0.000000  1
  Ir  Ir23  1  0.326232  0.673768  0.500000  1
  Ir  Ir24  1  0.673469  0.326531  0.500000  1
  Os  Os25  1  0.675164  0.324836  0.000000  1
  Os  Os26  1  0.000615  0.999385  0.000000  1
  Os  Os27  1  0.999874  0.000126  0.500000  1
