# generated using pymatgen
data_La11Dy(Si2Ni)4
_symmetry_space_group_name_H-M   'P 1'
_cell_length_a   4.28138900
_cell_length_b   11.72215878
_cell_length_c   11.88775471
_cell_angle_alpha   90.68991271
_cell_angle_beta   90.00000000
_cell_angle_gamma   90.00000000
_symmetry_Int_Tables_number   1
_chemical_formula_structural   La11Dy(Si2Ni)4
_chemical_formula_sum   'La11 Dy1 Si8 Ni4'
_cell_volume   596.56894071
_cell_formula_units_Z   1
loop_
 _symmetry_equiv_pos_site_id
 _symmetry_equiv_pos_as_xyz
  1  'x, y, z'
loop_
 _atom_site_type_symbol
 _atom_site_label
 _atom_site_symmetry_multiplicity
 _atom_site_fract_x
 _atom_site_fract_y
 _atom_site_fract_z
 _atom_site_occupancy
  La  La0  1  0.250000  0.370204  0.554766  1
  La  La1  1  0.750000  0.558144  0.116987  1
  La  La2  1  0.750000  0.198982  0.784519  1
  La  La3  1  0.250000  0.696662  0.710809  1
  La  La4  1  0.750000  0.622747  0.440463  1
  La  La5  1  0.750000  0.879324  0.942173  1
  La  La6  1  0.250000  0.810246  0.212041  1
  La  La7  1  0.250000  0.443195  0.881237  1
  La  La8  1  0.750000  0.298239  0.284672  1
  La  La9  1  0.250000  0.123571  0.062540  1
  La  La10  1  0.750000  0.938483  0.619433  1
  Dy  Dy11  1  0.250000  0.052683  0.389677  1
  Si  Si12  1  0.250000  0.488390  0.299495  1
  Si  Si13  1  0.250000  0.817163  0.467352  1
  Si  Si14  1  0.250000  0.686968  0.968730  1
  Si  Si15  1  0.750000  0.003000  0.214509  1
  Si  Si16  1  0.750000  0.507503  0.698417  1
  Si  Si17  1  0.250000  0.011082  0.800805  1
  Si  Si18  1  0.750000  0.177865  0.525710  1
  Si  Si19  1  0.750000  0.312548  0.029416  1
  Ni  Ni20  1  0.250000  0.129677  0.626193  1
  Ni  Ni21  1  0.750000  0.868540  0.374821  1
  Ni  Ni22  1  0.250000  0.366843  0.124200  1
  Ni  Ni23  1  0.750000  0.637938  0.871035  1
