# generated using pymatgen
data_Ce2BiN2
_symmetry_space_group_name_H-M   'P 1'
_cell_length_a   7.45988205
_cell_length_b   7.45988235
_cell_length_c   7.45988299
_cell_angle_alpha   148.98870465
_cell_angle_beta   148.98870239
_cell_angle_gamma   44.42793085
_symmetry_Int_Tables_number   1
_chemical_formula_structural   Ce2BiN2
_chemical_formula_sum   'Ce2 Bi1 N2'
_cell_volume   109.86753082
_cell_formula_units_Z   1
loop_
 _symmetry_equiv_pos_site_id
 _symmetry_equiv_pos_as_xyz
  1  'x, y, z'
loop_
 _atom_site_type_symbol
 _atom_site_label
 _atom_site_symmetry_multiplicity
 _atom_site_fract_x
 _atom_site_fract_y
 _atom_site_fract_z
 _atom_site_occupancy
  Ce  Ce0  1  0.670278  0.670278  0.000000  1
  Ce  Ce1  1  0.329722  0.329722  0.000000  1
  Bi  Bi2  1  0.000000  0.000000  0.000000  1
  N  N3  1  0.750000  0.250000  0.500000  1
  N  N4  1  0.250000  0.750000  0.500000  1
