# generated using pymatgen
data_Ti3Nb(VP)4
_symmetry_space_group_name_H-M   'P 1'
_cell_length_a   3.37717200
_cell_length_b   6.36901091
_cell_length_c   7.67334650
_cell_angle_alpha   90.23052804
_cell_angle_beta   90.00000000
_cell_angle_gamma   90.00000000
_symmetry_Int_Tables_number   1
_chemical_formula_structural   Ti3Nb(VP)4
_chemical_formula_sum   'Ti3 Nb1 V4 P4'
_cell_volume   165.04655633
_cell_formula_units_Z   1
loop_
 _symmetry_equiv_pos_site_id
 _symmetry_equiv_pos_as_xyz
  1  'x, y, z'
loop_
 _atom_site_type_symbol
 _atom_site_label
 _atom_site_symmetry_multiplicity
 _atom_site_fract_x
 _atom_site_fract_y
 _atom_site_fract_z
 _atom_site_occupancy
  Ti  Ti0  1  0.750000  0.459088  0.831072  1
  Ti  Ti1  1  0.750000  0.959965  0.668006  1
  Ti  Ti2  1  0.250000  0.041723  0.331642  1
  Nb  Nb3  1  0.250000  0.541232  0.167904  1
  V  V4  1  0.250000  0.631731  0.558399  1
  V  V5  1  0.750000  0.366593  0.442535  1
  V  V6  1  0.750000  0.866628  0.057220  1
  V  V7  1  0.250000  0.133516  0.940909  1
  P  P8  1  0.250000  0.755613  0.856480  1
  P  P9  1  0.750000  0.239967  0.140907  1
  P  P10  1  0.750000  0.750070  0.363338  1
  P  P11  1  0.250000  0.253873  0.641589  1
