# generated using pymatgen
data_HgSb6(S2I)4
_symmetry_space_group_name_H-M   'P 1'
_cell_length_a   7.55844712
_cell_length_b   9.82894885
_cell_length_c   9.80878461
_cell_angle_alpha   102.64479964
_cell_angle_beta   116.65177226
_cell_angle_gamma   85.60416255
_symmetry_Int_Tables_number   1
_chemical_formula_structural   HgSb6(S2I)4
_chemical_formula_sum   'Hg1 Sb6 S8 I4'
_cell_volume   635.29389259
_cell_formula_units_Z   1
loop_
 _symmetry_equiv_pos_site_id
 _symmetry_equiv_pos_as_xyz
  1  'x, y, z'
loop_
 _atom_site_type_symbol
 _atom_site_label
 _atom_site_symmetry_multiplicity
 _atom_site_fract_x
 _atom_site_fract_y
 _atom_site_fract_z
 _atom_site_occupancy
  Hg  Hg0  1  0.000000  0.000000  0.000000  1
  Sb  Sb1  1  0.227753  0.639775  0.136121  1
  Sb  Sb2  1  0.225315  0.943831  0.448734  1
  Sb  Sb3  1  0.772247  0.360225  0.863879  1
  Sb  Sb4  1  0.230703  0.286778  0.807423  1
  Sb  Sb5  1  0.769297  0.713222  0.192577  1
  Sb  Sb6  1  0.774685  0.056169  0.551266  1
  S  S7  1  0.710380  0.086355  0.807746  1
  S  S8  1  0.131959  0.334001  0.034049  1
  S  S9  1  0.868041  0.665999  0.965951  1
  S  S10  1  0.869780  0.985182  0.287688  1
  S  S11  1  0.120784  0.672843  0.369689  1
  S  S12  1  0.879216  0.327157  0.630311  1
  S  S13  1  0.289620  0.913645  0.192254  1
  S  S14  1  0.130220  0.014818  0.712312  1
  I  I15  1  0.281288  0.617413  0.835687  1
  I  I16  1  0.675307  0.736367  0.501244  1
  I  I17  1  0.718712  0.382587  0.164313  1
  I  I18  1  0.324693  0.263633  0.498756  1
