# generated using pymatgen
data_Nd4IrAu3
_symmetry_space_group_name_H-M   'P 1'
_cell_length_a   4.74927100
_cell_length_b   5.83241583
_cell_length_c   7.42368224
_cell_angle_alpha   88.55035823
_cell_angle_beta   90.00000000
_cell_angle_gamma   90.00000000
_symmetry_Int_Tables_number   1
_chemical_formula_structural   Nd4IrAu3
_chemical_formula_sum   'Nd4 Ir1 Au3'
_cell_volume   205.56813036
_cell_formula_units_Z   1
loop_
 _symmetry_equiv_pos_site_id
 _symmetry_equiv_pos_as_xyz
  1  'x, y, z'
loop_
 _atom_site_type_symbol
 _atom_site_label
 _atom_site_symmetry_multiplicity
 _atom_site_fract_x
 _atom_site_fract_y
 _atom_site_fract_z
 _atom_site_occupancy
  Nd  Nd0  1  0.250000  0.365221  0.678347  1
  Nd  Nd1  1  0.250000  0.136582  0.191630  1
  Nd  Nd2  1  0.750000  0.653352  0.328131  1
  Nd  Nd3  1  0.750000  0.854000  0.800893  1
  Ir  Ir4  1  0.250000  0.838148  0.538666  1
  Au  Au5  1  0.250000  0.649486  0.040677  1
  Au  Au6  1  0.750000  0.155882  0.457913  1
  Au  Au7  1  0.750000  0.347328  0.963743  1
