# generated using pymatgen
data_PrNdDy14(CdPt)4
_symmetry_space_group_name_H-M   'P 1'
_cell_length_a   9.73591663
_cell_length_b   9.73591723
_cell_length_c   9.70776200
_cell_angle_alpha   60.09561701
_cell_angle_beta   60.09561500
_cell_angle_gamma   59.88054280
_symmetry_Int_Tables_number   1
_chemical_formula_structural   PrNdDy14(CdPt)4
_chemical_formula_sum   'Pr1 Nd1 Dy14 Cd4 Pt4'
_cell_volume   651.01238304
_cell_formula_units_Z   1
loop_
 _symmetry_equiv_pos_site_id
 _symmetry_equiv_pos_as_xyz
  1  'x, y, z'
loop_
 _atom_site_type_symbol
 _atom_site_label
 _atom_site_symmetry_multiplicity
 _atom_site_fract_x
 _atom_site_fract_y
 _atom_site_fract_z
 _atom_site_occupancy
  Pr  Pr0  1  0.932279  0.932279  0.567721  1
  Nd  Nd1  1  0.568579  0.568579  0.931421  1
  Dy  Dy2  1  0.351963  0.351963  0.349571  1
  Dy  Dy3  1  0.351963  0.351963  0.946503  1
  Dy  Dy4  1  0.351586  0.944247  0.352083  1
  Dy  Dy5  1  0.944247  0.351586  0.352083  1
  Dy  Dy6  1  0.811014  0.189551  0.188967  1
  Dy  Dy7  1  0.189551  0.811014  0.810468  1
  Dy  Dy8  1  0.189551  0.811014  0.188967  1
  Dy  Dy9  1  0.811014  0.189551  0.810468  1
  Dy  Dy10  1  0.189765  0.189765  0.810235  1
  Dy  Dy11  1  0.810586  0.810586  0.189414  1
  Dy  Dy12  1  0.938967  0.560623  0.561674  1
  Dy  Dy13  1  0.560623  0.938967  0.938736  1
  Dy  Dy14  1  0.560623  0.938967  0.561674  1
  Dy  Dy15  1  0.938967  0.560623  0.938736  1
  Cd  Cd16  1  0.582538  0.582538  0.578047  1
  Cd  Cd17  1  0.582538  0.582538  0.256875  1
  Cd  Cd18  1  0.577536  0.256376  0.583043  1
  Cd  Cd19  1  0.256376  0.577536  0.583043  1
  Pt  Pt20  1  0.144501  0.144501  0.140697  1
  Pt  Pt21  1  0.144501  0.144501  0.570301  1
  Pt  Pt22  1  0.139949  0.570782  0.144634  1
  Pt  Pt23  1  0.570782  0.139949  0.144634  1
