# generated using pymatgen
data_Dy5(SiHg)2
_symmetry_space_group_name_H-M   'P 1'
_cell_length_a   8.78451498
_cell_length_b   8.78451502
_cell_length_c   7.56608300
_cell_angle_alpha   90.00000000
_cell_angle_beta   90.00000000
_cell_angle_gamma   129.08202433
_symmetry_Int_Tables_number   1
_chemical_formula_structural   Dy5(SiHg)2
_chemical_formula_sum   'Dy10 Si4 Hg4'
_cell_volume   453.21582483
_cell_formula_units_Z   2
loop_
 _symmetry_equiv_pos_site_id
 _symmetry_equiv_pos_as_xyz
  1  'x, y, z'
loop_
 _atom_site_type_symbol
 _atom_site_label
 _atom_site_symmetry_multiplicity
 _atom_site_fract_x
 _atom_site_fract_y
 _atom_site_fract_z
 _atom_site_occupancy
  Dy  Dy0  1  0.055863  0.310443  0.323921  1
  Dy  Dy1  1  0.944137  0.689557  0.676079  1
  Dy  Dy2  1  0.444137  0.189557  0.823921  1
  Dy  Dy3  1  0.810443  0.555863  0.176079  1
  Dy  Dy4  1  0.555863  0.810443  0.176079  1
  Dy  Dy5  1  0.189557  0.444137  0.823921  1
  Dy  Dy6  1  0.689557  0.944137  0.676079  1
  Dy  Dy7  1  0.310443  0.055863  0.323921  1
  Dy  Dy8  1  0.000000  0.000000  0.000000  1
  Dy  Dy9  1  0.500000  0.500000  0.500000  1
  Si  Si10  1  0.381761  0.381761  0.121625  1
  Si  Si11  1  0.618239  0.618239  0.878375  1
  Si  Si12  1  0.118239  0.118239  0.621625  1
  Si  Si13  1  0.881761  0.881761  0.378375  1
  Hg  Hg14  1  0.781629  0.218371  0.000000  1
  Hg  Hg15  1  0.218371  0.781629  0.000000  1
  Hg  Hg16  1  0.718371  0.281629  0.500000  1
  Hg  Hg17  1  0.281629  0.718371  0.500000  1
