# generated using pymatgen
data_CaEu2UN4
_symmetry_space_group_name_H-M   'P 1'
_cell_length_a   6.15541120
_cell_length_b   6.15546336
_cell_length_c   4.86630700
_cell_angle_alpha   66.71567580
_cell_angle_beta   66.71680452
_cell_angle_gamma   46.56752521
_symmetry_Int_Tables_number   1
_chemical_formula_structural   CaEu2UN4
_chemical_formula_sum   'Ca1 Eu2 U1 N4'
_cell_volume   120.86317322
_cell_formula_units_Z   1
loop_
 _symmetry_equiv_pos_site_id
 _symmetry_equiv_pos_as_xyz
  1  'x, y, z'
loop_
 _atom_site_type_symbol
 _atom_site_label
 _atom_site_symmetry_multiplicity
 _atom_site_fract_x
 _atom_site_fract_y
 _atom_site_fract_z
 _atom_site_occupancy
  Ca  Ca0  1  0.496207  0.503793  0.503793  1
  Eu  Eu1  1  0.747296  0.752704  0.752704  1
  Eu  Eu2  1  0.247296  0.252704  0.252704  1
  U  U3  1  0.997233  0.002767  0.002767  1
  N  N4  1  0.996646  0.003354  0.502831  1
  N  N5  1  0.200058  0.205969  0.799942  1
  N  N6  1  0.497169  0.502831  0.003354  1
  N  N7  1  0.794031  0.799942  0.205969  1
