# generated using pymatgen
data_Sr5CaSn8BiSe
_symmetry_space_group_name_H-M   'P 1'
_cell_length_a   8.90266177
_cell_length_b   8.90266406
_cell_length_c   8.90266334
_cell_angle_alpha   119.55937108
_cell_angle_beta   119.55937142
_cell_angle_gamma   90.76490051
_symmetry_Int_Tables_number   1
_chemical_formula_structural   Sr5CaSn8BiSe
_chemical_formula_sum   'Sr5 Ca1 Sn8 Bi1 Se1'
_cell_volume   502.21048009
_cell_formula_units_Z   1
loop_
 _symmetry_equiv_pos_site_id
 _symmetry_equiv_pos_as_xyz
  1  'x, y, z'
loop_
 _atom_site_type_symbol
 _atom_site_label
 _atom_site_symmetry_multiplicity
 _atom_site_fract_x
 _atom_site_fract_y
 _atom_site_fract_z
 _atom_site_occupancy
  Sr  Sr0  1  0.738392  0.738392  0.000000  1
  Sr  Sr1  1  0.174053  0.655441  0.830336  1
  Sr  Sr2  1  0.825106  0.343718  0.169664  1
  Sr  Sr3  1  0.655441  0.825106  0.481388  1
  Sr  Sr4  1  0.343718  0.174053  0.518612  1
  Ca  Ca5  1  0.262729  0.262729  0.000000  1
  Sn  Sn6  1  0.838430  0.327791  0.787649  1
  Sn  Sn7  1  0.165033  0.669428  0.213029  1
  Sn  Sn8  1  0.540141  0.050780  0.212351  1
  Sn  Sn9  1  0.327791  0.540141  0.489360  1
  Sn  Sn10  1  0.952004  0.165033  0.495603  1
  Sn  Sn11  1  0.456400  0.952004  0.786971  1
  Sn  Sn12  1  0.669428  0.456400  0.504397  1
  Sn  Sn13  1  0.050780  0.838430  0.510640  1
  Bi  Bi14  1  0.006235  0.006235  0.000000  1
  Se  Se15  1  0.494320  0.494320  0.000000  1
