# generated using pymatgen
data_Tm6Zn22PtSe
_symmetry_space_group_name_H-M   'P 1'
_cell_length_a   9.01908755
_cell_length_b   8.97243671
_cell_length_c   9.01908800
_cell_angle_alpha   60.17095343
_cell_angle_beta   59.64050716
_cell_angle_gamma   60.17095808
_symmetry_Int_Tables_number   1
_chemical_formula_structural   Tm6Zn22PtSe
_chemical_formula_sum   'Tm6 Zn22 Pt1 Se1'
_cell_volume   515.98632122
_cell_formula_units_Z   1
loop_
 _symmetry_equiv_pos_site_id
 _symmetry_equiv_pos_as_xyz
  1  'x, y, z'
loop_
 _atom_site_type_symbol
 _atom_site_label
 _atom_site_symmetry_multiplicity
 _atom_site_fract_x
 _atom_site_fract_y
 _atom_site_fract_z
 _atom_site_occupancy
  Tm  Tm0  1  0.719030  0.284149  0.280970  1
  Tm  Tm1  1  0.717552  0.282448  0.717552  1
  Tm  Tm2  1  0.719030  0.715851  0.280970  1
  Tm  Tm3  1  0.280970  0.715851  0.719030  1
  Tm  Tm4  1  0.282448  0.717552  0.282448  1
  Tm  Tm5  1  0.280970  0.284149  0.719030  1
  Zn  Zn6  1  0.625417  0.125367  0.123850  1
  Zn  Zn7  1  0.124459  0.624400  0.124459  1
  Zn  Zn8  1  0.123850  0.125367  0.625417  1
  Zn  Zn9  1  0.124459  0.126683  0.124459  1
  Zn  Zn10  1  0.374583  0.874633  0.876150  1
  Zn  Zn11  1  0.875541  0.375600  0.875541  1
  Zn  Zn12  1  0.876150  0.874633  0.374583  1
  Zn  Zn13  1  0.875541  0.873317  0.875541  1
  Zn  Zn14  1  0.500000  0.000000  0.000000  1
  Zn  Zn15  1  0.500000  0.000000  0.500000  1
  Zn  Zn16  1  0.500000  0.500000  0.000000  1
  Zn  Zn17  1  0.000000  0.500000  0.500000  1
  Zn  Zn18  1  0.000000  0.000000  0.500000  1
  Zn  Zn19  1  0.000000  0.000000  0.000000  1
  Zn  Zn20  1  0.010505  0.329019  0.331455  1
  Zn  Zn21  1  0.331403  0.007399  0.331403  1
  Zn  Zn22  1  0.331455  0.329019  0.010505  1
  Zn  Zn23  1  0.331403  0.329791  0.331403  1
  Zn  Zn24  1  0.989495  0.670981  0.668545  1
  Zn  Zn25  1  0.668597  0.992601  0.668597  1
  Zn  Zn26  1  0.668545  0.670981  0.989495  1
  Zn  Zn27  1  0.668597  0.670209  0.668597  1
  Pt  Pt28  1  0.000000  0.500000  0.000000  1
  Se  Se29  1  0.500000  0.500000  0.500000  1
