# generated using pymatgen
data_Tb2Co2Hg
_symmetry_space_group_name_H-M   'P 1'
_cell_length_a   3.91821800
_cell_length_b   3.91821808
_cell_length_c   16.65897100
_cell_angle_alpha   90.00000000
_cell_angle_beta   90.00000000
_cell_angle_gamma   119.99998241
_symmetry_Int_Tables_number   1
_chemical_formula_structural   Tb2Co2Hg
_chemical_formula_sum   'Tb4 Co4 Hg2'
_cell_volume   221.49099851
_cell_formula_units_Z   2
loop_
 _symmetry_equiv_pos_site_id
 _symmetry_equiv_pos_as_xyz
  1  'x, y, z'
loop_
 _atom_site_type_symbol
 _atom_site_label
 _atom_site_symmetry_multiplicity
 _atom_site_fract_x
 _atom_site_fract_y
 _atom_site_fract_z
 _atom_site_occupancy
  Tb  Tb0  1  0.000000  0.000000  0.109775  1
  Tb  Tb1  1  0.000000  0.000000  0.609775  1
  Tb  Tb2  1  0.000000  0.000000  0.390225  1
  Tb  Tb3  1  0.000000  0.000000  0.890225  1
  Co  Co4  1  0.666667  0.333333  0.999514  1
  Co  Co5  1  0.333333  0.666667  0.000486  1
  Co  Co6  1  0.666667  0.333333  0.500486  1
  Co  Co7  1  0.333333  0.666667  0.499514  1
  Hg  Hg8  1  0.666667  0.333333  0.250000  1
  Hg  Hg9  1  0.333333  0.666667  0.750000  1
