# generated using pymatgen
data_Nd3ThMgRu
_symmetry_space_group_name_H-M   'P 1'
_cell_length_a   10.00359354
_cell_length_b   10.00359351
_cell_length_c   10.00359400
_cell_angle_alpha   59.99999839
_cell_angle_beta   59.99999847
_cell_angle_gamma   60.00000272
_symmetry_Int_Tables_number   1
_chemical_formula_structural   Nd3ThMgRu
_chemical_formula_sum   'Nd12 Th4 Mg4 Ru4'
_cell_volume   707.86938837
_cell_formula_units_Z   4
loop_
 _symmetry_equiv_pos_site_id
 _symmetry_equiv_pos_as_xyz
  1  'x, y, z'
loop_
 _atom_site_type_symbol
 _atom_site_label
 _atom_site_symmetry_multiplicity
 _atom_site_fract_x
 _atom_site_fract_y
 _atom_site_fract_z
 _atom_site_occupancy
  Nd  Nd0  1  0.810947  0.189053  0.189053  1
  Nd  Nd1  1  0.189053  0.810947  0.810947  1
  Nd  Nd2  1  0.189053  0.810947  0.189053  1
  Nd  Nd3  1  0.810947  0.189053  0.810947  1
  Nd  Nd4  1  0.189053  0.189053  0.810947  1
  Nd  Nd5  1  0.810947  0.810947  0.189053  1
  Nd  Nd6  1  0.938749  0.561251  0.561251  1
  Nd  Nd7  1  0.561251  0.938749  0.938749  1
  Nd  Nd8  1  0.561251  0.938749  0.561251  1
  Nd  Nd9  1  0.938749  0.561251  0.938749  1
  Nd  Nd10  1  0.561251  0.561251  0.938749  1
  Nd  Nd11  1  0.938749  0.938749  0.561251  1
  Th  Th12  1  0.343939  0.343939  0.343939  1
  Th  Th13  1  0.343939  0.343939  0.968185  1
  Th  Th14  1  0.343939  0.968185  0.343939  1
  Th  Th15  1  0.968185  0.343939  0.343939  1
  Mg  Mg16  1  0.579067  0.579067  0.579067  1
  Mg  Mg17  1  0.579067  0.579067  0.262796  1
  Mg  Mg18  1  0.579067  0.262796  0.579067  1
  Mg  Mg19  1  0.262796  0.579067  0.579067  1
  Ru  Ru20  1  0.145670  0.145670  0.145670  1
  Ru  Ru21  1  0.145670  0.145670  0.562989  1
  Ru  Ru22  1  0.145670  0.562989  0.145670  1
  Ru  Ru23  1  0.562989  0.145670  0.145670  1
