# generated using pymatgen
data_YMn2BiF14
_symmetry_space_group_name_H-M   'P 1'
_cell_length_a   5.48663952
_cell_length_b   8.89643303
_cell_length_c   11.85506168
_cell_angle_alpha   61.87097860
_cell_angle_beta   90.03283425
_cell_angle_gamma   89.88944460
_symmetry_Int_Tables_number   1
_chemical_formula_structural   YMn2BiF14
_chemical_formula_sum   'Y2 Mn4 Bi2 F28'
_cell_volume   510.31490893
_cell_formula_units_Z   2
loop_
 _symmetry_equiv_pos_site_id
 _symmetry_equiv_pos_as_xyz
  1  'x, y, z'
loop_
 _atom_site_type_symbol
 _atom_site_label
 _atom_site_symmetry_multiplicity
 _atom_site_fract_x
 _atom_site_fract_y
 _atom_site_fract_z
 _atom_site_occupancy
  Y  Y0  1  0.761414  0.193599  0.236585  1
  Y  Y1  1  0.238586  0.806401  0.763415  1
  Mn  Mn2  1  0.758777  0.722842  0.041009  1
  Mn  Mn3  1  0.241223  0.277158  0.958991  1
  Mn  Mn4  1  0.259720  0.271066  0.455881  1
  Mn  Mn5  1  0.740280  0.728934  0.544119  1
  Bi  Bi6  1  0.265194  0.817893  0.262253  1
  Bi  Bi7  1  0.734806  0.182107  0.737747  1
  F  F8  1  0.925932  0.709408  0.423325  1
  F  F9  1  0.074068  0.290592  0.576675  1
  F  F10  1  0.430527  0.293125  0.081419  1
  F  F11  1  0.569473  0.706875  0.918581  1
  F  F12  1  0.481506  0.725913  0.126974  1
  F  F13  1  0.518494  0.274087  0.873026  1
  F  F14  1  0.982386  0.269043  0.367279  1
  F  F15  1  0.017614  0.730957  0.632721  1
  F  F16  1  0.940815  0.737196  0.166667  1
  F  F17  1  0.059185  0.262804  0.833333  1
  F  F18  1  0.447598  0.255239  0.330547  1
  F  F19  1  0.552402  0.744761  0.669453  1
  F  F20  1  0.771717  0.487696  0.135073  1
  F  F21  1  0.228283  0.512304  0.864927  1
  F  F22  1  0.271300  0.503605  0.362359  1
  F  F23  1  0.728700  0.496395  0.637641  1
  F  F24  1  0.957208  0.281153  0.043135  1
  F  F25  1  0.042792  0.718847  0.956865  1
  F  F26  1  0.454579  0.721603  0.462490  1
  F  F27  1  0.545421  0.278397  0.537510  1
  F  F28  1  0.739279  0.963650  0.451019  1
  F  F29  1  0.260721  0.036350  0.548981  1
  F  F30  1  0.240636  0.041462  0.047344  1
  F  F31  1  0.759364  0.958538  0.952656  1
  F  F32  1  0.602717  0.973498  0.225638  1
  F  F33  1  0.397283  0.026502  0.774362  1
  F  F34  1  0.099914  0.036669  0.273715  1
  F  F35  1  0.900086  0.963331  0.726285  1
