# generated using pymatgen
data_Ho3FeCo7P6Ru
_symmetry_space_group_name_H-M   'P 1'
_cell_length_a   3.70465300
_cell_length_b   10.54113800
_cell_length_c   12.14679600
_cell_angle_alpha   90.00000000
_cell_angle_beta   90.00000000
_cell_angle_gamma   90.00000000
_symmetry_Int_Tables_number   1
_chemical_formula_structural   Ho3FeCo7P6Ru
_chemical_formula_sum   'Ho6 Fe2 Co14 P12 Ru2'
_cell_volume   474.34767073
_cell_formula_units_Z   2
loop_
 _symmetry_equiv_pos_site_id
 _symmetry_equiv_pos_as_xyz
  1  'x, y, z'
loop_
 _atom_site_type_symbol
 _atom_site_label
 _atom_site_symmetry_multiplicity
 _atom_site_fract_x
 _atom_site_fract_y
 _atom_site_fract_z
 _atom_site_occupancy
  Ho  Ho0  1  0.000000  0.500000  0.525345  1
  Ho  Ho1  1  0.500000  0.000000  0.474655  1
  Ho  Ho2  1  0.500000  0.818382  0.205001  1
  Ho  Ho3  1  0.500000  0.181618  0.205001  1
  Ho  Ho4  1  0.000000  0.681618  0.794999  1
  Ho  Ho5  1  0.000000  0.318382  0.794999  1
  Fe  Fe6  1  0.000000  0.500000  0.987507  1
  Fe  Fe7  1  0.500000  0.000000  0.012493  1
  Co  Co8  1  0.500000  0.296718  0.430887  1
  Co  Co9  1  0.500000  0.703282  0.430887  1
  Co  Co10  1  0.000000  0.203282  0.569113  1
  Co  Co11  1  0.000000  0.796718  0.569113  1
  Co  Co12  1  0.500000  0.878691  0.707757  1
  Co  Co13  1  0.500000  0.121309  0.707757  1
  Co  Co14  1  0.000000  0.621309  0.292243  1
  Co  Co15  1  0.000000  0.378691  0.292243  1
  Co  Co16  1  0.500000  0.331808  0.991318  1
  Co  Co17  1  0.500000  0.668192  0.991318  1
  Co  Co18  1  0.000000  0.168192  0.008682  1
  Co  Co19  1  0.000000  0.831808  0.008682  1
  Co  Co20  1  0.500000  0.500000  0.701989  1
  Co  Co21  1  0.000000  0.000000  0.298011  1
  P  P22  1  0.500000  0.311464  0.616784  1
  P  P23  1  0.500000  0.688536  0.616784  1
  P  P24  1  0.000000  0.188536  0.383216  1
  P  P25  1  0.000000  0.811464  0.383216  1
  P  P26  1  0.500000  0.500000  0.882774  1
  P  P27  1  0.000000  0.000000  0.117226  1
  P  P28  1  0.500000  0.846398  0.894189  1
  P  P29  1  0.500000  0.153602  0.894189  1
  P  P30  1  0.000000  0.653602  0.105811  1
  P  P31  1  0.000000  0.346398  0.105811  1
  P  P32  1  0.500000  0.500000  0.349856  1
  P  P33  1  0.000000  0.000000  0.650144  1
  Ru  Ru34  1  0.500000  0.500000  0.158132  1
  Ru  Ru35  1  0.000000  0.000000  0.841868  1
