# generated using pymatgen
data_Eu2TeOF
_symmetry_space_group_name_H-M   'P 1'
_cell_length_a   6.94755200
_cell_length_b   6.94755201
_cell_length_c   5.79446000
_cell_angle_alpha   90.00000000
_cell_angle_beta   90.00000000
_cell_angle_gamma   130.47952598
_symmetry_Int_Tables_number   1
_chemical_formula_structural   Eu2TeOF
_chemical_formula_sum   'Eu4 Te2 O2 F2'
_cell_volume   212.74266465
_cell_formula_units_Z   2
loop_
 _symmetry_equiv_pos_site_id
 _symmetry_equiv_pos_as_xyz
  1  'x, y, z'
loop_
 _atom_site_type_symbol
 _atom_site_label
 _atom_site_symmetry_multiplicity
 _atom_site_fract_x
 _atom_site_fract_y
 _atom_site_fract_z
 _atom_site_occupancy
  Eu  Eu0  1  0.903068  0.096934  0.223529  1
  Eu  Eu1  1  0.596934  0.403068  0.223529  1
  Eu  Eu2  1  0.403068  0.596934  0.776470  1
  Eu  Eu3  1  0.096934  0.903068  0.776470  1
  Te  Te4  1  0.250000  0.750001  0.255583  1
  Te  Te5  1  0.750001  0.250000  0.744416  1
  O  O6  1  0.249999  0.249999  0.000000  1
  O  O7  1  0.750000  0.750000  0.000000  1
  F  F8  1  0.249999  0.249999  0.500001  1
  F  F9  1  0.750000  0.750000  0.500001  1
