# generated using pymatgen
data_Ho3Er13Cd4Ir3Os
_symmetry_space_group_name_H-M   'P 1'
_cell_length_a   9.60247161
_cell_length_b   9.60370784
_cell_length_c   9.60016906
_cell_angle_alpha   59.48740257
_cell_angle_beta   59.46481227
_cell_angle_gamma   59.44519656
_symmetry_Int_Tables_number   1
_chemical_formula_structural   Ho3Er13Cd4Ir3Os
_chemical_formula_sum   'Ho3 Er13 Cd4 Ir3 Os1'
_cell_volume   618.40935118
_cell_formula_units_Z   1
loop_
 _symmetry_equiv_pos_site_id
 _symmetry_equiv_pos_as_xyz
  1  'x, y, z'
loop_
 _atom_site_type_symbol
 _atom_site_label
 _atom_site_symmetry_multiplicity
 _atom_site_fract_x
 _atom_site_fract_y
 _atom_site_fract_z
 _atom_site_occupancy
  Ho  Ho0  1  0.189138  0.807739  0.189034  1
  Ho  Ho1  1  0.811931  0.812283  0.187923  1
  Ho  Ho2  1  0.188755  0.188969  0.807898  1
  Er  Er3  1  0.599327  0.599243  0.599343  1
  Er  Er4  1  0.599049  0.598850  0.205816  1
  Er  Er5  1  0.599024  0.205729  0.598982  1
  Er  Er6  1  0.205762  0.598907  0.599033  1
  Er  Er7  1  0.061287  0.438618  0.438845  1
  Er  Er8  1  0.437810  0.060165  0.060135  1
  Er  Er9  1  0.438783  0.061372  0.438634  1
  Er  Er10  1  0.060154  0.437583  0.060098  1
  Er  Er11  1  0.439006  0.438499  0.061291  1
  Er  Er12  1  0.059994  0.060102  0.437821  1
  Er  Er13  1  0.188414  0.811830  0.811491  1
  Er  Er14  1  0.807451  0.189455  0.189036  1
  Er  Er15  1  0.811677  0.188350  0.811862  1
  Cd  Cd16  1  0.830023  0.830022  0.829781  1
  Cd  Cd17  1  0.830422  0.830560  0.507074  1
  Cd  Cd18  1  0.830322  0.506823  0.830637  1
  Cd  Cd19  1  0.507003  0.830382  0.830439  1
  Ir  Ir20  1  0.393262  0.393179  0.826539  1
  Ir  Ir21  1  0.392928  0.826564  0.393383  1
  Ir  Ir22  1  0.826537  0.392880  0.393311  1
  Os  Os23  1  0.391941  0.391896  0.391593  1
