# generated using pymatgen
data_PrTh9(Sn3Se)2
_symmetry_space_group_name_H-M   'P 1'
_cell_length_a   9.50549220
_cell_length_b   9.52575267
_cell_length_c   6.68846900
_cell_angle_alpha   90.00000000
_cell_angle_beta   90.00000000
_cell_angle_gamma   120.07053324
_symmetry_Int_Tables_number   1
_chemical_formula_structural   PrTh9(Sn3Se)2
_chemical_formula_sum   'Pr1 Th9 Sn6 Se2'
_cell_volume   524.10964529
_cell_formula_units_Z   1
loop_
 _symmetry_equiv_pos_site_id
 _symmetry_equiv_pos_as_xyz
  1  'x, y, z'
loop_
 _atom_site_type_symbol
 _atom_site_label
 _atom_site_symmetry_multiplicity
 _atom_site_fract_x
 _atom_site_fract_y
 _atom_site_fract_z
 _atom_site_occupancy
  Pr  Pr0  1  0.000000  0.735400  0.750000  1
  Th  Th1  1  0.264084  0.264178  0.750000  1
  Th  Th2  1  0.334118  0.666369  0.499110  1
  Th  Th3  1  0.665882  0.332250  0.499110  1
  Th  Th4  1  0.736149  0.736408  0.250000  1
  Th  Th5  1  0.735916  0.000094  0.750000  1
  Th  Th6  1  0.000000  0.264357  0.250000  1
  Th  Th7  1  0.263851  0.000259  0.250000  1
  Th  Th8  1  0.334118  0.666369  0.000890  1
  Th  Th9  1  0.665882  0.332250  0.000890  1
  Sn  Sn10  1  0.612532  0.612445  0.750000  1
  Sn  Sn11  1  0.000000  0.387227  0.750000  1
  Sn  Sn12  1  0.387468  0.999913  0.750000  1
  Sn  Sn13  1  0.612404  0.000121  0.250000  1
  Sn  Sn14  1  0.387596  0.387716  0.250000  1
  Sn  Sn15  1  0.000000  0.612287  0.250000  1
  Se  Se16  1  0.000000  0.001179  0.000845  1
  Se  Se17  1  0.000000  0.001179  0.499155  1
