# generated using pymatgen
data_YPu2(NiSn)3
_symmetry_space_group_name_H-M   'P 1'
_cell_length_a   7.29174400
_cell_length_b   7.29174300
_cell_length_c   4.02361900
_cell_angle_alpha   90.00000000
_cell_angle_beta   90.00000000
_cell_angle_gamma   121.16514612
_symmetry_Int_Tables_number   1
_chemical_formula_structural   YPu2(NiSn)3
_chemical_formula_sum   'Y1 Pu2 Ni3 Sn3'
_cell_volume   183.05879724
_cell_formula_units_Z   1
loop_
 _symmetry_equiv_pos_site_id
 _symmetry_equiv_pos_as_xyz
  1  'x, y, z'
loop_
 _atom_site_type_symbol
 _atom_site_label
 _atom_site_symmetry_multiplicity
 _atom_site_fract_x
 _atom_site_fract_y
 _atom_site_fract_z
 _atom_site_occupancy
  Y  Y0  1  0.410674  0.410674  0.000000  1
  Pu  Pu1  1  0.584802  0.000661  0.000000  1
  Pu  Pu2  1  0.000661  0.584802  0.000000  1
  Ni  Ni3  1  0.333337  0.669776  0.500000  1
  Ni  Ni4  1  0.669776  0.333337  0.500000  1
  Ni  Ni5  1  0.001178  0.001178  0.000000  1
  Sn  Sn6  1  0.252400  0.001331  0.500000  1
  Sn  Sn7  1  0.001331  0.252400  0.500000  1
  Sn  Sn8  1  0.745844  0.745844  0.500000  1
