# generated using pymatgen
data_DyTm3Al8
_symmetry_space_group_name_H-M   'P 1'
_cell_length_a   9.58224545
_cell_length_b   9.58224523
_cell_length_c   9.58224529
_cell_angle_alpha   33.53279487
_cell_angle_beta   33.53279550
_cell_angle_gamma   33.53279471
_symmetry_Int_Tables_number   1
_chemical_formula_structural   DyTm3Al8
_chemical_formula_sum   'Dy1 Tm3 Al8'
_cell_volume   239.14259952
_cell_formula_units_Z   1
loop_
 _symmetry_equiv_pos_site_id
 _symmetry_equiv_pos_as_xyz
  1  'x, y, z'
loop_
 _atom_site_type_symbol
 _atom_site_label
 _atom_site_symmetry_multiplicity
 _atom_site_fract_x
 _atom_site_fract_y
 _atom_site_fract_z
 _atom_site_occupancy
  Dy  Dy0  1  0.687445  0.687445  0.687445  1
  Tm  Tm1  1  0.187456  0.187456  0.187456  1
  Tm  Tm2  1  0.812601  0.812601  0.812601  1
  Tm  Tm3  1  0.312490  0.312490  0.312490  1
  Al  Al4  1  0.999991  0.999991  0.999991  1
  Al  Al5  1  0.500017  0.500017  0.500017  1
  Al  Al6  1  0.750024  0.249999  0.249999  1
  Al  Al7  1  0.250051  0.749963  0.749963  1
  Al  Al8  1  0.249999  0.750024  0.249999  1
  Al  Al9  1  0.749963  0.250051  0.749963  1
  Al  Al10  1  0.249999  0.249999  0.750024  1
  Al  Al11  1  0.749963  0.749963  0.250051  1
