# generated using pymatgen
data_Th10Sn3Pb4Au
_symmetry_space_group_name_H-M   'P 1'
_cell_length_a   9.69173338
_cell_length_b   9.70113545
_cell_length_c   6.64073800
_cell_angle_alpha   89.99200906
_cell_angle_beta   90.01599738
_cell_angle_gamma   119.96793499
_symmetry_Int_Tables_number   1
_chemical_formula_structural   Th10Sn3Pb4Au
_chemical_formula_sum   'Th10 Sn3 Pb4 Au1'
_cell_volume   540.89282535
_cell_formula_units_Z   1
loop_
 _symmetry_equiv_pos_site_id
 _symmetry_equiv_pos_as_xyz
  1  'x, y, z'
loop_
 _atom_site_type_symbol
 _atom_site_label
 _atom_site_symmetry_multiplicity
 _atom_site_fract_x
 _atom_site_fract_y
 _atom_site_fract_z
 _atom_site_occupancy
  Th  Th0  1  0.000069  0.728072  0.752813  1
  Th  Th1  1  0.271997  0.271928  0.752813  1
  Th  Th2  1  0.331305  0.663946  0.498044  1
  Th  Th3  1  0.667360  0.336054  0.498044  1
  Th  Th4  1  0.729027  0.725661  0.247317  1
  Th  Th5  1  0.728239  0.000000  0.752711  1
  Th  Th6  1  0.003366  0.274339  0.247317  1
  Th  Th7  1  0.270240  0.000000  0.247286  1
  Th  Th8  1  0.331252  0.663821  0.002225  1
  Th  Th9  1  0.667433  0.336179  0.002225  1
  Sn  Sn10  1  0.381167  0.380531  0.251385  1
  Sn  Sn11  1  0.000637  0.619469  0.251385  1
  Sn  Sn12  1  0.999392  0.000000  0.500231  1
  Pb  Pb13  1  0.619091  0.620203  0.747890  1
  Pb  Pb14  1  0.998887  0.379797  0.747890  1
  Pb  Pb15  1  0.381180  0.000000  0.747701  1
  Pb  Pb16  1  0.620201  0.000000  0.252256  1
  Au  Au17  1  0.999158  0.000000  0.000467  1
