# generated using pymatgen
data_Gd9YSe10
_symmetry_space_group_name_H-M   'P 1'
_cell_length_a   7.14353911
_cell_length_b   8.22726151
_cell_length_c   9.33297100
_cell_angle_alpha   103.21105667
_cell_angle_beta   96.72486622
_cell_angle_gamma   106.66625057
_symmetry_Int_Tables_number   1
_chemical_formula_structural   Gd9YSe10
_chemical_formula_sum   'Gd9 Y1 Se10'
_cell_volume   501.66037418
_cell_formula_units_Z   1
loop_
 _symmetry_equiv_pos_site_id
 _symmetry_equiv_pos_as_xyz
  1  'x, y, z'
loop_
 _atom_site_type_symbol
 _atom_site_label
 _atom_site_symmetry_multiplicity
 _atom_site_fract_x
 _atom_site_fract_y
 _atom_site_fract_z
 _atom_site_occupancy
  Gd  Gd0  1  0.800786  0.599958  0.599042  1
  Gd  Gd1  1  0.598079  0.199866  0.200260  1
  Gd  Gd2  1  0.401921  0.800134  0.799740  1
  Gd  Gd3  1  0.600052  0.700331  0.200258  1
  Gd  Gd4  1  0.199214  0.400042  0.400958  1
  Gd  Gd5  1  0.399948  0.299669  0.799742  1
  Gd  Gd6  1  0.000000  0.000000  0.000000  1
  Gd  Gd7  1  0.198531  0.899412  0.399920  1
  Gd  Gd8  1  0.801469  0.100588  0.600080  1
  Y  Y9  1  0.000000  0.500000  0.000000  1
  Se  Se10  1  0.702015  0.648957  0.900158  1
  Se  Se11  1  0.499849  0.249807  0.500269  1
  Se  Se12  1  0.701560  0.152007  0.900916  1
  Se  Se13  1  0.298440  0.847993  0.099084  1
  Se  Se14  1  0.500151  0.750193  0.499731  1
  Se  Se15  1  0.100649  0.451149  0.702135  1
  Se  Se16  1  0.297985  0.351043  0.099842  1
  Se  Se17  1  0.898927  0.050392  0.299389  1
  Se  Se18  1  0.101073  0.949608  0.700611  1
  Se  Se19  1  0.899351  0.548851  0.297865  1
