# generated using pymatgen
data_Dy5Si11PRh19
_symmetry_space_group_name_H-M   'P 1'
_cell_length_a   12.80241597
_cell_length_b   12.85633446
_cell_length_c   3.94723600
_cell_angle_alpha   90.00000000
_cell_angle_beta   90.00000000
_cell_angle_gamma   120.13940578
_symmetry_Int_Tables_number   1
_chemical_formula_structural   Dy5Si11PRh19
_chemical_formula_sum   'Dy5 Si11 P1 Rh19'
_cell_volume   561.85083721
_cell_formula_units_Z   1
loop_
 _symmetry_equiv_pos_site_id
 _symmetry_equiv_pos_as_xyz
  1  'x, y, z'
loop_
 _atom_site_type_symbol
 _atom_site_label
 _atom_site_symmetry_multiplicity
 _atom_site_fract_x
 _atom_site_fract_y
 _atom_site_fract_z
 _atom_site_occupancy
  Dy  Dy0  1  0.666704  0.333360  0.000000  1
  Dy  Dy1  1  0.333296  0.666658  0.000000  1
  Dy  Dy2  1  0.186178  0.186451  0.500000  1
  Dy  Dy3  1  0.813822  0.000273  0.500000  1
  Dy  Dy4  1  0.000000  0.813468  0.500000  1
  Si  Si5  1  0.370164  0.370033  0.000000  1
  Si  Si6  1  0.629836  0.999870  0.000000  1
  Si  Si7  1  0.000000  0.629248  0.000000  1
  Si  Si8  1  0.837102  0.316015  0.500000  1
  Si  Si9  1  0.685313  0.522010  0.500000  1
  Si  Si10  1  0.478493  0.163609  0.500000  1
  Si  Si11  1  0.314687  0.836697  0.500000  1
  Si  Si12  1  0.521507  0.685117  0.500000  1
  Si  Si13  1  0.162898  0.478913  0.500000  1
  Si  Si14  1  0.819682  0.818579  0.000000  1
  Si  Si15  1  0.180318  0.998897  0.000000  1
  P  P16  1  0.000000  0.181483  0.000000  1
  Rh  Rh17  1  0.553034  0.554199  0.000000  1
  Rh  Rh18  1  0.446966  0.001166  0.000000  1
  Rh  Rh19  1  0.000000  0.445673  0.000000  1
  Rh  Rh20  1  0.820614  0.193356  0.000000  1
  Rh  Rh21  1  0.806300  0.624357  0.000000  1
  Rh  Rh22  1  0.374820  0.181584  0.000000  1
  Rh  Rh23  1  0.193700  0.818057  0.000000  1
  Rh  Rh24  1  0.625180  0.806764  0.000000  1
  Rh  Rh25  1  0.179386  0.372742  0.000000  1
  Rh  Rh26  1  0.642469  0.128002  0.500000  1
  Rh  Rh27  1  0.872907  0.513918  0.500000  1
  Rh  Rh28  1  0.485776  0.358888  0.500000  1
  Rh  Rh29  1  0.127093  0.641013  0.500000  1
  Rh  Rh30  1  0.514224  0.873112  0.500000  1
  Rh  Rh31  1  0.357531  0.485533  0.500000  1
  Rh  Rh32  1  0.721293  0.720979  0.500000  1
  Rh  Rh33  1  0.278707  0.999687  0.500000  1
  Rh  Rh34  1  0.000000  0.276738  0.500000  1
  Rh  Rh35  1  0.000000  0.003554  0.000000  1
