# generated using pymatgen
data_Th4Hg2PtAu3
_symmetry_space_group_name_H-M   'P 1'
_cell_length_a   8.12425500
_cell_length_b   8.12425525
_cell_length_c   3.85778000
_cell_angle_alpha   90.00000000
_cell_angle_beta   90.00000000
_cell_angle_gamma   90.52515280
_symmetry_Int_Tables_number   1
_chemical_formula_structural   Th4Hg2PtAu3
_chemical_formula_sum   'Th4 Hg2 Pt1 Au3'
_cell_volume   254.61636922
_cell_formula_units_Z   1
loop_
 _symmetry_equiv_pos_site_id
 _symmetry_equiv_pos_as_xyz
  1  'x, y, z'
loop_
 _atom_site_type_symbol
 _atom_site_label
 _atom_site_symmetry_multiplicity
 _atom_site_fract_x
 _atom_site_fract_y
 _atom_site_fract_z
 _atom_site_occupancy
  Th  Th0  1  0.337992  0.177047  0.500000  1
  Th  Th1  1  0.817028  0.317029  0.500000  1
  Th  Th2  1  0.172123  0.672122  0.500000  1
  Th  Th3  1  0.677046  0.837991  0.500000  1
  Hg  Hg4  1  0.000799  0.001444  0.000000  1
  Hg  Hg5  1  0.501444  0.500799  0.000000  1
  Pt  Pt6  1  0.626254  0.126255  0.000000  1
  Au  Au7  1  0.125581  0.370446  0.000000  1
  Au  Au8  1  0.870446  0.625580  0.000000  1
  Au  Au9  1  0.371289  0.871289  0.000000  1
