# generated using pymatgen
data_Dy7Sc(Ge4Mo3)4
_symmetry_space_group_name_H-M   'P 1'
_cell_length_a   6.92444803
_cell_length_b   7.04027683
_cell_length_c   13.12328861
_cell_angle_alpha   90.05568721
_cell_angle_beta   89.98914339
_cell_angle_gamma   90.00047740
_symmetry_Int_Tables_number   1
_chemical_formula_structural   Dy7Sc(Ge4Mo3)4
_chemical_formula_sum   'Dy7 Sc1 Ge16 Mo12'
_cell_volume   639.76041338
_cell_formula_units_Z   1
loop_
 _symmetry_equiv_pos_site_id
 _symmetry_equiv_pos_as_xyz
  1  'x, y, z'
loop_
 _atom_site_type_symbol
 _atom_site_label
 _atom_site_symmetry_multiplicity
 _atom_site_fract_x
 _atom_site_fract_y
 _atom_site_fract_z
 _atom_site_occupancy
  Dy  Dy0  1  0.488294  0.670120  0.592208  1
  Dy  Dy1  1  0.988967  0.830505  0.908013  1
  Dy  Dy2  1  0.511636  0.330643  0.092430  1
  Dy  Dy3  1  0.010838  0.168807  0.409434  1
  Dy  Dy4  1  0.510839  0.329563  0.409168  1
  Dy  Dy5  1  0.011339  0.169656  0.092333  1
  Dy  Dy6  1  0.488126  0.670121  0.905941  1
  Sc  Sc7  1  0.984868  0.828024  0.593476  1
  Ge  Ge8  1  0.673001  0.952970  0.454048  1
  Ge  Ge9  1  0.170607  0.546376  0.047948  1
  Ge  Ge10  1  0.330375  0.047228  0.951172  1
  Ge  Ge11  1  0.831575  0.457843  0.548597  1
  Ge  Ge12  1  0.322504  0.042131  0.548783  1
  Ge  Ge13  1  0.829498  0.453332  0.951475  1
  Ge  Ge14  1  0.669997  0.953138  0.048226  1
  Ge  Ge15  1  0.169162  0.549257  0.453499  1
  Ge  Ge16  1  0.467580  0.366972  0.749570  1
  Ge  Ge17  1  0.968264  0.129244  0.747624  1
  Ge  Ge18  1  0.533364  0.632514  0.250459  1
  Ge  Ge19  1  0.033123  0.867750  0.250389  1
  Ge  Ge20  1  0.691711  0.855840  0.748159  1
  Ge  Ge21  1  0.183702  0.647335  0.747046  1
  Ge  Ge22  1  0.312336  0.143996  0.250591  1
  Ge  Ge23  1  0.812845  0.356584  0.251018  1
  Mo  Mo24  1  0.668345  0.155269  0.626305  1
  Mo  Mo25  1  0.166565  0.343872  0.871580  1
  Mo  Mo26  1  0.332687  0.843912  0.126823  1
  Mo  Mo27  1  0.833058  0.657756  0.374379  1
  Mo  Mo28  1  0.333225  0.843466  0.373260  1
  Mo  Mo29  1  0.832985  0.656470  0.127403  1
  Mo  Mo30  1  0.669083  0.155469  0.872434  1
  Mo  Mo31  1  0.168289  0.344112  0.626653  1
  Mo  Mo32  1  0.832259  0.494759  0.749147  1
  Mo  Mo33  1  0.332003  0.004269  0.748761  1
  Mo  Mo34  1  0.168572  0.505758  0.250583  1
  Mo  Mo35  1  0.668379  0.994940  0.251065  1
