# generated using pymatgen
data_Dy2Ho3InBi2
_symmetry_space_group_name_H-M   'P 1'
_cell_length_a   9.07437970
_cell_length_b   9.07437822
_cell_length_c   6.49472300
_cell_angle_alpha   90.00000000
_cell_angle_beta   90.00000000
_cell_angle_gamma   119.77104542
_symmetry_Int_Tables_number   1
_chemical_formula_structural   Dy2Ho3InBi2
_chemical_formula_sum   'Dy4 Ho6 In2 Bi4'
_cell_volume   464.21848833
_cell_formula_units_Z   2
loop_
 _symmetry_equiv_pos_site_id
 _symmetry_equiv_pos_as_xyz
  1  'x, y, z'
loop_
 _atom_site_type_symbol
 _atom_site_label
 _atom_site_symmetry_multiplicity
 _atom_site_fract_x
 _atom_site_fract_y
 _atom_site_fract_z
 _atom_site_occupancy
  Dy  Dy0  1  0.762042  0.762042  0.750000  1
  Dy  Dy1  1  0.235983  0.998424  0.750000  1
  Dy  Dy2  1  0.998424  0.235983  0.750000  1
  Dy  Dy3  1  0.234166  0.234166  0.250000  1
  Ho  Ho4  1  0.668822  0.328829  0.003575  1
  Ho  Ho5  1  0.328829  0.668822  0.003575  1
  Ho  Ho6  1  0.328829  0.668822  0.496425  1
  Ho  Ho7  1  0.668822  0.328829  0.496425  1
  Ho  Ho8  1  0.765083  0.008234  0.250000  1
  Ho  Ho9  1  0.008234  0.765083  0.250000  1
  In  In10  1  0.396014  0.001210  0.250000  1
  In  In11  1  0.001210  0.396014  0.250000  1
  Bi  Bi12  1  0.393811  0.393811  0.750000  1
  Bi  Bi13  1  0.603338  0.996953  0.750000  1
  Bi  Bi14  1  0.996953  0.603338  0.750000  1
  Bi  Bi15  1  0.609439  0.609439  0.250000  1
