# generated using pymatgen
data_Rb5Ac(MoH9)3
_symmetry_space_group_name_H-M   'P 1'
_cell_length_a   9.70521100
_cell_length_b   9.41436858
_cell_length_c   5.37400000
_cell_angle_alpha   90.00000000
_cell_angle_beta   90.00000000
_cell_angle_gamma   119.01354581
_symmetry_Int_Tables_number   1
_chemical_formula_structural   Rb5Ac(MoH9)3
_chemical_formula_sum   'Rb5 Ac1 Mo3 H27'
_cell_volume   429.39419607
_cell_formula_units_Z   1
loop_
 _symmetry_equiv_pos_site_id
 _symmetry_equiv_pos_as_xyz
  1  'x, y, z'
loop_
 _atom_site_type_symbol
 _atom_site_label
 _atom_site_symmetry_multiplicity
 _atom_site_fract_x
 _atom_site_fract_y
 _atom_site_fract_z
 _atom_site_occupancy
  Rb  Rb0  1  0.731401  0.738818  0.500000  1
  Rb  Rb1  1  0.268599  0.007417  0.500000  1
  Rb  Rb2  1  0.000000  0.622833  0.000000  1
  Rb  Rb3  1  0.426451  0.396653  0.000000  1
  Rb  Rb4  1  0.573549  0.970202  0.000000  1
  Ac  Ac5  1  0.000000  0.272050  0.500000  1
  Mo  Mo6  1  0.699433  0.326971  0.500000  1
  Mo  Mo7  1  0.300567  0.627538  0.500000  1
  Mo  Mo8  1  0.000000  0.033693  0.000000  1
  H  H9  1  0.789791  0.307423  0.773224  1
  H  H10  1  0.720144  0.474036  0.717314  1
  H  H11  1  0.548477  0.206877  0.707838  1
  H  H12  1  0.210209  0.517633  0.226776  1
  H  H13  1  0.548477  0.206877  0.292162  1
  H  H14  1  0.789791  0.307423  0.226776  1
  H  H15  1  0.720144  0.474036  0.282686  1
  H  H16  1  0.279856  0.753894  0.717314  1
  H  H17  1  0.451523  0.658401  0.707838  1
  H  H18  1  0.172013  0.023444  0.000000  1
  H  H19  1  0.827987  0.851432  0.000000  1
  H  H20  1  0.000000  0.223325  0.000000  1
  H  H21  1  0.868927  0.025616  0.235793  1
  H  H22  1  0.131073  0.156690  0.764207  1
  H  H23  1  0.000000  0.898368  0.781459  1
  H  H24  1  0.000000  0.898368  0.218541  1
  H  H25  1  0.131073  0.156690  0.235793  1
  H  H26  1  0.868927  0.025616  0.764207  1
  H  H27  1  0.115732  0.625241  0.500000  1
  H  H28  1  0.451812  0.823152  0.500000  1
  H  H29  1  0.316802  0.447655  0.500000  1
  H  H30  1  0.548188  0.371341  0.500000  1
  H  H31  1  0.884268  0.509509  0.500000  1
  H  H32  1  0.683198  0.130853  0.500000  1
  H  H33  1  0.210209  0.517633  0.773224  1
  H  H34  1  0.279856  0.753894  0.282686  1
  H  H35  1  0.451523  0.658401  0.292162  1
