# generated using pymatgen
data_Nd2(B2Rh3)3
_symmetry_space_group_name_H-M   'P 1'
_cell_length_a   5.66454000
_cell_length_b   5.66454040
_cell_length_c   8.57936500
_cell_angle_alpha   90.00000000
_cell_angle_beta   90.00000000
_cell_angle_gamma   119.99999768
_symmetry_Int_Tables_number   1
_chemical_formula_structural   Nd2(B2Rh3)3
_chemical_formula_sum   'Nd2 B6 Rh9'
_cell_volume   238.40486467
_cell_formula_units_Z   1
loop_
 _symmetry_equiv_pos_site_id
 _symmetry_equiv_pos_as_xyz
  1  'x, y, z'
loop_
 _atom_site_type_symbol
 _atom_site_label
 _atom_site_symmetry_multiplicity
 _atom_site_fract_x
 _atom_site_fract_y
 _atom_site_fract_z
 _atom_site_occupancy
  Nd  Nd0  1  0.000000  0.000000  0.707871  1
  Nd  Nd1  1  0.000000  0.000000  0.292129  1
  B  B2  1  0.666667  0.333333  0.000000  1
  B  B3  1  0.333333  0.666667  0.000000  1
  B  B4  1  0.666667  0.333333  0.667315  1
  B  B5  1  0.333333  0.666667  0.667315  1
  B  B6  1  0.333333  0.666667  0.332685  1
  B  B7  1  0.666667  0.333333  0.332685  1
  Rh  Rh8  1  0.500000  0.500000  0.836397  1
  Rh  Rh9  1  0.500000  0.000000  0.836397  1
  Rh  Rh10  1  0.000000  0.500000  0.836397  1
  Rh  Rh11  1  0.500000  0.500000  0.163603  1
  Rh  Rh12  1  0.500000  0.000000  0.163603  1
  Rh  Rh13  1  0.000000  0.500000  0.163603  1
  Rh  Rh14  1  0.500000  0.500000  0.500000  1
  Rh  Rh15  1  0.500000  0.000000  0.500000  1
  Rh  Rh16  1  0.000000  0.500000  0.500000  1
