# generated using pymatgen
data_Cs2Be2O3
_symmetry_space_group_name_H-M   'P 1'
_cell_length_a   5.37614000
_cell_length_b   8.26264100
_cell_length_c   11.81610700
_cell_angle_alpha   90.00000000
_cell_angle_beta   90.00000000
_cell_angle_gamma   90.00000000
_symmetry_Int_Tables_number   1
_chemical_formula_structural   Cs2Be2O3
_chemical_formula_sum   'Cs8 Be8 O12'
_cell_volume   524.88464537
_cell_formula_units_Z   4
loop_
 _symmetry_equiv_pos_site_id
 _symmetry_equiv_pos_as_xyz
  1  'x, y, z'
loop_
 _atom_site_type_symbol
 _atom_site_label
 _atom_site_symmetry_multiplicity
 _atom_site_fract_x
 _atom_site_fract_y
 _atom_site_fract_z
 _atom_site_occupancy
  Cs  Cs0  1  0.250000  0.880667  0.092768  1
  Cs  Cs1  1  0.750000  0.505273  0.118177  1
  Cs  Cs2  1  0.250000  0.005273  0.381823  1
  Cs  Cs3  1  0.750000  0.380667  0.407232  1
  Cs  Cs4  1  0.250000  0.619333  0.592768  1
  Cs  Cs5  1  0.750000  0.994727  0.618177  1
  Cs  Cs6  1  0.250000  0.494727  0.881823  1
  Cs  Cs7  1  0.750000  0.119333  0.907232  1
  Be  Be8  1  0.250000  0.276628  0.181990  1
  Be  Be9  1  0.750000  0.108136  0.200172  1
  Be  Be10  1  0.250000  0.608136  0.299828  1
  Be  Be11  1  0.750000  0.776628  0.318010  1
  Be  Be12  1  0.250000  0.223372  0.681990  1
  Be  Be13  1  0.750000  0.391864  0.700172  1
  Be  Be14  1  0.250000  0.891864  0.799828  1
  Be  Be15  1  0.750000  0.723372  0.818010  1
  O  O16  1  0.250000  0.454950  0.224004  1
  O  O17  1  0.999356  0.186562  0.161192  1
  O  O18  1  0.500644  0.186562  0.161192  1
  O  O19  1  0.000644  0.686562  0.338808  1
  O  O20  1  0.499356  0.686562  0.338808  1
  O  O21  1  0.750000  0.954950  0.275996  1
  O  O22  1  0.250000  0.045050  0.724004  1
  O  O23  1  0.999356  0.313438  0.661192  1
  O  O24  1  0.500644  0.313438  0.661192  1
  O  O25  1  0.499356  0.813438  0.838808  1
  O  O26  1  0.000644  0.813438  0.838808  1
  O  O27  1  0.750000  0.545050  0.775996  1
