# generated using pymatgen
data_Rb8Er6CoBr20
_symmetry_space_group_name_H-M   'P 1'
_cell_length_a   12.38188479
_cell_length_b   12.38188403
_cell_length_c   12.38188400
_cell_angle_alpha   60.00000008
_cell_angle_beta   60.00000210
_cell_angle_gamma   60.00000092
_symmetry_Int_Tables_number   1
_chemical_formula_structural   Rb8Er6CoBr20
_chemical_formula_sum   'Rb8 Er6 Co1 Br20'
_cell_volume   1342.28653636
_cell_formula_units_Z   1
loop_
 _symmetry_equiv_pos_site_id
 _symmetry_equiv_pos_as_xyz
  1  'x, y, z'
loop_
 _atom_site_type_symbol
 _atom_site_label
 _atom_site_symmetry_multiplicity
 _atom_site_fract_x
 _atom_site_fract_y
 _atom_site_fract_z
 _atom_site_occupancy
  Rb  Rb0  1  0.359819  0.359819  0.359819  1
  Rb  Rb1  1  0.640181  0.640181  0.640181  1
  Rb  Rb2  1  0.359819  0.359819  0.920544  1
  Rb  Rb3  1  0.359819  0.920544  0.359819  1
  Rb  Rb4  1  0.640181  0.640181  0.079456  1
  Rb  Rb5  1  0.640181  0.079456  0.640181  1
  Rb  Rb6  1  0.920544  0.359819  0.359819  1
  Rb  Rb7  1  0.079456  0.640181  0.640181  1
  Er  Er8  1  0.848852  0.151148  0.151148  1
  Er  Er9  1  0.151148  0.848852  0.848852  1
  Er  Er10  1  0.151148  0.848852  0.151148  1
  Er  Er11  1  0.848852  0.151148  0.848852  1
  Er  Er12  1  0.151148  0.151148  0.848852  1
  Er  Er13  1  0.848852  0.848852  0.151148  1
  Co  Co14  1  0.000000  0.000000  0.000000  1
  Br  Br15  1  0.326892  0.000000  0.000000  1
  Br  Br16  1  0.673108  0.000000  0.000000  1
  Br  Br17  1  0.000000  0.326892  0.673108  1
  Br  Br18  1  0.000000  0.673108  0.326892  1
  Br  Br19  1  0.000000  0.326892  0.000000  1
  Br  Br20  1  0.673108  0.000000  0.326892  1
  Br  Br21  1  0.000000  0.673108  0.000000  1
  Br  Br22  1  0.326892  0.000000  0.673108  1
  Br  Br23  1  0.000000  0.000000  0.326892  1
  Br  Br24  1  0.000000  0.000000  0.673108  1
  Br  Br25  1  0.673108  0.326892  0.000000  1
  Br  Br26  1  0.326892  0.673108  0.000000  1
  Br  Br27  1  0.684490  0.315510  0.315510  1
  Br  Br28  1  0.315510  0.684490  0.684490  1
  Br  Br29  1  0.315510  0.684490  0.315510  1
  Br  Br30  1  0.684490  0.315510  0.684490  1
  Br  Br31  1  0.315510  0.315510  0.684490  1
  Br  Br32  1  0.684490  0.684490  0.315510  1
  Br  Br33  1  0.250000  0.250000  0.250000  1
  Br  Br34  1  0.750000  0.750000  0.750000  1
