# generated using pymatgen
data_Ba2In4PtRh
_symmetry_space_group_name_H-M   'P 1'
_cell_length_a   6.35242035
_cell_length_b   6.35242062
_cell_length_c   8.15550600
_cell_angle_alpha   90.00000000
_cell_angle_beta   90.00000000
_cell_angle_gamma   138.20515193
_symmetry_Int_Tables_number   1
_chemical_formula_structural   Ba2In4PtRh
_chemical_formula_sum   'Ba2 In4 Pt1 Rh1'
_cell_volume   219.33453462
_cell_formula_units_Z   1
loop_
 _symmetry_equiv_pos_site_id
 _symmetry_equiv_pos_as_xyz
  1  'x, y, z'
loop_
 _atom_site_type_symbol
 _atom_site_label
 _atom_site_symmetry_multiplicity
 _atom_site_fract_x
 _atom_site_fract_y
 _atom_site_fract_z
 _atom_site_occupancy
  Ba  Ba0  1  0.050976  0.949024  0.250000  1
  Ba  Ba1  1  0.947540  0.052460  0.750000  1
  In  In2  1  0.664998  0.335002  0.553134  1
  In  In3  1  0.334456  0.665544  0.441286  1
  In  In4  1  0.664998  0.335002  0.946866  1
  In  In5  1  0.334456  0.665544  0.058714  1
  Pt  Pt6  1  0.221850  0.778150  0.750000  1
  Rh  Rh7  1  0.780727  0.219273  0.250000  1
