# generated using pymatgen
data_Ba2YThTe8
_symmetry_space_group_name_H-M   'P 1'
_cell_length_a   8.79779538
_cell_length_b   8.79779447
_cell_length_c   10.65714800
_cell_angle_alpha   53.69972743
_cell_angle_beta   53.69972370
_cell_angle_gamma   42.55984979
_symmetry_Int_Tables_number   1
_chemical_formula_structural   Ba2YThTe8
_chemical_formula_sum   'Ba2 Y1 Th1 Te8'
_cell_volume   430.84086890
_cell_formula_units_Z   1
loop_
 _symmetry_equiv_pos_site_id
 _symmetry_equiv_pos_as_xyz
  1  'x, y, z'
loop_
 _atom_site_type_symbol
 _atom_site_label
 _atom_site_symmetry_multiplicity
 _atom_site_fract_x
 _atom_site_fract_y
 _atom_site_fract_z
 _atom_site_occupancy
  Ba  Ba0  1  0.901256  0.901256  0.306413  1
  Ba  Ba1  1  0.100499  0.100499  0.693187  1
  Y  Y2  1  0.637065  0.637065  0.227735  1
  Th  Th3  1  0.362340  0.362340  0.773479  1
  Te  Te4  1  0.103415  0.606816  0.045704  1
  Te  Te5  1  0.393380  0.893571  0.955085  1
  Te  Te6  1  0.893571  0.393380  0.955085  1
  Te  Te7  1  0.606816  0.103415  0.045704  1
  Te  Te8  1  0.100971  0.100971  0.348715  1
  Te  Te9  1  0.899743  0.899743  0.651739  1
  Te  Te10  1  0.612317  0.612317  0.549095  1
  Te  Te11  1  0.388628  0.388628  0.448058  1
