# generated using pymatgen
data_Li3DyTm2CdP2
_symmetry_space_group_name_H-M   'P 1'
_cell_length_a   6.98342286
_cell_length_b   6.95845492
_cell_length_c   4.10780600
_cell_angle_alpha   90.00000000
_cell_angle_beta   90.00000000
_cell_angle_gamma   119.88179271
_symmetry_Int_Tables_number   1
_chemical_formula_structural   Li3DyTm2CdP2
_chemical_formula_sum   'Li3 Dy1 Tm2 Cd1 P2'
_cell_volume   173.07637362
_cell_formula_units_Z   1
loop_
 _symmetry_equiv_pos_site_id
 _symmetry_equiv_pos_as_xyz
  1  'x, y, z'
loop_
 _atom_site_type_symbol
 _atom_site_label
 _atom_site_symmetry_multiplicity
 _atom_site_fract_x
 _atom_site_fract_y
 _atom_site_fract_z
 _atom_site_occupancy
  Li  Li0  1  0.743694  0.743591  0.500000  1
  Li  Li1  1  0.256306  0.999897  0.500000  1
  Li  Li2  1  0.000000  0.256267  0.500000  1
  Dy  Dy3  1  0.000000  0.564308  0.000000  1
  Tm  Tm4  1  0.436694  0.436652  0.000000  1
  Tm  Tm5  1  0.563306  0.999958  0.000000  1
  Cd  Cd6  1  0.000000  0.001159  0.000000  1
  P  P7  1  0.664957  0.331562  0.500000  1
  P  P8  1  0.335043  0.666606  0.500000  1
