# generated using pymatgen
data_TmMg5Ni12(SnB2)2
_symmetry_space_group_name_H-M   'P 1'
_cell_length_a   5.13453800
_cell_length_b   5.13453634
_cell_length_c   13.73611300
_cell_angle_alpha   90.00000000
_cell_angle_beta   90.00000000
_cell_angle_gamma   119.99999784
_symmetry_Int_Tables_number   1
_chemical_formula_structural   TmMg5Ni12(SnB2)2
_chemical_formula_sum   'Tm1 Mg5 Ni12 Sn2 B4'
_cell_volume   313.61519746
_cell_formula_units_Z   1
loop_
 _symmetry_equiv_pos_site_id
 _symmetry_equiv_pos_as_xyz
  1  'x, y, z'
loop_
 _atom_site_type_symbol
 _atom_site_label
 _atom_site_symmetry_multiplicity
 _atom_site_fract_x
 _atom_site_fract_y
 _atom_site_fract_z
 _atom_site_occupancy
  Tm  Tm0  1  0.666667  0.333333  0.250000  1
  Mg  Mg1  1  0.333333  0.666667  0.537632  1
  Mg  Mg2  1  0.666667  0.333333  0.026749  1
  Mg  Mg3  1  0.666667  0.333333  0.473251  1
  Mg  Mg4  1  0.333333  0.666667  0.962368  1
  Mg  Mg5  1  0.333333  0.666667  0.750000  1
  Ni  Ni6  1  0.167775  0.335550  0.151223  1
  Ni  Ni7  1  0.832431  0.664861  0.654453  1
  Ni  Ni8  1  0.664450  0.832225  0.151223  1
  Ni  Ni9  1  0.167775  0.832225  0.151223  1
  Ni  Ni10  1  0.832431  0.167569  0.654453  1
  Ni  Ni11  1  0.335139  0.167569  0.654453  1
  Ni  Ni12  1  0.832431  0.664861  0.845547  1
  Ni  Ni13  1  0.832431  0.167569  0.845547  1
  Ni  Ni14  1  0.335139  0.167569  0.845547  1
  Ni  Ni15  1  0.664450  0.832225  0.348777  1
  Ni  Ni16  1  0.167775  0.832225  0.348777  1
  Ni  Ni17  1  0.167775  0.335550  0.348777  1
  Sn  Sn18  1  0.000000  0.000000  0.999013  1
  Sn  Sn19  1  0.000000  0.000000  0.500987  1
  B  B20  1  0.333333  0.666667  0.250000  1
  B  B21  1  0.666667  0.333333  0.750000  1
  B  B22  1  0.000000  0.000000  0.250000  1
  B  B23  1  0.000000  0.000000  0.750000  1
