# generated using pymatgen
data_Sc22CoOs7
_symmetry_space_group_name_H-M   'P 1'
_cell_length_a   9.43936622
_cell_length_b   9.43936669
_cell_length_c   9.43936600
_cell_angle_alpha   60.00000242
_cell_angle_beta   60.00000075
_cell_angle_gamma   60.00000419
_symmetry_Int_Tables_number   1
_chemical_formula_structural   Sc22CoOs7
_chemical_formula_sum   'Sc22 Co1 Os7'
_cell_volume   594.72137113
_cell_formula_units_Z   1
loop_
 _symmetry_equiv_pos_site_id
 _symmetry_equiv_pos_as_xyz
  1  'x, y, z'
loop_
 _atom_site_type_symbol
 _atom_site_label
 _atom_site_symmetry_multiplicity
 _atom_site_fract_x
 _atom_site_fract_y
 _atom_site_fract_z
 _atom_site_occupancy
  Sc  Sc0  1  0.843976  0.843976  0.843976  1
  Sc  Sc1  1  0.531927  0.156024  0.156024  1
  Sc  Sc2  1  0.156024  0.156024  0.531927  1
  Sc  Sc3  1  0.156024  0.531927  0.156024  1
  Sc  Sc4  1  0.843976  0.843976  0.468073  1
  Sc  Sc5  1  0.843976  0.468073  0.843976  1
  Sc  Sc6  1  0.468073  0.843976  0.843976  1
  Sc  Sc7  1  0.156024  0.156024  0.156024  1
  Sc  Sc8  1  0.198617  0.801383  0.198617  1
  Sc  Sc9  1  0.198617  0.801383  0.801383  1
  Sc  Sc10  1  0.801383  0.198617  0.198617  1
  Sc  Sc11  1  0.801383  0.801383  0.198617  1
  Sc  Sc12  1  0.198617  0.198617  0.801383  1
  Sc  Sc13  1  0.801383  0.198617  0.801383  1
  Sc  Sc14  1  0.383874  0.383874  0.383874  1
  Sc  Sc15  1  0.151623  0.616126  0.616126  1
  Sc  Sc16  1  0.616126  0.151623  0.616126  1
  Sc  Sc17  1  0.616126  0.616126  0.151623  1
  Sc  Sc18  1  0.383874  0.848377  0.383874  1
  Sc  Sc19  1  0.383874  0.383874  0.848377  1
  Sc  Sc20  1  0.848377  0.383874  0.383874  1
  Sc  Sc21  1  0.616126  0.616126  0.616126  1
  Co  Co22  1  0.500000  0.500000  0.500000  1
  Os  Os23  1  0.500000  0.500000  0.000000  1
  Os  Os24  1  0.000000  0.000000  0.500000  1
  Os  Os25  1  0.500000  0.000000  0.500000  1
  Os  Os26  1  0.000000  0.500000  0.500000  1
  Os  Os27  1  0.500000  0.000000  0.000000  1
  Os  Os28  1  0.000000  0.500000  0.000000  1
  Os  Os29  1  0.000000  0.000000  0.000000  1
