# generated using pymatgen
data_Pr6Cd22SiAg
_symmetry_space_group_name_H-M   'P 1'
_cell_length_a   10.09725715
_cell_length_b   10.05753551
_cell_length_c   10.09725729
_cell_angle_alpha   60.13004652
_cell_angle_beta   60.29786116
_cell_angle_gamma   60.13004217
_symmetry_Int_Tables_number   1
_chemical_formula_structural   Pr6Cd22SiAg
_chemical_formula_sum   'Pr6 Cd22 Si1 Ag1'
_cell_volume   728.12549124
_cell_formula_units_Z   1
loop_
 _symmetry_equiv_pos_site_id
 _symmetry_equiv_pos_as_xyz
  1  'x, y, z'
loop_
 _atom_site_type_symbol
 _atom_site_label
 _atom_site_symmetry_multiplicity
 _atom_site_fract_x
 _atom_site_fract_y
 _atom_site_fract_z
 _atom_site_occupancy
  Pr  Pr0  1  0.792934  0.792945  0.207066  1
  Pr  Pr1  1  0.207784  0.792216  0.207784  1
  Pr  Pr2  1  0.792934  0.207055  0.207066  1
  Pr  Pr3  1  0.207066  0.207055  0.792934  1
  Pr  Pr4  1  0.792216  0.207784  0.792216  1
  Pr  Pr5  1  0.207066  0.792945  0.792934  1
  Cd  Cd6  1  0.829483  0.835932  0.498651  1
  Cd  Cd7  1  0.834480  0.495654  0.834480  1
  Cd  Cd8  1  0.498651  0.835932  0.829483  1
  Cd  Cd9  1  0.834480  0.835385  0.834480  1
  Cd  Cd10  1  0.170517  0.164068  0.501349  1
  Cd  Cd11  1  0.165520  0.504346  0.165520  1
  Cd  Cd12  1  0.501349  0.164068  0.170517  1
  Cd  Cd13  1  0.165520  0.164615  0.165520  1
  Cd  Cd14  1  0.622643  0.621906  0.133544  1
  Cd  Cd15  1  0.619206  0.133725  0.619206  1
  Cd  Cd16  1  0.133544  0.621906  0.622643  1
  Cd  Cd17  1  0.619206  0.627862  0.619206  1
  Cd  Cd18  1  0.377357  0.378094  0.866456  1
  Cd  Cd19  1  0.380794  0.866275  0.380794  1
  Cd  Cd20  1  0.866456  0.378094  0.377357  1
  Cd  Cd21  1  0.380794  0.372138  0.380794  1
  Cd  Cd22  1  0.000000  0.000000  0.500000  1
  Cd  Cd23  1  0.000000  0.500000  0.500000  1
  Cd  Cd24  1  0.500000  0.500000  0.000000  1
  Cd  Cd25  1  0.000000  0.500000  0.000000  1
  Cd  Cd26  1  0.500000  0.000000  0.000000  1
  Cd  Cd27  1  0.500000  0.500000  0.500000  1
  Si  Si28  1  0.000000  0.000000  0.000000  1
  Ag  Ag29  1  0.500000  0.000000  0.500000  1
