# generated using pymatgen
data_Ho3Pa(Ga3Ir)6
_symmetry_space_group_name_H-M   'P 1'
_cell_length_a   7.60787725
_cell_length_b   7.61814352
_cell_length_c   9.44776300
_cell_angle_alpha   90.00000000
_cell_angle_beta   90.00000000
_cell_angle_gamma   119.92043979
_symmetry_Int_Tables_number   1
_chemical_formula_structural   Ho3Pa(Ga3Ir)6
_chemical_formula_sum   'Ho3 Pa1 Ga18 Ir6'
_cell_volume   474.59142323
_cell_formula_units_Z   1
loop_
 _symmetry_equiv_pos_site_id
 _symmetry_equiv_pos_as_xyz
  1  'x, y, z'
loop_
 _atom_site_type_symbol
 _atom_site_label
 _atom_site_symmetry_multiplicity
 _atom_site_fract_x
 _atom_site_fract_y
 _atom_site_fract_z
 _atom_site_occupancy
  Ho  Ho0  1  0.997010  0.668540  0.750000  1
  Ho  Ho1  1  0.003397  0.331068  0.250000  1
  Ho  Ho2  1  0.668539  0.996519  0.750000  1
  Pa  Pa3  1  0.331522  0.002743  0.250000  1
  Ga  Ga4  1  0.126141  0.126650  0.750000  1
  Ga  Ga5  1  0.870772  0.871163  0.250000  1
  Ga  Ga6  1  0.998441  0.334143  0.581437  1
  Ga  Ga7  1  0.998596  0.663016  0.419656  1
  Ga  Ga8  1  0.998596  0.663016  0.080344  1
  Ga  Ga9  1  0.334193  0.998501  0.917275  1
  Ga  Ga10  1  0.998441  0.334143  0.918563  1
  Ga  Ga11  1  0.668460  0.001490  0.080284  1
  Ga  Ga12  1  0.668460  0.001490  0.419716  1
  Ga  Ga13  1  0.334193  0.998501  0.582725  1
  Ga  Ga14  1  0.331927  0.334607  0.065662  1
  Ga  Ga15  1  0.668294  0.668322  0.932781  1
  Ga  Ga16  1  0.668294  0.668322  0.567219  1
  Ga  Ga17  1  0.331927  0.334607  0.434338  1
  Ga  Ga18  1  0.339501  0.547278  0.750000  1
  Ga  Ga19  1  0.660545  0.455395  0.250000  1
  Ga  Ga20  1  0.547599  0.339918  0.750000  1
  Ga  Ga21  1  0.454487  0.659935  0.250000  1
  Ir  Ir22  1  0.669742  0.327005  0.498327  1
  Ir  Ir23  1  0.328574  0.673047  0.498072  1
  Ir  Ir24  1  0.328574  0.673047  0.001928  1
  Ir  Ir25  1  0.669742  0.327005  0.001673  1
  Ir  Ir26  1  0.002018  0.000265  0.498104  1
  Ir  Ir27  1  0.002018  0.000265  0.001896  1
