# generated using pymatgen
data_Zr16ScSi16Mo3
_symmetry_space_group_name_H-M   'P 1'
_cell_length_a   7.04908585
_cell_length_b   7.04862778
_cell_length_c   12.91520000
_cell_angle_alpha   90.12100307
_cell_angle_beta   89.90920079
_cell_angle_gamma   89.94679476
_symmetry_Int_Tables_number   1
_chemical_formula_structural   Zr16ScSi16Mo3
_chemical_formula_sum   'Zr16 Sc1 Si16 Mo3'
_cell_volume   641.70704988
_cell_formula_units_Z   1
loop_
 _symmetry_equiv_pos_site_id
 _symmetry_equiv_pos_as_xyz
  1  'x, y, z'
loop_
 _atom_site_type_symbol
 _atom_site_label
 _atom_site_symmetry_multiplicity
 _atom_site_fract_x
 _atom_site_fract_y
 _atom_site_fract_z
 _atom_site_occupancy
  Zr  Zr0  1  0.175368  0.175405  0.999877  1
  Zr  Zr1  1  0.497103  0.152465  0.531237  1
  Zr  Zr2  1  0.502785  0.848739  0.033347  1
  Zr  Zr3  1  0.652797  0.000833  0.284139  1
  Zr  Zr4  1  0.348739  0.997396  0.781781  1
  Zr  Zr5  1  0.848592  0.502380  0.966543  1
  Zr  Zr6  1  0.152446  0.498182  0.468542  1
  Zr  Zr7  1  0.999848  0.654075  0.715956  1
  Zr  Zr8  1  0.997037  0.347972  0.218044  1
  Zr  Zr9  1  0.497181  0.355957  0.127490  1
  Zr  Zr10  1  0.502438  0.644794  0.625772  1
  Zr  Zr11  1  0.853755  0.001598  0.873070  1
  Zr  Zr12  1  0.144412  0.995292  0.378015  1
  Zr  Zr13  1  0.645547  0.503029  0.374454  1
  Zr  Zr14  1  0.356329  0.496481  0.872028  1
  Zr  Zr15  1  0.001208  0.853991  0.126790  1
  Sc  Sc16  1  0.994835  0.144532  0.622566  1
  Si  Si17  1  0.794388  0.146488  0.070819  1
  Si  Si18  1  0.201083  0.854820  0.571991  1
  Si  Si19  1  0.646662  0.702117  0.820700  1
  Si  Si20  1  0.352435  0.296941  0.322543  1
  Si  Si21  1  0.853068  0.201557  0.429451  1
  Si  Si22  1  0.146691  0.794245  0.928734  1
  Si  Si23  1  0.702112  0.647006  0.179052  1
  Si  Si24  1  0.296050  0.351296  0.677275  1
  Si  Si25  1  0.554028  0.200941  0.933236  1
  Si  Si26  1  0.453157  0.800429  0.435229  1
  Si  Si27  1  0.699875  0.953372  0.682918  1
  Si  Si28  1  0.304219  0.043950  0.187844  1
  Si  Si29  1  0.801623  0.452083  0.565702  1
  Si  Si30  1  0.201348  0.554355  0.066540  1
  Si  Si31  1  0.952505  0.698269  0.316722  1
  Si  Si32  1  0.043255  0.303612  0.811214  1
  Mo  Mo33  1  0.676156  0.325491  0.747952  1
  Mo  Mo34  1  0.326236  0.675510  0.252205  1
  Mo  Mo35  1  0.824682  0.824393  0.500225  1
