# generated using pymatgen
data_La2PaRu2
_symmetry_space_group_name_H-M   'P 1'
_cell_length_a   6.20208209
_cell_length_b   6.20208230
_cell_length_c   6.20208212
_cell_angle_alpha   140.31112855
_cell_angle_beta   122.40210427
_cell_angle_gamma   72.21889158
_symmetry_Int_Tables_number   1
_chemical_formula_structural   La2PaRu2
_chemical_formula_sum   'La2 Pa1 Ru2'
_cell_volume   126.07674783
_cell_formula_units_Z   1
loop_
 _symmetry_equiv_pos_site_id
 _symmetry_equiv_pos_as_xyz
  1  'x, y, z'
loop_
 _atom_site_type_symbol
 _atom_site_label
 _atom_site_symmetry_multiplicity
 _atom_site_fract_x
 _atom_site_fract_y
 _atom_site_fract_z
 _atom_site_occupancy
  La  La0  1  0.692441  0.192442  0.500000  1
  La  La1  1  0.307558  0.807558  0.500000  1
  Pa  Pa2  1  0.000000  0.000000  0.000000  1
  Ru  Ru3  1  0.754360  0.500000  0.254360  1
  Ru  Ru4  1  0.245639  0.500000  0.745639  1
