# generated using pymatgen
data_Pr3MgCd2Sn2Au
_symmetry_space_group_name_H-M   'P 1'
_cell_length_a   7.58366700
_cell_length_b   7.66351317
_cell_length_c   4.71425500
_cell_angle_alpha   90.00000000
_cell_angle_beta   90.00000000
_cell_angle_gamma   119.65592358
_symmetry_Int_Tables_number   1
_chemical_formula_structural   Pr3MgCd2Sn2Au
_chemical_formula_sum   'Pr3 Mg1 Cd2 Sn2 Au1'
_cell_volume   238.09277047
_cell_formula_units_Z   1
loop_
 _symmetry_equiv_pos_site_id
 _symmetry_equiv_pos_as_xyz
  1  'x, y, z'
loop_
 _atom_site_type_symbol
 _atom_site_label
 _atom_site_symmetry_multiplicity
 _atom_site_fract_x
 _atom_site_fract_y
 _atom_site_fract_z
 _atom_site_occupancy
  Pr  Pr0  1  0.598563  0.000000  0.000000  1
  Pr  Pr1  1  0.996872  0.588921  0.000000  1
  Pr  Pr2  1  0.407951  0.411079  0.000000  1
  Mg  Mg3  1  0.224197  0.000000  0.500000  1
  Cd  Cd4  1  0.001989  0.239508  0.500000  1
  Cd  Cd5  1  0.762482  0.760492  0.500000  1
  Sn  Sn6  1  0.332940  0.673040  0.500000  1
  Sn  Sn7  1  0.659901  0.326960  0.500000  1
  Au  Au8  1  0.015105  0.000000  0.000000  1
