# generated using pymatgen
data_Cs2RbNd(AsS2)6
_symmetry_space_group_name_H-M   'P 1'
_cell_length_a   9.70521800
_cell_length_b   9.70521771
_cell_length_c   8.39518400
_cell_angle_alpha   90.00000000
_cell_angle_beta   90.00000000
_cell_angle_gamma   120.00000100
_symmetry_Int_Tables_number   1
_chemical_formula_structural   Cs2RbNd(AsS2)6
_chemical_formula_sum   'Cs2 Rb1 Nd1 As6 S12'
_cell_volume   684.81209707
_cell_formula_units_Z   1
loop_
 _symmetry_equiv_pos_site_id
 _symmetry_equiv_pos_as_xyz
  1  'x, y, z'
loop_
 _atom_site_type_symbol
 _atom_site_label
 _atom_site_symmetry_multiplicity
 _atom_site_fract_x
 _atom_site_fract_y
 _atom_site_fract_z
 _atom_site_occupancy
  Cs  Cs0  1  0.333333  0.666667  0.859650  1
  Cs  Cs1  1  0.666667  0.333333  0.140350  1
  Rb  Rb2  1  0.000000  0.000000  0.000000  1
  Nd  Nd3  1  0.000000  0.000000  0.500000  1
  As  As4  1  0.292802  0.838893  0.388110  1
  As  As5  1  0.161107  0.453911  0.388110  1
  As  As6  1  0.546089  0.707198  0.388110  1
  As  As7  1  0.707198  0.161107  0.611890  1
  As  As8  1  0.838893  0.546089  0.611890  1
  As  As9  1  0.453911  0.292802  0.611890  1
  S  S10  1  0.256502  0.035218  0.301302  1
  S  S11  1  0.964782  0.221284  0.301302  1
  S  S12  1  0.778716  0.743498  0.301302  1
  S  S13  1  0.743498  0.964782  0.698698  1
  S  S14  1  0.035218  0.778716  0.698698  1
  S  S15  1  0.221284  0.256502  0.698698  1
  S  S16  1  0.521619  0.897717  0.242173  1
  S  S17  1  0.102283  0.623901  0.242173  1
  S  S18  1  0.376099  0.478381  0.242173  1
  S  S19  1  0.478381  0.102283  0.757827  1
  S  S20  1  0.897717  0.376099  0.757827  1
  S  S21  1  0.623901  0.521619  0.757827  1
