# generated using pymatgen
data_Tb3Mg3Hg2Pb
_symmetry_space_group_name_H-M   'P 1'
_cell_length_a   7.67132400
_cell_length_b   7.67132446
_cell_length_c   4.47894100
_cell_angle_alpha   90.00000000
_cell_angle_beta   90.00000000
_cell_angle_gamma   119.99999800
_symmetry_Int_Tables_number   1
_chemical_formula_structural   Tb3Mg3Hg2Pb
_chemical_formula_sum   'Tb3 Mg3 Hg2 Pb1'
_cell_volume   228.26885459
_cell_formula_units_Z   1
loop_
 _symmetry_equiv_pos_site_id
 _symmetry_equiv_pos_as_xyz
  1  'x, y, z'
loop_
 _atom_site_type_symbol
 _atom_site_label
 _atom_site_symmetry_multiplicity
 _atom_site_fract_x
 _atom_site_fract_y
 _atom_site_fract_z
 _atom_site_occupancy
  Tb  Tb0  1  0.413163  0.989448  0.000000  1
  Tb  Tb1  1  0.010552  0.423715  0.000000  1
  Tb  Tb2  1  0.576285  0.586837  0.000000  1
  Mg  Mg3  1  0.751330  0.991096  0.500000  1
  Mg  Mg4  1  0.239766  0.248670  0.500000  1
  Mg  Mg5  1  0.008904  0.760234  0.500000  1
  Hg  Hg6  1  0.000000  0.000000  0.000000  1
  Hg  Hg7  1  0.333334  0.666667  0.500000  1
  Pb  Pb8  1  0.666666  0.333333  0.500000  1
