# generated using pymatgen
data_LaY3(MoN3)4
_symmetry_space_group_name_H-M   'P 1'
_cell_length_a   7.30623262
_cell_length_b   7.30623179
_cell_length_c   6.24965700
_cell_angle_alpha   74.35853317
_cell_angle_beta   74.35853498
_cell_angle_gamma   82.30320187
_symmetry_Int_Tables_number   1
_chemical_formula_structural   LaY3(MoN3)4
_chemical_formula_sum   'La1 Y3 Mo4 N12'
_cell_volume   308.68640379
_cell_formula_units_Z   1
loop_
 _symmetry_equiv_pos_site_id
 _symmetry_equiv_pos_as_xyz
  1  'x, y, z'
loop_
 _atom_site_type_symbol
 _atom_site_label
 _atom_site_symmetry_multiplicity
 _atom_site_fract_x
 _atom_site_fract_y
 _atom_site_fract_z
 _atom_site_occupancy
  La  La0  1  0.304989  0.695011  0.750000  1
  Y  Y1  1  0.908545  0.091455  0.750000  1
  Y  Y2  1  0.698631  0.301369  0.250000  1
  Y  Y3  1  0.082124  0.917876  0.250000  1
  Mo  Mo4  1  0.802775  0.619022  0.756847  1
  Mo  Mo5  1  0.199171  0.378134  0.248668  1
  Mo  Mo6  1  0.621866  0.800829  0.251332  1
  Mo  Mo7  1  0.380978  0.197225  0.743153  1
  N  N8  1  0.211410  0.006380  0.851128  1
  N  N9  1  0.357839  0.363386  0.459960  1
  N  N10  1  0.655130  0.638097  0.532480  1
  N  N11  1  0.619845  0.102067  0.657626  1
  N  N12  1  0.993620  0.788590  0.648872  1
  N  N13  1  0.778315  0.004553  0.148997  1
  N  N14  1  0.112383  0.619522  0.167017  1
  N  N15  1  0.897933  0.380155  0.842374  1
  N  N16  1  0.995447  0.221685  0.351003  1
  N  N17  1  0.361903  0.344870  0.967520  1
  N  N18  1  0.636614  0.642161  0.040040  1
  N  N19  1  0.380478  0.887617  0.332983  1
