# generated using pymatgen
data_Sm2DyCo8TcP6
_symmetry_space_group_name_H-M   'P 1'
_cell_length_a   3.73195000
_cell_length_b   10.57294000
_cell_length_c   12.30091200
_cell_angle_alpha   90.00000000
_cell_angle_beta   90.00000000
_cell_angle_gamma   90.00000000
_symmetry_Int_Tables_number   1
_chemical_formula_structural   Sm2DyCo8TcP6
_chemical_formula_sum   'Sm4 Dy2 Co16 Tc2 P12'
_cell_volume   485.36549163
_cell_formula_units_Z   2
loop_
 _symmetry_equiv_pos_site_id
 _symmetry_equiv_pos_as_xyz
  1  'x, y, z'
loop_
 _atom_site_type_symbol
 _atom_site_label
 _atom_site_symmetry_multiplicity
 _atom_site_fract_x
 _atom_site_fract_y
 _atom_site_fract_z
 _atom_site_occupancy
  Sm  Sm0  1  0.000000  0.500000  0.523039  1
  Sm  Sm1  1  0.500000  0.000000  0.475843  1
  Sm  Sm2  1  0.000000  0.682600  0.794437  1
  Sm  Sm3  1  0.000000  0.317400  0.794437  1
  Dy  Dy4  1  0.500000  0.817723  0.205475  1
  Dy  Dy5  1  0.500000  0.182277  0.205475  1
  Co  Co6  1  0.500000  0.500000  0.703842  1
  Co  Co7  1  0.000000  0.000000  0.295141  1
  Co  Co8  1  0.000000  0.500000  0.988936  1
  Co  Co9  1  0.500000  0.000000  0.014073  1
  Co  Co10  1  0.500000  0.331431  0.992115  1
  Co  Co11  1  0.500000  0.668569  0.992115  1
  Co  Co12  1  0.000000  0.167270  0.010882  1
  Co  Co13  1  0.000000  0.832730  0.010882  1
  Co  Co14  1  0.500000  0.296112  0.429102  1
  Co  Co15  1  0.500000  0.703888  0.429102  1
  Co  Co16  1  0.000000  0.203276  0.568258  1
  Co  Co17  1  0.000000  0.796724  0.568258  1
  Co  Co18  1  0.500000  0.880426  0.708576  1
  Co  Co19  1  0.500000  0.119574  0.708576  1
  Co  Co20  1  0.000000  0.620632  0.290341  1
  Co  Co21  1  0.000000  0.379368  0.290341  1
  Tc  Tc22  1  0.500000  0.500000  0.155699  1
  Tc  Tc23  1  0.000000  0.000000  0.844891  1
  P  P24  1  0.500000  0.500000  0.884561  1
  P  P25  1  0.000000  0.000000  0.118573  1
  P  P26  1  0.500000  0.500000  0.345807  1
  P  P27  1  0.000000  0.000000  0.653758  1
  P  P28  1  0.500000  0.308742  0.614356  1
  P  P29  1  0.500000  0.691258  0.614356  1
  P  P30  1  0.000000  0.190139  0.382490  1
  P  P31  1  0.000000  0.809861  0.382490  1
  P  P32  1  0.500000  0.847703  0.894755  1
  P  P33  1  0.500000  0.152297  0.894755  1
  P  P34  1  0.000000  0.654319  0.107131  1
  P  P35  1  0.000000  0.345681  0.107131  1
