# generated using pymatgen
data_YHo7Re2(TcB12)2
_symmetry_space_group_name_H-M   'P 1'
_cell_length_a   3.67343500
_cell_length_b   9.14974146
_cell_length_c   11.52956401
_cell_angle_alpha   90.05457587
_cell_angle_beta   90.00000000
_cell_angle_gamma   90.00000000
_symmetry_Int_Tables_number   1
_chemical_formula_structural   YHo7Re2(TcB12)2
_chemical_formula_sum   'Y1 Ho7 Re2 Tc2 B24'
_cell_volume   387.51977552
_cell_formula_units_Z   1
loop_
 _symmetry_equiv_pos_site_id
 _symmetry_equiv_pos_as_xyz
  1  'x, y, z'
loop_
 _atom_site_type_symbol
 _atom_site_label
 _atom_site_symmetry_multiplicity
 _atom_site_fract_x
 _atom_site_fract_y
 _atom_site_fract_z
 _atom_site_occupancy
  Y  Y0  1  0.000000  0.323875  0.414086  1
  Ho  Ho1  1  0.000000  0.676040  0.585964  1
  Ho  Ho2  1  0.000000  0.823586  0.085967  1
  Ho  Ho3  1  0.000000  0.176404  0.914025  1
  Ho  Ho4  1  0.000000  0.942142  0.369875  1
  Ho  Ho5  1  0.000000  0.057685  0.630187  1
  Ho  Ho6  1  0.000000  0.443799  0.130430  1
  Ho  Ho7  1  0.000000  0.556254  0.869504  1
  Re  Re8  1  0.000000  0.138650  0.179132  1
  Re  Re9  1  0.000000  0.861215  0.820744  1
  Tc  Tc10  1  0.000000  0.639115  0.320623  1
  Tc  Tc11  1  0.000000  0.361166  0.679495  1
  B  B12  1  0.500000  0.553741  0.432995  1
  B  B13  1  0.500000  0.446740  0.567239  1
  B  B14  1  0.500000  0.053297  0.066837  1
  B  B15  1  0.500000  0.946680  0.933135  1
  B  B16  1  0.500000  0.749012  0.418767  1
  B  B17  1  0.500000  0.250954  0.581586  1
  B  B18  1  0.500000  0.249422  0.081125  1
  B  B19  1  0.500000  0.750585  0.918821  1
  B  B20  1  0.500000  0.792107  0.265389  1
  B  B21  1  0.500000  0.207888  0.734644  1
  B  B22  1  0.500000  0.292336  0.234417  1
  B  B23  1  0.500000  0.707576  0.765316  1
  B  B24  1  0.500000  0.631212  0.185591  1
  B  B25  1  0.500000  0.368830  0.814387  1
  B  B26  1  0.500000  0.130603  0.314431  1
  B  B27  1  0.500000  0.869112  0.685373  1
  B  B28  1  0.500000  0.982031  0.211816  1
  B  B29  1  0.500000  0.017905  0.788172  1
  B  B30  1  0.500000  0.482791  0.288043  1
  B  B31  1  0.500000  0.517574  0.711809  1
  B  B32  1  0.500000  0.600366  0.027948  1
  B  B33  1  0.500000  0.399645  0.972033  1
  B  B34  1  0.500000  0.099817  0.471967  1
  B  B35  1  0.500000  0.899844  0.528125  1
