# generated using pymatgen
data_Y5Er3Cd2RuPt
_symmetry_space_group_name_H-M   'P 1'
_cell_length_a   9.62483245
_cell_length_b   9.64452109
_cell_length_c   9.69560911
_cell_angle_alpha   59.69008793
_cell_angle_beta   59.89116849
_cell_angle_gamma   59.73116611
_symmetry_Int_Tables_number   1
_chemical_formula_structural   Y5Er3Cd2RuPt
_chemical_formula_sum   'Y10 Er6 Cd4 Ru2 Pt2'
_cell_volume   633.08941121
_cell_formula_units_Z   2
loop_
 _symmetry_equiv_pos_site_id
 _symmetry_equiv_pos_as_xyz
  1  'x, y, z'
loop_
 _atom_site_type_symbol
 _atom_site_label
 _atom_site_symmetry_multiplicity
 _atom_site_fract_x
 _atom_site_fract_y
 _atom_site_fract_z
 _atom_site_occupancy
  Y  Y0  1  0.187476  0.815327  0.190421  1
  Y  Y1  1  0.815327  0.187476  0.806778  1
  Y  Y2  1  0.187845  0.187845  0.812155  1
  Y  Y3  1  0.808474  0.808474  0.191526  1
  Y  Y4  1  0.937398  0.559660  0.565928  1
  Y  Y5  1  0.559660  0.937398  0.937014  1
  Y  Y6  1  0.558590  0.937920  0.565719  1
  Y  Y7  1  0.937920  0.558590  0.937771  1
  Y  Y8  1  0.562662  0.562662  0.937338  1
  Y  Y9  1  0.938678  0.938678  0.561322  1
  Er  Er10  1  0.348837  0.349071  0.351153  1
  Er  Er11  1  0.349071  0.348837  0.950939  1
  Er  Er12  1  0.345621  0.956772  0.348788  1
  Er  Er13  1  0.956772  0.345621  0.348819  1
  Er  Er14  1  0.814949  0.188102  0.190237  1
  Er  Er15  1  0.188102  0.814949  0.806714  1
  Cd  Cd16  1  0.579566  0.579269  0.581310  1
  Cd  Cd17  1  0.579269  0.579566  0.259856  1
  Cd  Cd18  1  0.580292  0.256045  0.581950  1
  Cd  Cd19  1  0.256045  0.580292  0.581714  1
  Ru  Ru20  1  0.142586  0.146254  0.140075  1
  Ru  Ru21  1  0.146254  0.142586  0.571086  1
  Pt  Pt22  1  0.146425  0.572185  0.139097  1
  Pt  Pt23  1  0.572185  0.146425  0.142293  1
