# generated using pymatgen
data_Gd4TiPt2WO14
_symmetry_space_group_name_H-M   'P 1'
_cell_length_a   7.45289445
_cell_length_b   7.36738691
_cell_length_c   7.36738687
_cell_angle_alpha   59.01415387
_cell_angle_beta   59.40472864
_cell_angle_gamma   59.40472745
_symmetry_Int_Tables_number   1
_chemical_formula_structural   Gd4TiPt2WO14
_chemical_formula_sum   'Gd4 Ti1 Pt2 W1 O14'
_cell_volume   281.31191952
_cell_formula_units_Z   1
loop_
 _symmetry_equiv_pos_site_id
 _symmetry_equiv_pos_as_xyz
  1  'x, y, z'
loop_
 _atom_site_type_symbol
 _atom_site_label
 _atom_site_symmetry_multiplicity
 _atom_site_fract_x
 _atom_site_fract_y
 _atom_site_fract_z
 _atom_site_occupancy
  Gd  Gd0  1  0.625000  0.625000  0.125000  1
  Gd  Gd1  1  0.625000  0.125000  0.625000  1
  Gd  Gd2  1  0.125000  0.625000  0.625000  1
  Gd  Gd3  1  0.625000  0.625000  0.625000  1
  Ti  Ti4  1  0.125000  0.125000  0.125000  1
  Pt  Pt5  1  0.125000  0.125000  0.625000  1
  Pt  Pt6  1  0.125000  0.625000  0.125000  1
  W  W7  1  0.625000  0.125000  0.125000  1
  O  O8  1  0.748073  0.750115  0.750115  1
  O  O9  1  0.501927  0.499885  0.499885  1
  O  O10  1  0.035211  0.455229  0.044315  1
  O  O11  1  0.785449  0.208715  0.791921  1
  O  O12  1  0.035211  0.044315  0.455229  1
  O  O13  1  0.453133  0.049778  0.049778  1
  O  O14  1  0.031050  0.468518  0.468518  1
  O  O15  1  0.464551  0.458079  0.041285  1
  O  O16  1  0.464551  0.041285  0.458079  1
  O  O17  1  0.218950  0.781482  0.781482  1
  O  O18  1  0.796867  0.200222  0.200222  1
  O  O19  1  0.214789  0.794771  0.205685  1
  O  O20  1  0.785449  0.791921  0.208715  1
  O  O21  1  0.214789  0.205685  0.794771  1
