# generated using pymatgen
data_Y9Th3Ru4
_symmetry_space_group_name_H-M   'P 1'
_cell_length_a   6.39088768
_cell_length_b   7.25162340
_cell_length_c   9.57209300
_cell_angle_alpha   90.00000000
_cell_angle_beta   90.00000000
_cell_angle_gamma   89.33534953
_symmetry_Int_Tables_number   1
_chemical_formula_structural   Y9Th3Ru4
_chemical_formula_sum   'Y9 Th3 Ru4'
_cell_volume   443.58220347
_cell_formula_units_Z   1
loop_
 _symmetry_equiv_pos_site_id
 _symmetry_equiv_pos_as_xyz
  1  'x, y, z'
loop_
 _atom_site_type_symbol
 _atom_site_label
 _atom_site_symmetry_multiplicity
 _atom_site_fract_x
 _atom_site_fract_y
 _atom_site_fract_z
 _atom_site_occupancy
  Y  Y0  1  0.860783  0.538046  0.250000  1
  Y  Y1  1  0.170213  0.175480  0.066862  1
  Y  Y2  1  0.832524  0.823784  0.935743  1
  Y  Y3  1  0.666543  0.324662  0.934720  1
  Y  Y4  1  0.832524  0.823784  0.564257  1
  Y  Y5  1  0.328751  0.675762  0.068912  1
  Y  Y6  1  0.170213  0.175480  0.433138  1
  Y  Y7  1  0.328751  0.675762  0.431088  1
  Y  Y8  1  0.666543  0.324662  0.565280  1
  Th  Th9  1  0.653476  0.050131  0.250000  1
  Th  Th10  1  0.346868  0.950102  0.750000  1
  Th  Th11  1  0.149738  0.452263  0.750000  1
  Ru  Ru12  1  0.465884  0.366247  0.250000  1
  Ru  Ru13  1  0.526560  0.628883  0.750000  1
  Ru  Ru14  1  0.973600  0.130662  0.750000  1
  Ru  Ru15  1  0.027030  0.884288  0.250000  1
