# generated using pymatgen
data_Pr2Zn19Ag3
_symmetry_space_group_name_H-M   'P 1'
_cell_length_a   8.34898370
_cell_length_b   8.37364972
_cell_length_c   8.36483755
_cell_angle_alpha   100.09046950
_cell_angle_beta   99.83138636
_cell_angle_gamma   130.91194712
_symmetry_Int_Tables_number   1
_chemical_formula_structural   Pr2Zn19Ag3
_chemical_formula_sum   'Pr2 Zn19 Ag3'
_cell_volume   401.80055875
_cell_formula_units_Z   1
loop_
 _symmetry_equiv_pos_site_id
 _symmetry_equiv_pos_as_xyz
  1  'x, y, z'
loop_
 _atom_site_type_symbol
 _atom_site_label
 _atom_site_symmetry_multiplicity
 _atom_site_fract_x
 _atom_site_fract_y
 _atom_site_fract_z
 _atom_site_occupancy
  Pr  Pr0  1  0.750961  0.251558  0.501618  1
  Pr  Pr1  1  0.000735  0.999498  0.000174  1
  Zn  Zn2  1  0.374249  0.622360  0.250995  1
  Zn  Zn3  1  0.374746  0.125114  0.749579  1
  Zn  Zn4  1  0.372026  0.621635  0.746369  1
  Zn  Zn5  1  0.874399  0.625028  0.250079  1
  Zn  Zn6  1  0.819096  0.491364  0.914578  1
  Zn  Zn7  1  0.934516  0.351381  0.172425  1
  Zn  Zn8  1  0.173489  0.758296  0.827441  1
  Zn  Zn9  1  0.097755  0.425307  0.915334  1
  Zn  Zn10  1  0.508068  0.182056  0.084306  1
  Zn  Zn11  1  0.930983  0.758747  0.585078  1
  Zn  Zn12  1  0.820573  0.902737  0.330844  1
  Zn  Zn13  1  0.577351  0.492055  0.672553  1
  Zn  Zn14  1  0.654373  0.826497  0.585537  1
  Zn  Zn15  1  0.241979  0.070111  0.415694  1
  Zn  Zn16  1  0.095416  0.180366  0.671601  1
  Zn  Zn17  1  0.508265  0.422967  0.327981  1
  Zn  Zn18  1  0.655015  0.071021  0.825676  1
  Zn  Zn19  1  0.238025  0.825541  0.173225  1
  Zn  Zn20  1  0.172004  0.344132  0.413835  1
  Ag  Ag21  1  0.250039  0.750684  0.500534  1
  Ag  Ag22  1  0.498381  0.495299  0.998482  1
  Ag  Ag23  1  0.577550  0.906241  0.086058  1
