# generated using pymatgen
data_Th6Sc4OsRu5
_symmetry_space_group_name_H-M   'P 1'
_cell_length_a   6.03989900
_cell_length_b   8.27789350
_cell_length_c   8.27789319
_cell_angle_alpha   119.97566241
_cell_angle_beta   90.00000000
_cell_angle_gamma   90.00000000
_symmetry_Int_Tables_number   1
_chemical_formula_structural   Th6Sc4OsRu5
_chemical_formula_sum   'Th6 Sc4 Os1 Ru5'
_cell_volume   358.51424433
_cell_formula_units_Z   1
loop_
 _symmetry_equiv_pos_site_id
 _symmetry_equiv_pos_as_xyz
  1  'x, y, z'
loop_
 _atom_site_type_symbol
 _atom_site_label
 _atom_site_symmetry_multiplicity
 _atom_site_fract_x
 _atom_site_fract_y
 _atom_site_fract_z
 _atom_site_occupancy
  Th  Th0  1  0.750000  0.740731  0.740731  1
  Th  Th1  1  0.250000  0.259536  0.259536  1
  Th  Th2  1  0.750000  0.998859  0.259223  1
  Th  Th3  1  0.250000  0.000029  0.740240  1
  Th  Th4  1  0.750000  0.259223  0.998859  1
  Th  Th5  1  0.250000  0.740240  0.000029  1
  Sc  Sc6  1  0.999235  0.665922  0.333491  1
  Sc  Sc7  1  0.999235  0.333491  0.665922  1
  Sc  Sc8  1  0.500765  0.333491  0.665922  1
  Sc  Sc9  1  0.500765  0.665922  0.333491  1
  Os  Os10  1  0.750000  0.389415  0.389415  1
  Ru  Ru11  1  0.250000  0.613174  0.613174  1
  Ru  Ru12  1  0.750000  0.999999  0.613343  1
  Ru  Ru13  1  0.250000  0.999650  0.386976  1
  Ru  Ru14  1  0.750000  0.613343  0.999999  1
  Ru  Ru15  1  0.250000  0.386976  0.999650  1
