# generated using pymatgen
data_Tl2AsF5
_symmetry_space_group_name_H-M   'P 1'
_cell_length_a   6.19969981
_cell_length_b   7.50606344
_cell_length_c   4.66888100
_cell_angle_alpha   126.66764428
_cell_angle_beta   89.91505948
_cell_angle_gamma   115.06146648
_symmetry_Int_Tables_number   1
_chemical_formula_structural   Tl2AsF5
_chemical_formula_sum   'Tl2 As1 F5'
_cell_volume   148.10989103
_cell_formula_units_Z   1
loop_
 _symmetry_equiv_pos_site_id
 _symmetry_equiv_pos_as_xyz
  1  'x, y, z'
loop_
 _atom_site_type_symbol
 _atom_site_label
 _atom_site_symmetry_multiplicity
 _atom_site_fract_x
 _atom_site_fract_y
 _atom_site_fract_z
 _atom_site_occupancy
  Tl  Tl0  1  0.057772  0.273322  0.545338  1
  Tl  Tl1  1  0.747106  0.649643  0.307317  1
  As  As2  1  0.398826  0.954537  0.951222  1
  F  F3  1  0.728191  0.161797  0.947490  1
  F  F4  1  0.508962  0.704767  0.838616  1
  F  F5  1  0.295743  0.753105  0.441286  1
  F  F6  1  0.277705  0.160787  0.949345  1
  F  F7  1  0.034608  0.701520  0.836729  1
