# generated using pymatgen
data_Li2Tl2SiSe4
_symmetry_space_group_name_H-M   'P 1'
_cell_length_a   12.78552739
_cell_length_b   12.78552722
_cell_length_c   6.13327700
_cell_angle_alpha   83.14316907
_cell_angle_beta   83.14317367
_cell_angle_gamma   144.39587152
_symmetry_Int_Tables_number   1
_chemical_formula_structural   Li2Tl2SiSe4
_chemical_formula_sum   'Li4 Tl4 Si2 Se8'
_cell_volume   537.35311058
_cell_formula_units_Z   2
loop_
 _symmetry_equiv_pos_site_id
 _symmetry_equiv_pos_as_xyz
  1  'x, y, z'
loop_
 _atom_site_type_symbol
 _atom_site_label
 _atom_site_symmetry_multiplicity
 _atom_site_fract_x
 _atom_site_fract_y
 _atom_site_fract_z
 _atom_site_occupancy
  Li  Li0  1  0.632742  0.367258  0.250000  1
  Li  Li1  1  0.505115  0.494885  0.250000  1
  Li  Li2  1  0.494885  0.505115  0.750000  1
  Li  Li3  1  0.367258  0.632742  0.750000  1
  Tl  Tl4  1  0.787564  0.212436  0.750000  1
  Tl  Tl5  1  0.083496  0.916504  0.750000  1
  Tl  Tl6  1  0.212436  0.787564  0.250000  1
  Tl  Tl7  1  0.916504  0.083496  0.250000  1
  Si  Si8  1  0.377041  0.622959  0.250000  1
  Si  Si9  1  0.622959  0.377041  0.750000  1
  Se  Se10  1  0.517837  0.875510  0.348579  1
  Se  Se11  1  0.750200  0.613027  0.434821  1
  Se  Se12  1  0.249800  0.386973  0.565179  1
  Se  Se13  1  0.482163  0.124490  0.651421  1
  Se  Se14  1  0.386973  0.249800  0.065179  1
  Se  Se15  1  0.124490  0.482163  0.151421  1
  Se  Se16  1  0.875510  0.517837  0.848579  1
  Se  Se17  1  0.613027  0.750200  0.934821  1
