# generated using pymatgen
data_La12Y2Pd5Rh
_symmetry_space_group_name_H-M   'P 1'
_cell_length_a   10.31842430
_cell_length_b   10.32216258
_cell_length_c   6.52974664
_cell_angle_alpha   90.15456181
_cell_angle_beta   89.85159900
_cell_angle_gamma   120.19981737
_symmetry_Int_Tables_number   1
_chemical_formula_structural   La12Y2Pd5Rh
_chemical_formula_sum   'La12 Y2 Pd5 Rh1'
_cell_volume   601.07829082
_cell_formula_units_Z   1
loop_
 _symmetry_equiv_pos_site_id
 _symmetry_equiv_pos_as_xyz
  1  'x, y, z'
loop_
 _atom_site_type_symbol
 _atom_site_label
 _atom_site_symmetry_multiplicity
 _atom_site_fract_x
 _atom_site_fract_y
 _atom_site_fract_z
 _atom_site_occupancy
  La  La0  1  0.127995  0.872007  0.246018  1
  La  La1  1  0.746053  0.878116  0.245259  1
  La  La2  1  0.121955  0.253967  0.245291  1
  La  La3  1  0.871474  0.128513  0.752428  1
  La  La4  1  0.255994  0.127678  0.746217  1
  La  La5  1  0.872284  0.743936  0.746301  1
  La  La6  1  0.539357  0.460653  0.444694  1
  La  La7  1  0.918149  0.454515  0.440883  1
  La  La8  1  0.545417  0.081824  0.440866  1
  La  La9  1  0.460295  0.539658  0.945368  1
  La  La10  1  0.078163  0.538222  0.944896  1
  La  La11  1  0.461795  0.921856  0.944869  1
  Y  Y12  1  0.333201  0.666806  0.452675  1
  Y  Y13  1  0.668226  0.331778  0.956983  1
  Pd  Pd14  1  0.378651  0.189782  0.188037  1
  Pd  Pd15  1  0.810257  0.621356  0.188055  1
  Pd  Pd16  1  0.189707  0.810362  0.688633  1
  Pd  Pd17  1  0.620382  0.809996  0.688465  1
  Pd  Pd18  1  0.190007  0.379598  0.688430  1
  Rh  Rh19  1  0.810638  0.189380  0.191421  1
