# generated using pymatgen
data_Tb10Nd6Cd4NiRu3
_symmetry_space_group_name_H-M   'P 1'
_cell_length_a   9.67492557
_cell_length_b   9.80002322
_cell_length_c   9.80002300
_cell_angle_alpha   59.99999738
_cell_angle_beta   59.57134365
_cell_angle_gamma   59.57134168
_symmetry_Int_Tables_number   1
_chemical_formula_structural   Tb10Nd6Cd4NiRu3
_chemical_formula_sum   'Tb10 Nd6 Cd4 Ni1 Ru3'
_cell_volume   652.74321681
_cell_formula_units_Z   1
loop_
 _symmetry_equiv_pos_site_id
 _symmetry_equiv_pos_as_xyz
  1  'x, y, z'
loop_
 _atom_site_type_symbol
 _atom_site_label
 _atom_site_symmetry_multiplicity
 _atom_site_fract_x
 _atom_site_fract_y
 _atom_site_fract_z
 _atom_site_occupancy
  Tb  Tb0  1  0.597204  0.594944  0.594944  1
  Tb  Tb1  1  0.597204  0.594944  0.212907  1
  Tb  Tb2  1  0.597204  0.212907  0.594944  1
  Tb  Tb3  1  0.216813  0.594396  0.594396  1
  Tb  Tb4  1  0.062200  0.437277  0.437277  1
  Tb  Tb5  1  0.436590  0.063126  0.063126  1
  Tb  Tb6  1  0.436590  0.063126  0.437156  1
  Tb  Tb7  1  0.062200  0.437277  0.063246  1
  Tb  Tb8  1  0.436590  0.437156  0.063126  1
  Tb  Tb9  1  0.062200  0.063246  0.437277  1
  Nd  Nd10  1  0.188327  0.810634  0.810634  1
  Nd  Nd11  1  0.807609  0.189274  0.189274  1
  Nd  Nd12  1  0.807609  0.189274  0.813843  1
  Nd  Nd13  1  0.188327  0.810634  0.190403  1
  Nd  Nd14  1  0.807609  0.813843  0.189274  1
  Nd  Nd15  1  0.188327  0.190403  0.810634  1
  Cd  Cd16  1  0.828864  0.829026  0.829026  1
  Cd  Cd17  1  0.828864  0.829026  0.513085  1
  Cd  Cd18  1  0.828864  0.513085  0.829026  1
  Cd  Cd19  1  0.511812  0.829396  0.829396  1
  Ni  Ni20  1  0.828477  0.390508  0.390508  1
  Ru  Ru21  1  0.393504  0.388127  0.388127  1
  Ru  Ru22  1  0.393504  0.388127  0.830242  1
  Ru  Ru23  1  0.393504  0.830242  0.388127  1
