# generated using pymatgen
data_TbSm3Ga18(PtRh2)2
_symmetry_space_group_name_H-M   'P 1'
_cell_length_a   7.64340839
_cell_length_b   7.64371040
_cell_length_c   9.53439600
_cell_angle_alpha   90.00000000
_cell_angle_beta   90.00000000
_cell_angle_gamma   119.85897952
_symmetry_Int_Tables_number   1
_chemical_formula_structural   TbSm3Ga18(PtRh2)2
_chemical_formula_sum   'Tb1 Sm3 Ga18 Pt2 Rh4'
_cell_volume   483.09272091
_cell_formula_units_Z   1
loop_
 _symmetry_equiv_pos_site_id
 _symmetry_equiv_pos_as_xyz
  1  'x, y, z'
loop_
 _atom_site_type_symbol
 _atom_site_label
 _atom_site_symmetry_multiplicity
 _atom_site_fract_x
 _atom_site_fract_y
 _atom_site_fract_z
 _atom_site_occupancy
  Tb  Tb0  1  0.329043  0.003494  0.750000  1
  Sm  Sm1  1  0.996506  0.671000  0.250000  1
  Sm  Sm2  1  0.003517  0.328985  0.750000  1
  Sm  Sm3  1  0.671010  0.996499  0.250000  1
  Ga  Ga4  1  0.133910  0.133901  0.250000  1
  Ga  Ga5  1  0.866440  0.866237  0.750000  1
  Ga  Ga6  1  0.999116  0.338538  0.079950  1
  Ga  Ga7  1  0.001264  0.661860  0.919827  1
  Ga  Ga8  1  0.001264  0.661860  0.580173  1
  Ga  Ga9  1  0.338516  0.999098  0.420308  1
  Ga  Ga10  1  0.999116  0.338538  0.420050  1
  Ga  Ga11  1  0.661080  0.000884  0.580179  1
  Ga  Ga12  1  0.661080  0.000884  0.919821  1
  Ga  Ga13  1  0.338516  0.999098  0.079692  1
  Ga  Ga14  1  0.337570  0.337243  0.566442  1
  Ga  Ga15  1  0.662415  0.662422  0.433800  1
  Ga  Ga16  1  0.662415  0.662422  0.066200  1
  Ga  Ga17  1  0.337570  0.337243  0.933558  1
  Ga  Ga18  1  0.336299  0.547523  0.250000  1
  Ga  Ga19  1  0.663400  0.452052  0.750000  1
  Ga  Ga20  1  0.547513  0.336294  0.250000  1
  Ga  Ga21  1  0.452337  0.663866  0.750000  1
  Pt  Pt22  1  0.000129  0.000023  0.999865  1
  Pt  Pt23  1  0.000129  0.000023  0.500135  1
  Rh  Rh24  1  0.670829  0.329013  0.999887  1
  Rh  Rh25  1  0.329093  0.670994  0.999889  1
  Rh  Rh26  1  0.329093  0.670994  0.500111  1
  Rh  Rh27  1  0.670829  0.329013  0.500113  1
