# generated using pymatgen
data_Dy4Ho12CdIn3Rh4
_symmetry_space_group_name_H-M   'P 1'
_cell_length_a   9.61828667
_cell_length_b   9.61970726
_cell_length_c   9.61383600
_cell_angle_alpha   60.02018771
_cell_angle_beta   60.01530581
_cell_angle_gamma   60.01502880
_symmetry_Int_Tables_number   1
_chemical_formula_structural   Dy4Ho12CdIn3Rh4
_chemical_formula_sum   'Dy4 Ho12 Cd1 In3 Rh4'
_cell_volume   629.22657472
_cell_formula_units_Z   1
loop_
 _symmetry_equiv_pos_site_id
 _symmetry_equiv_pos_as_xyz
  1  'x, y, z'
loop_
 _atom_site_type_symbol
 _atom_site_label
 _atom_site_symmetry_multiplicity
 _atom_site_fract_x
 _atom_site_fract_y
 _atom_site_fract_z
 _atom_site_occupancy
  Dy  Dy0  1  0.937676  0.936144  0.563090  1
  Dy  Dy1  1  0.565421  0.561323  0.936627  1
  Dy  Dy2  1  0.688689  0.690591  0.310361  1
  Dy  Dy3  1  0.150578  0.550325  0.149548  1
  Ho  Ho4  1  0.688109  0.311539  0.689000  1
  Ho  Ho5  1  0.151286  0.149450  0.150214  1
  Ho  Ho6  1  0.547801  0.150043  0.151077  1
  Ho  Ho7  1  0.688109  0.311539  0.311350  1
  Ho  Ho8  1  0.151286  0.149450  0.549048  1
  Ho  Ho9  1  0.309834  0.690136  0.310855  1
  Ho  Ho10  1  0.309834  0.690136  0.689176  1
  Ho  Ho11  1  0.937730  0.560643  0.564484  1
  Ho  Ho12  1  0.937730  0.560643  0.937142  1
  Ho  Ho13  1  0.562868  0.936324  0.563156  1
  Ho  Ho14  1  0.562868  0.936324  0.937652  1
  Ho  Ho15  1  0.310808  0.312370  0.688411  1
  Cd  Cd16  1  0.917889  0.246554  0.917779  1
  In  In17  1  0.916523  0.919314  0.247398  1
  In  In18  1  0.247593  0.919350  0.916529  1
  In  In19  1  0.916523  0.919314  0.916767  1
  Rh  Rh20  1  0.357889  0.356948  0.927214  1
  Rh  Rh21  1  0.357326  0.927776  0.357449  1
  Rh  Rh22  1  0.927742  0.356813  0.357722  1
  Rh  Rh23  1  0.357889  0.356948  0.357949  1
