# generated using pymatgen
data_TaGa3Si2Pb3O14
_symmetry_space_group_name_H-M   'P 1'
_cell_length_a   8.48698600
_cell_length_b   8.48693364
_cell_length_c   5.14080400
_cell_angle_alpha   89.99993420
_cell_angle_beta   89.99983478
_cell_angle_gamma   120.00004231
_symmetry_Int_Tables_number   1
_chemical_formula_structural   TaGa3Si2Pb3O14
_chemical_formula_sum   'Ta1 Ga3 Si2 Pb3 O14'
_cell_volume   320.67550323
_cell_formula_units_Z   1
loop_
 _symmetry_equiv_pos_site_id
 _symmetry_equiv_pos_as_xyz
  1  'x, y, z'
loop_
 _atom_site_type_symbol
 _atom_site_label
 _atom_site_symmetry_multiplicity
 _atom_site_fract_x
 _atom_site_fract_y
 _atom_site_fract_z
 _atom_site_occupancy
  Ta  Ta0  1  0.000001  0.000004  0.000000  1
  Ga  Ga1  1  0.742593  0.999997  0.500002  1
  Ga  Ga2  1  0.000000  0.742596  0.500001  1
  Ga  Ga3  1  0.257406  0.257404  0.499998  1
  Si  Si4  1  0.666672  0.333338  0.469200  1
  Si  Si5  1  0.333327  0.666665  0.530801  1
  Pb  Pb6  1  0.422777  0.999999  0.000002  1
  Pb  Pb7  1  0.000000  0.422794  0.999999  1
  Pb  Pb8  1  0.577224  0.577222  0.000002  1
  O  O9  1  0.333334  0.666667  0.216045  1
  O  O10  1  0.122285  0.902845  0.230025  1
  O  O11  1  0.097156  0.219445  0.230028  1
  O  O12  1  0.780562  0.877714  0.230029  1
  O  O13  1  0.475297  0.305918  0.337260  1
  O  O14  1  0.694076  0.169374  0.337260  1
  O  O15  1  0.830615  0.524691  0.337265  1
  O  O16  1  0.169386  0.694078  0.662736  1
  O  O17  1  0.305923  0.475298  0.662740  1
  O  O18  1  0.524703  0.830620  0.662739  1
  O  O19  1  0.219438  0.097152  0.769968  1
  O  O20  1  0.902843  0.122287  0.769972  1
  O  O21  1  0.877713  0.780558  0.769973  1
  O  O22  1  0.666665  0.333332  0.783957  1
