# generated using pymatgen
data_Dy4FeOs5Ru2
_symmetry_space_group_name_H-M   'P 1'
_cell_length_a   5.23957597
_cell_length_b   5.25522945
_cell_length_c   9.00265900
_cell_angle_alpha   90.00000000
_cell_angle_beta   90.00000000
_cell_angle_gamma   120.09888041
_symmetry_Int_Tables_number   1
_chemical_formula_structural   Dy4FeOs5Ru2
_chemical_formula_sum   'Dy4 Fe1 Os5 Ru2'
_cell_volume   214.46462579
_cell_formula_units_Z   1
loop_
 _symmetry_equiv_pos_site_id
 _symmetry_equiv_pos_as_xyz
  1  'x, y, z'
loop_
 _atom_site_type_symbol
 _atom_site_label
 _atom_site_symmetry_multiplicity
 _atom_site_fract_x
 _atom_site_fract_y
 _atom_site_fract_z
 _atom_site_occupancy
  Dy  Dy0  1  0.334916  0.667459  0.436644  1
  Dy  Dy1  1  0.665289  0.332644  0.567121  1
  Dy  Dy2  1  0.665289  0.332644  0.932879  1
  Dy  Dy3  1  0.334916  0.667459  0.063356  1
  Fe  Fe4  1  0.670246  0.835124  0.750000  1
  Os  Os5  1  0.828392  0.171030  0.250000  1
  Os  Os6  1  0.828392  0.657362  0.250000  1
  Os  Os7  1  0.335148  0.167573  0.250000  1
  Os  Os8  1  0.169662  0.824722  0.750000  1
  Os  Os9  1  0.169662  0.344941  0.750000  1
  Ru  Ru10  1  0.999043  0.999522  0.503014  1
  Ru  Ru11  1  0.999043  0.999522  0.996986  1
