# generated using pymatgen
data_Ti4GeC2O
_symmetry_space_group_name_H-M   'P 1'
_cell_length_a   3.05801300
_cell_length_b   3.05801280
_cell_length_c   23.25440700
_cell_angle_alpha   90.00000000
_cell_angle_beta   90.00000000
_cell_angle_gamma   119.99999135
_symmetry_Int_Tables_number   1
_chemical_formula_structural   Ti4GeC2O
_chemical_formula_sum   'Ti8 Ge2 C4 O2'
_cell_volume   188.32785715
_cell_formula_units_Z   2
loop_
 _symmetry_equiv_pos_site_id
 _symmetry_equiv_pos_as_xyz
  1  'x, y, z'
loop_
 _atom_site_type_symbol
 _atom_site_label
 _atom_site_symmetry_multiplicity
 _atom_site_fract_x
 _atom_site_fract_y
 _atom_site_fract_z
 _atom_site_occupancy
  Ti  Ti0  1  0.000000  0.000000  0.341767  1
  Ti  Ti1  1  0.000000  0.000000  0.658233  1
  Ti  Ti2  1  0.000000  0.000000  0.841767  1
  Ti  Ti3  1  0.000000  0.000000  0.158233  1
  Ti  Ti4  1  0.333333  0.666667  0.441212  1
  Ti  Ti5  1  0.666667  0.333333  0.558788  1
  Ti  Ti6  1  0.666667  0.333333  0.941212  1
  Ti  Ti7  1  0.333333  0.666667  0.058788  1
  Ge  Ge8  1  0.333333  0.666667  0.250000  1
  Ge  Ge9  1  0.666667  0.333333  0.750000  1
  C  C10  1  0.666667  0.333333  0.391737  1
  C  C11  1  0.333333  0.666667  0.608263  1
  C  C12  1  0.333333  0.666667  0.891737  1
  C  C13  1  0.666667  0.333333  0.108263  1
  O  O14  1  0.000000  0.000000  0.500000  1
  O  O15  1  0.000000  0.000000  0.000000  1
