# generated using pymatgen
data_Ta3AlOsN
_symmetry_space_group_name_H-M   'P 1'
_cell_length_a   7.02436000
_cell_length_b   7.02436000
_cell_length_c   7.02436000
_cell_angle_alpha   90.00000000
_cell_angle_beta   90.00000000
_cell_angle_gamma   90.00000000
_symmetry_Int_Tables_number   1
_chemical_formula_structural   Ta3AlOsN
_chemical_formula_sum   'Ta12 Al4 Os4 N4'
_cell_volume   346.59339606
_cell_formula_units_Z   4
loop_
 _symmetry_equiv_pos_site_id
 _symmetry_equiv_pos_as_xyz
  1  'x, y, z'
loop_
 _atom_site_type_symbol
 _atom_site_label
 _atom_site_symmetry_multiplicity
 _atom_site_fract_x
 _atom_site_fract_y
 _atom_site_fract_z
 _atom_site_occupancy
  Ta  Ta0  1  0.798965  0.957456  0.372143  1
  Ta  Ta1  1  0.701035  0.042544  0.872143  1
  Ta  Ta2  1  0.201035  0.457456  0.127857  1
  Ta  Ta3  1  0.298965  0.542544  0.627857  1
  Ta  Ta4  1  0.957456  0.372143  0.798965  1
  Ta  Ta5  1  0.042544  0.872143  0.701035  1
  Ta  Ta6  1  0.457456  0.127857  0.201035  1
  Ta  Ta7  1  0.542544  0.627857  0.298965  1
  Ta  Ta8  1  0.372143  0.798965  0.957456  1
  Ta  Ta9  1  0.872143  0.701035  0.042544  1
  Ta  Ta10  1  0.127857  0.201035  0.457456  1
  Ta  Ta11  1  0.627857  0.298965  0.542544  1
  Al  Al12  1  0.569461  0.430539  0.930539  1
  Al  Al13  1  0.430539  0.930539  0.569461  1
  Al  Al14  1  0.930539  0.569461  0.430539  1
  Al  Al15  1  0.069461  0.069461  0.069461  1
  Os  Os16  1  0.175824  0.824176  0.324176  1
  Os  Os17  1  0.324176  0.175824  0.824176  1
  Os  Os18  1  0.824176  0.324176  0.175824  1
  Os  Os19  1  0.675824  0.675824  0.675824  1
  N  N20  1  0.874933  0.125067  0.625067  1
  N  N21  1  0.625067  0.874933  0.125067  1
  N  N22  1  0.125067  0.625067  0.874933  1
  N  N23  1  0.374933  0.374933  0.374933  1
