# generated using pymatgen
data_Dy10TcBi4Ir
_symmetry_space_group_name_H-M   'P 1'
_cell_length_a   7.99549493
_cell_length_b   9.05476300
_cell_length_c   12.43177342
_cell_angle_alpha   90.00000000
_cell_angle_beta   90.05512165
_cell_angle_gamma   90.00000000
_symmetry_Int_Tables_number   1
_chemical_formula_structural   Dy10TcBi4Ir
_chemical_formula_sum   'Dy20 Tc2 Bi8 Ir2'
_cell_volume   900.02655902
_cell_formula_units_Z   2
loop_
 _symmetry_equiv_pos_site_id
 _symmetry_equiv_pos_as_xyz
  1  'x, y, z'
loop_
 _atom_site_type_symbol
 _atom_site_label
 _atom_site_symmetry_multiplicity
 _atom_site_fract_x
 _atom_site_fract_y
 _atom_site_fract_z
 _atom_site_occupancy
  Dy  Dy0  1  0.838572  0.750000  0.791077  1
  Dy  Dy1  1  0.161428  0.250000  0.208923  1
  Dy  Dy2  1  0.343583  0.250000  0.706754  1
  Dy  Dy3  1  0.656417  0.750000  0.293246  1
  Dy  Dy4  1  0.378735  0.750000  0.692344  1
  Dy  Dy5  1  0.621265  0.250000  0.307656  1
  Dy  Dy6  1  0.875936  0.250000  0.806488  1
  Dy  Dy7  1  0.124064  0.750000  0.193512  1
  Dy  Dy8  1  0.945679  0.750000  0.502890  1
  Dy  Dy9  1  0.054321  0.250000  0.497110  1
  Dy  Dy10  1  0.446286  0.250000  0.996653  1
  Dy  Dy11  1  0.553714  0.750000  0.003347  1
  Dy  Dy12  1  0.675392  0.040288  0.564439  1
  Dy  Dy13  1  0.324608  0.959712  0.435561  1
  Dy  Dy14  1  0.176093  0.957791  0.933618  1
  Dy  Dy15  1  0.324608  0.540288  0.435561  1
  Dy  Dy16  1  0.823907  0.042209  0.066382  1
  Dy  Dy17  1  0.675392  0.459712  0.564439  1
  Dy  Dy18  1  0.823907  0.457791  0.066382  1
  Dy  Dy19  1  0.176093  0.542209  0.933618  1
  Tc  Tc20  1  0.578604  0.750000  0.512330  1
  Tc  Tc21  1  0.421396  0.250000  0.487670  1
  Bi  Bi22  1  0.569429  0.492518  0.827890  1
  Bi  Bi23  1  0.430571  0.507482  0.172110  1
  Bi  Bi24  1  0.070761  0.507530  0.672542  1
  Bi  Bi25  1  0.430571  0.992518  0.172110  1
  Bi  Bi26  1  0.929239  0.492470  0.327458  1
  Bi  Bi27  1  0.569429  0.007482  0.827890  1
  Bi  Bi28  1  0.929239  0.007530  0.327458  1
  Bi  Bi29  1  0.070761  0.992470  0.672542  1
  Ir  Ir30  1  0.070737  0.250000  0.991397  1
  Ir  Ir31  1  0.929263  0.750000  0.008603  1
