# generated using pymatgen
data_Zr2UMn2
_symmetry_space_group_name_H-M   'P 1'
_cell_length_a   5.45165037
_cell_length_b   5.45165147
_cell_length_c   5.45165011
_cell_angle_alpha   137.27399358
_cell_angle_beta   122.97691343
_cell_angle_gamma   73.80496605
_symmetry_Int_Tables_number   1
_chemical_formula_structural   Zr2UMn2
_chemical_formula_sum   'Zr2 U1 Mn2'
_cell_volume   90.11615738
_cell_formula_units_Z   1
loop_
 _symmetry_equiv_pos_site_id
 _symmetry_equiv_pos_as_xyz
  1  'x, y, z'
loop_
 _atom_site_type_symbol
 _atom_site_label
 _atom_site_symmetry_multiplicity
 _atom_site_fract_x
 _atom_site_fract_y
 _atom_site_fract_z
 _atom_site_occupancy
  Zr  Zr0  1  0.697440  0.197440  0.500000  1
  Zr  Zr1  1  0.302561  0.802561  0.500001  1
  U  U2  1  0.000000  0.000000  0.000000  1
  Mn  Mn3  1  0.752403  0.500000  0.252403  1
  Mn  Mn4  1  0.247597  0.500001  0.747598  1
