# generated using pymatgen
data_CeHoNi10
_symmetry_space_group_name_H-M   'P 1'
_cell_length_a   3.96102100
_cell_length_b   4.87890600
_cell_length_c   8.42192600
_cell_angle_alpha   90.00000000
_cell_angle_beta   90.00000000
_cell_angle_gamma   90.00000000
_symmetry_Int_Tables_number   1
_chemical_formula_structural   CeHoNi10
_chemical_formula_sum   'Ce1 Ho1 Ni10'
_cell_volume   162.75750243
_cell_formula_units_Z   1
loop_
 _symmetry_equiv_pos_site_id
 _symmetry_equiv_pos_as_xyz
  1  'x, y, z'
loop_
 _atom_site_type_symbol
 _atom_site_label
 _atom_site_symmetry_multiplicity
 _atom_site_fract_x
 _atom_site_fract_y
 _atom_site_fract_z
 _atom_site_occupancy
  Ce  Ce0  1  0.000000  0.500000  0.000000  1
  Ho  Ho1  1  0.000000  0.000000  0.500000  1
  Ni  Ni2  1  0.000000  0.500000  0.330930  1
  Ni  Ni3  1  0.000000  0.000000  0.834752  1
  Ni  Ni4  1  0.000000  0.000000  0.165248  1
  Ni  Ni5  1  0.000000  0.500000  0.669070  1
  Ni  Ni6  1  0.500000  0.500000  0.500000  1
  Ni  Ni7  1  0.500000  0.000000  0.000000  1
  Ni  Ni8  1  0.500000  0.752467  0.252276  1
  Ni  Ni9  1  0.500000  0.247533  0.747724  1
  Ni  Ni10  1  0.500000  0.247533  0.252276  1
  Ni  Ni11  1  0.500000  0.752467  0.747724  1
