# generated using pymatgen
data_Yb4Y3Ho3Ru4
_symmetry_space_group_name_H-M   'P 1'
_cell_length_a   6.42182850
_cell_length_b   7.24446623
_cell_length_c   8.52274400
_cell_angle_alpha   97.00915293
_cell_angle_beta   112.19376796
_cell_angle_gamma   90.06402766
_symmetry_Int_Tables_number   1
_chemical_formula_structural   Yb4Y3Ho3Ru4
_chemical_formula_sum   'Yb4 Y3 Ho3 Ru4'
_cell_volume   363.90030039
_cell_formula_units_Z   1
loop_
 _symmetry_equiv_pos_site_id
 _symmetry_equiv_pos_as_xyz
  1  'x, y, z'
loop_
 _atom_site_type_symbol
 _atom_site_label
 _atom_site_symmetry_multiplicity
 _atom_site_fract_x
 _atom_site_fract_y
 _atom_site_fract_z
 _atom_site_occupancy
  Yb  Yb0  1  0.978981  0.919157  0.182422  1
  Yb  Yb1  1  0.796487  0.580919  0.817301  1
  Yb  Yb2  1  0.020237  0.081264  0.817246  1
  Yb  Yb3  1  0.203513  0.418653  0.182472  1
  Y  Y4  1  0.636229  0.815340  0.434102  1
  Y  Y5  1  0.201306  0.684232  0.565700  1
  Y  Y6  1  0.364488  0.184902  0.566197  1
  Ho  Ho7  1  0.797440  0.316822  0.432998  1
  Ho  Ho8  1  0.431674  0.750114  0.999729  1
  Ho  Ho9  1  0.568263  0.249722  0.000334  1
  Ru  Ru10  1  0.816336  0.572321  0.228405  1
  Ru  Ru11  1  0.589352  0.926162  0.773203  1
  Ru  Ru12  1  0.181593  0.425774  0.771387  1
  Ru  Ru13  1  0.414102  0.074616  0.228503  1
