# generated using pymatgen
data_EuSe23
_symmetry_space_group_name_H-M   'P 1'
_cell_length_a   5.67537911
_cell_length_b   10.03156375
_cell_length_c   16.67277300
_cell_angle_alpha   89.20851961
_cell_angle_beta   78.78273632
_cell_angle_gamma   98.86073831
_symmetry_Int_Tables_number   1
_chemical_formula_structural   EuSe23
_chemical_formula_sum   'Eu1 Se23'
_cell_volume   919.04523214
_cell_formula_units_Z   1
loop_
 _symmetry_equiv_pos_site_id
 _symmetry_equiv_pos_as_xyz
  1  'x, y, z'
loop_
 _atom_site_type_symbol
 _atom_site_label
 _atom_site_symmetry_multiplicity
 _atom_site_fract_x
 _atom_site_fract_y
 _atom_site_fract_z
 _atom_site_occupancy
  Eu  Eu0  1  0.412545  0.404775  0.468840  1
  Se  Se1  1  0.511249  0.793971  0.370183  1
  Se  Se2  1  0.053076  0.316443  0.119214  1
  Se  Se3  1  0.856597  0.286108  0.480558  1
  Se  Se4  1  0.251563  0.709475  0.496029  1
  Se  Se5  1  0.249864  0.282466  0.984133  1
  Se  Se6  1  0.772242  0.689729  0.019418  1
  Se  Se7  1  0.116383  0.412639  0.336738  1
  Se  Se8  1  0.762849  0.621752  0.345706  1
  Se  Se9  1  0.803246  0.109409  0.169021  1
  Se  Se10  1  0.269924  0.875050  0.119936  1
  Se  Se11  1  0.705176  0.647861  0.624591  1
  Se  Se12  1  0.256353  0.334639  0.654194  1
  Se  Se13  1  0.220836  0.875850  0.840662  1
  Se  Se14  1  0.749753  0.106964  0.881583  1
  Se  Se15  1  0.035942  0.661559  0.109358  1
  Se  Se16  1  0.445290  0.802028  0.602639  1
  Se  Se17  1  0.500840  0.176529  0.589602  1
  Se  Se18  1  0.988740  0.662003  0.886079  1
  Se  Se19  1  0.990915  0.318571  0.893730  1
  Se  Se20  1  0.535649  0.446024  0.273806  1
  Se  Se21  1  0.048732  0.983352  0.228294  1
  Se  Se22  1  0.486186  0.487656  0.728940  1
  Se  Se23  1  0.976048  0.995143  0.776745  1
