# generated using pymatgen
data_TbCrFe(PRh)3
_symmetry_space_group_name_H-M   'P 1'
_cell_length_a   3.80589300
_cell_length_b   10.66633200
_cell_length_c   12.43784700
_cell_angle_alpha   90.00000000
_cell_angle_beta   90.00000000
_cell_angle_gamma   90.00000000
_symmetry_Int_Tables_number   1
_chemical_formula_structural   TbCrFe(PRh)3
_chemical_formula_sum   'Tb4 Cr4 Fe4 P12 Rh12'
_cell_volume   504.91338272
_cell_formula_units_Z   4
loop_
 _symmetry_equiv_pos_site_id
 _symmetry_equiv_pos_as_xyz
  1  'x, y, z'
loop_
 _atom_site_type_symbol
 _atom_site_label
 _atom_site_symmetry_multiplicity
 _atom_site_fract_x
 _atom_site_fract_y
 _atom_site_fract_z
 _atom_site_occupancy
  Tb  Tb0  1  0.250000  0.581350  0.709409  1
  Tb  Tb1  1  0.250000  0.918650  0.209409  1
  Tb  Tb2  1  0.750000  0.418650  0.290591  1
  Tb  Tb3  1  0.750000  0.081350  0.790591  1
  Cr  Cr4  1  0.250000  0.703124  0.988501  1
  Cr  Cr5  1  0.250000  0.796876  0.488501  1
  Cr  Cr6  1  0.750000  0.296876  0.011499  1
  Cr  Cr7  1  0.750000  0.203124  0.511499  1
  Fe  Fe8  1  0.250000  0.463554  0.936301  1
  Fe  Fe9  1  0.250000  0.036446  0.436301  1
  Fe  Fe10  1  0.750000  0.536446  0.063699  1
  Fe  Fe11  1  0.750000  0.963554  0.563699  1
  P  P12  1  0.250000  0.425855  0.105690  1
  P  P13  1  0.250000  0.074145  0.605690  1
  P  P14  1  0.750000  0.574145  0.894310  1
  P  P15  1  0.750000  0.925855  0.394310  1
  P  P16  1  0.250000  0.270866  0.871534  1
  P  P17  1  0.250000  0.229134  0.371534  1
  P  P18  1  0.750000  0.729134  0.128466  1
  P  P19  1  0.750000  0.770866  0.628466  1
  P  P20  1  0.250000  0.603177  0.391478  1
  P  P21  1  0.250000  0.896823  0.891478  1
  P  P22  1  0.750000  0.396823  0.608522  1
  P  P23  1  0.750000  0.103177  0.108522  1
  Rh  Rh24  1  0.250000  0.404531  0.484470  1
  Rh  Rh25  1  0.250000  0.095469  0.984470  1
  Rh  Rh26  1  0.750000  0.595469  0.515530  1
  Rh  Rh27  1  0.750000  0.904531  0.015530  1
  Rh  Rh28  1  0.250000  0.229684  0.176152  1
  Rh  Rh29  1  0.250000  0.270316  0.676152  1
  Rh  Rh30  1  0.750000  0.770316  0.823848  1
  Rh  Rh31  1  0.750000  0.729684  0.323848  1
  Rh  Rh32  1  0.250000  0.884130  0.698751  1
  Rh  Rh33  1  0.250000  0.615870  0.198751  1
  Rh  Rh34  1  0.750000  0.115870  0.301249  1
  Rh  Rh35  1  0.750000  0.384130  0.801249  1
