# generated using pymatgen
data_Er8Tl3Os
_symmetry_space_group_name_H-M   'P 1'
_cell_length_a   10.30701000
_cell_length_b   10.30700994
_cell_length_c   7.09866600
_cell_angle_alpha   90.00000000
_cell_angle_beta   90.00000000
_cell_angle_gamma   119.99999379
_symmetry_Int_Tables_number   1
_chemical_formula_structural   Er8Tl3Os
_chemical_formula_sum   'Er16 Tl6 Os2'
_cell_volume   653.08963853
_cell_formula_units_Z   2
loop_
 _symmetry_equiv_pos_site_id
 _symmetry_equiv_pos_as_xyz
  1  'x, y, z'
loop_
 _atom_site_type_symbol
 _atom_site_label
 _atom_site_symmetry_multiplicity
 _atom_site_fract_x
 _atom_site_fract_y
 _atom_site_fract_z
 _atom_site_occupancy
  Er  Er0  1  0.534195  0.068391  0.794014  1
  Er  Er1  1  0.931609  0.465805  0.794014  1
  Er  Er2  1  0.534195  0.465805  0.794014  1
  Er  Er3  1  0.465805  0.931609  0.294014  1
  Er  Er4  1  0.068391  0.534195  0.294014  1
  Er  Er5  1  0.465805  0.534195  0.294014  1
  Er  Er6  1  0.822602  0.645204  0.497641  1
  Er  Er7  1  0.354796  0.177398  0.497641  1
  Er  Er8  1  0.822602  0.177398  0.497641  1
  Er  Er9  1  0.177398  0.354796  0.997641  1
  Er  Er10  1  0.645204  0.822602  0.997641  1
  Er  Er11  1  0.177398  0.822602  0.997641  1
  Er  Er12  1  0.666667  0.333333  0.173490  1
  Er  Er13  1  0.333333  0.666667  0.673490  1
  Er  Er14  1  0.000000  0.000000  0.777504  1
  Er  Er15  1  0.000000  0.000000  0.277504  1
  Tl  Tl16  1  0.836866  0.673733  0.041281  1
  Tl  Tl17  1  0.326267  0.163134  0.041281  1
  Tl  Tl18  1  0.836866  0.163134  0.041281  1
  Tl  Tl19  1  0.163134  0.326267  0.541281  1
  Tl  Tl20  1  0.673733  0.836866  0.541281  1
  Tl  Tl21  1  0.163134  0.836866  0.541281  1
  Os  Os22  1  0.666667  0.333333  0.568151  1
  Os  Os23  1  0.333333  0.666667  0.068151  1
