# generated using pymatgen
data_LaTh(Be11Cu2)2
_symmetry_space_group_name_H-M   'P 1'
_cell_length_a   7.47725999
_cell_length_b   7.49368592
_cell_length_c   7.43243015
_cell_angle_alpha   60.12426031
_cell_angle_beta   60.34411358
_cell_angle_gamma   59.53161652
_symmetry_Int_Tables_number   1
_chemical_formula_structural   LaTh(Be11Cu2)2
_chemical_formula_sum   'La1 Th1 Be22 Cu4'
_cell_volume   294.44704498
_cell_formula_units_Z   1
loop_
 _symmetry_equiv_pos_site_id
 _symmetry_equiv_pos_as_xyz
  1  'x, y, z'
loop_
 _atom_site_type_symbol
 _atom_site_label
 _atom_site_symmetry_multiplicity
 _atom_site_fract_x
 _atom_site_fract_y
 _atom_site_fract_z
 _atom_site_occupancy
  La  La0  1  0.500000  0.500000  0.500000  1
  Th  Th1  1  0.000000  0.000000  0.000000  1
  Be  Be2  1  0.027341  0.683070  0.470130  1
  Be  Be3  1  0.470130  0.819459  0.027341  1
  Be  Be4  1  0.683070  0.027341  0.819459  1
  Be  Be5  1  0.819459  0.470130  0.683070  1
  Be  Be6  1  0.954198  0.547167  0.309594  1
  Be  Be7  1  0.547167  0.954198  0.189040  1
  Be  Be8  1  0.189040  0.309594  0.547167  1
  Be  Be9  1  0.309594  0.189040  0.954198  1
  Be  Be10  1  0.464899  0.032996  0.685625  1
  Be  Be11  1  0.032996  0.464899  0.816480  1
  Be  Be12  1  0.816480  0.685625  0.032996  1
  Be  Be13  1  0.685625  0.816480  0.464899  1
  Be  Be14  1  0.317299  0.958894  0.543266  1
  Be  Be15  1  0.180541  0.543266  0.958894  1
  Be  Be16  1  0.543266  0.180541  0.317299  1
  Be  Be17  1  0.958894  0.317299  0.180541  1
  Be  Be18  1  0.690829  0.464763  0.032758  1
  Be  Be19  1  0.811650  0.032758  0.464763  1
  Be  Be20  1  0.032758  0.811650  0.690829  1
  Be  Be21  1  0.464763  0.690829  0.811650  1
  Be  Be22  1  0.250000  0.250000  0.250000  1
  Be  Be23  1  0.750000  0.750000  0.750000  1
  Cu  Cu24  1  0.553040  0.306668  0.949273  1
  Cu  Cu25  1  0.949273  0.191018  0.553040  1
  Cu  Cu26  1  0.306668  0.553040  0.191018  1
  Cu  Cu27  1  0.191018  0.949273  0.306668  1
