# generated using pymatgen
data_Er3Tm3(Sc2Si3)2
_symmetry_space_group_name_H-M   'P 1'
_cell_length_a   8.21108003
_cell_length_b   8.20837618
_cell_length_c   5.98452700
_cell_angle_alpha   90.00000000
_cell_angle_beta   90.00000000
_cell_angle_gamma   120.00043114
_symmetry_Int_Tables_number   1
_chemical_formula_structural   Er3Tm3(Sc2Si3)2
_chemical_formula_sum   'Er3 Tm3 Sc4 Si6'
_cell_volume   349.31409679
_cell_formula_units_Z   1
loop_
 _symmetry_equiv_pos_site_id
 _symmetry_equiv_pos_as_xyz
  1  'x, y, z'
loop_
 _atom_site_type_symbol
 _atom_site_label
 _atom_site_symmetry_multiplicity
 _atom_site_fract_x
 _atom_site_fract_y
 _atom_site_fract_z
 _atom_site_occupancy
  Er  Er0  1  0.000090  0.755495  0.750000  1
  Er  Er1  1  0.000045  0.244566  0.250000  1
  Er  Er2  1  0.755331  0.755408  0.250000  1
  Tm  Tm3  1  0.755324  0.000013  0.750000  1
  Tm  Tm4  1  0.244626  0.244582  0.750000  1
  Tm  Tm5  1  0.244709  0.000059  0.250000  1
  Sc  Sc6  1  0.333349  0.666680  0.500019  1
  Sc  Sc7  1  0.666612  0.333282  0.999983  1
  Sc  Sc8  1  0.666612  0.333282  0.500017  1
  Sc  Sc9  1  0.333349  0.666680  0.999981  1
  Si  Si10  1  0.398346  0.000078  0.750000  1
  Si  Si11  1  0.398245  0.398174  0.250000  1
  Si  Si12  1  0.000082  0.601827  0.250000  1
  Si  Si13  1  0.000009  0.398142  0.750000  1
  Si  Si14  1  0.601652  0.601723  0.750000  1
  Si  Si15  1  0.601620  0.000009  0.250000  1
