# generated using pymatgen
data_Sr3Yb5Nb4O18
_symmetry_space_group_name_H-M   'P 1'
_cell_length_a   5.71212200
_cell_length_b   5.71212047
_cell_length_c   15.58031500
_cell_angle_alpha   90.00000000
_cell_angle_beta   90.00000000
_cell_angle_gamma   120.00000883
_symmetry_Int_Tables_number   1
_chemical_formula_structural   Sr3Yb5Nb4O18
_chemical_formula_sum   'Sr3 Yb5 Nb4 O18'
_cell_volume   440.25232694
_cell_formula_units_Z   1
loop_
 _symmetry_equiv_pos_site_id
 _symmetry_equiv_pos_as_xyz
  1  'x, y, z'
loop_
 _atom_site_type_symbol
 _atom_site_label
 _atom_site_symmetry_multiplicity
 _atom_site_fract_x
 _atom_site_fract_y
 _atom_site_fract_z
 _atom_site_occupancy
  Sr  Sr0  1  0.000000  0.000000  0.243444  1
  Sr  Sr1  1  0.000000  0.000000  0.756556  1
  Sr  Sr2  1  0.000000  0.000000  0.500000  1
  Yb  Yb3  1  0.666667  0.333333  0.141666  1
  Yb  Yb4  1  0.333333  0.666667  0.656502  1
  Yb  Yb5  1  0.333333  0.666667  0.858334  1
  Yb  Yb6  1  0.666667  0.333333  0.343498  1
  Yb  Yb7  1  0.000000  0.000000  0.000000  1
  Nb  Nb8  1  0.666667  0.333333  0.656825  1
  Nb  Nb9  1  0.666667  0.333333  0.855241  1
  Nb  Nb10  1  0.333333  0.666667  0.343175  1
  Nb  Nb11  1  0.333333  0.666667  0.144759  1
  O  O12  1  0.053709  0.340683  0.094940  1
  O  O13  1  0.348644  0.300061  0.606145  1
  O  O14  1  0.651356  0.699939  0.393855  1
  O  O15  1  0.445884  0.023131  0.756454  1
  O  O16  1  0.422754  0.445884  0.243546  1
  O  O17  1  0.340683  0.286973  0.905060  1
  O  O18  1  0.286973  0.946291  0.094940  1
  O  O19  1  0.577246  0.554116  0.756454  1
  O  O20  1  0.946291  0.659317  0.905060  1
  O  O21  1  0.976869  0.422754  0.756454  1
  O  O22  1  0.023131  0.577246  0.243546  1
  O  O23  1  0.554116  0.976869  0.243546  1
  O  O24  1  0.300061  0.951416  0.393855  1
  O  O25  1  0.048584  0.348644  0.393855  1
  O  O26  1  0.699939  0.048584  0.606145  1
  O  O27  1  0.713027  0.053709  0.905060  1
  O  O28  1  0.951416  0.651356  0.606145  1
  O  O29  1  0.659317  0.713027  0.094940  1
