# generated using pymatgen
data_La7Pr4Nd(IrI3)4
_symmetry_space_group_name_H-M   'P 1'
_cell_length_a   10.97768484
_cell_length_b   10.97020101
_cell_length_c   10.96709974
_cell_angle_alpha   108.76927237
_cell_angle_beta   108.41820054
_cell_angle_gamma   111.07949553
_symmetry_Int_Tables_number   1
_chemical_formula_structural   La7Pr4Nd(IrI3)4
_chemical_formula_sum   'La7 Pr4 Nd1 Ir4 I12'
_cell_volume   1018.05226450
_cell_formula_units_Z   1
loop_
 _symmetry_equiv_pos_site_id
 _symmetry_equiv_pos_as_xyz
  1  'x, y, z'
loop_
 _atom_site_type_symbol
 _atom_site_label
 _atom_site_symmetry_multiplicity
 _atom_site_fract_x
 _atom_site_fract_y
 _atom_site_fract_z
 _atom_site_occupancy
  La  La0  1  0.739962  0.222282  0.266309  1
  La  La1  1  0.760154  0.026387  0.482275  1
  La  La2  1  0.223212  0.455264  0.480570  1
  La  La3  1  0.278208  0.758252  0.232293  1
  La  La4  1  0.045898  0.278081  0.019457  1
  La  La5  1  0.024783  0.043028  0.266960  1
  La  La6  1  0.472618  0.738977  0.017964  1
  Pr  Pr7  1  0.476652  0.228696  0.455355  1
  Pr  Pr8  1  0.020868  0.478384  0.749308  1
  Pr  Pr9  1  0.271874  0.024013  0.044724  1
  Pr  Pr10  1  0.228412  0.273161  0.751607  1
  Nd  Nd11  1  0.457895  0.476108  0.233285  1
  Ir  Ir12  1  0.247613  0.250533  0.250471  1
  Ir  Ir13  1  0.502080  0.998311  0.250093  1
  Ir  Ir14  1  0.997360  0.247864  0.495915  1
  Ir  Ir15  1  0.252634  0.502526  0.004423  1
  I  I16  1  0.249398  0.760428  0.743575  1
  I  I17  1  0.517159  0.506055  0.756487  1
  I  I18  1  0.983053  0.739090  0.988700  1
  I  I19  1  0.739364  0.250707  0.756523  1
  I  I20  1  0.994087  0.982541  0.743557  1
  I  I21  1  0.250517  0.993620  0.510807  1
  I  I22  1  0.759604  0.517452  0.510162  1
  I  I23  1  0.507019  0.251963  0.991091  1
  I  I24  1  0.756958  0.740170  0.249774  1
  I  I25  1  0.741445  0.991148  0.983685  1
  I  I26  1  0.992240  0.508646  0.250218  1
  I  I27  1  0.508934  0.756312  0.514413  1
