# generated using pymatgen
data_Pm4Te3(WO8)3
_symmetry_space_group_name_H-M   'P 1'
_cell_length_a   6.90270900
_cell_length_b   6.92729263
_cell_length_c   12.11388410
_cell_angle_alpha   77.16599930
_cell_angle_beta   76.48177866
_cell_angle_gamma   110.41033144
_symmetry_Int_Tables_number   1
_chemical_formula_structural   Pm4Te3(WO8)3
_chemical_formula_sum   'Pm4 Te3 W3 O24'
_cell_volume   497.67792801
_cell_formula_units_Z   1
loop_
 _symmetry_equiv_pos_site_id
 _symmetry_equiv_pos_as_xyz
  1  'x, y, z'
loop_
 _atom_site_type_symbol
 _atom_site_label
 _atom_site_symmetry_multiplicity
 _atom_site_fract_x
 _atom_site_fract_y
 _atom_site_fract_z
 _atom_site_occupancy
  Pm  Pm0  1  0.187703  0.437146  0.593749  1
  Pm  Pm1  1  0.808192  0.554348  0.408372  1
  Pm  Pm2  1  0.566417  0.813294  0.904221  1
  Pm  Pm3  1  0.435611  0.196302  0.092313  1
  Te  Te4  1  0.020026  0.308220  0.950421  1
  Te  Te5  1  0.980759  0.698998  0.049712  1
  Te  Te6  1  0.693191  0.976899  0.548446  1
  W  W7  1  0.301484  0.011768  0.448116  1
  W  W8  1  0.591646  0.402767  0.750679  1
  W  W9  1  0.411273  0.609464  0.247665  1
  O  O10  1  0.540957  0.461931  0.603088  1
  O  O11  1  0.455085  0.531140  0.395466  1
  O  O12  1  0.527586  0.458483  0.897590  1
  O  O13  1  0.475504  0.551510  0.102153  1
  O  O14  1  0.498823  0.110748  0.797622  1
  O  O15  1  0.500045  0.899929  0.206605  1
  O  O16  1  0.884888  0.494335  0.706792  1
  O  O17  1  0.116806  0.509037  0.292493  1
  O  O18  1  0.738430  0.155267  0.948139  1
  O  O19  1  0.262099  0.849408  0.053216  1
  O  O20  1  0.850139  0.255763  0.552764  1
  O  O21  1  0.140023  0.727794  0.456546  1
  O  O22  1  0.384953  0.816737  0.579000  1
  O  O23  1  0.614021  0.167052  0.421062  1
  O  O24  1  0.175549  0.620317  0.916949  1
  O  O25  1  0.825638  0.386799  0.082971  1
  O  O26  1  0.195242  0.329928  0.798457  1
  O  O27  1  0.804210  0.675162  0.202065  1
  O  O28  1  0.672598  0.805318  0.700394  1
  O  O29  1  0.328801  0.181726  0.300087  1
  O  O30  1  0.907082  0.849171  0.934139  1
  O  O31  1  0.094189  0.157325  0.065352  1
  O  O32  1  0.161466  0.095617  0.558338  1
  O  O33  1  0.849565  0.900294  0.435018  1
