# generated using pymatgen
data_Tm5In3O
_symmetry_space_group_name_H-M   'P 1'
_cell_length_a   8.99217927
_cell_length_b   8.99218002
_cell_length_c   8.99217924
_cell_angle_alpha   126.87065970
_cell_angle_beta   126.87066610
_cell_angle_gamma   78.46178901
_symmetry_Int_Tables_number   1
_chemical_formula_structural   Tm5In3O
_chemical_formula_sum   'Tm10 In6 O2'
_cell_volume   450.56016190
_cell_formula_units_Z   2
loop_
 _symmetry_equiv_pos_site_id
 _symmetry_equiv_pos_as_xyz
  1  'x, y, z'
loop_
 _atom_site_type_symbol
 _atom_site_label
 _atom_site_symmetry_multiplicity
 _atom_site_fract_x
 _atom_site_fract_y
 _atom_site_fract_z
 _atom_site_occupancy
  Tm  Tm0  1  0.502404  0.308082  0.500000  1
  Tm  Tm1  1  0.808082  0.002404  0.500000  1
  Tm  Tm2  1  0.002404  0.502404  0.194323  1
  Tm  Tm3  1  0.308082  0.808082  0.805677  1
  Tm  Tm4  1  0.499743  0.694122  0.500000  1
  Tm  Tm5  1  0.194122  0.999743  0.500000  1
  Tm  Tm6  1  0.999743  0.499743  0.805621  1
  Tm  Tm7  1  0.694122  0.194122  0.194379  1
  Tm  Tm8  1  0.502320  0.502320  0.000000  1
  Tm  Tm9  1  0.002320  0.002320  0.000000  1
  In  In10  1  0.137864  0.363879  0.500000  1
  In  In11  1  0.863879  0.637864  0.500000  1
  In  In12  1  0.637864  0.137864  0.773984  1
  In  In13  1  0.363879  0.863879  0.226016  1
  In  In14  1  0.752098  0.752098  0.000000  1
  In  In15  1  0.252098  0.252098  0.000000  1
  O  O16  1  0.750909  0.250909  0.500000  1
  O  O17  1  0.250909  0.750909  0.500000  1
