# generated using pymatgen
data_Nd16Mg3NiHgOs3
_symmetry_space_group_name_H-M   'P 1'
_cell_length_a   9.91211484
_cell_length_b   10.02526302
_cell_length_c   10.02526122
_cell_angle_alpha   59.91611552
_cell_angle_beta   59.62646743
_cell_angle_gamma   59.62646235
_symmetry_Int_Tables_number   1
_chemical_formula_structural   Nd16Mg3NiHgOs3
_chemical_formula_sum   'Nd16 Mg3 Ni1 Hg1 Os3'
_cell_volume   699.99451645
_cell_formula_units_Z   1
loop_
 _symmetry_equiv_pos_site_id
 _symmetry_equiv_pos_as_xyz
  1  'x, y, z'
loop_
 _atom_site_type_symbol
 _atom_site_label
 _atom_site_symmetry_multiplicity
 _atom_site_fract_x
 _atom_site_fract_y
 _atom_site_fract_z
 _atom_site_occupancy
  Nd  Nd0  1  0.810239  0.188281  0.188281  1
  Nd  Nd1  1  0.187100  0.809874  0.809874  1
  Nd  Nd2  1  0.186812  0.810811  0.190548  1
  Nd  Nd3  1  0.810217  0.190162  0.808654  1
  Nd  Nd4  1  0.186812  0.190548  0.810811  1
  Nd  Nd5  1  0.810217  0.808654  0.190162  1
  Nd  Nd6  1  0.935506  0.559817  0.559817  1
  Nd  Nd7  1  0.556090  0.938650  0.938650  1
  Nd  Nd8  1  0.554659  0.936700  0.567026  1
  Nd  Nd9  1  0.938594  0.560132  0.941669  1
  Nd  Nd10  1  0.554659  0.567026  0.936700  1
  Nd  Nd11  1  0.938594  0.941669  0.560132  1
  Nd  Nd12  1  0.347298  0.344585  0.344585  1
  Nd  Nd13  1  0.348974  0.344844  0.962050  1
  Nd  Nd14  1  0.348974  0.962050  0.344844  1
  Nd  Nd15  1  0.967897  0.343404  0.343404  1
  Mg  Mg16  1  0.578037  0.578641  0.267806  1
  Mg  Mg17  1  0.578037  0.267806  0.578641  1
  Mg  Mg18  1  0.265424  0.579108  0.579108  1
  Ni  Ni19  1  0.579905  0.140520  0.140520  1
  Hg  Hg20  1  0.580858  0.580877  0.580877  1
  Os  Os21  1  0.144078  0.137421  0.137421  1
  Os  Os22  1  0.145513  0.137660  0.580761  1
  Os  Os23  1  0.145513  0.580761  0.137660  1
