# generated using pymatgen
data_Zn4P6PtN12
_symmetry_space_group_name_H-M   'P 1'
_cell_length_a   7.19982407
_cell_length_b   7.19982468
_cell_length_c   7.19982500
_cell_angle_alpha   109.47122435
_cell_angle_beta   109.47122607
_cell_angle_gamma   109.47121745
_symmetry_Int_Tables_number   1
_chemical_formula_structural   Zn4P6PtN12
_chemical_formula_sum   'Zn4 P6 Pt1 N12'
_cell_volume   287.30542287
_cell_formula_units_Z   1
loop_
 _symmetry_equiv_pos_site_id
 _symmetry_equiv_pos_as_xyz
  1  'x, y, z'
loop_
 _atom_site_type_symbol
 _atom_site_label
 _atom_site_symmetry_multiplicity
 _atom_site_fract_x
 _atom_site_fract_y
 _atom_site_fract_z
 _atom_site_occupancy
  Zn  Zn0  1  0.000000  0.348564  0.000000  1
  Zn  Zn1  1  0.651436  0.651436  0.651436  1
  Zn  Zn2  1  0.348564  0.000000  0.000000  1
  Zn  Zn3  1  0.000000  0.000000  0.348564  1
  P  P4  1  0.750000  0.250000  0.500000  1
  P  P5  1  0.250000  0.750000  0.500000  1
  P  P6  1  0.500000  0.750000  0.250000  1
  P  P7  1  0.500000  0.250000  0.750000  1
  P  P8  1  0.750000  0.500000  0.250000  1
  P  P9  1  0.250000  0.500000  0.750000  1
  Pt  Pt10  1  0.000000  0.000000  0.000000  1
  N  N11  1  0.556450  0.273368  0.000000  1
  N  N12  1  0.443550  0.443550  0.716918  1
  N  N13  1  0.000000  0.273368  0.556450  1
  N  N14  1  0.273368  0.000000  0.556450  1
  N  N15  1  0.716918  0.443550  0.443550  1
  N  N16  1  0.000000  0.556450  0.273368  1
  N  N17  1  0.556450  0.000000  0.273368  1
  N  N18  1  0.443550  0.716918  0.443550  1
  N  N19  1  0.273368  0.556450  0.000000  1
  N  N20  1  0.726632  0.283082  0.726632  1
  N  N21  1  0.726632  0.726632  0.283082  1
  N  N22  1  0.283082  0.726632  0.726632  1
