# generated using pymatgen
data_Cs6V3IrBr18
_symmetry_space_group_name_H-M   'P 1'
_cell_length_a   7.82435400
_cell_length_b   7.82435458
_cell_length_c   19.26063600
_cell_angle_alpha   90.00000000
_cell_angle_beta   90.00000000
_cell_angle_gamma   119.99999755
_symmetry_Int_Tables_number   1
_chemical_formula_structural   Cs6V3IrBr18
_chemical_formula_sum   'Cs6 V3 Ir1 Br18'
_cell_volume   1021.17054780
_cell_formula_units_Z   1
loop_
 _symmetry_equiv_pos_site_id
 _symmetry_equiv_pos_as_xyz
  1  'x, y, z'
loop_
 _atom_site_type_symbol
 _atom_site_label
 _atom_site_symmetry_multiplicity
 _atom_site_fract_x
 _atom_site_fract_y
 _atom_site_fract_z
 _atom_site_occupancy
  Cs  Cs0  1  0.666667  0.333333  0.569820  1
  Cs  Cs1  1  0.333333  0.666667  0.069307  1
  Cs  Cs2  1  0.333333  0.666667  0.429384  1
  Cs  Cs3  1  0.666667  0.333333  0.932164  1
  Cs  Cs4  1  0.000000  0.000000  0.250165  1
  Cs  Cs5  1  0.000000  0.000000  0.750066  1
  V  V6  1  0.666667  0.333333  0.335277  1
  V  V7  1  0.333333  0.666667  0.832092  1
  V  V8  1  0.666667  0.333333  0.165201  1
  Ir  Ir9  1  0.333333  0.666667  0.671486  1
  Br  Br10  1  0.821411  0.642823  0.406551  1
  Br  Br11  1  0.182655  0.817345  0.596620  1
  Br  Br12  1  0.634691  0.817345  0.596620  1
  Br  Br13  1  0.821411  0.178589  0.406551  1
  Br  Br14  1  0.357177  0.178589  0.406551  1
  Br  Br15  1  0.178937  0.357872  0.903449  1
  Br  Br16  1  0.028094  0.514047  0.747537  1
  Br  Br17  1  0.642128  0.821063  0.903449  1
  Br  Br18  1  0.821260  0.642521  0.093965  1
  Br  Br19  1  0.182655  0.365309  0.596620  1
  Br  Br20  1  0.485953  0.971906  0.747537  1
  Br  Br21  1  0.516327  0.483673  0.250224  1
  Br  Br22  1  0.485953  0.514047  0.747537  1
  Br  Br23  1  0.178937  0.821063  0.903449  1
  Br  Br24  1  0.357479  0.178740  0.093965  1
  Br  Br25  1  0.967346  0.483673  0.250224  1
  Br  Br26  1  0.516327  0.032654  0.250224  1
  Br  Br27  1  0.821260  0.178740  0.093965  1
