# generated using pymatgen
data_TbY(B4Os)2
_symmetry_space_group_name_H-M   'P 1'
_cell_length_a   3.57723700
_cell_length_b   5.98147324
_cell_length_c   11.57451646
_cell_angle_alpha   90.03243378
_cell_angle_beta   90.00000000
_cell_angle_gamma   90.00000000
_symmetry_Int_Tables_number   1
_chemical_formula_structural   TbY(B4Os)2
_chemical_formula_sum   'Tb2 Y2 B16 Os4'
_cell_volume   247.66159503
_cell_formula_units_Z   2
loop_
 _symmetry_equiv_pos_site_id
 _symmetry_equiv_pos_as_xyz
  1  'x, y, z'
loop_
 _atom_site_type_symbol
 _atom_site_label
 _atom_site_symmetry_multiplicity
 _atom_site_fract_x
 _atom_site_fract_y
 _atom_site_fract_z
 _atom_site_occupancy
  Tb  Tb0  1  0.000000  0.627910  0.650063  1
  Tb  Tb1  1  0.000000  0.372090  0.349937  1
  Y  Y2  1  0.000000  0.127948  0.850005  1
  Y  Y3  1  0.000000  0.872052  0.149995  1
  B  B4  1  0.500000  0.974994  0.691368  1
  B  B5  1  0.500000  0.025006  0.308632  1
  B  B6  1  0.500000  0.474976  0.808656  1
  B  B7  1  0.500000  0.525024  0.191344  1
  B  B8  1  0.500000  0.788506  0.814212  1
  B  B9  1  0.500000  0.211494  0.185788  1
  B  B10  1  0.500000  0.288401  0.685787  1
  B  B11  1  0.500000  0.711599  0.314213  1
  B  B12  1  0.500000  0.863414  0.969791  1
  B  B13  1  0.500000  0.136586  0.030209  1
  B  B14  1  0.500000  0.363239  0.530270  1
  B  B15  1  0.500000  0.636761  0.469730  1
  B  B16  1  0.500000  0.887954  0.546449  1
  B  B17  1  0.500000  0.112046  0.453551  1
  B  B18  1  0.500000  0.387756  0.953516  1
  B  B19  1  0.500000  0.612244  0.046484  1
  Os  Os20  1  0.000000  0.640677  0.906842  1
  Os  Os21  1  0.000000  0.359323  0.093158  1
  Os  Os22  1  0.000000  0.140609  0.593296  1
  Os  Os23  1  0.000000  0.859391  0.406704  1
