# generated using pymatgen
data_Th5Fe13(P2Ir)6
_symmetry_space_group_name_H-M   'P 1'
_cell_length_a   12.34936152
_cell_length_b   12.29747797
_cell_length_c   3.82987800
_cell_angle_alpha   90.00000000
_cell_angle_beta   90.00000000
_cell_angle_gamma   120.06696697
_symmetry_Int_Tables_number   1
_chemical_formula_structural   Th5Fe13(P2Ir)6
_chemical_formula_sum   'Th5 Fe13 P12 Ir6'
_cell_volume   503.36460026
_cell_formula_units_Z   1
loop_
 _symmetry_equiv_pos_site_id
 _symmetry_equiv_pos_as_xyz
  1  'x, y, z'
loop_
 _atom_site_type_symbol
 _atom_site_label
 _atom_site_symmetry_multiplicity
 _atom_site_fract_x
 _atom_site_fract_y
 _atom_site_fract_z
 _atom_site_occupancy
  Th  Th0  1  0.665838  0.332504  0.000000  1
  Th  Th1  1  0.334475  0.671995  0.000000  1
  Th  Th2  1  0.810680  0.810295  0.500000  1
  Th  Th3  1  0.192279  0.999868  0.500000  1
  Th  Th4  1  0.000255  0.189718  0.500000  1
  Fe  Fe5  1  0.798452  0.178413  0.000000  1
  Fe  Fe6  1  0.820961  0.620395  0.000000  1
  Fe  Fe7  1  0.379126  0.197454  0.000000  1
  Fe  Fe8  1  0.179429  0.802095  0.000000  1
  Fe  Fe9  1  0.621568  0.820060  0.000000  1
  Fe  Fe10  1  0.199997  0.378757  0.000000  1
  Fe  Fe11  1  0.290046  0.287540  0.500000  1
  Fe  Fe12  1  0.712299  0.001473  0.500000  1
  Fe  Fe13  1  0.999874  0.711013  0.500000  1
  Fe  Fe14  1  0.872725  0.362097  0.500000  1
  Fe  Fe15  1  0.637566  0.510350  0.500000  1
  Fe  Fe16  1  0.488873  0.123073  0.500000  1
  Fe  Fe17  1  0.366750  0.881717  0.500000  1
  P  P18  1  0.694402  0.170082  0.500000  1
  P  P19  1  0.829742  0.524617  0.500000  1
  P  P20  1  0.474727  0.301346  0.500000  1
  P  P21  1  0.175851  0.708662  0.500000  1
  P  P22  1  0.526494  0.838640  0.500000  1
  P  P23  1  0.301803  0.469367  0.500000  1
  P  P24  1  0.639810  0.625849  0.000000  1
  P  P25  1  0.370800  0.003172  0.000000  1
  P  P26  1  0.984431  0.359848  0.000000  1
  P  P27  1  0.194103  0.192409  0.000000  1
  P  P28  1  0.806368  0.999706  0.000000  1
  P  P29  1  0.999409  0.806647  0.000000  1
  Ir  Ir30  1  0.448641  0.442317  0.000000  1
  Ir  Ir31  1  0.554650  0.000029  0.000000  1
  Ir  Ir32  1  0.994068  0.551702  0.000000  1
  Ir  Ir33  1  0.510722  0.634995  0.500000  1
  Ir  Ir34  1  0.122722  0.491393  0.500000  1
  Ir  Ir35  1  0.000062  0.000403  0.000000  1
