# generated using pymatgen
data_Pr5Zr3(As3Rh4)4
_symmetry_space_group_name_H-M   'P 1'
_cell_length_a   13.42317300
_cell_length_b   13.42317341
_cell_length_c   4.07808400
_cell_angle_alpha   90.00000000
_cell_angle_beta   90.00000000
_cell_angle_gamma   120.00000146
_symmetry_Int_Tables_number   1
_chemical_formula_structural   Pr5Zr3(As3Rh4)4
_chemical_formula_sum   'Pr5 Zr3 As12 Rh16'
_cell_volume   636.35165885
_cell_formula_units_Z   1
loop_
 _symmetry_equiv_pos_site_id
 _symmetry_equiv_pos_as_xyz
  1  'x, y, z'
loop_
 _atom_site_type_symbol
 _atom_site_label
 _atom_site_symmetry_multiplicity
 _atom_site_fract_x
 _atom_site_fract_y
 _atom_site_fract_z
 _atom_site_occupancy
  Pr  Pr0  1  0.187495  0.187495  0.500000  1
  Pr  Pr1  1  0.812505  0.000000  0.500000  1
  Pr  Pr2  1  0.000000  0.812505  0.500000  1
  Pr  Pr3  1  0.333333  0.666667  0.000000  1
  Pr  Pr4  1  0.666667  0.333333  0.000000  1
  Zr  Zr5  1  0.557629  0.557629  0.000000  1
  Zr  Zr6  1  0.442371  0.000000  0.000000  1
  Zr  Zr7  1  0.000000  0.442371  0.000000  1
  As  As8  1  0.822346  0.822346  0.000000  1
  As  As9  1  0.177654  0.000000  0.000000  1
  As  As10  1  0.000000  0.177654  0.000000  1
  As  As11  1  0.168767  0.483367  0.500000  1
  As  As12  1  0.516633  0.685401  0.500000  1
  As  As13  1  0.314599  0.831233  0.500000  1
  As  As14  1  0.685401  0.516633  0.500000  1
  As  As15  1  0.831233  0.314599  0.500000  1
  As  As16  1  0.483367  0.168767  0.500000  1
  As  As17  1  0.358146  0.358146  0.000000  1
  As  As18  1  0.641854  0.000000  0.000000  1
  As  As19  1  0.000000  0.641854  0.000000  1
  Rh  Rh20  1  0.717642  0.717642  0.500000  1
  Rh  Rh21  1  0.282358  0.000000  0.500000  1
  Rh  Rh22  1  0.000000  0.282358  0.500000  1
  Rh  Rh23  1  0.176109  0.375300  0.000000  1
  Rh  Rh24  1  0.624700  0.800809  0.000000  1
  Rh  Rh25  1  0.199191  0.823891  0.000000  1
  Rh  Rh26  1  0.800809  0.624700  0.000000  1
  Rh  Rh27  1  0.823891  0.199191  0.000000  1
  Rh  Rh28  1  0.375300  0.176109  0.000000  1
  Rh  Rh29  1  0.354582  0.481123  0.500000  1
  Rh  Rh30  1  0.518877  0.873460  0.500000  1
  Rh  Rh31  1  0.126540  0.645418  0.500000  1
  Rh  Rh32  1  0.873460  0.518877  0.500000  1
  Rh  Rh33  1  0.645418  0.126540  0.500000  1
  Rh  Rh34  1  0.481123  0.354582  0.500000  1
  Rh  Rh35  1  0.000000  0.000000  0.000000  1
