# generated using pymatgen
data_TbBiPt2O7
_symmetry_space_group_name_H-M   'P 1'
_cell_length_a   7.37821348
_cell_length_b   7.37821467
_cell_length_c   7.39218200
_cell_angle_alpha   59.93735861
_cell_angle_beta   59.93735327
_cell_angle_gamma   59.74984826
_symmetry_Int_Tables_number   1
_chemical_formula_structural   TbBiPt2O7
_chemical_formula_sum   'Tb2 Bi2 Pt4 O14'
_cell_volume   283.74098076
_cell_formula_units_Z   2
loop_
 _symmetry_equiv_pos_site_id
 _symmetry_equiv_pos_as_xyz
  1  'x, y, z'
loop_
 _atom_site_type_symbol
 _atom_site_label
 _atom_site_symmetry_multiplicity
 _atom_site_fract_x
 _atom_site_fract_y
 _atom_site_fract_z
 _atom_site_occupancy
  Tb  Tb0  1  0.125000  0.125000  0.625000  1
  Tb  Tb1  1  0.125000  0.125000  0.125000  1
  Bi  Bi2  1  0.125000  0.625000  0.125000  1
  Bi  Bi3  1  0.625000  0.125000  0.125000  1
  Pt  Pt4  1  0.625000  0.625000  0.125000  1
  Pt  Pt5  1  0.625000  0.125000  0.625000  1
  Pt  Pt6  1  0.125000  0.625000  0.625000  1
  Pt  Pt7  1  0.625000  0.625000  0.625000  1
  O  O8  1  0.241940  0.241940  0.258060  1
  O  O9  1  0.008060  0.008060  0.991940  1
  O  O10  1  0.532712  0.962572  0.543803  1
  O  O11  1  0.287428  0.717288  0.289086  1
  O  O12  1  0.541098  0.541098  0.958902  1
  O  O13  1  0.962572  0.532712  0.543803  1
  O  O14  1  0.532712  0.962572  0.960914  1
  O  O15  1  0.964032  0.964032  0.535968  1
  O  O16  1  0.962572  0.532712  0.960914  1
  O  O17  1  0.717288  0.287428  0.289086  1
  O  O18  1  0.287428  0.717288  0.706197  1
  O  O19  1  0.717288  0.287428  0.706197  1
  O  O20  1  0.285968  0.285968  0.714032  1
  O  O21  1  0.708902  0.708902  0.291098  1
