# generated using pymatgen
data_Th2CuSi4Pd
_symmetry_space_group_name_H-M   'P 1'
_cell_length_a   8.61418306
_cell_length_b   8.61418229
_cell_length_c   4.24301600
_cell_angle_alpha   90.00000000
_cell_angle_beta   90.00000000
_cell_angle_gamma   151.40279836
_symmetry_Int_Tables_number   1
_chemical_formula_structural   Th2CuSi4Pd
_chemical_formula_sum   'Th2 Cu1 Si4 Pd1'
_cell_volume   150.70232696
_cell_formula_units_Z   1
loop_
 _symmetry_equiv_pos_site_id
 _symmetry_equiv_pos_as_xyz
  1  'x, y, z'
loop_
 _atom_site_type_symbol
 _atom_site_label
 _atom_site_symmetry_multiplicity
 _atom_site_fract_x
 _atom_site_fract_y
 _atom_site_fract_z
 _atom_site_occupancy
  Th  Th0  1  0.894790  0.105210  0.250000  1
  Th  Th1  1  0.100496  0.899504  0.750000  1
  Cu  Cu2  1  0.324402  0.675598  0.750000  1
  Si  Si3  1  0.532416  0.467584  0.250000  1
  Si  Si4  1  0.464376  0.535624  0.750000  1
  Si  Si5  1  0.251491  0.748509  0.250000  1
  Si  Si6  1  0.753821  0.246179  0.750000  1
  Pd  Pd7  1  0.678207  0.321793  0.250000  1
