# generated using pymatgen
data_Rb8Ba4HfZr(AsP3)2
_symmetry_space_group_name_H-M   'P 1'
_cell_length_a   10.67721902
_cell_length_b   10.67717949
_cell_length_c   8.04114000
_cell_angle_alpha   88.36849517
_cell_angle_beta   88.35468304
_cell_angle_gamma   119.65933852
_symmetry_Int_Tables_number   1
_chemical_formula_structural   Rb8Ba4HfZr(AsP3)2
_chemical_formula_sum   'Rb8 Ba4 Hf1 Zr1 As2 P6'
_cell_volume   795.31577834
_cell_formula_units_Z   1
loop_
 _symmetry_equiv_pos_site_id
 _symmetry_equiv_pos_as_xyz
  1  'x, y, z'
loop_
 _atom_site_type_symbol
 _atom_site_label
 _atom_site_symmetry_multiplicity
 _atom_site_fract_x
 _atom_site_fract_y
 _atom_site_fract_z
 _atom_site_occupancy
  Rb  Rb0  1  0.056252  0.525560  0.614958  1
  Rb  Rb1  1  0.525836  0.056817  0.114954  1
  Rb  Rb2  1  0.275645  0.132364  0.825398  1
  Rb  Rb3  1  0.873920  0.735785  0.762754  1
  Rb  Rb4  1  0.860738  0.142376  0.798011  1
  Rb  Rb5  1  0.736215  0.874050  0.263537  1
  Rb  Rb6  1  0.132123  0.275198  0.326138  1
  Rb  Rb7  1  0.141982  0.860899  0.298722  1
  Ba  Ba8  1  0.467654  0.935729  0.606952  1
  Ba  Ba9  1  0.467407  0.522531  0.623866  1
  Ba  Ba10  1  0.934168  0.466737  0.107205  1
  Ba  Ba11  1  0.522955  0.466780  0.123726  1
  Hf  Hf12  1  0.665843  0.335215  0.503272  1
  Zr  Zr13  1  0.335022  0.665926  0.004146  1
  As  As14  1  0.671020  0.355782  0.830942  1
  As  As15  1  0.356322  0.671332  0.334348  1
  P  P16  1  0.590410  0.787511  0.871543  1
  P  P17  1  0.206702  0.402320  0.923752  1
  P  P18  1  0.199522  0.789868  0.903218  1
  P  P19  1  0.404582  0.207829  0.424019  1
  P  P20  1  0.786622  0.588533  0.372374  1
  P  P21  1  0.789061  0.200857  0.403657  1
