# generated using pymatgen
data_Ba5Nd3Sm5Mn4O21
_symmetry_space_group_name_H-M   'P 1'
_cell_length_a   5.91530165
_cell_length_b   10.54359269
_cell_length_c   10.55997317
_cell_angle_alpha   85.48217532
_cell_angle_beta   73.73606555
_cell_angle_gamma   73.70795955
_symmetry_Int_Tables_number   1
_chemical_formula_structural   Ba5Nd3Sm5Mn4O21
_chemical_formula_sum   'Ba5 Nd3 Sm5 Mn4 O21'
_cell_volume   606.86499256
_cell_formula_units_Z   1
loop_
 _symmetry_equiv_pos_site_id
 _symmetry_equiv_pos_as_xyz
  1  'x, y, z'
loop_
 _atom_site_type_symbol
 _atom_site_label
 _atom_site_symmetry_multiplicity
 _atom_site_fract_x
 _atom_site_fract_y
 _atom_site_fract_z
 _atom_site_occupancy
  Ba  Ba0  1  0.530144  0.333276  0.606421  1
  Ba  Ba1  1  0.863084  0.606014  0.667826  1
  Ba  Ba2  1  0.136537  0.393932  0.332977  1
  Ba  Ba3  1  0.469145  0.667243  0.394502  1
  Ba  Ba4  1  0.000120  0.999690  0.000096  1
  Nd  Nd5  1  0.831607  0.921150  0.415665  1
  Nd  Nd6  1  0.168413  0.078735  0.584426  1
  Nd  Nd7  1  0.752816  0.416181  0.078091  1
  Sm  Sm8  1  0.411137  0.231088  0.946620  1
  Sm  Sm9  1  0.641882  0.946488  0.769756  1
  Sm  Sm10  1  0.358200  0.053312  0.230302  1
  Sm  Sm11  1  0.589061  0.768976  0.052901  1
  Sm  Sm12  1  0.246929  0.584225  0.921885  1
  Mn  Mn13  1  0.040607  0.708406  0.210355  1
  Mn  Mn14  1  0.748807  0.210999  0.291399  1
  Mn  Mn15  1  0.251120  0.788461  0.709292  1
  Mn  Mn16  1  0.959121  0.292304  0.789500  1
  O  O17  1  0.901312  0.595054  0.109010  1
  O  O18  1  0.493410  0.111007  0.404696  1
  O  O19  1  0.008993  0.888969  0.595587  1
  O  O20  1  0.602120  0.406599  0.888938  1
  O  O21  1  0.102294  0.406602  0.888941  1
  O  O22  1  0.506491  0.888957  0.595590  1
  O  O23  1  0.990876  0.110995  0.404700  1
  O  O24  1  0.394635  0.595056  0.109028  1
  O  O25  1  0.072286  0.223902  0.131735  1
  O  O26  1  0.295946  0.132290  0.776363  1
  O  O27  1  0.204498  0.867856  0.223894  1
  O  O28  1  0.427597  0.774320  0.868481  1
  O  O29  1  0.929589  0.774331  0.868474  1
  O  O30  1  0.703723  0.867851  0.223895  1
  O  O31  1  0.795454  0.132286  0.776368  1
  O  O32  1  0.572079  0.223905  0.131730  1
  O  O33  1  0.623174  0.409545  0.344100  1
  O  O34  1  0.500322  0.999668  0.999693  1
  O  O35  1  0.376414  0.590468  0.656717  1
  O  O36  1  0.967727  0.655654  0.408893  1
  O  O37  1  0.032327  0.344206  0.591155  1
