# generated using pymatgen
data_Zr8Co2ReIr
_symmetry_space_group_name_H-M   'P 1'
_cell_length_a   8.79641717
_cell_length_b   8.79638251
_cell_length_c   8.80615900
_cell_angle_alpha   59.96676764
_cell_angle_beta   59.96767308
_cell_angle_gamma   59.97975990
_symmetry_Int_Tables_number   1
_chemical_formula_structural   Zr8Co2ReIr
_chemical_formula_sum   'Zr16 Co4 Re2 Ir2'
_cell_volume   481.50376120
_cell_formula_units_Z   2
loop_
 _symmetry_equiv_pos_site_id
 _symmetry_equiv_pos_as_xyz
  1  'x, y, z'
loop_
 _atom_site_type_symbol
 _atom_site_label
 _atom_site_symmetry_multiplicity
 _atom_site_fract_x
 _atom_site_fract_y
 _atom_site_fract_z
 _atom_site_occupancy
  Zr  Zr0  1  0.049577  0.649245  0.650560  1
  Zr  Zr1  1  0.649174  0.049441  0.650664  1
  Zr  Zr2  1  0.648727  0.648914  0.052877  1
  Zr  Zr3  1  0.648765  0.648976  0.649423  1
  Zr  Zr4  1  0.793929  0.793953  0.206044  1
  Zr  Zr5  1  0.204280  0.204057  0.795810  1
  Zr  Zr6  1  0.795580  0.202884  0.797588  1
  Zr  Zr7  1  0.202942  0.795606  0.203824  1
  Zr  Zr8  1  0.202976  0.795609  0.797611  1
  Zr  Zr9  1  0.795592  0.202820  0.203973  1
  Zr  Zr10  1  0.436385  0.436416  0.063639  1
  Zr  Zr11  1  0.064474  0.064517  0.435529  1
  Zr  Zr12  1  0.436073  0.069841  0.434672  1
  Zr  Zr13  1  0.069799  0.436158  0.059372  1
  Zr  Zr14  1  0.069870  0.436060  0.434644  1
  Zr  Zr15  1  0.436155  0.069785  0.059372  1
  Co  Co16  1  0.419883  0.858759  0.860716  1
  Co  Co17  1  0.858721  0.419867  0.860749  1
  Co  Co18  1  0.859819  0.859834  0.418264  1
  Co  Co19  1  0.859795  0.859816  0.862117  1
  Re  Re20  1  0.417910  0.417906  0.743593  1
  Re  Re21  1  0.417910  0.417897  0.420603  1
  Ir  Ir22  1  0.746998  0.414659  0.419177  1
  Ir  Ir23  1  0.414664  0.746981  0.419181  1
