# generated using pymatgen
data_NdEr2(Co3P2)3
_symmetry_space_group_name_H-M   'P 1'
_cell_length_a   3.71750800
_cell_length_b   10.55995200
_cell_length_c   12.22682500
_cell_angle_alpha   90.00000000
_cell_angle_beta   90.00000000
_cell_angle_gamma   90.00000000
_symmetry_Int_Tables_number   1
_chemical_formula_structural   NdEr2(Co3P2)3
_chemical_formula_sum   'Nd2 Er4 Co18 P12'
_cell_volume   479.98487482
_cell_formula_units_Z   2
loop_
 _symmetry_equiv_pos_site_id
 _symmetry_equiv_pos_as_xyz
  1  'x, y, z'
loop_
 _atom_site_type_symbol
 _atom_site_label
 _atom_site_symmetry_multiplicity
 _atom_site_fract_x
 _atom_site_fract_y
 _atom_site_fract_z
 _atom_site_occupancy
  Nd  Nd0  1  0.750000  0.250000  0.477891  1
  Nd  Nd1  1  0.250000  0.750000  0.522109  1
  Er  Er2  1  0.250000  0.932862  0.795226  1
  Er  Er3  1  0.250000  0.567138  0.795226  1
  Er  Er4  1  0.750000  0.067138  0.204774  1
  Er  Er5  1  0.750000  0.432862  0.204774  1
  Co  Co6  1  0.250000  0.250000  0.843322  1
  Co  Co7  1  0.750000  0.750000  0.156678  1
  Co  Co8  1  0.250000  0.250000  0.293119  1
  Co  Co9  1  0.750000  0.750000  0.706881  1
  Co  Co10  1  0.750000  0.250000  0.013506  1
  Co  Co11  1  0.250000  0.750000  0.986494  1
  Co  Co12  1  0.250000  0.416630  0.005192  1
  Co  Co13  1  0.250000  0.083370  0.005192  1
  Co  Co14  1  0.750000  0.583370  0.994808  1
  Co  Co15  1  0.750000  0.916630  0.994808  1
  Co  Co16  1  0.250000  0.453429  0.571232  1
  Co  Co17  1  0.250000  0.046571  0.571232  1
  Co  Co18  1  0.750000  0.546571  0.428768  1
  Co  Co19  1  0.750000  0.953429  0.428768  1
  Co  Co20  1  0.250000  0.870702  0.287089  1
  Co  Co21  1  0.250000  0.629298  0.287089  1
  Co  Co22  1  0.750000  0.129298  0.712911  1
  Co  Co23  1  0.750000  0.370702  0.712911  1
  P  P24  1  0.250000  0.250000  0.116327  1
  P  P25  1  0.750000  0.750000  0.883673  1
  P  P26  1  0.250000  0.250000  0.660531  1
  P  P27  1  0.750000  0.750000  0.339469  1
  P  P28  1  0.250000  0.442382  0.381897  1
  P  P29  1  0.250000  0.057618  0.381897  1
  P  P30  1  0.750000  0.557618  0.618103  1
  P  P31  1  0.750000  0.942382  0.618103  1
  P  P32  1  0.250000  0.903433  0.105884  1
  P  P33  1  0.250000  0.596567  0.105884  1
  P  P34  1  0.750000  0.096567  0.894116  1
  P  P35  1  0.750000  0.403433  0.894116  1
