# generated using pymatgen
data_Nd6Co16ReP12W
_symmetry_space_group_name_H-M   'P 1'
_cell_length_a   3.79011600
_cell_length_b   10.66800700
_cell_length_c   12.44806300
_cell_angle_alpha   90.00000000
_cell_angle_beta   90.00000000
_cell_angle_gamma   90.00000000
_symmetry_Int_Tables_number   1
_chemical_formula_structural   Nd6Co16ReP12W
_chemical_formula_sum   'Nd6 Co16 Re1 P12 W1'
_cell_volume   503.31233234
_cell_formula_units_Z   1
loop_
 _symmetry_equiv_pos_site_id
 _symmetry_equiv_pos_as_xyz
  1  'x, y, z'
loop_
 _atom_site_type_symbol
 _atom_site_label
 _atom_site_symmetry_multiplicity
 _atom_site_fract_x
 _atom_site_fract_y
 _atom_site_fract_z
 _atom_site_occupancy
  Nd  Nd0  1  0.000000  0.500000  0.522056  1
  Nd  Nd1  1  0.500000  0.000000  0.477772  1
  Nd  Nd2  1  0.500000  0.817945  0.205536  1
  Nd  Nd3  1  0.500000  0.182055  0.205536  1
  Nd  Nd4  1  0.000000  0.681290  0.793806  1
  Nd  Nd5  1  0.000000  0.318710  0.793806  1
  Co  Co6  1  0.500000  0.500000  0.703310  1
  Co  Co7  1  0.000000  0.000000  0.297184  1
  Co  Co8  1  0.000000  0.500000  0.988831  1
  Co  Co9  1  0.500000  0.000000  0.012707  1
  Co  Co10  1  0.500000  0.333108  0.991768  1
  Co  Co11  1  0.500000  0.666892  0.991768  1
  Co  Co12  1  0.000000  0.168411  0.008913  1
  Co  Co13  1  0.000000  0.831589  0.008913  1
  Co  Co14  1  0.500000  0.296838  0.429805  1
  Co  Co15  1  0.500000  0.703162  0.429805  1
  Co  Co16  1  0.000000  0.204534  0.568693  1
  Co  Co17  1  0.000000  0.795466  0.568693  1
  Co  Co18  1  0.500000  0.880276  0.709983  1
  Co  Co19  1  0.500000  0.119724  0.709983  1
  Co  Co20  1  0.000000  0.618392  0.289745  1
  Co  Co21  1  0.000000  0.381608  0.289745  1
  Re  Re22  1  0.500000  0.500000  0.154216  1
  P  P23  1  0.500000  0.500000  0.884739  1
  P  P24  1  0.000000  0.000000  0.115475  1
  P  P25  1  0.500000  0.500000  0.343415  1
  P  P26  1  0.000000  0.000000  0.655575  1
  P  P27  1  0.500000  0.307282  0.613530  1
  P  P28  1  0.500000  0.692718  0.613530  1
  P  P29  1  0.000000  0.192799  0.385550  1
  P  P30  1  0.000000  0.807201  0.385550  1
  P  P31  1  0.500000  0.846078  0.895957  1
  P  P32  1  0.500000  0.153922  0.895957  1
  P  P33  1  0.000000  0.651981  0.105794  1
  P  P34  1  0.000000  0.348019  0.105794  1
  W  W35  1  0.000000  0.000000  0.846562  1
