# generated using pymatgen
data_LaHo2Th3In10
_symmetry_space_group_name_H-M   'P 1'
_cell_length_a   6.60315334
_cell_length_b   6.60315350
_cell_length_c   10.37873090
_cell_angle_alpha   89.97012756
_cell_angle_beta   89.97012968
_cell_angle_gamma   102.39595571
_symmetry_Int_Tables_number   1
_chemical_formula_structural   LaHo2Th3In10
_chemical_formula_sum   'La1 Ho2 Th3 In10'
_cell_volume   441.97985695
_cell_formula_units_Z   1
loop_
 _symmetry_equiv_pos_site_id
 _symmetry_equiv_pos_as_xyz
  1  'x, y, z'
loop_
 _atom_site_type_symbol
 _atom_site_label
 _atom_site_symmetry_multiplicity
 _atom_site_fract_x
 _atom_site_fract_y
 _atom_site_fract_z
 _atom_site_occupancy
  La  La0  1  0.206234  0.793766  0.500000  1
  Ho  Ho1  1  0.631437  0.630319  0.249051  1
  Ho  Ho2  1  0.369681  0.368563  0.750949  1
  Th  Th3  1  0.206224  0.793776  0.000000  1
  Th  Th4  1  0.793326  0.206674  0.500000  1
  Th  Th5  1  0.793328  0.206672  0.000000  1
  In  In6  1  0.008723  0.009254  0.249386  1
  In  In7  1  0.990746  0.991277  0.750614  1
  In  In8  1  0.310363  0.310325  0.046590  1
  In  In9  1  0.689675  0.689637  0.953410  1
  In  In10  1  0.310249  0.309767  0.453368  1
  In  In11  1  0.690233  0.689751  0.546632  1
  In  In12  1  0.493103  0.067548  0.249241  1
  In  In13  1  0.932452  0.506897  0.750759  1
  In  In14  1  0.507900  0.933675  0.750574  1
  In  In15  1  0.066325  0.492100  0.249426  1
