# generated using pymatgen
data_ThMg(InRh2)2
_symmetry_space_group_name_H-M   'P 1'
_cell_length_a   6.41933300
_cell_length_b   6.41934300
_cell_length_c   6.97796800
_cell_angle_alpha   90.00000000
_cell_angle_beta   90.00000000
_cell_angle_gamma   90.00000000
_symmetry_Int_Tables_number   1
_chemical_formula_structural   ThMg(InRh2)2
_chemical_formula_sum   'Th2 Mg2 In4 Rh8'
_cell_volume   287.54741005
_cell_formula_units_Z   2
loop_
 _symmetry_equiv_pos_site_id
 _symmetry_equiv_pos_as_xyz
  1  'x, y, z'
loop_
 _atom_site_type_symbol
 _atom_site_label
 _atom_site_symmetry_multiplicity
 _atom_site_fract_x
 _atom_site_fract_y
 _atom_site_fract_z
 _atom_site_occupancy
  Th  Th0  1  0.749963  0.250000  0.000000  1
  Th  Th1  1  0.250037  0.750001  0.000000  1
  Mg  Mg2  1  0.250002  0.750001  0.499996  1
  Mg  Mg3  1  0.749998  0.250000  0.500005  1
  In  In4  1  0.249967  0.250000  0.000000  1
  In  In5  1  0.750033  0.750001  0.000000  1
  In  In6  1  0.749993  0.750001  0.499999  1
  In  In7  1  0.250007  0.250000  0.500001  1
  Rh  Rh8  1  0.000000  0.000000  0.263954  1
  Rh  Rh9  1  0.000000  0.500001  0.263954  1
  Rh  Rh10  1  0.500005  0.000000  0.263947  1
  Rh  Rh11  1  0.500005  0.499999  0.263947  1
  Rh  Rh12  1  0.499996  0.000000  0.736053  1
  Rh  Rh13  1  0.499996  0.500001  0.736053  1
  Rh  Rh14  1  0.000000  0.000000  0.736047  1
  Rh  Rh15  1  0.000000  0.499999  0.736047  1
