# generated using pymatgen
data_Cs8SnGeSe8
_symmetry_space_group_name_H-M   'P 1'
_cell_length_a   9.20247903
_cell_length_b   10.96269900
_cell_length_c   16.10543879
_cell_angle_alpha   90.00000000
_cell_angle_beta   89.85699527
_cell_angle_gamma   90.00000000
_symmetry_Int_Tables_number   1
_chemical_formula_structural   Cs8SnGeSe8
_chemical_formula_sum   'Cs16 Sn2 Ge2 Se16'
_cell_volume   1624.77614858
_cell_formula_units_Z   2
loop_
 _symmetry_equiv_pos_site_id
 _symmetry_equiv_pos_as_xyz
  1  'x, y, z'
loop_
 _atom_site_type_symbol
 _atom_site_label
 _atom_site_symmetry_multiplicity
 _atom_site_fract_x
 _atom_site_fract_y
 _atom_site_fract_z
 _atom_site_occupancy
  Cs  Cs0  1  0.000000  0.000000  0.000000  1
  Cs  Cs1  1  0.500000  0.000000  0.500000  1
  Cs  Cs2  1  0.000000  0.500000  0.000000  1
  Cs  Cs3  1  0.500000  0.500000  0.500000  1
  Cs  Cs4  1  0.990723  0.750000  0.423040  1
  Cs  Cs5  1  0.489864  0.250000  0.078022  1
  Cs  Cs6  1  0.009277  0.250000  0.576960  1
  Cs  Cs7  1  0.510136  0.750000  0.921978  1
  Cs  Cs8  1  0.838540  0.053248  0.275569  1
  Cs  Cs9  1  0.337983  0.950281  0.225614  1
  Cs  Cs10  1  0.161460  0.553248  0.724431  1
  Cs  Cs11  1  0.662017  0.450281  0.774386  1
  Cs  Cs12  1  0.161460  0.946752  0.724431  1
  Cs  Cs13  1  0.662017  0.049719  0.774386  1
  Cs  Cs14  1  0.838540  0.446752  0.275569  1
  Cs  Cs15  1  0.337983  0.549719  0.225614  1
  Sn  Sn16  1  0.736559  0.750000  0.164125  1
  Sn  Sn17  1  0.263441  0.250000  0.835875  1
  Ge  Ge18  1  0.763311  0.750000  0.664069  1
  Ge  Ge19  1  0.236689  0.250000  0.335931  1
  Se  Se20  1  0.982592  0.250000  0.826965  1
  Se  Se21  1  0.500221  0.250000  0.327003  1
  Se  Se22  1  0.499779  0.750000  0.672997  1
  Se  Se23  1  0.017408  0.750000  0.173035  1
  Se  Se24  1  0.649313  0.558849  0.087573  1
  Se  Se25  1  0.153134  0.428658  0.407803  1
  Se  Se26  1  0.350687  0.058849  0.912427  1
  Se  Se27  1  0.846866  0.928658  0.592197  1
  Se  Se28  1  0.350687  0.441151  0.912427  1
  Se  Se29  1  0.846866  0.571342  0.592197  1
  Se  Se30  1  0.649313  0.941151  0.087573  1
  Se  Se31  1  0.153134  0.071342  0.407803  1
  Se  Se32  1  0.633943  0.750000  0.314732  1
  Se  Se33  1  0.139876  0.250000  0.195138  1
  Se  Se34  1  0.366057  0.250000  0.685268  1
  Se  Se35  1  0.860124  0.750000  0.804862  1
