# generated using pymatgen
data_Zr3B2IrRu4
_symmetry_space_group_name_H-M   'P 1'
_cell_length_a   9.60392146
_cell_length_b   9.60885046
_cell_length_c   3.14700100
_cell_angle_alpha   90.00000000
_cell_angle_beta   90.00000000
_cell_angle_gamma   90.03560713
_symmetry_Int_Tables_number   1
_chemical_formula_structural   Zr3B2IrRu4
_chemical_formula_sum   'Zr6 B4 Ir2 Ru8'
_cell_volume   290.41352068
_cell_formula_units_Z   2
loop_
 _symmetry_equiv_pos_site_id
 _symmetry_equiv_pos_as_xyz
  1  'x, y, z'
loop_
 _atom_site_type_symbol
 _atom_site_label
 _atom_site_symmetry_multiplicity
 _atom_site_fract_x
 _atom_site_fract_y
 _atom_site_fract_z
 _atom_site_occupancy
  Zr  Zr0  1  0.675102  0.179660  0.000000  1
  Zr  Zr1  1  0.324898  0.820340  0.000000  1
  Zr  Zr2  1  0.175316  0.328712  0.000000  1
  Zr  Zr3  1  0.824684  0.671288  0.000000  1
  Zr  Zr4  1  0.000000  0.000000  0.000000  1
  Zr  Zr5  1  0.500000  0.500000  0.000000  1
  B  B6  1  0.121437  0.621639  0.000000  1
  B  B7  1  0.878563  0.378361  0.000000  1
  B  B8  1  0.615177  0.874917  0.000000  1
  B  B9  1  0.384823  0.125083  0.000000  1
  Ir  Ir10  1  0.223916  0.071112  0.500000  1
  Ir  Ir11  1  0.776084  0.928888  0.500000  1
  Ru  Ru12  1  0.070817  0.777937  0.500000  1
  Ru  Ru13  1  0.722305  0.427426  0.500000  1
  Ru  Ru14  1  0.929183  0.222063  0.500000  1
  Ru  Ru15  1  0.277695  0.572574  0.500000  1
  Ru  Ru16  1  0.573003  0.721741  0.500000  1
  Ru  Ru17  1  0.426997  0.278259  0.500000  1
  Ru  Ru18  1  0.500000  0.000000  0.500000  1
  Ru  Ru19  1  0.000000  0.500000  0.500000  1
