# generated using pymatgen
data_Ac7Tb12ErPb16
_symmetry_space_group_name_H-M   'P 1'
_cell_length_a   8.41361346
_cell_length_b   8.47217859
_cell_length_c   16.13671200
_cell_angle_alpha   90.12193365
_cell_angle_beta   90.20232224
_cell_angle_gamma   89.89392809
_symmetry_Int_Tables_number   1
_chemical_formula_structural   Ac7Tb12ErPb16
_chemical_formula_sum   'Ac7 Tb12 Er1 Pb16'
_cell_volume   1150.23949573
_cell_formula_units_Z   1
loop_
 _symmetry_equiv_pos_site_id
 _symmetry_equiv_pos_as_xyz
  1  'x, y, z'
loop_
 _atom_site_type_symbol
 _atom_site_label
 _atom_site_symmetry_multiplicity
 _atom_site_fract_x
 _atom_site_fract_y
 _atom_site_fract_z
 _atom_site_occupancy
  Ac  Ac0  1  0.021791  0.177117  0.598547  1
  Ac  Ac1  1  0.479562  0.677064  0.404175  1
  Ac  Ac2  1  0.978569  0.822058  0.094384  1
  Ac  Ac3  1  0.478243  0.674568  0.094800  1
  Ac  Ac4  1  0.979168  0.824638  0.404252  1
  Ac  Ac5  1  0.519220  0.323727  0.595952  1
  Ac  Ac6  1  0.021971  0.178452  0.903847  1
  Tb  Tb7  1  0.363408  0.842775  0.877981  1
  Tb  Tb8  1  0.861221  0.656962  0.624011  1
  Tb  Tb9  1  0.636583  0.157627  0.376883  1
  Tb  Tb10  1  0.134553  0.343172  0.120424  1
  Tb  Tb11  1  0.633618  0.158648  0.121366  1
  Tb  Tb12  1  0.138034  0.342309  0.377180  1
  Tb  Tb13  1  0.363238  0.843734  0.625282  1
  Tb  Tb14  1  0.863345  0.655844  0.878658  1
  Tb  Tb15  1  0.528553  0.323762  0.899544  1
  Tb  Tb16  1  0.198572  0.503500  0.751647  1
  Tb  Tb17  1  0.698242  0.996772  0.752043  1
  Tb  Tb18  1  0.801139  0.495092  0.248676  1
  Er  Er19  1  0.301945  0.004741  0.249621  1
  Pb  Pb20  1  0.303333  0.045302  0.044714  1
  Pb  Pb21  1  0.803735  0.453954  0.454799  1
  Pb  Pb22  1  0.696813  0.954837  0.546377  1
  Pb  Pb23  1  0.210259  0.535155  0.952156  1
  Pb  Pb24  1  0.694750  0.962577  0.953812  1
  Pb  Pb25  1  0.195634  0.547446  0.545764  1
  Pb  Pb26  1  0.302748  0.045358  0.455104  1
  Pb  Pb27  1  0.793616  0.450334  0.039902  1
  Pb  Pb28  1  0.558918  0.631855  0.752529  1
  Pb  Pb29  1  0.058678  0.865179  0.751426  1
  Pb  Pb30  1  0.439453  0.364768  0.249576  1
  Pb  Pb31  1  0.941949  0.134022  0.248260  1
  Pb  Pb32  1  0.339844  0.150030  0.755263  1
  Pb  Pb33  1  0.826528  0.356341  0.752076  1
  Pb  Pb34  1  0.666285  0.855898  0.249541  1
  Pb  Pb35  1  0.166481  0.644385  0.249424  1
