# generated using pymatgen
data_TbY9(Si3O)2
_symmetry_space_group_name_H-M   'P 1'
_cell_length_a   8.42268700
_cell_length_b   8.42617765
_cell_length_c   6.24529800
_cell_angle_alpha   90.00000000
_cell_angle_beta   90.00000000
_cell_angle_gamma   119.98630117
_symmetry_Int_Tables_number   1
_chemical_formula_structural   TbY9(Si3O)2
_chemical_formula_sum   'Tb1 Y9 Si6 O2'
_cell_volume   383.90609187
_cell_formula_units_Z   1
loop_
 _symmetry_equiv_pos_site_id
 _symmetry_equiv_pos_as_xyz
  1  'x, y, z'
loop_
 _atom_site_type_symbol
 _atom_site_label
 _atom_site_symmetry_multiplicity
 _atom_site_fract_x
 _atom_site_fract_y
 _atom_site_fract_z
 _atom_site_occupancy
  Tb  Tb0  1  0.231904  0.000000  0.750000  1
  Y  Y1  1  0.767917  0.000000  0.250000  1
  Y  Y2  1  0.999976  0.232081  0.750000  1
  Y  Y3  1  0.999977  0.767877  0.250000  1
  Y  Y4  1  0.767895  0.767919  0.750000  1
  Y  Y5  1  0.232099  0.232123  0.250000  1
  Y  Y6  1  0.333352  0.666643  0.499985  1
  Y  Y7  1  0.666710  0.333357  0.499985  1
  Y  Y8  1  0.666710  0.333357  0.000015  1
  Y  Y9  1  0.333352  0.666643  0.000015  1
  Si  Si10  1  0.601321  0.000000  0.750000  1
  Si  Si11  1  0.398693  0.000000  0.250000  1
  Si  Si12  1  0.999892  0.601052  0.750000  1
  Si  Si13  1  0.999999  0.398738  0.250000  1
  Si  Si14  1  0.398840  0.398948  0.750000  1
  Si  Si15  1  0.601261  0.601262  0.250000  1
  O  O16  1  0.000050  0.000000  0.499999  1
  O  O17  1  0.000050  0.000000  0.000001  1
