# generated using pymatgen
data_Nb6SiGeC2
_symmetry_space_group_name_H-M   'P 1'
_cell_length_a   5.52608469
_cell_length_b   5.52608509
_cell_length_c   8.38417700
_cell_angle_alpha   90.00000000
_cell_angle_beta   90.00000000
_cell_angle_gamma   144.65194129
_symmetry_Int_Tables_number   1
_chemical_formula_structural   Nb6SiGeC2
_chemical_formula_sum   'Nb6 Si1 Ge1 C2'
_cell_volume   148.12570248
_cell_formula_units_Z   1
loop_
 _symmetry_equiv_pos_site_id
 _symmetry_equiv_pos_as_xyz
  1  'x, y, z'
loop_
 _atom_site_type_symbol
 _atom_site_label
 _atom_site_symmetry_multiplicity
 _atom_site_fract_x
 _atom_site_fract_y
 _atom_site_fract_z
 _atom_site_occupancy
  Nb  Nb0  1  0.633330  0.366672  0.050225  1
  Nb  Nb1  1  0.948649  0.051353  0.250000  1
  Nb  Nb2  1  0.633330  0.366672  0.449775  1
  Nb  Nb3  1  0.365396  0.634606  0.558166  1
  Nb  Nb4  1  0.056023  0.943979  0.750000  1
  Nb  Nb5  1  0.365396  0.634606  0.941835  1
  Si  Si6  1  0.744933  0.255069  0.750000  1
  Ge  Ge7  1  0.254269  0.745733  0.250000  1
  C  C8  1  0.999340  0.000660  0.998912  1
  C  C9  1  0.999340  0.000660  0.501088  1
