# generated using pymatgen
data_Tb2YIn3Cu2Rh
_symmetry_space_group_name_H-M   'P 1'
_cell_length_a   7.56735529
_cell_length_b   7.55980398
_cell_length_c   3.92374600
_cell_angle_alpha   90.00000000
_cell_angle_beta   90.00000000
_cell_angle_gamma   119.96614454
_symmetry_Int_Tables_number   1
_chemical_formula_structural   Tb2YIn3Cu2Rh
_chemical_formula_sum   'Tb2 Y1 In3 Cu2 Rh1'
_cell_volume   194.46177049
_cell_formula_units_Z   1
loop_
 _symmetry_equiv_pos_site_id
 _symmetry_equiv_pos_as_xyz
  1  'x, y, z'
loop_
 _atom_site_type_symbol
 _atom_site_label
 _atom_site_symmetry_multiplicity
 _atom_site_fract_x
 _atom_site_fract_y
 _atom_site_fract_z
 _atom_site_occupancy
  Tb  Tb0  1  0.404932  0.418041  0.500000  1
  Tb  Tb1  1  0.581865  0.986938  0.500000  1
  Y  Y2  1  0.012849  0.595143  0.500000  1
  In  In3  1  0.750663  0.746054  0.000000  1
  In  In4  1  0.995516  0.249521  0.000000  1
  In  In5  1  0.253840  0.004403  0.000000  1
  Cu  Cu6  1  0.000007  0.000030  0.500000  1
  Cu  Cu7  1  0.666477  0.333167  0.000000  1
  Rh  Rh8  1  0.333851  0.666703  0.000000  1
