# generated using pymatgen
data_Ho3ZnCo9GeB4
_symmetry_space_group_name_H-M   'P 1'
_cell_length_a   5.13208649
_cell_length_b   5.13007260
_cell_length_c   9.55757700
_cell_angle_alpha   89.99796183
_cell_angle_beta   90.00107681
_cell_angle_gamma   120.02209714
_symmetry_Int_Tables_number   1
_chemical_formula_structural   Ho3ZnCo9GeB4
_chemical_formula_sum   'Ho3 Zn1 Co9 Ge1 B4'
_cell_volume   217.87087122
_cell_formula_units_Z   1
loop_
 _symmetry_equiv_pos_site_id
 _symmetry_equiv_pos_as_xyz
  1  'x, y, z'
loop_
 _atom_site_type_symbol
 _atom_site_label
 _atom_site_symmetry_multiplicity
 _atom_site_fract_x
 _atom_site_fract_y
 _atom_site_fract_z
 _atom_site_occupancy
  Ho  Ho0  1  0.999969  0.999946  0.999959  1
  Ho  Ho1  1  0.000007  0.999998  0.340442  1
  Ho  Ho2  1  0.000009  0.999986  0.659630  1
  Zn  Zn3  1  0.666596  0.333274  0.999973  1
  Co  Co4  1  0.500211  0.000395  0.499985  1
  Co  Co5  1  0.500201  0.499786  0.500021  1
  Co  Co6  1  0.999572  0.499765  0.499986  1
  Co  Co7  1  0.498803  0.997611  0.207310  1
  Co  Co8  1  0.498791  0.501211  0.207344  1
  Co  Co9  1  0.002389  0.501194  0.207356  1
  Co  Co10  1  0.498809  0.997608  0.792690  1
  Co  Co11  1  0.498798  0.501223  0.792615  1
  Co  Co12  1  0.002414  0.501214  0.792667  1
  Ge  Ge13  1  0.333418  0.666810  0.999946  1
  B  B14  1  0.333338  0.666641  0.350443  1
  B  B15  1  0.666620  0.333354  0.348699  1
  B  B16  1  0.666660  0.333223  0.651339  1
  B  B17  1  0.333294  0.666763  0.649597  1
