# generated using pymatgen
data_YHo3NbPd15
_symmetry_space_group_name_H-M   'P 1'
_cell_length_a   4.09337900
_cell_length_b   4.09337900
_cell_length_c   20.49614200
_cell_angle_alpha   90.00000000
_cell_angle_beta   90.00000000
_cell_angle_gamma   90.00000000
_symmetry_Int_Tables_number   1
_chemical_formula_structural   YHo3NbPd15
_chemical_formula_sum   'Y1 Ho3 Nb1 Pd15'
_cell_volume   343.42826488
_cell_formula_units_Z   1
loop_
 _symmetry_equiv_pos_site_id
 _symmetry_equiv_pos_as_xyz
  1  'x, y, z'
loop_
 _atom_site_type_symbol
 _atom_site_label
 _atom_site_symmetry_multiplicity
 _atom_site_fract_x
 _atom_site_fract_y
 _atom_site_fract_z
 _atom_site_occupancy
  Y  Y0  1  0.000000  0.000000  0.801104  1
  Ho  Ho1  1  0.000000  0.000000  0.199001  1
  Ho  Ho2  1  0.000000  0.000000  0.398362  1
  Ho  Ho3  1  0.000000  0.000000  0.601599  1
  Nb  Nb4  1  0.000000  0.000000  0.000020  1
  Pd  Pd5  1  0.500000  0.500000  0.000076  1
  Pd  Pd6  1  0.500000  0.500000  0.193802  1
  Pd  Pd7  1  0.500000  0.500000  0.398079  1
  Pd  Pd8  1  0.500000  0.500000  0.601926  1
  Pd  Pd9  1  0.500000  0.500000  0.806164  1
  Pd  Pd10  1  0.500000  0.000000  0.091365  1
  Pd  Pd11  1  0.500000  0.000000  0.296603  1
  Pd  Pd12  1  0.500000  0.000000  0.500010  1
  Pd  Pd13  1  0.500000  0.000000  0.703030  1
  Pd  Pd14  1  0.500000  0.000000  0.908927  1
  Pd  Pd15  1  0.000000  0.500000  0.091365  1
  Pd  Pd16  1  0.000000  0.500000  0.296603  1
  Pd  Pd17  1  0.000000  0.500000  0.500010  1
  Pd  Pd18  1  0.000000  0.500000  0.703030  1
  Pd  Pd19  1  0.000000  0.500000  0.908927  1
