# generated using pymatgen
data_Tm2Lu10InCo5
_symmetry_space_group_name_H-M   'P 1'
_cell_length_a   8.09021871
_cell_length_b   8.08690349
_cell_length_c   8.09021917
_cell_angle_alpha   111.06372178
_cell_angle_beta   111.02452877
_cell_angle_gamma   106.38493860
_symmetry_Int_Tables_number   1
_chemical_formula_structural   Tm2Lu10InCo5
_chemical_formula_sum   'Tm2 Lu10 In1 Co5'
_cell_volume   406.49215206
_cell_formula_units_Z   1
loop_
 _symmetry_equiv_pos_site_id
 _symmetry_equiv_pos_as_xyz
  1  'x, y, z'
loop_
 _atom_site_type_symbol
 _atom_site_label
 _atom_site_symmetry_multiplicity
 _atom_site_fract_x
 _atom_site_fract_y
 _atom_site_fract_z
 _atom_site_occupancy
  Tm  Tm0  1  0.214523  0.022027  0.807504  1
  Tm  Tm1  1  0.785477  0.977973  0.192496  1
  Lu  Lu2  1  0.287200  0.185646  0.472042  1
  Lu  Lu3  1  0.712800  0.814354  0.527958  1
  Lu  Lu4  1  0.286394  0.814354  0.101553  1
  Lu  Lu5  1  0.713606  0.185646  0.898447  1
  Lu  Lu6  1  0.618856  0.314783  0.305375  1
  Lu  Lu7  1  0.381144  0.685217  0.694625  1
  Lu  Lu8  1  0.009407  0.314783  0.695927  1
  Lu  Lu9  1  0.990593  0.685217  0.304073  1
  Lu  Lu10  1  0.214380  0.407258  0.192879  1
  Lu  Lu11  1  0.785620  0.592742  0.807121  1
  In  In12  1  0.500000  0.500000  0.000000  1
  Co  Co13  1  0.000438  0.376719  0.376281  1
  Co  Co14  1  0.999562  0.623281  0.623719  1
  Co  Co15  1  0.386841  0.886620  0.499780  1
  Co  Co16  1  0.613159  0.113380  0.500220  1
  Co  Co17  1  0.000000  0.000000  0.000000  1
