# generated using pymatgen
data_Tb15ThIn4IrRu3
_symmetry_space_group_name_H-M   'P 1'
_cell_length_a   9.70113494
_cell_length_b   9.70734266
_cell_length_c   9.70113400
_cell_angle_alpha   60.02114820
_cell_angle_beta   59.99999639
_cell_angle_gamma   60.02115137
_symmetry_Int_Tables_number   1
_chemical_formula_structural   Tb15ThIn4IrRu3
_chemical_formula_sum   'Tb15 Th1 In4 Ir1 Ru3'
_cell_volume   646.20328354
_cell_formula_units_Z   1
loop_
 _symmetry_equiv_pos_site_id
 _symmetry_equiv_pos_as_xyz
  1  'x, y, z'
loop_
 _atom_site_type_symbol
 _atom_site_label
 _atom_site_symmetry_multiplicity
 _atom_site_fract_x
 _atom_site_fract_y
 _atom_site_fract_z
 _atom_site_occupancy
  Tb  Tb0  1  0.941166  0.939274  0.559781  1
  Tb  Tb1  1  0.940150  0.560256  0.940150  1
  Tb  Tb2  1  0.311684  0.687315  0.311684  1
  Tb  Tb3  1  0.940150  0.560256  0.559444  1
  Tb  Tb4  1  0.311899  0.307816  0.690143  1
  Tb  Tb5  1  0.099743  0.100020  0.099743  1
  Tb  Tb6  1  0.559444  0.560256  0.940150  1
  Tb  Tb7  1  0.099743  0.100020  0.700495  1
  Tb  Tb8  1  0.690143  0.307816  0.690143  1
  Tb  Tb9  1  0.689316  0.687315  0.311684  1
  Tb  Tb10  1  0.690143  0.307816  0.311899  1
  Tb  Tb11  1  0.311684  0.687315  0.689316  1
  Tb  Tb12  1  0.559781  0.939274  0.559781  1
  Tb  Tb13  1  0.700495  0.100020  0.099743  1
  Tb  Tb14  1  0.559781  0.939274  0.941166  1
  Th  Th15  1  0.093787  0.718640  0.093787  1
  In  In16  1  0.332483  0.332250  0.332483  1
  In  In17  1  0.002784  0.332250  0.332483  1
  In  In18  1  0.332748  0.001754  0.332748  1
  In  In19  1  0.332483  0.332250  0.002784  1
  Ir  Ir20  1  0.891269  0.326194  0.891269  1
  Ru  Ru21  1  0.891959  0.890873  0.891959  1
  Ru  Ru22  1  0.891959  0.890873  0.325208  1
  Ru  Ru23  1  0.325208  0.890873  0.891959  1
