# generated using pymatgen
data_Hf8TaCo2Ru
_symmetry_space_group_name_H-M   'P 1'
_cell_length_a   8.66196815
_cell_length_b   8.66219002
_cell_length_c   8.66880000
_cell_angle_alpha   59.97504448
_cell_angle_beta   59.97412754
_cell_angle_gamma   60.04721727
_symmetry_Int_Tables_number   1
_chemical_formula_structural   Hf8TaCo2Ru
_chemical_formula_sum   'Hf16 Ta2 Co4 Ru2'
_cell_volume   459.91328799
_cell_formula_units_Z   2
loop_
 _symmetry_equiv_pos_site_id
 _symmetry_equiv_pos_as_xyz
  1  'x, y, z'
loop_
 _atom_site_type_symbol
 _atom_site_label
 _atom_site_symmetry_multiplicity
 _atom_site_fract_x
 _atom_site_fract_y
 _atom_site_fract_z
 _atom_site_occupancy
  Hf  Hf0  1  0.048992  0.649488  0.650770  1
  Hf  Hf1  1  0.649463  0.048985  0.650788  1
  Hf  Hf2  1  0.650370  0.650406  0.049488  1
  Hf  Hf3  1  0.650360  0.650395  0.649752  1
  Hf  Hf4  1  0.800140  0.800125  0.199841  1
  Hf  Hf5  1  0.202670  0.202603  0.797355  1
  Hf  Hf6  1  0.803150  0.198208  0.801045  1
  Hf  Hf7  1  0.198282  0.803130  0.197551  1
  Hf  Hf8  1  0.198238  0.803154  0.801058  1
  Hf  Hf9  1  0.803126  0.198252  0.197596  1
  Hf  Hf10  1  0.437518  0.437521  0.062499  1
  Hf  Hf11  1  0.065970  0.065982  0.434034  1
  Hf  Hf12  1  0.436758  0.066978  0.434905  1
  Hf  Hf13  1  0.066964  0.436782  0.061360  1
  Hf  Hf14  1  0.066992  0.436755  0.434893  1
  Hf  Hf15  1  0.436786  0.066954  0.061359  1
  Ta  Ta16  1  0.740848  0.417105  0.421009  1
  Ta  Ta17  1  0.417105  0.740858  0.421002  1
  Co  Co18  1  0.422336  0.858488  0.859587  1
  Co  Co19  1  0.858475  0.422326  0.859598  1
  Co  Co20  1  0.859425  0.859442  0.422881  1
  Co  Co21  1  0.859427  0.859445  0.858248  1
  Ru  Ru22  1  0.413299  0.413304  0.759140  1
  Ru  Ru23  1  0.413306  0.413310  0.414240  1
