# generated using pymatgen
data_Zr2Co9Ni3As7
_symmetry_space_group_name_H-M   'P 1'
_cell_length_a   9.30961617
_cell_length_b   9.31552779
_cell_length_c   3.67127200
_cell_angle_alpha   90.00000000
_cell_angle_beta   90.00000000
_cell_angle_gamma   119.97600584
_symmetry_Int_Tables_number   1
_chemical_formula_structural   Zr2Co9Ni3As7
_chemical_formula_sum   'Zr2 Co9 Ni3 As7'
_cell_volume   275.79817530
_cell_formula_units_Z   1
loop_
 _symmetry_equiv_pos_site_id
 _symmetry_equiv_pos_as_xyz
  1  'x, y, z'
loop_
 _atom_site_type_symbol
 _atom_site_label
 _atom_site_symmetry_multiplicity
 _atom_site_fract_x
 _atom_site_fract_y
 _atom_site_fract_z
 _atom_site_occupancy
  Zr  Zr0  1  0.333505  0.666689  0.000000  1
  Zr  Zr1  1  0.667117  0.333675  0.500000  1
  Co  Co2  1  0.435462  0.384019  0.000000  1
  Co  Co3  1  0.616291  0.051728  0.000000  1
  Co  Co4  1  0.948609  0.564578  0.000000  1
  Co  Co5  1  0.378553  0.939536  0.500000  1
  Co  Co6  1  0.059948  0.439012  0.500000  1
  Co  Co7  1  0.560725  0.621407  0.500000  1
  Co  Co8  1  0.279081  0.160557  0.500000  1
  Co  Co9  1  0.839758  0.118807  0.500000  1
  Co  Co10  1  0.881172  0.721055  0.500000  1
  Ni  Ni11  1  0.125536  0.907090  0.000000  1
  Ni  Ni12  1  0.092025  0.216829  0.000000  1
  Ni  Ni13  1  0.782032  0.874622  0.000000  1
  As  As14  1  0.000100  0.999906  0.500000  1
  As  As15  1  0.289076  0.410874  0.500000  1
  As  As16  1  0.589410  0.878798  0.500000  1
  As  As17  1  0.121341  0.710494  0.500000  1
  As  As18  1  0.408981  0.117826  0.000000  1
  As  As19  1  0.882459  0.291201  0.000000  1
  As  As20  1  0.708820  0.591296  0.000000  1
