# generated using pymatgen
data_CaZr(NbS2)6
_symmetry_space_group_name_H-M   'P 1'
_cell_length_a   5.78491500
_cell_length_b   5.78491495
_cell_length_c   13.78374000
_cell_angle_alpha   90.00000000
_cell_angle_beta   90.00000000
_cell_angle_gamma   120.00000602
_symmetry_Int_Tables_number   1
_chemical_formula_structural   CaZr(NbS2)6
_chemical_formula_sum   'Ca1 Zr1 Nb6 S12'
_cell_volume   399.47686973
_cell_formula_units_Z   1
loop_
 _symmetry_equiv_pos_site_id
 _symmetry_equiv_pos_as_xyz
  1  'x, y, z'
loop_
 _atom_site_type_symbol
 _atom_site_label
 _atom_site_symmetry_multiplicity
 _atom_site_fract_x
 _atom_site_fract_y
 _atom_site_fract_z
 _atom_site_occupancy
  Ca  Ca0  1  0.666667  0.333333  0.750000  1
  Zr  Zr1  1  0.333333  0.666667  0.250000  1
  Nb  Nb2  1  0.333333  0.666667  0.012136  1
  Nb  Nb3  1  0.000000  0.000000  0.012809  1
  Nb  Nb4  1  0.666667  0.333333  0.012858  1
  Nb  Nb5  1  0.333333  0.666667  0.487864  1
  Nb  Nb6  1  0.000000  0.000000  0.487191  1
  Nb  Nb7  1  0.666667  0.333333  0.487142  1
  S  S8  1  0.669612  0.666632  0.371384  1
  S  S9  1  0.668252  0.669663  0.602444  1
  S  S10  1  0.001411  0.669663  0.897556  1
  S  S11  1  0.668252  0.998589  0.897556  1
  S  S12  1  0.669612  0.002979  0.128616  1
  S  S13  1  0.333368  0.002979  0.371384  1
  S  S14  1  0.001411  0.331748  0.602444  1
  S  S15  1  0.330337  0.998589  0.602444  1
  S  S16  1  0.997021  0.666632  0.128616  1
  S  S17  1  0.330337  0.331748  0.897556  1
  S  S18  1  0.997021  0.330388  0.371384  1
  S  S19  1  0.333368  0.330388  0.128616  1
