# generated using pymatgen
data_La4Ga10(CuPt)3
_symmetry_space_group_name_H-M   'P 1'
_cell_length_a   8.61473344
_cell_length_b   8.57974573
_cell_length_c   8.57974500
_cell_angle_alpha   138.90522897
_cell_angle_beta   106.06822303
_cell_angle_gamma   88.20028739
_symmetry_Int_Tables_number   1
_chemical_formula_structural   La4Ga10(CuPt)3
_chemical_formula_sum   'La4 Ga10 Cu3 Pt3'
_cell_volume   384.46273661
_cell_formula_units_Z   1
loop_
 _symmetry_equiv_pos_site_id
 _symmetry_equiv_pos_as_xyz
  1  'x, y, z'
loop_
 _atom_site_type_symbol
 _atom_site_label
 _atom_site_symmetry_multiplicity
 _atom_site_fract_x
 _atom_site_fract_y
 _atom_site_fract_z
 _atom_site_occupancy
  La  La0  1  0.864397  0.633332  0.231064  1
  La  La1  1  0.132475  0.366308  0.766168  1
  La  La2  1  0.400886  0.134777  0.266109  1
  La  La3  1  0.599420  0.866635  0.732785  1
  Ga  Ga4  1  0.494638  0.748353  0.249903  1
  Ga  Ga5  1  0.494638  0.244734  0.746286  1
  Ga  Ga6  1  0.222626  0.968407  0.739068  1
  Ga  Ga7  1  0.780241  0.530298  0.754190  1
  Ga  Ga8  1  0.780241  0.026052  0.249944  1
  Ga  Ga9  1  0.222626  0.483558  0.254219  1
  Ga  Ga10  1  0.051891  0.897613  0.154279  1
  Ga  Ga11  1  0.958595  0.106032  0.852563  1
  Ga  Ga12  1  0.750043  0.398214  0.351830  1
  Ga  Ga13  1  0.250944  0.602309  0.648635  1
  Cu  Cu14  1  0.999980  0.750404  0.752578  1
  Cu  Cu15  1  0.999980  0.247402  0.249576  1
  Cu  Cu16  1  0.250224  0.863275  0.386949  1
  Pt  Pt17  1  0.746199  0.135333  0.610862  1
  Pt  Pt18  1  0.474069  0.360206  0.113862  1
  Pt  Pt19  1  0.525889  0.636759  0.889130  1
