# generated using pymatgen
data_Li2TbDy3(Co3P2)6
_symmetry_space_group_name_H-M   'P 1'
_cell_length_a   3.67666800
_cell_length_b   10.27556201
_cell_length_c   11.83583002
_cell_angle_alpha   90.00585272
_cell_angle_beta   90.00000000
_cell_angle_gamma   90.00000000
_symmetry_Int_Tables_number   1
_chemical_formula_structural   Li2TbDy3(Co3P2)6
_chemical_formula_sum   'Li2 Tb1 Dy3 Co18 P12'
_cell_volume   447.15564399
_cell_formula_units_Z   1
loop_
 _symmetry_equiv_pos_site_id
 _symmetry_equiv_pos_as_xyz
  1  'x, y, z'
loop_
 _atom_site_type_symbol
 _atom_site_label
 _atom_site_symmetry_multiplicity
 _atom_site_fract_x
 _atom_site_fract_y
 _atom_site_fract_z
 _atom_site_occupancy
  Li  Li0  1  0.250000  0.703133  0.990756  1
  Li  Li1  1  0.250000  0.796848  0.490653  1
  Tb  Tb2  1  0.750000  0.081100  0.797679  1
  Dy  Dy3  1  0.250000  0.580176  0.702059  1
  Dy  Dy4  1  0.250000  0.919861  0.201810  1
  Dy  Dy5  1  0.750000  0.418829  0.297451  1
  Co  Co6  1  0.750000  0.288835  0.009346  1
  Co  Co7  1  0.750000  0.211253  0.509207  1
  Co  Co8  1  0.250000  0.403549  0.487240  1
  Co  Co9  1  0.250000  0.096418  0.987698  1
  Co  Co10  1  0.750000  0.590662  0.514086  1
  Co  Co11  1  0.750000  0.909207  0.014196  1
  Co  Co12  1  0.250000  0.223230  0.175065  1
  Co  Co13  1  0.250000  0.277092  0.674991  1
  Co  Co14  1  0.750000  0.780589  0.825938  1
  Co  Co15  1  0.750000  0.719261  0.325835  1
  Co  Co16  1  0.250000  0.881497  0.698232  1
  Co  Co17  1  0.250000  0.618165  0.198277  1
  Co  Co18  1  0.750000  0.120074  0.300237  1
  Co  Co19  1  0.750000  0.380171  0.800399  1
  Co  Co20  1  0.250000  0.464537  0.931791  1
  Co  Co21  1  0.250000  0.035617  0.431528  1
  Co  Co22  1  0.750000  0.532521  0.066292  1
  Co  Co23  1  0.750000  0.967368  0.566088  1
  P  P24  1  0.250000  0.421391  0.111883  1
  P  P25  1  0.250000  0.078578  0.611540  1
  P  P26  1  0.750000  0.578080  0.884488  1
  P  P27  1  0.750000  0.921967  0.384322  1
  P  P28  1  0.250000  0.269558  0.867417  1
  P  P29  1  0.250000  0.230924  0.367212  1
  P  P30  1  0.750000  0.728652  0.137919  1
  P  P31  1  0.750000  0.771304  0.637913  1
  P  P32  1  0.250000  0.600742  0.392760  1
  P  P33  1  0.250000  0.898822  0.892987  1
  P  P34  1  0.750000  0.395850  0.607380  1
  P  P35  1  0.750000  0.104137  0.107326  1
