# generated using pymatgen
data_CdBi6(PO5)4
_symmetry_space_group_name_H-M   'P 1'
_cell_length_a   6.98997690
_cell_length_b   7.67273703
_cell_length_c   9.28510668
_cell_angle_alpha   106.67805296
_cell_angle_beta   94.11610112
_cell_angle_gamma   112.31030530
_symmetry_Int_Tables_number   1
_chemical_formula_structural   CdBi6(PO5)4
_chemical_formula_sum   'Cd1 Bi6 P4 O20'
_cell_volume   432.04829718
_cell_formula_units_Z   1
loop_
 _symmetry_equiv_pos_site_id
 _symmetry_equiv_pos_as_xyz
  1  'x, y, z'
loop_
 _atom_site_type_symbol
 _atom_site_label
 _atom_site_symmetry_multiplicity
 _atom_site_fract_x
 _atom_site_fract_y
 _atom_site_fract_z
 _atom_site_occupancy
  Cd  Cd0  1  0.000000  0.500000  0.000000  1
  Bi  Bi1  1  0.811182  0.802567  0.323479  1
  Bi  Bi2  1  0.336816  0.633234  0.511423  1
  Bi  Bi3  1  0.434385  0.291383  0.085472  1
  Bi  Bi4  1  0.565615  0.708617  0.914528  1
  Bi  Bi5  1  0.663184  0.366766  0.488577  1
  Bi  Bi6  1  0.188818  0.197433  0.676521  1
  P  P7  1  0.339070  0.887533  0.250556  1
  P  P8  1  0.660930  0.112467  0.749444  1
  P  P9  1  0.946091  0.234449  0.237487  1
  P  P10  1  0.053909  0.765551  0.762513  1
  O  O11  1  0.448782  0.472597  0.637472  1
  O  O12  1  0.148087  0.998429  0.834176  1
  O  O13  1  0.343781  0.809891  0.077586  1
  O  O14  1  0.228923  0.685904  0.757707  1
  O  O15  1  0.516918  0.874406  0.352356  1
  O  O16  1  0.895683  0.667177  0.856037  1
  O  O17  1  0.483082  0.125594  0.647644  1
  O  O18  1  0.056124  0.297985  0.408942  1
  O  O19  1  0.638101  0.892909  0.696184  1
  O  O20  1  0.851913  0.001571  0.165824  1
  O  O21  1  0.771077  0.314096  0.242293  1
  O  O22  1  0.943876  0.702015  0.591058  1
  O  O23  1  0.551218  0.527403  0.362528  1
  O  O24  1  0.880199  0.254485  0.730390  1
  O  O25  1  0.317097  0.408720  0.903510  1
  O  O26  1  0.656219  0.190109  0.922414  1
  O  O27  1  0.682903  0.591280  0.096490  1
  O  O28  1  0.104317  0.332823  0.143963  1
  O  O29  1  0.361899  0.107091  0.303816  1
  O  O30  1  0.119801  0.745515  0.269610  1
