# generated using pymatgen
data_Zr8Co2TcIr
_symmetry_space_group_name_H-M   'P 1'
_cell_length_a   8.70073576
_cell_length_b   8.70073602
_cell_length_c   8.69424500
_cell_angle_alpha   60.02467164
_cell_angle_beta   60.02467065
_cell_angle_gamma   60.05678588
_symmetry_Int_Tables_number   1
_chemical_formula_structural   Zr8Co2TcIr
_chemical_formula_sum   'Zr16 Co4 Tc2 Ir2'
_cell_volume   465.77574763
_cell_formula_units_Z   2
loop_
 _symmetry_equiv_pos_site_id
 _symmetry_equiv_pos_as_xyz
  1  'x, y, z'
loop_
 _atom_site_type_symbol
 _atom_site_label
 _atom_site_symmetry_multiplicity
 _atom_site_fract_x
 _atom_site_fract_y
 _atom_site_fract_z
 _atom_site_occupancy
  Zr  Zr0  1  0.051323  0.649042  0.649818  1
  Zr  Zr1  1  0.649042  0.051323  0.649818  1
  Zr  Zr2  1  0.648779  0.648779  0.053627  1
  Zr  Zr3  1  0.648779  0.648779  0.648817  1
  Zr  Zr4  1  0.797432  0.797432  0.202568  1
  Zr  Zr5  1  0.201520  0.201520  0.798480  1
  Zr  Zr6  1  0.798002  0.200961  0.799284  1
  Zr  Zr7  1  0.200961  0.798002  0.201752  1
  Zr  Zr8  1  0.200961  0.798002  0.799284  1
  Zr  Zr9  1  0.798002  0.200961  0.201752  1
  Zr  Zr10  1  0.435438  0.435438  0.064562  1
  Zr  Zr11  1  0.064373  0.064373  0.435627  1
  Zr  Zr12  1  0.435786  0.067997  0.434777  1
  Zr  Zr13  1  0.067997  0.435786  0.061440  1
  Zr  Zr14  1  0.067997  0.435786  0.434777  1
  Zr  Zr15  1  0.435786  0.067997  0.061440  1
  Co  Co16  1  0.420478  0.859226  0.860148  1
  Co  Co17  1  0.859226  0.420478  0.860148  1
  Co  Co18  1  0.859539  0.859539  0.420505  1
  Co  Co19  1  0.859539  0.859539  0.860416  1
  Tc  Tc20  1  0.417784  0.417784  0.745599  1
  Tc  Tc21  1  0.417784  0.417784  0.418833  1
  Ir  Ir22  1  0.746997  0.416477  0.418263  1
  Ir  Ir23  1  0.416477  0.746997  0.418263  1
