# generated using pymatgen
data_YTa8TlSe16
_symmetry_space_group_name_H-M   'P 1'
_cell_length_a   7.01460700
_cell_length_b   7.01460737
_cell_length_c   14.93967200
_cell_angle_alpha   90.00000000
_cell_angle_beta   90.00000000
_cell_angle_gamma   120.00000296
_symmetry_Int_Tables_number   1
_chemical_formula_structural   YTa8TlSe16
_chemical_formula_sum   'Y1 Ta8 Tl1 Se16'
_cell_volume   636.61723642
_cell_formula_units_Z   1
loop_
 _symmetry_equiv_pos_site_id
 _symmetry_equiv_pos_as_xyz
  1  'x, y, z'
loop_
 _atom_site_type_symbol
 _atom_site_label
 _atom_site_symmetry_multiplicity
 _atom_site_fract_x
 _atom_site_fract_y
 _atom_site_fract_z
 _atom_site_occupancy
  Y  Y0  1  0.000000  0.000000  0.500000  1
  Ta  Ta1  1  0.000000  0.000000  0.265220  1
  Ta  Ta2  1  0.000000  0.000000  0.734780  1
  Ta  Ta3  1  0.507315  0.014632  0.263175  1
  Ta  Ta4  1  0.985368  0.492685  0.263175  1
  Ta  Ta5  1  0.507315  0.492685  0.263175  1
  Ta  Ta6  1  0.492685  0.985368  0.736825  1
  Ta  Ta7  1  0.014632  0.507315  0.736825  1
  Ta  Ta8  1  0.492685  0.507315  0.736825  1
  Tl  Tl9  1  0.000000  0.000000  0.000000  1
  Se  Se10  1  0.333333  0.666667  0.851338  1
  Se  Se11  1  0.666667  0.333333  0.148662  1
  Se  Se12  1  0.666667  0.333333  0.378897  1
  Se  Se13  1  0.333333  0.666667  0.621103  1
  Se  Se14  1  0.171203  0.828797  0.373575  1
  Se  Se15  1  0.171203  0.342405  0.373575  1
  Se  Se16  1  0.657595  0.828797  0.373575  1
  Se  Se17  1  0.828797  0.171203  0.626425  1
  Se  Se18  1  0.828797  0.657595  0.626425  1
  Se  Se19  1  0.342405  0.171203  0.626425  1
  Se  Se20  1  0.831816  0.168184  0.844103  1
  Se  Se21  1  0.831816  0.663633  0.844103  1
  Se  Se22  1  0.336367  0.168184  0.844103  1
  Se  Se23  1  0.168184  0.831816  0.155897  1
  Se  Se24  1  0.168184  0.336367  0.155897  1
  Se  Se25  1  0.663633  0.831816  0.155897  1
