# generated using pymatgen
data_Dy5Tm3(LuPb3)2
_symmetry_space_group_name_H-M   'P 1'
_cell_length_a   6.56300800
_cell_length_b   8.99712111
_cell_length_c   9.00764401
_cell_angle_alpha   119.96886127
_cell_angle_beta   89.99925257
_cell_angle_gamma   90.00049863
_symmetry_Int_Tables_number   1
_chemical_formula_structural   Dy5Tm3(LuPb3)2
_chemical_formula_sum   'Dy5 Tm3 Lu2 Pb6'
_cell_volume   460.77035610
_cell_formula_units_Z   1
loop_
 _symmetry_equiv_pos_site_id
 _symmetry_equiv_pos_as_xyz
  1  'x, y, z'
loop_
 _atom_site_type_symbol
 _atom_site_label
 _atom_site_symmetry_multiplicity
 _atom_site_fract_x
 _atom_site_fract_y
 _atom_site_fract_z
 _atom_site_occupancy
  Dy  Dy0  1  0.750166  0.236662  0.000021  1
  Dy  Dy1  1  0.750167  0.763338  0.762822  1
  Dy  Dy2  1  0.750182  0.000378  0.237677  1
  Dy  Dy3  1  0.249838  0.763156  0.999515  1
  Dy  Dy4  1  0.249842  0.236975  0.236832  1
  Tm  Tm5  1  0.249824  0.999660  0.763147  1
  Tm  Tm6  1  0.499883  0.333188  0.666925  1
  Tm  Tm7  1  0.499888  0.666719  0.333079  1
  Lu  Lu8  1  0.000089  0.666732  0.333069  1
  Lu  Lu9  1  0.000109  0.333234  0.666926  1
  Pb  Pb10  1  0.750426  0.603728  0.999968  1
  Pb  Pb11  1  0.750458  0.395947  0.395896  1
  Pb  Pb12  1  0.750458  0.999921  0.603489  1
  Pb  Pb13  1  0.249558  0.394667  0.998988  1
  Pb  Pb14  1  0.249556  0.605700  0.604605  1
  Pb  Pb15  1  0.249556  0.999996  0.397041  1
