# generated using pymatgen
data_Yb3Er2Si12Ir19
_symmetry_space_group_name_H-M   'P 1'
_cell_length_a   12.80502524
_cell_length_b   12.80502601
_cell_length_c   3.99160000
_cell_angle_alpha   90.00000000
_cell_angle_beta   90.00000000
_cell_angle_gamma   120.02237783
_symmetry_Int_Tables_number   1
_chemical_formula_structural   Yb3Er2Si12Ir19
_chemical_formula_sum   'Yb3 Er2 Si12 Ir19'
_cell_volume   566.68350927
_cell_formula_units_Z   1
loop_
 _symmetry_equiv_pos_site_id
 _symmetry_equiv_pos_as_xyz
  1  'x, y, z'
loop_
 _atom_site_type_symbol
 _atom_site_label
 _atom_site_symmetry_multiplicity
 _atom_site_fract_x
 _atom_site_fract_y
 _atom_site_fract_z
 _atom_site_occupancy
  Yb  Yb0  1  0.666805  0.333285  0.000000  1
  Yb  Yb1  1  0.333285  0.666805  0.000000  1
  Yb  Yb2  1  0.815522  0.815522  0.500000  1
  Er  Er3  1  0.182775  0.999754  0.500000  1
  Er  Er4  1  0.999754  0.182775  0.500000  1
  Si  Si5  1  0.687276  0.168334  0.500000  1
  Si  Si6  1  0.831950  0.520062  0.500000  1
  Si  Si7  1  0.480821  0.312548  0.500000  1
  Si  Si8  1  0.168334  0.687276  0.500000  1
  Si  Si9  1  0.520062  0.831950  0.500000  1
  Si  Si10  1  0.312548  0.480821  0.500000  1
  Si  Si11  1  0.630687  0.630687  0.000000  1
  Si  Si12  1  0.368986  0.999933  0.000000  1
  Si  Si13  1  0.999933  0.368986  0.000000  1
  Si  Si14  1  0.181835  0.181835  0.000000  1
  Si  Si15  1  0.818015  0.999460  0.000000  1
  Si  Si16  1  0.999460  0.818015  0.000000  1
  Ir  Ir17  1  0.807226  0.183315  0.000000  1
  Ir  Ir18  1  0.816348  0.622308  0.000000  1
  Ir  Ir19  1  0.375600  0.192707  0.000000  1
  Ir  Ir20  1  0.183315  0.807226  0.000000  1
  Ir  Ir21  1  0.622308  0.816348  0.000000  1
  Ir  Ir22  1  0.192707  0.375600  0.000000  1
  Ir  Ir23  1  0.446452  0.446452  0.000000  1
  Ir  Ir24  1  0.553647  0.001109  0.000000  1
  Ir  Ir25  1  0.001109  0.553647  0.000000  1
  Ir  Ir26  1  0.282615  0.282615  0.500000  1
  Ir  Ir27  1  0.717995  0.001187  0.500000  1
  Ir  Ir28  1  0.001187  0.717995  0.500000  1
  Ir  Ir29  1  0.873418  0.360934  0.500000  1
  Ir  Ir30  1  0.639136  0.513010  0.500000  1
  Ir  Ir31  1  0.486858  0.126590  0.500000  1
  Ir  Ir32  1  0.360934  0.873418  0.500000  1
  Ir  Ir33  1  0.513010  0.639136  0.500000  1
  Ir  Ir34  1  0.126590  0.486858  0.500000  1
  Ir  Ir35  1  0.001494  0.001494  0.000000  1
