# generated using pymatgen
data_Ho2(ThRu)3
_symmetry_space_group_name_H-M   'P 1'
_cell_length_a   6.51836800
_cell_length_b   8.27178267
_cell_length_c   8.26993304
_cell_angle_alpha   120.00739796
_cell_angle_beta   90.00000000
_cell_angle_gamma   90.00000000
_symmetry_Int_Tables_number   1
_chemical_formula_structural   Ho2(ThRu)3
_chemical_formula_sum   'Ho4 Th6 Ru6'
_cell_volume   386.13417056
_cell_formula_units_Z   2
loop_
 _symmetry_equiv_pos_site_id
 _symmetry_equiv_pos_as_xyz
  1  'x, y, z'
loop_
 _atom_site_type_symbol
 _atom_site_label
 _atom_site_symmetry_multiplicity
 _atom_site_fract_x
 _atom_site_fract_y
 _atom_site_fract_z
 _atom_site_occupancy
  Ho  Ho0  1  0.500016  0.333285  0.666577  1
  Ho  Ho1  1  0.500016  0.666709  0.333423  1
  Ho  Ho2  1  0.000016  0.666715  0.333423  1
  Ho  Ho3  1  0.000016  0.333292  0.666577  1
  Th  Th4  1  0.749966  0.253516  0.000000  1
  Th  Th5  1  0.750000  0.746500  0.746361  1
  Th  Th6  1  0.750000  0.000138  0.253639  1
  Th  Th7  1  0.249966  0.746484  0.000000  1
  Th  Th8  1  0.250000  0.253500  0.253639  1
  Th  Th9  1  0.250000  0.999862  0.746361  1
  Ru  Ru10  1  0.749990  0.626576  0.000000  1
  Ru  Ru11  1  0.750006  0.373363  0.373355  1
  Ru  Ru12  1  0.750006  0.000008  0.626645  1
  Ru  Ru13  1  0.249990  0.373424  0.000000  1
  Ru  Ru14  1  0.250006  0.626637  0.626645  1
  Ru  Ru15  1  0.250006  0.999992  0.373355  1
