# generated using pymatgen
data_Er5Tm5(InBi)3
_symmetry_space_group_name_H-M   'P 1'
_cell_length_a   6.49483100
_cell_length_b   8.96627286
_cell_length_c   8.97012000
_cell_angle_alpha   120.00749573
_cell_angle_beta   90.00023301
_cell_angle_gamma   89.99969385
_symmetry_Int_Tables_number   1
_chemical_formula_structural   Er5Tm5(InBi)3
_chemical_formula_sum   'Er5 Tm5 In3 Bi3'
_cell_volume   452.35134155
_cell_formula_units_Z   1
loop_
 _symmetry_equiv_pos_site_id
 _symmetry_equiv_pos_as_xyz
  1  'x, y, z'
loop_
 _atom_site_type_symbol
 _atom_site_label
 _atom_site_symmetry_multiplicity
 _atom_site_fract_x
 _atom_site_fract_y
 _atom_site_fract_z
 _atom_site_occupancy
  Er  Er0  1  0.750005  0.236204  0.999967  1
  Er  Er1  1  0.749998  0.763604  0.763649  1
  Er  Er2  1  0.750013  0.999894  0.236429  1
  Er  Er3  1  0.250015  0.762259  0.999952  1
  Er  Er4  1  0.249981  0.237961  0.237826  1
  Tm  Tm5  1  0.492378  0.333294  0.666663  1
  Tm  Tm6  1  0.492373  0.666718  0.333397  1
  Tm  Tm7  1  0.007625  0.666717  0.333394  1
  Tm  Tm8  1  0.007629  0.333290  0.666671  1
  Tm  Tm9  1  0.249990  0.000080  0.762075  1
  In  In10  1  0.249990  0.393624  0.999860  1
  In  In11  1  0.250007  0.606512  0.606348  1
  In  In12  1  0.249990  0.000016  0.393801  1
  Bi  Bi13  1  0.750005  0.603642  0.999985  1
  Bi  Bi14  1  0.749998  0.396208  0.396217  1
  Bi  Bi15  1  0.749999  0.999978  0.603765  1
