# generated using pymatgen
data_CeTh3P4
_symmetry_space_group_name_H-M   'P 1'
_cell_length_a   8.28831000
_cell_length_b   4.14647100
_cell_length_c   5.86496800
_cell_angle_alpha   90.00000000
_cell_angle_beta   89.99957078
_cell_angle_gamma   90.00000000
_symmetry_Int_Tables_number   1
_chemical_formula_structural   CeTh3P4
_chemical_formula_sum   'Ce1 Th3 P4'
_cell_volume   201.56274557
_cell_formula_units_Z   1
loop_
 _symmetry_equiv_pos_site_id
 _symmetry_equiv_pos_as_xyz
  1  'x, y, z'
loop_
 _atom_site_type_symbol
 _atom_site_label
 _atom_site_symmetry_multiplicity
 _atom_site_fract_x
 _atom_site_fract_y
 _atom_site_fract_z
 _atom_site_occupancy
  Ce  Ce0  1  0.875262  0.249999  0.750297  1
  Th  Th1  1  0.124358  0.749999  0.249721  1
  Th  Th2  1  0.625115  0.749999  0.250268  1
  Th  Th3  1  0.375269  0.249999  0.749732  1
  P  P4  1  0.374665  0.249999  0.249698  1
  P  P5  1  0.874669  0.249999  0.250283  1
  P  P6  1  0.123770  0.749999  0.749715  1
  P  P7  1  0.626893  0.749999  0.750290  1
