# generated using pymatgen
data_ErTm5(Co2Si)6
_symmetry_space_group_name_H-M   'P 1'
_cell_length_a   5.17095100
_cell_length_b   5.17094945
_cell_length_c   14.70091000
_cell_angle_alpha   90.00000000
_cell_angle_beta   90.00000000
_cell_angle_gamma   119.99999075
_symmetry_Int_Tables_number   1
_chemical_formula_structural   ErTm5(Co2Si)6
_chemical_formula_sum   'Er1 Tm5 Co12 Si6'
_cell_volume   340.42042170
_cell_formula_units_Z   1
loop_
 _symmetry_equiv_pos_site_id
 _symmetry_equiv_pos_as_xyz
  1  'x, y, z'
loop_
 _atom_site_type_symbol
 _atom_site_label
 _atom_site_symmetry_multiplicity
 _atom_site_fract_x
 _atom_site_fract_y
 _atom_site_fract_z
 _atom_site_occupancy
  Er  Er0  1  0.666667  0.333333  0.250000  1
  Tm  Tm1  1  0.333333  0.666667  0.538435  1
  Tm  Tm2  1  0.666667  0.333333  0.461598  1
  Tm  Tm3  1  0.666667  0.333333  0.038402  1
  Tm  Tm4  1  0.333333  0.666667  0.961565  1
  Tm  Tm5  1  0.333333  0.666667  0.750000  1
  Co  Co6  1  0.167189  0.334378  0.129908  1
  Co  Co7  1  0.832828  0.665656  0.869911  1
  Co  Co8  1  0.665622  0.832811  0.129908  1
  Co  Co9  1  0.832828  0.665656  0.630089  1
  Co  Co10  1  0.334344  0.167172  0.869911  1
  Co  Co11  1  0.167189  0.334378  0.370092  1
  Co  Co12  1  0.167189  0.832811  0.129908  1
  Co  Co13  1  0.334344  0.167172  0.630089  1
  Co  Co14  1  0.832828  0.167172  0.869911  1
  Co  Co15  1  0.665622  0.832811  0.370092  1
  Co  Co16  1  0.832828  0.167172  0.630089  1
  Co  Co17  1  0.167189  0.832811  0.370092  1
  Si  Si18  1  0.000000  0.000000  0.250000  1
  Si  Si19  1  0.000000  0.000000  0.750000  1
  Si  Si20  1  0.333333  0.666667  0.250000  1
  Si  Si21  1  0.666667  0.333333  0.750000  1
  Si  Si22  1  0.000000  0.000000  0.000006  1
  Si  Si23  1  0.000000  0.000000  0.499994  1
