# generated using pymatgen
data_Y3HfFeCo7P6
_symmetry_space_group_name_H-M   'P 1'
_cell_length_a   3.73079700
_cell_length_b   10.71913100
_cell_length_c   12.36886400
_cell_angle_alpha   90.00000000
_cell_angle_beta   90.00000000
_cell_angle_gamma   90.00000000
_symmetry_Int_Tables_number   1
_chemical_formula_structural   Y3HfFeCo7P6
_chemical_formula_sum   'Y6 Hf2 Fe2 Co14 P12'
_cell_volume   494.64202532
_cell_formula_units_Z   2
loop_
 _symmetry_equiv_pos_site_id
 _symmetry_equiv_pos_as_xyz
  1  'x, y, z'
loop_
 _atom_site_type_symbol
 _atom_site_label
 _atom_site_symmetry_multiplicity
 _atom_site_fract_x
 _atom_site_fract_y
 _atom_site_fract_z
 _atom_site_occupancy
  Y  Y0  1  0.000000  0.500000  0.528028  1
  Y  Y1  1  0.500000  0.000000  0.471972  1
  Y  Y2  1  0.500000  0.822306  0.204751  1
  Y  Y3  1  0.500000  0.177694  0.204751  1
  Y  Y4  1  0.000000  0.677694  0.795249  1
  Y  Y5  1  0.000000  0.322306  0.795249  1
  Hf  Hf6  1  0.500000  0.500000  0.156684  1
  Hf  Hf7  1  0.000000  0.000000  0.843316  1
  Fe  Fe8  1  0.000000  0.500000  0.987455  1
  Fe  Fe9  1  0.500000  0.000000  0.012545  1
  Co  Co10  1  0.500000  0.500000  0.703386  1
  Co  Co11  1  0.000000  0.000000  0.296614  1
  Co  Co12  1  0.500000  0.330762  0.994110  1
  Co  Co13  1  0.500000  0.669238  0.994110  1
  Co  Co14  1  0.000000  0.169238  0.005890  1
  Co  Co15  1  0.000000  0.830762  0.005890  1
  Co  Co16  1  0.500000  0.295370  0.433008  1
  Co  Co17  1  0.500000  0.704630  0.433008  1
  Co  Co18  1  0.000000  0.204630  0.566992  1
  Co  Co19  1  0.000000  0.795370  0.566992  1
  Co  Co20  1  0.500000  0.878461  0.702570  1
  Co  Co21  1  0.500000  0.121539  0.702570  1
  Co  Co22  1  0.000000  0.621539  0.297430  1
  Co  Co23  1  0.000000  0.378461  0.297430  1
  P  P24  1  0.500000  0.500000  0.886262  1
  P  P25  1  0.000000  0.000000  0.113738  1
  P  P26  1  0.500000  0.500000  0.360929  1
  P  P27  1  0.000000  0.000000  0.639071  1
  P  P28  1  0.500000  0.308907  0.615806  1
  P  P29  1  0.500000  0.691093  0.615806  1
  P  P30  1  0.000000  0.191093  0.384194  1
  P  P31  1  0.000000  0.808907  0.384194  1
  P  P32  1  0.500000  0.840090  0.895746  1
  P  P33  1  0.500000  0.159910  0.895746  1
  P  P34  1  0.000000  0.659910  0.104254  1
  P  P35  1  0.000000  0.340090  0.104254  1
