# generated using pymatgen
data_Tb3Ho(Ga8Pt3)3
_symmetry_space_group_name_H-M   'P 1'
_cell_length_a   7.56930645
_cell_length_b   7.58904990
_cell_length_c   13.27541152
_cell_angle_alpha   84.60492846
_cell_angle_beta   79.12245210
_cell_angle_gamma   60.06306969
_symmetry_Int_Tables_number   1
_chemical_formula_structural   Tb3Ho(Ga8Pt3)3
_chemical_formula_sum   'Tb3 Ho1 Ga24 Pt9'
_cell_volume   648.96867886
_cell_formula_units_Z   1
loop_
 _symmetry_equiv_pos_site_id
 _symmetry_equiv_pos_as_xyz
  1  'x, y, z'
loop_
 _atom_site_type_symbol
 _atom_site_label
 _atom_site_symmetry_multiplicity
 _atom_site_fract_x
 _atom_site_fract_y
 _atom_site_fract_z
 _atom_site_occupancy
  Tb  Tb0  1  0.606248  0.832183  0.190430  1
  Tb  Tb1  1  0.732244  0.498481  0.809431  1
  Tb  Tb2  1  0.267839  0.501383  0.190571  1
  Ho  Ho3  1  0.393804  0.168086  0.808850  1
  Ga  Ga4  1  0.682860  0.834551  0.938871  1
  Ga  Ga5  1  0.316429  0.166338  0.060226  1
  Ga  Ga6  1  0.147023  0.832694  0.560671  1
  Ga  Ga7  1  0.852966  0.167274  0.439393  1
  Ga  Ga8  1  0.480038  0.166653  0.557851  1
  Ga  Ga9  1  0.520025  0.833362  0.442277  1
  Ga  Ga10  1  0.219793  0.165537  0.327006  1
  Ga  Ga11  1  0.780038  0.834614  0.673292  1
  Ga  Ga12  1  0.437187  0.504910  0.673246  1
  Ga  Ga13  1  0.562700  0.495035  0.326993  1
  Ga  Ga14  1  0.108334  0.161966  0.672866  1
  Ga  Ga15  1  0.891842  0.837874  0.327332  1
  Ga  Ga16  1  0.356865  0.496362  0.938806  1
  Ga  Ga17  1  0.643255  0.502783  0.060873  1
  Ga  Ga18  1  0.018899  0.169944  0.944897  1
  Ga  Ga19  1  0.981803  0.830015  0.054889  1
  Ga  Ga20  1  0.186016  0.499589  0.442329  1
  Ga  Ga21  1  0.814010  0.500351  0.557869  1
  Ga  Ga22  1  0.736109  0.163974  0.182888  1
  Ga  Ga23  1  0.264026  0.836191  0.817261  1
  Ga  Ga24  1  0.060884  0.631707  0.816752  1
  Ga  Ga25  1  0.939330  0.368027  0.183329  1
  Ga  Ga26  1  0.856359  0.040106  0.817031  1
  Ga  Ga27  1  0.143582  0.960120  0.183077  1
  Pt  Pt28  1  0.119382  0.493307  0.639494  1
  Pt  Pt29  1  0.880731  0.506468  0.360815  1
  Pt  Pt30  1  0.660285  0.169991  0.999838  1
  Pt  Pt31  1  0.339800  0.829691  0.000081  1
  Pt  Pt32  1  0.538675  0.167040  0.360661  1
  Pt  Pt33  1  0.461243  0.833190  0.639612  1
  Pt  Pt34  1  0.778537  0.174084  0.638234  1
  Pt  Pt35  1  0.221231  0.825894  0.362036  1
  Pt  Pt36  1  0.999612  0.500227  0.999923  1
