# generated using pymatgen
data_HoTm11Os3Ru
_symmetry_space_group_name_H-M   'P 1'
_cell_length_a   7.34231454
_cell_length_b   8.93583100
_cell_length_c   6.24015651
_cell_angle_alpha   90.00000000
_cell_angle_beta   89.95935040
_cell_angle_gamma   90.00000000
_symmetry_Int_Tables_number   1
_chemical_formula_structural   HoTm11Os3Ru
_chemical_formula_sum   'Ho1 Tm11 Os3 Ru1'
_cell_volume   409.41458025
_cell_formula_units_Z   1
loop_
 _symmetry_equiv_pos_site_id
 _symmetry_equiv_pos_as_xyz
  1  'x, y, z'
loop_
 _atom_site_type_symbol
 _atom_site_label
 _atom_site_symmetry_multiplicity
 _atom_site_fract_x
 _atom_site_fract_y
 _atom_site_fract_z
 _atom_site_occupancy
  Ho  Ho0  1  0.041058  0.250000  0.629425  1
  Tm  Tm1  1  0.960210  0.750000  0.370119  1
  Tm  Tm2  1  0.460385  0.750000  0.130315  1
  Tm  Tm3  1  0.539964  0.250000  0.868617  1
  Tm  Tm4  1  0.174387  0.061827  0.165548  1
  Tm  Tm5  1  0.824860  0.937205  0.832996  1
  Tm  Tm6  1  0.325036  0.936080  0.668226  1
  Tm  Tm7  1  0.824860  0.562795  0.832996  1
  Tm  Tm8  1  0.674889  0.062473  0.333234  1
  Tm  Tm9  1  0.174387  0.438173  0.165548  1
  Tm  Tm10  1  0.674889  0.437527  0.333234  1
  Tm  Tm11  1  0.325036  0.563920  0.668226  1
  Os  Os12  1  0.616834  0.750000  0.538334  1
  Os  Os13  1  0.117306  0.750000  0.961552  1
  Os  Os14  1  0.882132  0.250000  0.039793  1
  Ru  Ru15  1  0.383770  0.250000  0.461838  1
