# generated using pymatgen
data_Tm4Ir7Ru
_symmetry_space_group_name_H-M   'P 1'
_cell_length_a   5.31856124
_cell_length_b   5.33704272
_cell_length_c   8.66993100
_cell_angle_alpha   90.00000000
_cell_angle_beta   90.00000000
_cell_angle_gamma   120.11543226
_symmetry_Int_Tables_number   1
_chemical_formula_structural   Tm4Ir7Ru
_chemical_formula_sum   'Tm4 Ir7 Ru1'
_cell_volume   212.87996059
_cell_formula_units_Z   1
loop_
 _symmetry_equiv_pos_site_id
 _symmetry_equiv_pos_as_xyz
  1  'x, y, z'
loop_
 _atom_site_type_symbol
 _atom_site_label
 _atom_site_symmetry_multiplicity
 _atom_site_fract_x
 _atom_site_fract_y
 _atom_site_fract_z
 _atom_site_occupancy
  Tm  Tm0  1  0.666879  0.333444  0.567337  1
  Tm  Tm1  1  0.333337  0.666663  0.433644  1
  Tm  Tm2  1  0.333337  0.666663  0.066356  1
  Tm  Tm3  1  0.666879  0.333444  0.932663  1
  Ir  Ir4  1  0.003473  0.001735  0.499011  1
  Ir  Ir5  1  0.003473  0.001735  0.000989  1
  Ir  Ir6  1  0.169971  0.339358  0.750000  1
  Ir  Ir7  1  0.169966  0.830627  0.750000  1
  Ir  Ir8  1  0.659331  0.829671  0.750000  1
  Ir  Ir9  1  0.826609  0.658228  0.250000  1
  Ir  Ir10  1  0.826611  0.168372  0.250000  1
  Ru  Ru11  1  0.340131  0.170062  0.250000  1
