# generated using pymatgen
data_Dy10Er2InCo4Os
_symmetry_space_group_name_H-M   'P 1'
_cell_length_a   8.26778117
_cell_length_b   8.27398999
_cell_length_c   8.27399028
_cell_angle_alpha   111.48504773
_cell_angle_beta   110.57710523
_cell_angle_gamma   106.42439648
_symmetry_Int_Tables_number   1
_chemical_formula_structural   Dy10Er2InCo4Os
_chemical_formula_sum   'Dy10 Er2 In1 Co4 Os1'
_cell_volume   434.60142184
_cell_formula_units_Z   1
loop_
 _symmetry_equiv_pos_site_id
 _symmetry_equiv_pos_as_xyz
  1  'x, y, z'
loop_
 _atom_site_type_symbol
 _atom_site_label
 _atom_site_symmetry_multiplicity
 _atom_site_fract_x
 _atom_site_fract_y
 _atom_site_fract_z
 _atom_site_occupancy
  Dy  Dy0  1  0.026463  0.219571  0.806891  1
  Dy  Dy1  1  0.973537  0.780429  0.193109  1
  Dy  Dy2  1  0.182173  0.281689  0.463239  1
  Dy  Dy3  1  0.817827  0.718311  0.536761  1
  Dy  Dy4  1  0.182173  0.718933  0.900483  1
  Dy  Dy5  1  0.817827  0.281067  0.099517  1
  Dy  Dy6  1  0.315545  0.620754  0.306704  1
  Dy  Dy7  1  0.684455  0.379246  0.693296  1
  Dy  Dy8  1  0.315545  0.008840  0.694790  1
  Dy  Dy9  1  0.684455  0.991160  0.305210  1
  Er  Er10  1  0.413015  0.219481  0.193535  1
  Er  Er11  1  0.586985  0.780519  0.806465  1
  In  In12  1  0.500000  0.500000  0.000000  1
  Co  Co13  1  0.376431  0.000246  0.376185  1
  Co  Co14  1  0.623569  0.999754  0.623815  1
  Co  Co15  1  0.111881  0.611444  0.500437  1
  Co  Co16  1  0.888119  0.388556  0.499563  1
  Os  Os17  1  0.000000  0.000000  0.000000  1
