# generated using pymatgen
data_BaLi2Zn9
_symmetry_space_group_name_H-M   'P 1'
_cell_length_a   8.61701602
_cell_length_b   8.54082304
_cell_length_c   8.54082407
_cell_angle_alpha   99.02018793
_cell_angle_beta   99.11415805
_cell_angle_gamma   132.63767171
_symmetry_Int_Tables_number   1
_chemical_formula_structural   BaLi2Zn9
_chemical_formula_sum   'Ba2 Li4 Zn18'
_cell_volume   425.33039657
_cell_formula_units_Z   2
loop_
 _symmetry_equiv_pos_site_id
 _symmetry_equiv_pos_as_xyz
  1  'x, y, z'
loop_
 _atom_site_type_symbol
 _atom_site_label
 _atom_site_symmetry_multiplicity
 _atom_site_fract_x
 _atom_site_fract_y
 _atom_site_fract_z
 _atom_site_occupancy
  Ba  Ba0  1  0.999731  0.998739  0.000991  1
  Ba  Ba1  1  0.246138  0.746319  0.499819  1
  Li  Li2  1  0.744121  0.245927  0.498193  1
  Li  Li3  1  0.508478  0.505118  0.003360  1
  Li  Li4  1  0.187920  0.523296  0.079835  1
  Li  Li5  1  0.187920  0.108084  0.664624  1
  Zn  Zn6  1  0.119103  0.374779  0.744325  1
  Zn  Zn7  1  0.623078  0.873767  0.251475  1
  Zn  Zn8  1  0.623078  0.371602  0.749311  1
  Zn  Zn9  1  0.626039  0.377880  0.248159  1
  Zn  Zn10  1  0.769115  0.936927  0.585449  1
  Zn  Zn11  1  0.769115  0.183667  0.832189  1
  Zn  Zn12  1  0.439114  0.522190  0.333182  1
  Zn  Zn13  1  0.439114  0.105932  0.916924  1
  Zn  Zn14  1  0.357321  0.940172  0.169578  1
  Zn  Zn15  1  0.357321  0.187743  0.417149  1
  Zn  Zn16  1  0.061558  0.229433  0.414676  1
  Zn  Zn17  1  0.061558  0.646882  0.832125  1
  Zn  Zn18  1  0.478272  0.807740  0.917925  1
  Zn  Zn19  1  0.478272  0.560347  0.670532  1
  Zn  Zn20  1  0.812580  0.228767  0.168081  1
  Zn  Zn21  1  0.812580  0.644499  0.583814  1
  Zn  Zn22  1  0.899236  0.814972  0.334019  1
  Zn  Zn23  1  0.899236  0.565218  0.084265  1
