# generated using pymatgen
data_Gd4Ho2Si3Au
_symmetry_space_group_name_H-M   'P 1'
_cell_length_a   7.47599100
_cell_length_b   7.47599089
_cell_length_c   4.30930300
_cell_angle_alpha   90.00000000
_cell_angle_beta   90.00000000
_cell_angle_gamma   87.88417110
_symmetry_Int_Tables_number   1
_chemical_formula_structural   Gd4Ho2Si3Au
_chemical_formula_sum   'Gd4 Ho2 Si3 Au1'
_cell_volume   240.68464040
_cell_formula_units_Z   1
loop_
 _symmetry_equiv_pos_site_id
 _symmetry_equiv_pos_as_xyz
  1  'x, y, z'
loop_
 _atom_site_type_symbol
 _atom_site_label
 _atom_site_symmetry_multiplicity
 _atom_site_fract_x
 _atom_site_fract_y
 _atom_site_fract_z
 _atom_site_occupancy
  Gd  Gd0  1  0.676048  0.176048  0.500000  1
  Gd  Gd1  1  0.337516  0.837516  0.500000  1
  Gd  Gd2  1  0.171060  0.315793  0.500000  1
  Gd  Gd3  1  0.815793  0.671060  0.500000  1
  Ho  Ho4  1  0.008213  0.995389  0.000000  1
  Ho  Ho5  1  0.495389  0.508213  0.000000  1
  Si  Si6  1  0.871924  0.371924  0.000000  1
  Si  Si7  1  0.621248  0.886143  0.000000  1
  Si  Si8  1  0.386143  0.121248  0.000000  1
  Au  Au9  1  0.116666  0.616666  0.000000  1
