# generated using pymatgen
data_TbHo15Zn2(CdCo2)2
_symmetry_space_group_name_H-M   'P 1'
_cell_length_a   9.37688149
_cell_length_b   9.39675808
_cell_length_c   9.37624815
_cell_angle_alpha   60.01549818
_cell_angle_beta   59.96802896
_cell_angle_gamma   59.98762791
_symmetry_Int_Tables_number   1
_chemical_formula_structural   TbHo15Zn2(CdCo2)2
_chemical_formula_sum   'Tb1 Ho15 Zn2 Cd2 Co4'
_cell_volume   584.05766413
_cell_formula_units_Z   1
loop_
 _symmetry_equiv_pos_site_id
 _symmetry_equiv_pos_as_xyz
  1  'x, y, z'
loop_
 _atom_site_type_symbol
 _atom_site_label
 _atom_site_symmetry_multiplicity
 _atom_site_fract_x
 _atom_site_fract_y
 _atom_site_fract_z
 _atom_site_occupancy
  Tb  Tb0  1  0.941159  0.933147  0.563634  1
  Ho  Ho1  1  0.811322  0.188981  0.188950  1
  Ho  Ho2  1  0.941376  0.561369  0.562932  1
  Ho  Ho3  1  0.937676  0.561968  0.938339  1
  Ho  Ho4  1  0.811225  0.810518  0.189356  1
  Ho  Ho5  1  0.347963  0.350302  0.347653  1
  Ho  Ho6  1  0.562623  0.933714  0.941915  1
  Ho  Ho7  1  0.561054  0.938452  0.561603  1
  Ho  Ho8  1  0.189572  0.810454  0.811476  1
  Ho  Ho9  1  0.189346  0.188785  0.811372  1
  Ho  Ho10  1  0.346651  0.347794  0.957694  1
  Ho  Ho11  1  0.347636  0.955514  0.347193  1
  Ho  Ho12  1  0.811297  0.188358  0.811646  1
  Ho  Ho13  1  0.563035  0.562013  0.941330  1
  Ho  Ho14  1  0.190512  0.809446  0.189901  1
  Ho  Ho15  1  0.957940  0.347739  0.346376  1
  Zn  Zn16  1  0.577774  0.582073  0.258314  1
  Zn  Zn17  1  0.258882  0.581445  0.578081  1
  Cd  Cd18  1  0.576488  0.581387  0.576317  1
  Cd  Cd19  1  0.576119  0.265820  0.576371  1
  Co  Co20  1  0.575415  0.141222  0.142080  1
  Co  Co21  1  0.141386  0.141310  0.140655  1
  Co  Co22  1  0.141228  0.576668  0.141394  1
  Co  Co23  1  0.142322  0.141525  0.575424  1
