# generated using pymatgen
data_Zn3Fe(BiO3)8
_symmetry_space_group_name_H-M   'P 1'
_cell_length_a   4.94900295
_cell_length_b   9.90219143
_cell_length_c   9.97532600
_cell_angle_alpha   90.00001157
_cell_angle_beta   90.00000000
_cell_angle_gamma   89.98144611
_symmetry_Int_Tables_number   1
_chemical_formula_structural   Zn3Fe(BiO3)8
_chemical_formula_sum   'Zn3 Fe1 Bi8 O24'
_cell_volume   488.85054687
_cell_formula_units_Z   1
loop_
 _symmetry_equiv_pos_site_id
 _symmetry_equiv_pos_as_xyz
  1  'x, y, z'
loop_
 _atom_site_type_symbol
 _atom_site_label
 _atom_site_symmetry_multiplicity
 _atom_site_fract_x
 _atom_site_fract_y
 _atom_site_fract_z
 _atom_site_occupancy
  Zn  Zn0  1  0.499771  0.750430  0.500000  1
  Zn  Zn1  1  0.999989  0.999991  0.999999  1
  Zn  Zn2  1  0.500243  0.249570  0.500000  1
  Fe  Fe3  1  0.000010  0.500010  0.000000  1
  Bi  Bi4  1  0.000004  0.000000  0.333004  1
  Bi  Bi5  1  0.000001  0.500000  0.333200  1
  Bi  Bi6  1  0.000004  0.000000  0.666996  1
  Bi  Bi7  1  0.000001  0.500000  0.666800  1
  Bi  Bi8  1  0.501828  0.249166  0.167103  1
  Bi  Bi9  1  0.498167  0.750829  0.167103  1
  Bi  Bi10  1  0.501828  0.249166  0.832897  1
  Bi  Bi11  1  0.498167  0.750828  0.832897  1
  O  O12  1  0.198400  0.400664  0.500000  1
  O  O13  1  0.198487  0.900836  0.500000  1
  O  O14  1  0.304393  0.152813  0.000000  1
  O  O15  1  0.295689  0.647380  0.000000  1
  O  O16  1  0.704304  0.352621  0.000000  1
  O  O17  1  0.695592  0.847184  0.000000  1
  O  O18  1  0.801515  0.099163  0.500000  1
  O  O19  1  0.801605  0.599338  0.500000  1
  O  O20  1  0.188154  0.406085  0.158237  1
  O  O21  1  0.190439  0.904276  0.163498  1
  O  O22  1  0.188154  0.406085  0.841763  1
  O  O23  1  0.190439  0.904276  0.836502  1
  O  O24  1  0.307489  0.155676  0.335125  1
  O  O25  1  0.309850  0.652691  0.334476  1
  O  O26  1  0.307489  0.155676  0.664875  1
  O  O27  1  0.309850  0.652691  0.665525  1
  O  O28  1  0.690146  0.347311  0.334472  1
  O  O29  1  0.692510  0.844326  0.335123  1
  O  O30  1  0.690146  0.347311  0.665528  1
  O  O31  1  0.692511  0.844326  0.664877  1
  O  O32  1  0.809560  0.095723  0.163498  1
  O  O33  1  0.811850  0.593917  0.158236  1
  O  O34  1  0.809560  0.095722  0.836502  1
  O  O35  1  0.811851  0.593918  0.841764  1
