# generated using pymatgen
data_Lu7Hf(Ta3Si4)4
_symmetry_space_group_name_H-M   'P 1'
_cell_length_a   6.77454582
_cell_length_b   6.96464594
_cell_length_c   13.23129054
_cell_angle_alpha   89.90817846
_cell_angle_beta   90.07206566
_cell_angle_gamma   89.95080235
_symmetry_Int_Tables_number   1
_chemical_formula_structural   Lu7Hf(Ta3Si4)4
_chemical_formula_sum   'Lu7 Hf1 Ta12 Si16'
_cell_volume   624.28136607
_cell_formula_units_Z   1
loop_
 _symmetry_equiv_pos_site_id
 _symmetry_equiv_pos_as_xyz
  1  'x, y, z'
loop_
 _atom_site_type_symbol
 _atom_site_label
 _atom_site_symmetry_multiplicity
 _atom_site_fract_x
 _atom_site_fract_y
 _atom_site_fract_z
 _atom_site_occupancy
  Lu  Lu0  1  0.000588  0.827624  0.904003  1
  Lu  Lu1  1  0.499027  0.327251  0.095310  1
  Lu  Lu2  1  0.999220  0.172358  0.405421  1
  Lu  Lu3  1  0.499795  0.328450  0.405880  1
  Lu  Lu4  1  0.999157  0.172004  0.095347  1
  Lu  Lu5  1  0.500670  0.672107  0.905089  1
  Lu  Lu6  1  0.999081  0.826848  0.594854  1
  Hf  Hf7  1  0.499969  0.674785  0.597892  1
  Ta  Ta8  1  0.661595  0.174882  0.624120  1
  Ta  Ta9  1  0.163971  0.326328  0.873938  1
  Ta  Ta10  1  0.337646  0.825632  0.125343  1
  Ta  Ta11  1  0.837565  0.674402  0.375046  1
  Ta  Ta12  1  0.339932  0.823251  0.376129  1
  Ta  Ta13  1  0.838252  0.674252  0.125121  1
  Ta  Ta14  1  0.661716  0.174779  0.873681  1
  Ta  Ta15  1  0.164379  0.327681  0.624319  1
  Ta  Ta16  1  0.835523  0.493384  0.748764  1
  Ta  Ta17  1  0.337373  0.006317  0.748261  1
  Ta  Ta18  1  0.163740  0.507434  0.250774  1
  Ta  Ta19  1  0.662963  0.991594  0.250521  1
  Si  Si20  1  0.666699  0.962332  0.461383  1
  Si  Si21  1  0.166531  0.535136  0.040157  1
  Si  Si22  1  0.332543  0.035733  0.959810  1
  Si  Si23  1  0.827412  0.467016  0.540221  1
  Si  Si24  1  0.334247  0.032519  0.540758  1
  Si  Si25  1  0.833966  0.464421  0.959488  1
  Si  Si26  1  0.666510  0.965181  0.040232  1
  Si  Si27  1  0.168906  0.535760  0.460892  1
  Si  Si28  1  0.459140  0.383321  0.748751  1
  Si  Si29  1  0.958873  0.119540  0.749168  1
  Si  Si30  1  0.541796  0.618113  0.249703  1
  Si  Si31  1  0.042105  0.880626  0.250451  1
  Si  Si32  1  0.702059  0.865883  0.748962  1
  Si  Si33  1  0.203914  0.634036  0.749356  1
  Si  Si34  1  0.296534  0.132478  0.250570  1
  Si  Si35  1  0.796603  0.366538  0.250285  1
