# generated using pymatgen
data_Lu8V8Re3Si16Pt
_symmetry_space_group_name_H-M   'P 1'
_cell_length_a   6.58483200
_cell_length_b   6.77499543
_cell_length_c   12.74674500
_cell_angle_alpha   90.00000000
_cell_angle_beta   90.00000000
_cell_angle_gamma   90.02045736
_symmetry_Int_Tables_number   1
_chemical_formula_structural   Lu8V8Re3Si16Pt
_chemical_formula_sum   'Lu8 V8 Re3 Si16 Pt1'
_cell_volume   568.66038669
_cell_formula_units_Z   1
loop_
 _symmetry_equiv_pos_site_id
 _symmetry_equiv_pos_as_xyz
  1  'x, y, z'
loop_
 _atom_site_type_symbol
 _atom_site_label
 _atom_site_symmetry_multiplicity
 _atom_site_fract_x
 _atom_site_fract_y
 _atom_site_fract_z
 _atom_site_occupancy
  Lu  Lu0  1  0.493374  0.332714  0.092004  1
  Lu  Lu1  1  0.997150  0.166882  0.407552  1
  Lu  Lu2  1  0.503879  0.667395  0.594273  1
  Lu  Lu3  1  0.006673  0.835009  0.904669  1
  Lu  Lu4  1  0.503879  0.667395  0.905727  1
  Lu  Lu5  1  0.006673  0.835009  0.595331  1
  Lu  Lu6  1  0.493374  0.332714  0.407996  1
  Lu  Lu7  1  0.997150  0.166882  0.092448  1
  V  V8  1  0.833010  0.333374  0.623083  1
  V  V9  1  0.332309  0.166640  0.876183  1
  V  V10  1  0.164828  0.666584  0.124864  1
  V  V11  1  0.670080  0.832382  0.375065  1
  V  V12  1  0.164828  0.666584  0.375136  1
  V  V13  1  0.670080  0.832382  0.124935  1
  V  V14  1  0.833010  0.333374  0.876917  1
  V  V15  1  0.332309  0.166640  0.623817  1
  Re  Re16  1  0.670249  0.999773  0.750000  1
  Re  Re17  1  0.168871  0.501427  0.750000  1
  Re  Re18  1  0.327289  0.006844  0.250000  1
  Si  Si19  1  0.661840  0.043658  0.545135  1
  Si  Si20  1  0.161416  0.456203  0.954784  1
  Si  Si21  1  0.339506  0.954430  0.044737  1
  Si  Si22  1  0.839453  0.548143  0.460655  1
  Si  Si23  1  0.339506  0.954430  0.455263  1
  Si  Si24  1  0.839453  0.548143  0.039345  1
  Si  Si25  1  0.661840  0.043658  0.954865  1
  Si  Si26  1  0.161416  0.456203  0.545216  1
  Si  Si27  1  0.537350  0.362458  0.750000  1
  Si  Si28  1  0.036986  0.139156  0.750000  1
  Si  Si29  1  0.458438  0.646244  0.250000  1
  Si  Si30  1  0.965902  0.865305  0.250000  1
  Si  Si31  1  0.805758  0.626467  0.750000  1
  Si  Si32  1  0.307401  0.874777  0.750000  1
  Si  Si33  1  0.198391  0.376573  0.250000  1
  Si  Si34  1  0.691251  0.117546  0.250000  1
  Pt  Pt35  1  0.825078  0.476600  0.250000  1
