# generated using pymatgen
data_Ba2Cu3MoP4
_symmetry_space_group_name_H-M   'P 1'
_cell_length_a   5.64039400
_cell_length_b   6.98740692
_cell_length_c   5.64629563
_cell_angle_alpha   66.24642743
_cell_angle_beta   90.00002082
_cell_angle_gamma   90.00015773
_symmetry_Int_Tables_number   1
_chemical_formula_structural   Ba2Cu3MoP4
_chemical_formula_sum   'Ba2 Cu3 Mo1 P4'
_cell_volume   203.67892021
_cell_formula_units_Z   1
loop_
 _symmetry_equiv_pos_site_id
 _symmetry_equiv_pos_as_xyz
  1  'x, y, z'
loop_
 _atom_site_type_symbol
 _atom_site_label
 _atom_site_symmetry_multiplicity
 _atom_site_fract_x
 _atom_site_fract_y
 _atom_site_fract_z
 _atom_site_occupancy
  Ba  Ba0  1  0.995704  0.000003  0.000004  1
  Ba  Ba1  1  0.503989  0.999998  0.500002  1
  Cu  Cu2  1  0.250398  0.499979  0.000000  1
  Cu  Cu3  1  0.749605  0.500015  0.999997  1
  Cu  Cu4  1  0.750245  0.500007  0.499997  1
  Mo  Mo5  1  0.249928  0.499994  0.500003  1
  P  P6  1  0.495411  0.703711  0.152246  1
  P  P7  1  0.004657  0.703654  0.645125  1
  P  P8  1  0.004646  0.296348  0.354868  1
  P  P9  1  0.495416  0.296291  0.847757  1
