# generated using pymatgen
data_LiLa4(CuSb4)2
_symmetry_space_group_name_H-M   'P 1'
_cell_length_a   11.15049846
_cell_length_b   11.15049861
_cell_length_c   11.15049880
_cell_angle_alpha   147.43738657
_cell_angle_beta   147.43738347
_cell_angle_gamma   46.71659513
_symmetry_Int_Tables_number   1
_chemical_formula_structural   LiLa4(CuSb4)2
_chemical_formula_sum   'Li1 La4 Cu2 Sb8'
_cell_volume   400.14578408
_cell_formula_units_Z   1
loop_
 _symmetry_equiv_pos_site_id
 _symmetry_equiv_pos_as_xyz
  1  'x, y, z'
loop_
 _atom_site_type_symbol
 _atom_site_label
 _atom_site_symmetry_multiplicity
 _atom_site_fract_x
 _atom_site_fract_y
 _atom_site_fract_z
 _atom_site_occupancy
  Li  Li0  1  0.000000  0.000000  0.000000  1
  La  La1  1  0.629878  0.629878  0.498671  1
  La  La2  1  0.131206  0.131206  0.501329  1
  La  La3  1  0.370122  0.868794  0.000000  1
  La  La4  1  0.868794  0.370122  0.000000  1
  Cu  Cu5  1  0.000000  0.500000  0.500000  1
  Cu  Cu6  1  0.500000  0.000000  0.500000  1
  Sb  Sb7  1  0.327107  0.327107  0.511531  1
  Sb  Sb8  1  0.815577  0.815577  0.488469  1
  Sb  Sb9  1  0.672893  0.184423  0.000000  1
  Sb  Sb10  1  0.184423  0.672893  0.000000  1
  Sb  Sb11  1  0.249757  0.249757  0.000000  1
  Sb  Sb12  1  0.750243  0.750243  0.000000  1
  Sb  Sb13  1  0.750000  0.250000  0.500000  1
  Sb  Sb14  1  0.250000  0.750000  0.500000  1
