# generated using pymatgen
data_Dy5Er7Co4BiOs
_symmetry_space_group_name_H-M   'P 1'
_cell_length_a   8.28952964
_cell_length_b   8.28574244
_cell_length_c   8.28574239
_cell_angle_alpha   110.45076473
_cell_angle_beta   111.34279179
_cell_angle_gamma   106.63975877
_symmetry_Int_Tables_number   1
_chemical_formula_structural   Dy5Er7Co4BiOs
_chemical_formula_sum   'Dy5 Er7 Co4 Bi1 Os1'
_cell_volume   437.37328072
_cell_formula_units_Z   1
loop_
 _symmetry_equiv_pos_site_id
 _symmetry_equiv_pos_as_xyz
  1  'x, y, z'
loop_
 _atom_site_type_symbol
 _atom_site_label
 _atom_site_symmetry_multiplicity
 _atom_site_fract_x
 _atom_site_fract_y
 _atom_site_fract_z
 _atom_site_occupancy
  Dy  Dy0  1  0.280734  0.181354  0.462976  1
  Dy  Dy1  1  0.718990  0.819086  0.537481  1
  Dy  Dy2  1  0.280734  0.817757  0.099380  1
  Dy  Dy3  1  0.718990  0.181511  0.899904  1
  Dy  Dy4  1  0.620791  0.311682  0.309110  1
  Er  Er5  1  0.378130  0.687981  0.690149  1
  Er  Er6  1  0.002604  0.312130  0.690472  1
  Er  Er7  1  0.998024  0.688249  0.309777  1
  Er  Er8  1  0.213707  0.410601  0.196394  1
  Er  Er9  1  0.786246  0.589893  0.804236  1
  Er  Er10  1  0.213707  0.017313  0.803106  1
  Er  Er11  1  0.786246  0.982010  0.196353  1
  Co  Co12  1  0.000855  0.376057  0.376148  1
  Co  Co13  1  0.000855  0.624707  0.624797  1
  Co  Co14  1  0.388298  0.888594  0.499704  1
  Co  Co15  1  0.611102  0.110793  0.500309  1
  Bi  Bi16  1  0.499911  0.500211  0.999700  1
  Os  Os17  1  0.000074  0.000069  0.000005  1
