# generated using pymatgen
data_Y10Zn3Bi2Pt
_symmetry_space_group_name_H-M   'P 1'
_cell_length_a   8.69489869
_cell_length_b   8.69489917
_cell_length_c   8.72228625
_cell_angle_alpha   124.28445214
_cell_angle_beta   124.28445957
_cell_angle_gamma   82.52160109
_symmetry_Int_Tables_number   1
_chemical_formula_structural   Y10Zn3Bi2Pt
_chemical_formula_sum   'Y10 Zn3 Bi2 Pt1'
_cell_volume   432.93018130
_cell_formula_units_Z   1
loop_
 _symmetry_equiv_pos_site_id
 _symmetry_equiv_pos_as_xyz
  1  'x, y, z'
loop_
 _atom_site_type_symbol
 _atom_site_label
 _atom_site_symmetry_multiplicity
 _atom_site_fract_x
 _atom_site_fract_y
 _atom_site_fract_z
 _atom_site_occupancy
  Y  Y0  1  0.004016  0.002142  0.006158  1
  Y  Y1  1  0.497858  0.495984  0.993842  1
  Y  Y2  1  0.788699  0.295254  0.802383  1
  Y  Y3  1  0.204746  0.711301  0.197617  1
  Y  Y4  1  0.486316  0.992871  0.197617  1
  Y  Y5  1  0.301510  0.476823  0.500000  1
  Y  Y6  1  0.023177  0.198490  0.500000  1
  Y  Y7  1  0.507129  0.013684  0.802383  1
  Y  Y8  1  0.704262  0.515392  0.500000  1
  Y  Y9  1  0.984608  0.795738  0.500000  1
  Zn  Zn10  1  0.134983  0.638617  0.773601  1
  Zn  Zn11  1  0.861383  0.365017  0.226399  1
  Zn  Zn12  1  0.636422  0.863578  0.500000  1
  Bi  Bi13  1  0.247661  0.252339  0.000000  1
  Bi  Bi14  1  0.747661  0.752339  0.000000  1
  Pt  Pt15  1  0.369568  0.130432  0.500000  1
