# generated using pymatgen
data_CeDy11Tc3Pt
_symmetry_space_group_name_H-M   'P 1'
_cell_length_a   6.34565037
_cell_length_b   7.32599488
_cell_length_c   9.28897000
_cell_angle_alpha   90.00000000
_cell_angle_beta   90.00000000
_cell_angle_gamma   91.21469296
_symmetry_Int_Tables_number   1
_chemical_formula_structural   CeDy11Tc3Pt
_chemical_formula_sum   'Ce1 Dy11 Tc3 Pt1'
_cell_volume   431.73047472
_cell_formula_units_Z   1
loop_
 _symmetry_equiv_pos_site_id
 _symmetry_equiv_pos_as_xyz
  1  'x, y, z'
loop_
 _atom_site_type_symbol
 _atom_site_label
 _atom_site_symmetry_multiplicity
 _atom_site_fract_x
 _atom_site_fract_y
 _atom_site_fract_z
 _atom_site_occupancy
  Ce  Ce0  1  0.857130  0.559544  0.250000  1
  Dy  Dy1  1  0.327763  0.675388  0.066475  1
  Dy  Dy2  1  0.165557  0.179966  0.436350  1
  Dy  Dy3  1  0.672274  0.317786  0.561292  1
  Dy  Dy4  1  0.833524  0.827248  0.936057  1
  Dy  Dy5  1  0.672274  0.317786  0.938708  1
  Dy  Dy6  1  0.833524  0.827248  0.563943  1
  Dy  Dy7  1  0.327763  0.675388  0.433525  1
  Dy  Dy8  1  0.165557  0.179966  0.063650  1
  Dy  Dy9  1  0.624239  0.039459  0.250000  1
  Dy  Dy10  1  0.132062  0.457101  0.750000  1
  Dy  Dy11  1  0.369726  0.965837  0.750000  1
  Tc  Tc12  1  0.016092  0.860719  0.250000  1
  Tc  Tc13  1  0.497352  0.392231  0.250000  1
  Tc  Tc14  1  0.958426  0.111726  0.750000  1
  Pt  Pt15  1  0.546734  0.612609  0.750000  1
