# generated using pymatgen
data_LiHoNi9Mo3As7
_symmetry_space_group_name_H-M   'P 1'
_cell_length_a   9.47077000
_cell_length_b   9.47077014
_cell_length_c   3.80167700
_cell_angle_alpha   90.00000000
_cell_angle_beta   90.00000000
_cell_angle_gamma   120.00000044
_symmetry_Int_Tables_number   1
_chemical_formula_structural   LiHoNi9Mo3As7
_chemical_formula_sum   'Li1 Ho1 Ni9 Mo3 As7'
_cell_volume   295.30882881
_cell_formula_units_Z   1
loop_
 _symmetry_equiv_pos_site_id
 _symmetry_equiv_pos_as_xyz
  1  'x, y, z'
loop_
 _atom_site_type_symbol
 _atom_site_label
 _atom_site_symmetry_multiplicity
 _atom_site_fract_x
 _atom_site_fract_y
 _atom_site_fract_z
 _atom_site_occupancy
  Li  Li0  1  0.333333  0.666667  0.000000  1
  Ho  Ho1  1  0.666667  0.333333  0.500000  1
  Ni  Ni2  1  0.714533  0.873840  0.000000  1
  Ni  Ni3  1  0.159307  0.285467  0.000000  1
  Ni  Ni4  1  0.126160  0.840693  0.000000  1
  Ni  Ni5  1  0.629958  0.571109  0.000000  1
  Ni  Ni6  1  0.941152  0.370042  0.000000  1
  Ni  Ni7  1  0.428891  0.058848  0.000000  1
  Ni  Ni8  1  0.561512  0.946682  0.500000  1
  Ni  Ni9  1  0.385170  0.438488  0.500000  1
  Ni  Ni10  1  0.053318  0.614830  0.500000  1
  Mo  Mo11  1  0.880404  0.781874  0.500000  1
  Mo  Mo12  1  0.901469  0.119596  0.500000  1
  Mo  Mo13  1  0.218126  0.098531  0.500000  1
  As  As14  1  0.583194  0.708421  0.500000  1
  As  As15  1  0.125227  0.416806  0.500000  1
  As  As16  1  0.291579  0.874773  0.500000  1
  As  As17  1  0.000000  0.000000  0.000000  1
  As  As18  1  0.884349  0.585540  0.000000  1
  As  As19  1  0.701192  0.115651  0.000000  1
  As  As20  1  0.414460  0.298808  0.000000  1
