# generated using pymatgen
data_Mg4HgGePd10
_symmetry_space_group_name_H-M   'P 1'
_cell_length_a   4.14112700
_cell_length_b   5.58556309
_cell_length_c   11.05318716
_cell_angle_alpha   91.77856836
_cell_angle_beta   90.00000000
_cell_angle_gamma   90.00000000
_symmetry_Int_Tables_number   1
_chemical_formula_structural   Mg4HgGePd10
_chemical_formula_sum   'Mg4 Hg1 Ge1 Pd10'
_cell_volume   255.54286461
_cell_formula_units_Z   1
loop_
 _symmetry_equiv_pos_site_id
 _symmetry_equiv_pos_as_xyz
  1  'x, y, z'
loop_
 _atom_site_type_symbol
 _atom_site_label
 _atom_site_symmetry_multiplicity
 _atom_site_fract_x
 _atom_site_fract_y
 _atom_site_fract_z
 _atom_site_occupancy
  Mg  Mg0  1  0.500000  0.172332  0.137025  1
  Mg  Mg1  1  0.500000  0.827668  0.862975  1
  Mg  Mg2  1  0.500000  0.306446  0.638254  1
  Mg  Mg3  1  0.500000  0.693554  0.361746  1
  Hg  Hg4  1  0.000000  0.000000  0.500000  1
  Ge  Ge5  1  0.000000  0.500000  0.000000  1
  Pd  Pd6  1  0.500000  0.216579  0.376144  1
  Pd  Pd7  1  0.500000  0.783421  0.623856  1
  Pd  Pd8  1  0.500000  0.315462  0.896578  1
  Pd  Pd9  1  0.500000  0.684538  0.103422  1
  Pd  Pd10  1  0.000000  0.435018  0.233144  1
  Pd  Pd11  1  0.000000  0.564982  0.766856  1
  Pd  Pd12  1  0.000000  0.068682  0.751087  1
  Pd  Pd13  1  0.000000  0.931318  0.248913  1
  Pd  Pd14  1  0.000000  0.000000  0.000000  1
  Pd  Pd15  1  0.000000  0.500000  0.500000  1
