# generated using pymatgen
data_Tb8Hf10ZrSi16Mo
_symmetry_space_group_name_H-M   'P 1'
_cell_length_a   7.27065041
_cell_length_b   7.27065005
_cell_length_c   13.34297048
_cell_angle_alpha   89.92146307
_cell_angle_beta   90.07853846
_cell_angle_gamma   90.02476927
_symmetry_Int_Tables_number   1
_chemical_formula_structural   Tb8Hf10ZrSi16Mo
_chemical_formula_sum   'Tb8 Hf10 Zr1 Si16 Mo1'
_cell_volume   705.33944838
_cell_formula_units_Z   1
loop_
 _symmetry_equiv_pos_site_id
 _symmetry_equiv_pos_as_xyz
  1  'x, y, z'
loop_
 _atom_site_type_symbol
 _atom_site_label
 _atom_site_symmetry_multiplicity
 _atom_site_fract_x
 _atom_site_fract_y
 _atom_site_fract_z
 _atom_site_occupancy
  Tb  Tb0  1  0.998652  0.343137  0.212403  1
  Tb  Tb1  1  0.004313  0.656563  0.716650  1
  Tb  Tb2  1  0.156659  0.495414  0.465457  1
  Tb  Tb3  1  0.501245  0.845623  0.034254  1
  Tb  Tb4  1  0.845623  0.501245  0.965746  1
  Tb  Tb5  1  0.495414  0.156659  0.534543  1
  Tb  Tb6  1  0.343137  0.998652  0.787597  1
  Tb  Tb7  1  0.656563  0.004313  0.283350  1
  Hf  Hf8  1  0.324264  0.674530  0.248860  1
  Hf  Hf9  1  0.674530  0.324264  0.751140  1
  Hf  Hf10  1  0.148614  0.996910  0.373604  1
  Hf  Hf11  1  0.853161  0.005031  0.877565  1
  Hf  Hf12  1  0.504058  0.648588  0.624743  1
  Hf  Hf13  1  0.349224  0.492967  0.877328  1
  Hf  Hf14  1  0.492967  0.349224  0.122672  1
  Hf  Hf15  1  0.648588  0.504058  0.375257  1
  Hf  Hf16  1  0.996910  0.148614  0.626396  1
  Hf  Hf17  1  0.005031  0.853161  0.122435  1
  Zr  Zr18  1  0.825515  0.825515  0.500000  1
  Si  Si19  1  0.362793  0.295245  0.316134  1
  Si  Si20  1  0.636274  0.704990  0.817570  1
  Si  Si21  1  0.206004  0.863154  0.567191  1
  Si  Si22  1  0.137384  0.796431  0.933145  1
  Si  Si23  1  0.796431  0.137384  0.066855  1
  Si  Si24  1  0.863154  0.206004  0.432809  1
  Si  Si25  1  0.295245  0.362793  0.683866  1
  Si  Si26  1  0.704990  0.636274  0.182430  1
  Si  Si27  1  0.293879  0.051295  0.182798  1
  Si  Si28  1  0.703963  0.952252  0.686764  1
  Si  Si29  1  0.449542  0.795471  0.434991  1
  Si  Si30  1  0.204208  0.547289  0.064138  1
  Si  Si31  1  0.547289  0.204208  0.935862  1
  Si  Si32  1  0.795471  0.449542  0.565009  1
  Si  Si33  1  0.051295  0.293879  0.817202  1
  Si  Si34  1  0.952252  0.703963  0.313236  1
  Mo  Mo35  1  0.175356  0.175356  0.000000  1
