# generated using pymatgen
data_Yb3Lu(ReN3)4
_symmetry_space_group_name_H-M   'P 1'
_cell_length_a   7.31994068
_cell_length_b   7.31998599
_cell_length_c   6.22896872
_cell_angle_alpha   74.04988363
_cell_angle_beta   74.05263919
_cell_angle_gamma   83.72536436
_symmetry_Int_Tables_number   1
_chemical_formula_structural   Yb3Lu(ReN3)4
_chemical_formula_sum   'Yb3 Lu1 Re4 N12'
_cell_volume   308.35385774
_cell_formula_units_Z   1
loop_
 _symmetry_equiv_pos_site_id
 _symmetry_equiv_pos_as_xyz
  1  'x, y, z'
loop_
 _atom_site_type_symbol
 _atom_site_label
 _atom_site_symmetry_multiplicity
 _atom_site_fract_x
 _atom_site_fract_y
 _atom_site_fract_z
 _atom_site_occupancy
  Yb  Yb0  1  0.294872  0.705123  0.750008  1
  Yb  Yb1  1  0.085346  0.914655  0.250004  1
  Yb  Yb2  1  0.706659  0.293319  0.250015  1
  Lu  Lu3  1  0.911200  0.088779  0.749953  1
  Re  Re4  1  0.622966  0.798132  0.265232  1
  Re  Re5  1  0.201850  0.377053  0.234765  1
  Re  Re6  1  0.378882  0.202104  0.729348  1
  Re  Re7  1  0.797891  0.621123  0.770663  1
  N  N8  1  0.340781  0.352996  0.941487  1
  N  N9  1  0.004248  0.219865  0.357928  1
  N  N10  1  0.780136  0.995740  0.142068  1
  N  N11  1  0.213920  0.012454  0.834077  1
  N  N12  1  0.653196  0.635529  0.064470  1
  N  N13  1  0.883482  0.380045  0.820361  1
  N  N14  1  0.121589  0.616049  0.170420  1
  N  N15  1  0.987541  0.786090  0.665949  1
  N  N16  1  0.383986  0.878409  0.329558  1
  N  N17  1  0.646996  0.659217  0.558531  1
  N  N18  1  0.619975  0.116504  0.679652  1
  N  N19  1  0.364481  0.346815  0.435511  1
