# generated using pymatgen
data_ScMnAlB2Rh5
_symmetry_space_group_name_H-M   'P 1'
_cell_length_a   9.36184200
_cell_length_b   9.33834000
_cell_length_c   2.98407000
_cell_angle_alpha   90.00000000
_cell_angle_beta   90.00000000
_cell_angle_gamma   90.00000000
_symmetry_Int_Tables_number   1
_chemical_formula_structural   ScMnAlB2Rh5
_chemical_formula_sum   'Sc2 Mn2 Al2 B4 Rh10'
_cell_volume   260.87952553
_cell_formula_units_Z   2
loop_
 _symmetry_equiv_pos_site_id
 _symmetry_equiv_pos_as_xyz
  1  'x, y, z'
loop_
 _atom_site_type_symbol
 _atom_site_label
 _atom_site_symmetry_multiplicity
 _atom_site_fract_x
 _atom_site_fract_y
 _atom_site_fract_z
 _atom_site_occupancy
  Sc  Sc0  1  0.824961  0.326820  0.000000  1
  Sc  Sc1  1  0.324961  0.173180  0.000000  1
  Mn  Mn2  1  0.678507  0.821567  0.000000  1
  Mn  Mn3  1  0.178507  0.678433  0.000000  1
  Al  Al4  1  0.000724  0.002200  0.000000  1
  Al  Al5  1  0.500724  0.497800  0.000000  1
  B  B6  1  0.624675  0.120860  0.000000  1
  B  B7  1  0.124675  0.379140  0.000000  1
  B  B8  1  0.871676  0.631166  0.000000  1
  B  B9  1  0.371676  0.868834  0.000000  1
  Rh  Rh10  1  0.069962  0.217737  0.500000  1
  Rh  Rh11  1  0.214463  0.927767  0.500000  1
  Rh  Rh12  1  0.784131  0.068485  0.500000  1
  Rh  Rh13  1  0.928907  0.788060  0.500000  1
  Rh  Rh14  1  0.428907  0.711940  0.500000  1
  Rh  Rh15  1  0.569962  0.282263  0.500000  1
  Rh  Rh16  1  0.714463  0.572233  0.500000  1
  Rh  Rh17  1  0.284131  0.431515  0.500000  1
  Rh  Rh18  1  0.501995  0.994000  0.500000  1
  Rh  Rh19  1  0.001995  0.506000  0.500000  1
