# generated using pymatgen
data_LiAgF5
_symmetry_space_group_name_H-M   'P 1'
_cell_length_a   5.32683334
_cell_length_b   5.32683424
_cell_length_c   8.32047685
_cell_angle_alpha   66.87009711
_cell_angle_beta   66.87009097
_cell_angle_gamma   76.90110988
_symmetry_Int_Tables_number   1
_chemical_formula_structural   LiAgF5
_chemical_formula_sum   'Li2 Ag2 F10'
_cell_volume   198.93260819
_cell_formula_units_Z   2
loop_
 _symmetry_equiv_pos_site_id
 _symmetry_equiv_pos_as_xyz
  1  'x, y, z'
loop_
 _atom_site_type_symbol
 _atom_site_label
 _atom_site_symmetry_multiplicity
 _atom_site_fract_x
 _atom_site_fract_y
 _atom_site_fract_z
 _atom_site_occupancy
  Li  Li0  1  0.417618  0.582382  0.250000  1
  Li  Li1  1  0.582382  0.417618  0.750000  1
  Ag  Ag2  1  0.000000  0.000000  0.000000  1
  Ag  Ag3  1  0.000000  0.000000  0.500000  1
  F  F4  1  0.792119  0.676454  0.142399  1
  F  F5  1  0.241510  0.670182  0.476208  1
  F  F6  1  0.676454  0.792119  0.642399  1
  F  F7  1  0.957547  0.042453  0.250000  1
  F  F8  1  0.329818  0.758490  0.023792  1
  F  F9  1  0.670182  0.241510  0.976208  1
  F  F10  1  0.042453  0.957547  0.750000  1
  F  F11  1  0.323546  0.207881  0.357601  1
  F  F12  1  0.758490  0.329818  0.523792  1
  F  F13  1  0.207881  0.323546  0.857601  1
