# generated using pymatgen
data_LaHf2BiF14
_symmetry_space_group_name_H-M   'P 1'
_cell_length_a   5.86120798
_cell_length_b   6.29518475
_cell_length_c   8.50227967
_cell_angle_alpha   78.34418885
_cell_angle_beta   90.23176399
_cell_angle_gamma   90.05545296
_symmetry_Int_Tables_number   1
_chemical_formula_structural   LaHf2BiF14
_chemical_formula_sum   'La1 Hf2 Bi1 F14'
_cell_volume   307.24030769
_cell_formula_units_Z   1
loop_
 _symmetry_equiv_pos_site_id
 _symmetry_equiv_pos_as_xyz
  1  'x, y, z'
loop_
 _atom_site_type_symbol
 _atom_site_label
 _atom_site_symmetry_multiplicity
 _atom_site_fract_x
 _atom_site_fract_y
 _atom_site_fract_z
 _atom_site_occupancy
  La  La0  1  0.700592  0.341869  0.687395  1
  Hf  Hf1  1  0.209868  0.810692  0.776986  1
  Hf  Hf2  1  0.709705  0.188250  0.224293  1
  Bi  Bi3  1  0.195240  0.658139  0.315228  1
  F  F4  1  0.374589  0.447941  0.523300  1
  F  F5  1  0.889848  0.557439  0.469887  1
  F  F6  1  0.923133  0.934623  0.231298  1
  F  F7  1  0.418523  0.066076  0.769557  1
  F  F8  1  0.452375  0.974726  0.238940  1
  F  F9  1  0.950973  0.024327  0.761559  1
  F  F10  1  0.502247  0.442609  0.213703  1
  F  F11  1  0.003038  0.554255  0.787048  1
  F  F12  1  0.203388  0.758383  0.015146  1
  F  F13  1  0.705975  0.240900  0.983795  1
  F  F14  1  0.212298  0.854988  0.533824  1
  F  F15  1  0.714692  0.140549  0.465594  1
  F  F16  1  0.993271  0.377115  0.218172  1
  F  F17  1  0.492965  0.627120  0.784275  1
