# generated using pymatgen
data_Y4Ga2B4Ru3Rh7
_symmetry_space_group_name_H-M   'P 1'
_cell_length_a   9.62164615
_cell_length_b   9.62552715
_cell_length_c   3.11771400
_cell_angle_alpha   90.00000000
_cell_angle_beta   90.00000000
_cell_angle_gamma   89.97988845
_symmetry_Int_Tables_number   1
_chemical_formula_structural   Y4Ga2B4Ru3Rh7
_chemical_formula_sum   'Y4 Ga2 B4 Ru3 Rh7'
_cell_volume   288.74212652
_cell_formula_units_Z   1
loop_
 _symmetry_equiv_pos_site_id
 _symmetry_equiv_pos_as_xyz
  1  'x, y, z'
loop_
 _atom_site_type_symbol
 _atom_site_label
 _atom_site_symmetry_multiplicity
 _atom_site_fract_x
 _atom_site_fract_y
 _atom_site_fract_z
 _atom_site_occupancy
  Y  Y0  1  0.827834  0.322749  0.000000  1
  Y  Y1  1  0.321982  0.176231  0.000000  1
  Y  Y2  1  0.675477  0.824383  0.000000  1
  Y  Y3  1  0.175989  0.674444  0.000000  1
  Ga  Ga4  1  0.000650  0.003569  0.000000  1
  Ga  Ga5  1  0.499397  0.499981  0.000000  1
  B  B6  1  0.620503  0.120202  0.000000  1
  B  B7  1  0.117948  0.373899  0.000000  1
  B  B8  1  0.880477  0.620328  0.000000  1
  B  B9  1  0.379183  0.879491  0.000000  1
  Ru  Ru10  1  0.069760  0.218591  0.500000  1
  Ru  Ru11  1  0.499620  0.000073  0.500000  1
  Ru  Ru12  1  0.000005  0.501872  0.500000  1
  Rh  Rh13  1  0.218690  0.928772  0.500000  1
  Rh  Rh14  1  0.780567  0.069161  0.500000  1
  Rh  Rh15  1  0.929897  0.783556  0.500000  1
  Rh  Rh16  1  0.430713  0.718573  0.500000  1
  Rh  Rh17  1  0.570529  0.281551  0.500000  1
  Rh  Rh18  1  0.718318  0.570557  0.500000  1
  Rh  Rh19  1  0.282460  0.432016  0.500000  1
