# generated using pymatgen
data_Sr5CaSn8BiSb
_symmetry_space_group_name_H-M   'P 1'
_cell_length_a   8.96882824
_cell_length_b   8.96882772
_cell_length_c   8.96882828
_cell_angle_alpha   119.93585153
_cell_angle_beta   119.93584937
_cell_angle_gamma   90.11114574
_symmetry_Int_Tables_number   1
_chemical_formula_structural   Sr5CaSn8BiSb
_chemical_formula_sum   'Sr5 Ca1 Sn8 Bi1 Sb1'
_cell_volume   510.63680394
_cell_formula_units_Z   1
loop_
 _symmetry_equiv_pos_site_id
 _symmetry_equiv_pos_as_xyz
  1  'x, y, z'
loop_
 _atom_site_type_symbol
 _atom_site_label
 _atom_site_symmetry_multiplicity
 _atom_site_fract_x
 _atom_site_fract_y
 _atom_site_fract_z
 _atom_site_occupancy
  Sr  Sr0  1  0.753727  0.753727  0.000000  1
  Sr  Sr1  1  0.159113  0.665474  0.824483  1
  Sr  Sr2  1  0.840993  0.334632  0.175517  1
  Sr  Sr3  1  0.665474  0.840993  0.506361  1
  Sr  Sr4  1  0.334632  0.159113  0.493639  1
  Ca  Ca5  1  0.246129  0.246129  0.000000  1
  Sn  Sn6  1  0.834343  0.330578  0.788109  1
  Sn  Sn7  1  0.169830  0.665194  0.211837  1
  Sn  Sn8  1  0.542470  0.046234  0.211891  1
  Sn  Sn9  1  0.330578  0.542470  0.496236  1
  Sn  Sn10  1  0.957992  0.169830  0.504634  1
  Sn  Sn11  1  0.453357  0.957992  0.788163  1
  Sn  Sn12  1  0.665194  0.453357  0.495366  1
  Sn  Sn13  1  0.046234  0.834343  0.503764  1
  Bi  Bi14  1  0.493374  0.493374  0.000000  1
  Sb  Sb15  1  0.006560  0.006560  0.000000  1
