# generated using pymatgen
data_CaPr(CuO2)4
_symmetry_space_group_name_H-M   'P 1'
_cell_length_a   6.34521228
_cell_length_b   6.34521220
_cell_length_c   6.34521157
_cell_angle_alpha   125.21985004
_cell_angle_beta   125.21985950
_cell_angle_gamma   81.17419407
_symmetry_Int_Tables_number   1
_chemical_formula_structural   CaPr(CuO2)4
_chemical_formula_sum   'Ca1 Pr1 Cu4 O8'
_cell_volume   164.24101704
_cell_formula_units_Z   1
loop_
 _symmetry_equiv_pos_site_id
 _symmetry_equiv_pos_as_xyz
  1  'x, y, z'
loop_
 _atom_site_type_symbol
 _atom_site_label
 _atom_site_symmetry_multiplicity
 _atom_site_fract_x
 _atom_site_fract_y
 _atom_site_fract_z
 _atom_site_occupancy
  Ca  Ca0  1  0.000000  0.000000  0.000000  1
  Pr  Pr1  1  0.750000  0.250000  0.500000  1
  Cu  Cu2  1  0.876260  0.625727  0.252211  1
  Cu  Cu3  1  0.373516  0.624049  0.747789  1
  Cu  Cu4  1  0.375951  0.123740  0.749467  1
  Cu  Cu5  1  0.374273  0.626484  0.250533  1
  O  O6  1  0.024116  0.943921  0.367621  1
  O  O7  1  0.056079  0.423700  0.080195  1
  O  O8  1  0.343505  0.975884  0.919805  1
  O  O9  1  0.173691  0.596551  0.868956  1
  O  O10  1  0.403449  0.272404  0.577140  1
  O  O11  1  0.695265  0.826309  0.422860  1
  O  O12  1  0.576300  0.656495  0.632379  1
  O  O13  1  0.727596  0.304735  0.131044  1
