# generated using pymatgen
data_HoErB24
_symmetry_space_group_name_H-M   'P 1'
_cell_length_a   5.29039800
_cell_length_b   5.29039756
_cell_length_c   9.16368000
_cell_angle_alpha   73.22218598
_cell_angle_beta   90.00000000
_cell_angle_gamma   120.00000276
_symmetry_Int_Tables_number   1
_chemical_formula_structural   HoErB24
_chemical_formula_sum   'Ho1 Er1 B24'
_cell_volume   209.41296657
_cell_formula_units_Z   1
loop_
 _symmetry_equiv_pos_site_id
 _symmetry_equiv_pos_as_xyz
  1  'x, y, z'
loop_
 _atom_site_type_symbol
 _atom_site_label
 _atom_site_symmetry_multiplicity
 _atom_site_fract_x
 _atom_site_fract_y
 _atom_site_fract_z
 _atom_site_occupancy
  Ho  Ho0  1  0.000000  0.000000  0.000000  1
  Er  Er1  1  0.500000  0.000000  0.500000  1
  B  B2  1  0.912060  0.500054  0.249840  1
  B  B3  1  0.412005  0.499946  0.750160  1
  B  B4  1  0.081050  0.500228  0.418722  1
  B  B5  1  0.581083  0.500010  0.918907  1
  B  B6  1  0.250106  0.838100  0.249840  1
  B  B7  1  0.749894  0.837834  0.750160  1
  B  B8  1  0.081050  0.162099  0.418722  1
  B  B9  1  0.581083  0.162166  0.918907  1
  B  B10  1  0.912060  0.162166  0.249840  1
  B  B11  1  0.412005  0.161900  0.750160  1
  B  B12  1  0.250106  0.162166  0.249840  1
  B  B13  1  0.749894  0.161900  0.750160  1
  B  B14  1  0.418917  0.837834  0.081093  1
  B  B15  1  0.918950  0.837901  0.581278  1
  B  B16  1  0.418917  0.499990  0.081093  1
  B  B17  1  0.918950  0.499772  0.581278  1
  B  B18  1  0.081073  0.499990  0.081093  1
  B  B19  1  0.580822  0.499772  0.581278  1
  B  B20  1  0.587995  0.500054  0.249840  1
  B  B21  1  0.087940  0.499946  0.750160  1
  B  B22  1  0.587995  0.838100  0.249840  1
  B  B23  1  0.087940  0.837834  0.750160  1
  B  B24  1  0.419178  0.500228  0.418722  1
  B  B25  1  0.918927  0.500010  0.918907  1
