# generated using pymatgen
data_Tb2Co3P7Ru9
_symmetry_space_group_name_H-M   'P 1'
_cell_length_a   9.32064100
_cell_length_b   9.32064135
_cell_length_c   3.83037700
_cell_angle_alpha   90.00000000
_cell_angle_beta   90.00000000
_cell_angle_gamma   120.00000231
_symmetry_Int_Tables_number   1
_chemical_formula_structural   Tb2Co3P7Ru9
_chemical_formula_sum   'Tb2 Co3 P7 Ru9'
_cell_volume   288.17992252
_cell_formula_units_Z   1
loop_
 _symmetry_equiv_pos_site_id
 _symmetry_equiv_pos_as_xyz
  1  'x, y, z'
loop_
 _atom_site_type_symbol
 _atom_site_label
 _atom_site_symmetry_multiplicity
 _atom_site_fract_x
 _atom_site_fract_y
 _atom_site_fract_z
 _atom_site_occupancy
  Tb  Tb0  1  0.000000  0.000000  0.000000  1
  Tb  Tb1  1  0.333333  0.666667  0.500000  1
  Co  Co2  1  0.824412  0.602022  0.000000  1
  Co  Co3  1  0.397978  0.222390  0.000000  1
  Co  Co4  1  0.777610  0.175588  0.000000  1
  P  P5  1  0.781546  0.734244  0.500000  1
  P  P6  1  0.265756  0.047303  0.500000  1
  P  P7  1  0.952697  0.218454  0.500000  1
  P  P8  1  0.666667  0.333333  0.000000  1
  P  P9  1  0.077483  0.634597  0.000000  1
  P  P10  1  0.365403  0.442886  0.000000  1
  P  P11  1  0.557114  0.922517  0.000000  1
  Ru  Ru12  1  0.091661  0.394249  0.000000  1
  Ru  Ru13  1  0.605751  0.697412  0.000000  1
  Ru  Ru14  1  0.302588  0.908339  0.000000  1
  Ru  Ru15  1  0.048592  0.767735  0.500000  1
  Ru  Ru16  1  0.232265  0.280856  0.500000  1
  Ru  Ru17  1  0.719144  0.951408  0.500000  1
  Ru  Ru18  1  0.872710  0.418317  0.500000  1
  Ru  Ru19  1  0.581683  0.454392  0.500000  1
  Ru  Ru20  1  0.545608  0.127290  0.500000  1
