# generated using pymatgen
data_Ho3Er3TcOs
_symmetry_space_group_name_H-M   'P 1'
_cell_length_a   6.25285508
_cell_length_b   7.39580900
_cell_length_c   9.00694711
_cell_angle_alpha   90.00000000
_cell_angle_beta   90.01803683
_cell_angle_gamma   90.00000000
_symmetry_Int_Tables_number   1
_chemical_formula_structural   Ho3Er3TcOs
_chemical_formula_sum   'Ho6 Er6 Tc2 Os2'
_cell_volume   416.52554471
_cell_formula_units_Z   2
loop_
 _symmetry_equiv_pos_site_id
 _symmetry_equiv_pos_as_xyz
  1  'x, y, z'
loop_
 _atom_site_type_symbol
 _atom_site_label
 _atom_site_symmetry_multiplicity
 _atom_site_fract_x
 _atom_site_fract_y
 _atom_site_fract_z
 _atom_site_occupancy
  Ho  Ho0  1  0.336855  0.674723  0.062198  1
  Ho  Ho1  1  0.163145  0.174723  0.437802  1
  Ho  Ho2  1  0.875801  0.539194  0.250009  1
  Ho  Ho3  1  0.624199  0.039194  0.249991  1
  Ho  Ho4  1  0.129386  0.459773  0.749994  1
  Ho  Ho5  1  0.370614  0.959773  0.750006  1
  Er  Er6  1  0.664623  0.324945  0.562867  1
  Er  Er7  1  0.835377  0.824945  0.937133  1
  Er  Er8  1  0.664673  0.324876  0.937146  1
  Er  Er9  1  0.835327  0.824876  0.562854  1
  Er  Er10  1  0.336901  0.674689  0.437844  1
  Er  Er11  1  0.163099  0.174689  0.062156  1
  Tc  Tc12  1  0.039315  0.884048  0.250020  1
  Tc  Tc13  1  0.460685  0.384048  0.249980  1
  Os  Os14  1  0.959175  0.117752  0.750088  1
  Os  Os15  1  0.540825  0.617752  0.749912  1
