# generated using pymatgen
data_HoFeCoSiP
_symmetry_space_group_name_H-M   'P 1'
_cell_length_a   5.50889286
_cell_length_b   5.50889115
_cell_length_c   5.50889147
_cell_angle_alpha   139.27746067
_cell_angle_beta   139.27877082
_cell_angle_gamma   58.95103518
_symmetry_Int_Tables_number   1
_chemical_formula_structural   HoFeCoSiP
_chemical_formula_sum   'Ho1 Fe1 Co1 Si1 P1'
_cell_volume   70.47673298
_cell_formula_units_Z   1
loop_
 _symmetry_equiv_pos_site_id
 _symmetry_equiv_pos_as_xyz
  1  'x, y, z'
loop_
 _atom_site_type_symbol
 _atom_site_label
 _atom_site_symmetry_multiplicity
 _atom_site_fract_x
 _atom_site_fract_y
 _atom_site_fract_z
 _atom_site_occupancy
  Ho  Ho0  1  0.002672  0.002672  0.000000  1
  Fe  Fe1  1  0.746421  0.246421  0.500000  1
  Co  Co2  1  0.247913  0.747913  0.500000  1
  Si  Si3  1  0.372604  0.372604  0.000000  1
  P  P4  1  0.630391  0.630391  0.000000  1
