# generated using pymatgen
data_Er5Tm3(B6Os)4
_symmetry_space_group_name_H-M   'P 1'
_cell_length_a   3.62489900
_cell_length_b   9.08934502
_cell_length_c   11.46931003
_cell_angle_alpha   90.00778719
_cell_angle_beta   90.00000000
_cell_angle_gamma   90.00000000
_symmetry_Int_Tables_number   1
_chemical_formula_structural   Er5Tm3(B6Os)4
_chemical_formula_sum   'Er5 Tm3 B24 Os4'
_cell_volume   377.89033785
_cell_formula_units_Z   1
loop_
 _symmetry_equiv_pos_site_id
 _symmetry_equiv_pos_as_xyz
  1  'x, y, z'
loop_
 _atom_site_type_symbol
 _atom_site_label
 _atom_site_symmetry_multiplicity
 _atom_site_fract_x
 _atom_site_fract_y
 _atom_site_fract_z
 _atom_site_occupancy
  Er  Er0  1  0.000000  0.322030  0.413979  1
  Er  Er1  1  0.000000  0.677997  0.586205  1
  Er  Er2  1  0.000000  0.821862  0.085979  1
  Er  Er3  1  0.000000  0.178181  0.913898  1
  Er  Er4  1  0.000000  0.944117  0.373278  1
  Tm  Tm5  1  0.000000  0.055962  0.626974  1
  Tm  Tm6  1  0.000000  0.444119  0.126662  1
  Tm  Tm7  1  0.000000  0.555899  0.873217  1
  B  B8  1  0.500000  0.553509  0.433410  1
  B  B9  1  0.500000  0.446226  0.566679  1
  B  B10  1  0.500000  0.053844  0.066464  1
  B  B11  1  0.500000  0.946261  0.933368  1
  B  B12  1  0.500000  0.748235  0.420313  1
  B  B13  1  0.500000  0.251405  0.579825  1
  B  B14  1  0.500000  0.248816  0.079644  1
  B  B15  1  0.500000  0.751283  0.920268  1
  B  B16  1  0.500000  0.791393  0.266151  1
  B  B17  1  0.500000  0.208279  0.733770  1
  B  B18  1  0.500000  0.291944  0.233604  1
  B  B19  1  0.500000  0.708215  0.766341  1
  B  B20  1  0.500000  0.631445  0.184797  1
  B  B21  1  0.500000  0.368434  0.815130  1
  B  B22  1  0.500000  0.131987  0.314936  1
  B  B23  1  0.500000  0.868346  0.685012  1
  B  B24  1  0.500000  0.982780  0.212944  1
  B  B25  1  0.500000  0.017420  0.786801  1
  B  B26  1  0.500000  0.482439  0.286686  1
  B  B27  1  0.500000  0.517448  0.713275  1
  B  B28  1  0.500000  0.606453  0.029465  1
  B  B29  1  0.500000  0.393547  0.970431  1
  B  B30  1  0.500000  0.107246  0.470613  1
  B  B31  1  0.500000  0.893029  0.529977  1
  Os  Os32  1  0.000000  0.637126  0.321171  1
  Os  Os33  1  0.000000  0.362462  0.678888  1
  Os  Os34  1  0.000000  0.137874  0.178571  1
  Os  Os35  1  0.000000  0.862385  0.821272  1
