# generated using pymatgen
data_Ac3Y(Pd2O5)2
_symmetry_space_group_name_H-M   'P 1'
_cell_length_a   6.80198100
_cell_length_b   6.82242663
_cell_length_c   5.76260900
_cell_angle_alpha   90.00000000
_cell_angle_beta   90.00000000
_cell_angle_gamma   89.90887161
_symmetry_Int_Tables_number   1
_chemical_formula_structural   Ac3Y(Pd2O5)2
_chemical_formula_sum   'Ac3 Y1 Pd4 O10'
_cell_volume   267.41938898
_cell_formula_units_Z   1
loop_
 _symmetry_equiv_pos_site_id
 _symmetry_equiv_pos_as_xyz
  1  'x, y, z'
loop_
 _atom_site_type_symbol
 _atom_site_label
 _atom_site_symmetry_multiplicity
 _atom_site_fract_x
 _atom_site_fract_y
 _atom_site_fract_z
 _atom_site_occupancy
  Ac  Ac0  1  0.107366  0.267740  0.000000  1
  Ac  Ac1  1  0.884976  0.739995  0.000000  1
  Ac  Ac2  1  0.269139  0.896863  0.500000  1
  Y  Y3  1  0.750148  0.116070  0.500000  1
  Pd  Pd4  1  0.595677  0.305635  0.000000  1
  Pd  Pd5  1  0.407022  0.689271  0.000000  1
  Pd  Pd6  1  0.317187  0.405546  0.500000  1
  Pd  Pd7  1  0.686273  0.591391  0.500000  1
  O  O8  1  0.415976  0.200461  0.263170  1
  O  O9  1  0.593610  0.799609  0.737150  1
  O  O10  1  0.593610  0.799609  0.262850  1
  O  O11  1  0.204749  0.593245  0.757854  1
  O  O12  1  0.415976  0.200461  0.736830  1
  O  O13  1  0.792605  0.392750  0.253384  1
  O  O14  1  0.792605  0.392750  0.746616  1
  O  O15  1  0.204749  0.593245  0.242146  1
  O  O16  1  0.984166  0.007678  0.257464  1
  O  O17  1  0.984166  0.007678  0.742536  1
