# generated using pymatgen
data_Er6P13(Ir2Rh3)4
_symmetry_space_group_name_H-M   'P 1'
_cell_length_a   13.31547600
_cell_length_b   13.31547372
_cell_length_c   3.93610000
_cell_angle_alpha   90.00000000
_cell_angle_beta   90.00000000
_cell_angle_gamma   119.99999573
_symmetry_Int_Tables_number   1
_chemical_formula_structural   Er6P13(Ir2Rh3)4
_chemical_formula_sum   'Er6 P13 Ir8 Rh12'
_cell_volume   604.38001041
_cell_formula_units_Z   1
loop_
 _symmetry_equiv_pos_site_id
 _symmetry_equiv_pos_as_xyz
  1  'x, y, z'
loop_
 _atom_site_type_symbol
 _atom_site_label
 _atom_site_symmetry_multiplicity
 _atom_site_fract_x
 _atom_site_fract_y
 _atom_site_fract_z
 _atom_site_occupancy
  Er  Er0  1  0.528475  0.717103  0.248045  1
  Er  Er1  1  0.282897  0.811371  0.248045  1
  Er  Er2  1  0.188629  0.471525  0.248045  1
  Er  Er3  1  0.471267  0.282767  0.751536  1
  Er  Er4  1  0.717233  0.188501  0.751536  1
  Er  Er5  1  0.811499  0.528733  0.751536  1
  P  P6  1  0.526227  0.139662  0.250316  1
  P  P7  1  0.860338  0.386567  0.250316  1
  P  P8  1  0.613433  0.473773  0.250316  1
  P  P9  1  0.945011  0.713535  0.255446  1
  P  P10  1  0.286465  0.231477  0.255446  1
  P  P11  1  0.768523  0.054989  0.255446  1
  P  P12  1  0.386889  0.526538  0.749884  1
  P  P13  1  0.473462  0.860349  0.749884  1
  P  P14  1  0.139651  0.613111  0.749884  1
  P  P15  1  0.713524  0.769474  0.745384  1
  P  P16  1  0.230526  0.944049  0.745384  1
  P  P17  1  0.055951  0.286476  0.745384  1
  P  P18  1  0.000000  0.000000  0.000367  1
  Ir  Ir19  1  0.333333  0.666667  0.751575  1
  Ir  Ir20  1  0.919341  0.249048  0.253634  1
  Ir  Ir21  1  0.750952  0.670292  0.253634  1
  Ir  Ir22  1  0.329708  0.080659  0.253634  1
  Ir  Ir23  1  0.437835  0.021719  0.751556  1
  Ir  Ir24  1  0.978281  0.416117  0.751556  1
  Ir  Ir25  1  0.583883  0.562165  0.751556  1
  Ir  Ir26  1  0.666667  0.333333  0.248000  1
  Rh  Rh27  1  0.094701  0.186136  0.247916  1
  Rh  Rh28  1  0.813864  0.908565  0.247916  1
  Rh  Rh29  1  0.091435  0.905299  0.247916  1
  Rh  Rh30  1  0.022244  0.584293  0.248244  1
  Rh  Rh31  1  0.415707  0.437950  0.248244  1
  Rh  Rh32  1  0.562050  0.977756  0.248244  1
  Rh  Rh33  1  0.670330  0.920266  0.745793  1
  Rh  Rh34  1  0.079734  0.750064  0.745793  1
  Rh  Rh35  1  0.249936  0.329670  0.745793  1
  Rh  Rh36  1  0.904498  0.812880  0.752265  1
  Rh  Rh37  1  0.187120  0.091618  0.752265  1
  Rh  Rh38  1  0.908382  0.095502  0.752265  1
