# generated using pymatgen
data_Y5Er11Cd4Pd3Ru
_symmetry_space_group_name_H-M   'P 1'
_cell_length_a   9.68251589
_cell_length_b   9.66287975
_cell_length_c   9.66287998
_cell_angle_alpha   59.51361326
_cell_angle_beta   59.52236399
_cell_angle_gamma   59.52235561
_symmetry_Int_Tables_number   1
_chemical_formula_structural   Y5Er11Cd4Pd3Ru
_chemical_formula_sum   'Y5 Er11 Cd4 Pd3 Ru1'
_cell_volume   632.28714695
_cell_formula_units_Z   1
loop_
 _symmetry_equiv_pos_site_id
 _symmetry_equiv_pos_as_xyz
  1  'x, y, z'
loop_
 _atom_site_type_symbol
 _atom_site_label
 _atom_site_symmetry_multiplicity
 _atom_site_fract_x
 _atom_site_fract_y
 _atom_site_fract_z
 _atom_site_occupancy
  Y  Y0  1  0.558915  0.937845  0.937845  1
  Y  Y1  1  0.566665  0.934155  0.565318  1
  Y  Y2  1  0.937068  0.559805  0.936431  1
  Y  Y3  1  0.566665  0.565318  0.934155  1
  Y  Y4  1  0.937068  0.936431  0.559805  1
  Er  Er5  1  0.352944  0.352501  0.352501  1
  Er  Er6  1  0.350124  0.351051  0.945591  1
  Er  Er7  1  0.350124  0.945591  0.351051  1
  Er  Er8  1  0.944807  0.350795  0.350795  1
  Er  Er9  1  0.816899  0.188049  0.188049  1
  Er  Er10  1  0.187497  0.811199  0.811199  1
  Er  Er11  1  0.187420  0.816996  0.188432  1
  Er  Er12  1  0.811593  0.187982  0.810881  1
  Er  Er13  1  0.187420  0.188432  0.816996  1
  Er  Er14  1  0.811593  0.810881  0.187982  1
  Er  Er15  1  0.936709  0.564465  0.564465  1
  Cd  Cd16  1  0.580490  0.579712  0.579712  1
  Cd  Cd17  1  0.580383  0.580462  0.254659  1
  Cd  Cd18  1  0.580383  0.254659  0.580462  1
  Cd  Cd19  1  0.253413  0.580792  0.580792  1
  Pd  Pd20  1  0.144137  0.144987  0.569335  1
  Pd  Pd21  1  0.144137  0.569335  0.144987  1
  Pd  Pd22  1  0.569262  0.144149  0.144149  1
  Ru  Ru23  1  0.144280  0.144408  0.144408  1
