# generated using pymatgen
data_TbY2TlSi2Ag3
_symmetry_space_group_name_H-M   'P 1'
_cell_length_a   7.32513804
_cell_length_b   7.31312767
_cell_length_c   4.24419100
_cell_angle_alpha   90.00000000
_cell_angle_beta   90.00000000
_cell_angle_gamma   119.94576382
_symmetry_Int_Tables_number   1
_chemical_formula_structural   TbY2TlSi2Ag3
_chemical_formula_sum   'Tb1 Y2 Tl1 Si2 Ag3'
_cell_volume   197.00697897
_cell_formula_units_Z   1
loop_
 _symmetry_equiv_pos_site_id
 _symmetry_equiv_pos_as_xyz
  1  'x, y, z'
loop_
 _atom_site_type_symbol
 _atom_site_label
 _atom_site_symmetry_multiplicity
 _atom_site_fract_x
 _atom_site_fract_y
 _atom_site_fract_z
 _atom_site_occupancy
  Tb  Tb0  1  0.000000  0.427293  0.500000  1
  Y  Y1  1  0.573231  0.573321  0.500000  1
  Y  Y2  1  0.426769  0.000090  0.500000  1
  Tl  Tl3  1  0.000000  0.999774  0.500000  1
  Si  Si4  1  0.333544  0.666824  0.000000  1
  Si  Si5  1  0.666456  0.333279  0.000000  1
  Ag  Ag6  1  0.000000  0.726847  0.000000  1
  Ag  Ag7  1  0.273167  0.272869  0.000000  1
  Ag  Ag8  1  0.726833  0.999703  0.000000  1
