# generated using pymatgen
data_La2Yb(PrSi2)2
_symmetry_space_group_name_H-M   'P 1'
_cell_length_a   7.99232900
_cell_length_b   7.99232900
_cell_length_c   15.06356500
_cell_angle_alpha   90.00000000
_cell_angle_beta   90.00000000
_cell_angle_gamma   90.00000000
_symmetry_Int_Tables_number   1
_chemical_formula_structural   La2Yb(PrSi2)2
_chemical_formula_sum   'La8 Yb4 Pr8 Si16'
_cell_volume   962.22020469
_cell_formula_units_Z   4
loop_
 _symmetry_equiv_pos_site_id
 _symmetry_equiv_pos_as_xyz
  1  'x, y, z'
loop_
 _atom_site_type_symbol
 _atom_site_label
 _atom_site_symmetry_multiplicity
 _atom_site_fract_x
 _atom_site_fract_y
 _atom_site_fract_z
 _atom_site_occupancy
  La  La0  1  0.990293  0.625084  0.048413  1
  La  La1  1  0.009707  0.374916  0.548413  1
  La  La2  1  0.625084  0.990293  0.951587  1
  La  La3  1  0.125084  0.509707  0.798413  1
  La  La4  1  0.874916  0.490293  0.298413  1
  La  La5  1  0.509707  0.125084  0.201587  1
  La  La6  1  0.490293  0.874916  0.701587  1
  La  La7  1  0.374916  0.009707  0.451587  1
  Yb  Yb8  1  0.690013  0.690013  0.500000  1
  Yb  Yb9  1  0.809987  0.190013  0.750000  1
  Yb  Yb10  1  0.190013  0.809987  0.250000  1
  Yb  Yb11  1  0.309987  0.309987  0.000000  1
  Pr  Pr12  1  0.374318  0.489974  0.374743  1
  Pr  Pr13  1  0.874318  0.010026  0.375257  1
  Pr  Pr14  1  0.989974  0.125682  0.124743  1
  Pr  Pr15  1  0.010026  0.874318  0.624743  1
  Pr  Pr16  1  0.625682  0.510026  0.874743  1
  Pr  Pr17  1  0.489974  0.374318  0.625257  1
  Pr  Pr18  1  0.510026  0.625682  0.125257  1
  Pr  Pr19  1  0.125682  0.989974  0.875257  1
  Si  Si20  1  0.081427  0.712069  0.441404  1
  Si  Si21  1  0.918573  0.287931  0.941404  1
  Si  Si22  1  0.712069  0.081427  0.558596  1
  Si  Si23  1  0.212070  0.418573  0.191404  1
  Si  Si24  1  0.787931  0.581427  0.691404  1
  Si  Si25  1  0.418573  0.212070  0.808596  1
  Si  Si26  1  0.581427  0.787931  0.308596  1
  Si  Si27  1  0.287931  0.918573  0.058596  1
  Si  Si28  1  0.834328  0.795994  0.804184  1
  Si  Si29  1  0.165672  0.204006  0.304184  1
  Si  Si30  1  0.795994  0.834328  0.195816  1
  Si  Si31  1  0.295994  0.665672  0.554184  1
  Si  Si32  1  0.704006  0.334328  0.054184  1
  Si  Si33  1  0.665672  0.295994  0.445816  1
  Si  Si34  1  0.334328  0.704006  0.945816  1
  Si  Si35  1  0.204006  0.165672  0.695816  1
