# generated using pymatgen
data_HoSc(Co3Si2)2
_symmetry_space_group_name_H-M   'P 1'
_cell_length_a   6.19166077
_cell_length_b   6.19166154
_cell_length_c   6.19176800
_cell_angle_alpha   130.56063720
_cell_angle_beta   112.62092770
_cell_angle_gamma   87.99981717
_symmetry_Int_Tables_number   1
_chemical_formula_structural   HoSc(Co3Si2)2
_chemical_formula_sum   'Ho1 Sc1 Co6 Si4'
_cell_volume   158.43036280
_cell_formula_units_Z   1
loop_
 _symmetry_equiv_pos_site_id
 _symmetry_equiv_pos_as_xyz
  1  'x, y, z'
loop_
 _atom_site_type_symbol
 _atom_site_label
 _atom_site_symmetry_multiplicity
 _atom_site_fract_x
 _atom_site_fract_y
 _atom_site_fract_z
 _atom_site_occupancy
  Ho  Ho0  1  0.749944  0.471143  0.721087  1
  Sc  Sc1  1  0.250006  0.543209  0.293215  1
  Co  Co2  1  0.994416  0.996966  0.491383  1
  Co  Co3  1  0.505613  0.997009  0.002623  1
  Co  Co4  1  0.719480  0.995003  0.719411  1
  Co  Co5  1  0.224409  0.499932  0.719411  1
  Co  Co6  1  0.275551  0.995157  0.275692  1
  Co  Co7  1  0.780535  0.500140  0.275692  1
  Si  Si8  1  0.087177  0.883982  0.796791  1
  Si  Si9  1  0.925173  0.129067  0.203952  1
  Si  Si10  1  0.574885  0.778781  0.203952  1
  Si  Si11  1  0.412809  0.209613  0.796791  1
