# generated using pymatgen
data_Ac6GeSe7
_symmetry_space_group_name_H-M   'P 1'
_cell_length_a   8.17181139
_cell_length_b   8.17238781
_cell_length_c   8.17238798
_cell_angle_alpha   109.47264781
_cell_angle_beta   109.46978884
_cell_angle_gamma   109.46980139
_symmetry_Int_Tables_number   1
_chemical_formula_structural   Ac6GeSe7
_chemical_formula_sum   'Ac6 Ge1 Se7'
_cell_volume   420.14772660
_cell_formula_units_Z   1
loop_
 _symmetry_equiv_pos_site_id
 _symmetry_equiv_pos_as_xyz
  1  'x, y, z'
loop_
 _atom_site_type_symbol
 _atom_site_label
 _atom_site_symmetry_multiplicity
 _atom_site_fract_x
 _atom_site_fract_y
 _atom_site_fract_z
 _atom_site_occupancy
  Ac  Ac0  1  0.868740  0.753997  0.122461  1
  Ac  Ac1  1  0.114744  0.368465  0.246003  1
  Ac  Ac2  1  0.626571  0.242527  0.366327  1
  Ac  Ac3  1  0.746279  0.877537  0.631533  1
  Ac  Ac4  1  0.384046  0.123802  0.757473  1
  Ac  Ac5  1  0.260243  0.633671  0.876198  1
  Ge  Ge6  1  0.656173  0.000000  0.000000  1
  Se  Se7  1  0.151164  0.000000  0.000000  1
  Se  Se8  1  0.497902  0.499492  0.151647  1
  Se  Se9  1  0.346255  0.848353  0.347845  1
  Se  Se10  1  0.002367  0.152441  0.505189  1
  Se  Se11  1  0.998411  0.652155  0.500508  1
  Se  Se12  1  0.497177  0.494811  0.647252  1
  Se  Se13  1  0.849926  0.352748  0.847559  1
