# generated using pymatgen
data_ZnBi2F12
_symmetry_space_group_name_H-M   'P 1'
_cell_length_a   5.26144857
_cell_length_b   5.70379374
_cell_length_c   9.18967525
_cell_angle_alpha   105.27590868
_cell_angle_beta   90.50224818
_cell_angle_gamma   117.94195189
_symmetry_Int_Tables_number   1
_chemical_formula_structural   ZnBi2F12
_chemical_formula_sum   'Zn1 Bi2 F12'
_cell_volume   232.18004092
_cell_formula_units_Z   1
loop_
 _symmetry_equiv_pos_site_id
 _symmetry_equiv_pos_as_xyz
  1  'x, y, z'
loop_
 _atom_site_type_symbol
 _atom_site_label
 _atom_site_symmetry_multiplicity
 _atom_site_fract_x
 _atom_site_fract_y
 _atom_site_fract_z
 _atom_site_occupancy
  Zn  Zn0  1  0.500000  0.500000  0.500000  1
  Bi  Bi1  1  0.276495  0.012299  0.762458  1
  Bi  Bi2  1  0.723505  0.987701  0.237542  1
  F  F3  1  0.752847  0.758229  0.377661  1
  F  F4  1  0.247153  0.241771  0.622339  1
  F  F5  1  0.289468  0.740172  0.211853  1
  F  F6  1  0.293665  0.753636  0.869932  1
  F  F7  1  0.706335  0.246364  0.130068  1
  F  F8  1  0.824737  0.755211  0.685630  1
  F  F9  1  0.175263  0.244789  0.314370  1
  F  F10  1  0.309203  0.747656  0.561470  1
  F  F11  1  0.690797  0.252344  0.438530  1
  F  F12  1  0.194826  0.241283  0.942471  1
  F  F13  1  0.805174  0.758717  0.057529  1
  F  F14  1  0.710532  0.259828  0.788147  1
