# generated using pymatgen
data_Sc2SiRu4W
_symmetry_space_group_name_H-M   'P 1'
_cell_length_a   6.23007400
_cell_length_b   4.41328300
_cell_length_c   8.84247700
_cell_angle_alpha   90.00000000
_cell_angle_beta   90.00000000
_cell_angle_gamma   90.00000000
_symmetry_Int_Tables_number   1
_chemical_formula_structural   Sc2SiRu4W
_chemical_formula_sum   'Sc4 Si2 Ru8 W2'
_cell_volume   243.12460962
_cell_formula_units_Z   2
loop_
 _symmetry_equiv_pos_site_id
 _symmetry_equiv_pos_as_xyz
  1  'x, y, z'
loop_
 _atom_site_type_symbol
 _atom_site_label
 _atom_site_symmetry_multiplicity
 _atom_site_fract_x
 _atom_site_fract_y
 _atom_site_fract_z
 _atom_site_occupancy
  Sc  Sc0  1  0.249969  0.250000  0.117266  1
  Sc  Sc1  1  0.749970  0.750000  0.382734  1
  Sc  Sc2  1  0.250027  0.250000  0.634844  1
  Sc  Sc3  1  0.750026  0.750000  0.865157  1
  Si  Si4  1  0.750035  0.250000  0.626574  1
  Si  Si5  1  0.250034  0.750000  0.873425  1
  Ru  Ru6  1  0.501417  0.750000  0.125418  1
  Ru  Ru7  1  0.998541  0.750000  0.125428  1
  Ru  Ru8  1  0.498540  0.250000  0.374573  1
  Ru  Ru9  1  0.001417  0.250000  0.374582  1
  Ru  Ru10  1  0.002718  0.750000  0.621636  1
  Ru  Ru11  1  0.497319  0.750000  0.621644  1
  Ru  Ru12  1  0.997319  0.250000  0.878357  1
  Ru  Ru13  1  0.502717  0.250000  0.878364  1
  W  W14  1  0.749973  0.250000  0.122297  1
  W  W15  1  0.249974  0.750000  0.377702  1
