# generated using pymatgen
data_TmLuGa10OsRu2
_symmetry_space_group_name_H-M   'P 1'
_cell_length_a   8.89835400
_cell_length_b   8.89820100
_cell_length_c   6.36280300
_cell_angle_alpha   90.00000000
_cell_angle_beta   90.00000000
_cell_angle_gamma   90.00000000
_symmetry_Int_Tables_number   1
_chemical_formula_structural   TmLuGa10OsRu2
_chemical_formula_sum   'Tm2 Lu2 Ga20 Os2 Ru4'
_cell_volume   503.80255775
_cell_formula_units_Z   2
loop_
 _symmetry_equiv_pos_site_id
 _symmetry_equiv_pos_as_xyz
  1  'x, y, z'
loop_
 _atom_site_type_symbol
 _atom_site_label
 _atom_site_symmetry_multiplicity
 _atom_site_fract_x
 _atom_site_fract_y
 _atom_site_fract_z
 _atom_site_occupancy
  Tm  Tm0  1  0.816441  0.683563  0.000000  1
  Tm  Tm1  1  0.316441  0.816437  0.000000  1
  Lu  Lu2  1  0.183596  0.316417  0.000000  1
  Lu  Lu3  1  0.683596  0.183583  0.000000  1
  Ga  Ga4  1  0.500122  0.000126  0.283154  1
  Ga  Ga5  1  0.500122  0.000126  0.716846  1
  Ga  Ga6  1  0.292771  0.561257  0.707294  1
  Ga  Ga7  1  0.000122  0.499874  0.283154  1
  Ga  Ga8  1  0.000122  0.499874  0.716846  1
  Ga  Ga9  1  0.061349  0.792802  0.707168  1
  Ga  Ga10  1  0.207199  0.061504  0.292621  1
  Ga  Ga11  1  0.061349  0.792802  0.292832  1
  Ga  Ga12  1  0.707199  0.438496  0.707379  1
  Ga  Ga13  1  0.207199  0.061504  0.707379  1
  Ga  Ga14  1  0.938587  0.207229  0.707508  1
  Ga  Ga15  1  0.707199  0.438496  0.292621  1
  Ga  Ga16  1  0.561349  0.707198  0.292832  1
  Ga  Ga17  1  0.938587  0.207229  0.292492  1
  Ga  Ga18  1  0.561349  0.707198  0.707168  1
  Ga  Ga19  1  0.792771  0.938743  0.292706  1
  Ga  Ga20  1  0.438587  0.292771  0.707508  1
  Ga  Ga21  1  0.792771  0.938743  0.707294  1
  Ga  Ga22  1  0.438587  0.292771  0.292492  1
  Ga  Ga23  1  0.292771  0.561257  0.292706  1
  Os  Os24  1  0.999887  0.000372  0.000000  1
  Os  Os25  1  0.499887  0.499628  0.000000  1
  Ru  Ru26  1  0.177987  0.322011  0.500000  1
  Ru  Ru27  1  0.322033  0.822033  0.500000  1
  Ru  Ru28  1  0.822033  0.677967  0.500000  1
  Ru  Ru29  1  0.677987  0.177989  0.500000  1
