# generated using pymatgen
data_Ho6Al24Ru5Rh3
_symmetry_space_group_name_H-M   'P 1'
_cell_length_a   8.83178147
_cell_length_b   8.76826705
_cell_length_c   9.55613947
_cell_angle_alpha   89.84906608
_cell_angle_beta   90.10003412
_cell_angle_gamma   120.07447583
_symmetry_Int_Tables_number   1
_chemical_formula_structural   Ho6Al24Ru5Rh3
_chemical_formula_sum   'Ho6 Al24 Ru5 Rh3'
_cell_volume   640.39395108
_cell_formula_units_Z   1
loop_
 _symmetry_equiv_pos_site_id
 _symmetry_equiv_pos_as_xyz
  1  'x, y, z'
loop_
 _atom_site_type_symbol
 _atom_site_label
 _atom_site_symmetry_multiplicity
 _atom_site_fract_x
 _atom_site_fract_y
 _atom_site_fract_z
 _atom_site_occupancy
  Ho  Ho0  1  0.193154  0.388776  0.250856  1
  Ho  Ho1  1  0.806846  0.611224  0.749144  1
  Ho  Ho2  1  0.614166  0.804914  0.250727  1
  Ho  Ho3  1  0.385834  0.195086  0.749273  1
  Ho  Ho4  1  0.189730  0.802454  0.250217  1
  Ho  Ho5  1  0.810270  0.197546  0.749783  1
  Al  Al6  1  0.331649  0.665681  0.022522  1
  Al  Al7  1  0.668351  0.334319  0.977478  1
  Al  Al8  1  0.667523  0.335014  0.521150  1
  Al  Al9  1  0.332477  0.664986  0.478850  1
  Al  Al10  1  0.163793  0.326577  0.577427  1
  Al  Al11  1  0.836207  0.673423  0.422573  1
  Al  Al12  1  0.675065  0.836939  0.577972  1
  Al  Al13  1  0.838268  0.673676  0.077314  1
  Al  Al14  1  0.324935  0.163061  0.422028  1
  Al  Al15  1  0.161732  0.326324  0.922686  1
  Al  Al16  1  0.162235  0.836982  0.577222  1
  Al  Al17  1  0.324624  0.161043  0.078102  1
  Al  Al18  1  0.837765  0.163018  0.422778  1
  Al  Al19  1  0.675376  0.838957  0.921898  1
  Al  Al20  1  0.837836  0.162962  0.077430  1
  Al  Al21  1  0.162164  0.837038  0.922570  1
  Al  Al22  1  0.561260  0.122785  0.249529  1
  Al  Al23  1  0.438740  0.877215  0.750471  1
  Al  Al24  1  0.875782  0.437052  0.249536  1
  Al  Al25  1  0.124218  0.562948  0.750464  1
  Al  Al26  1  0.561188  0.437209  0.250518  1
  Al  Al27  1  0.438812  0.562791  0.749482  1
  Al  Al28  1  0.998694  0.998521  0.250008  1
  Al  Al29  1  0.001306  0.001479  0.749992  1
  Ru  Ru30  1  0.000000  0.500000  0.000000  1
  Ru  Ru31  1  0.000000  0.500000  0.500000  1
  Ru  Ru32  1  0.500000  0.500000  0.500000  1
  Ru  Ru33  1  0.000000  0.000000  0.000000  1
  Ru  Ru34  1  0.000000  0.000000  0.500000  1
  Rh  Rh35  1  0.500000  0.000000  0.000000  1
  Rh  Rh36  1  0.500000  0.000000  0.500000  1
  Rh  Rh37  1  0.500000  0.500000  0.000000  1
