# generated using pymatgen
data_Y11HoFe2I17
_symmetry_space_group_name_H-M   'P 1'
_cell_length_a   9.74192317
_cell_length_b   11.72618312
_cell_length_c   11.72031273
_cell_angle_alpha   93.56216004
_cell_angle_beta   104.74237096
_cell_angle_gamma   114.02560604
_symmetry_Int_Tables_number   1
_chemical_formula_structural   Y11HoFe2I17
_chemical_formula_sum   'Y11 Ho1 Fe2 I17'
_cell_volume   1161.61852508
_cell_formula_units_Z   1
loop_
 _symmetry_equiv_pos_site_id
 _symmetry_equiv_pos_as_xyz
  1  'x, y, z'
loop_
 _atom_site_type_symbol
 _atom_site_label
 _atom_site_symmetry_multiplicity
 _atom_site_fract_x
 _atom_site_fract_y
 _atom_site_fract_z
 _atom_site_occupancy
  Y  Y0  1  0.053360  0.504416  0.320501  1
  Y  Y1  1  0.991248  0.807311  0.589544  1
  Y  Y2  1  0.658606  0.241836  0.279953  1
  Y  Y3  1  0.009918  0.191204  0.413390  1
  Y  Y4  1  0.218388  0.672171  0.982184  1
  Y  Y5  1  0.252855  0.976527  0.888462  1
  Y  Y6  1  0.345720  0.758319  0.718826  1
  Y  Y7  1  0.948605  0.498517  0.680790  1
  Y  Y8  1  0.744522  0.020387  0.110467  1
  Y  Y9  1  0.137814  0.286380  0.153818  1
  Y  Y10  1  0.779610  0.328881  0.015002  1
  Ho  Ho11  1  0.860006  0.713433  0.846140  1
  Fe  Fe12  1  0.103563  0.737794  0.785808  1
  Fe  Fe13  1  0.895933  0.261939  0.214095  1
  I  I14  1  0.783950  0.527554  0.416895  1
  I  I15  1  0.644961  0.420253  0.763265  1
  I  I16  1  0.844726  0.897119  0.327778  1
  I  I17  1  0.327869  0.215254  0.367402  1
  I  I18  1  0.155861  0.102764  0.671900  1
  I  I19  1  0.585452  0.053212  0.843396  1
  I  I20  1  0.760299  0.190157  0.538602  1
  I  I21  1  0.552614  0.712536  0.955047  1
  I  I22  1  0.353936  0.579649  0.236992  1
  I  I23  1  0.216757  0.471495  0.582412  1
  I  I24  1  0.056621  0.368086  0.897726  1
  I  I25  1  0.448465  0.287465  0.045768  1
  I  I26  1  0.000040  0.000971  0.000406  1
  I  I27  1  0.239744  0.809909  0.460397  1
  I  I28  1  0.415383  0.947934  0.157023  1
  I  I29  1  0.670975  0.784981  0.633175  1
  I  I30  1  0.942195  0.631548  0.102839  1
