# generated using pymatgen
data_LuSbI6
_symmetry_space_group_name_H-M   'P 1'
_cell_length_a   8.63142415
_cell_length_b   8.63142391
_cell_length_c   8.63142495
_cell_angle_alpha   52.50781020
_cell_angle_beta   52.50781214
_cell_angle_gamma   52.50781359
_symmetry_Int_Tables_number   1
_chemical_formula_structural   LuSbI6
_chemical_formula_sum   'Lu1 Sb1 I6'
_cell_volume   374.73304906
_cell_formula_units_Z   1
loop_
 _symmetry_equiv_pos_site_id
 _symmetry_equiv_pos_as_xyz
  1  'x, y, z'
loop_
 _atom_site_type_symbol
 _atom_site_label
 _atom_site_symmetry_multiplicity
 _atom_site_fract_x
 _atom_site_fract_y
 _atom_site_fract_z
 _atom_site_occupancy
  Lu  Lu0  1  0.833213  0.833213  0.833213  1
  Sb  Sb1  1  0.166733  0.166733  0.166733  1
  I  I2  1  0.220807  0.583943  0.930430  1
  I  I3  1  0.930430  0.220807  0.583943  1
  I  I4  1  0.583943  0.930430  0.220807  1
  I  I5  1  0.772362  0.428614  0.063897  1
  I  I6  1  0.063897  0.772362  0.428614  1
  I  I7  1  0.428614  0.063897  0.772362  1
