# generated using pymatgen
data_PrLuTcB6
_symmetry_space_group_name_H-M   'P 1'
_cell_length_a   3.71368400
_cell_length_b   9.18967600
_cell_length_c   11.66062300
_cell_angle_alpha   90.00000000
_cell_angle_beta   90.00000000
_cell_angle_gamma   90.00000000
_symmetry_Int_Tables_number   1
_chemical_formula_structural   PrLuTcB6
_chemical_formula_sum   'Pr4 Lu4 Tc4 B24'
_cell_volume   397.94852625
_cell_formula_units_Z   4
loop_
 _symmetry_equiv_pos_site_id
 _symmetry_equiv_pos_as_xyz
  1  'x, y, z'
loop_
 _atom_site_type_symbol
 _atom_site_label
 _atom_site_symmetry_multiplicity
 _atom_site_fract_x
 _atom_site_fract_y
 _atom_site_fract_z
 _atom_site_occupancy
  Pr  Pr0  1  0.000000  0.323298  0.414969  1
  Pr  Pr1  1  0.000000  0.676702  0.585031  1
  Pr  Pr2  1  0.000000  0.823298  0.085031  1
  Pr  Pr3  1  0.000000  0.176702  0.914969  1
  Lu  Lu4  1  0.000000  0.943124  0.368569  1
  Lu  Lu5  1  0.000000  0.056876  0.631431  1
  Lu  Lu6  1  0.000000  0.443124  0.131431  1
  Lu  Lu7  1  0.000000  0.556876  0.868569  1
  Tc  Tc8  1  0.000000  0.641088  0.317780  1
  Tc  Tc9  1  0.000000  0.358912  0.682220  1
  Tc  Tc10  1  0.000000  0.141088  0.182220  1
  Tc  Tc11  1  0.000000  0.858912  0.817780  1
  B  B12  1  0.500000  0.556557  0.429117  1
  B  B13  1  0.500000  0.443443  0.570883  1
  B  B14  1  0.500000  0.056557  0.070883  1
  B  B15  1  0.500000  0.943443  0.929117  1
  B  B16  1  0.500000  0.752000  0.415098  1
  B  B17  1  0.500000  0.248000  0.584902  1
  B  B18  1  0.500000  0.252000  0.084902  1
  B  B19  1  0.500000  0.748000  0.915098  1
  B  B20  1  0.500000  0.792854  0.265792  1
  B  B21  1  0.500000  0.207146  0.734208  1
  B  B22  1  0.500000  0.292854  0.234208  1
  B  B23  1  0.500000  0.707146  0.765792  1
  B  B24  1  0.500000  0.629449  0.185301  1
  B  B25  1  0.500000  0.370551  0.814699  1
  B  B26  1  0.500000  0.129449  0.314699  1
  B  B27  1  0.500000  0.870551  0.685301  1
  B  B28  1  0.500000  0.984317  0.214221  1
  B  B29  1  0.500000  0.015683  0.785779  1
  B  B30  1  0.500000  0.484317  0.285779  1
  B  B31  1  0.500000  0.515683  0.714221  1
  B  B32  1  0.500000  0.594616  0.025668  1
  B  B33  1  0.500000  0.405384  0.974332  1
  B  B34  1  0.500000  0.094616  0.474332  1
  B  B35  1  0.500000  0.905384  0.525668  1
