# generated using pymatgen
data_YHo19(IrRh3)3
_symmetry_space_group_name_H-M   'P 1'
_cell_length_a   10.85072618
_cell_length_b   10.85127677
_cell_length_c   6.34446906
_cell_angle_alpha   90.00314522
_cell_angle_beta   90.01764789
_cell_angle_gamma   89.93702896
_symmetry_Int_Tables_number   1
_chemical_formula_structural   YHo19(IrRh3)3
_chemical_formula_sum   'Y1 Ho19 Ir3 Rh9'
_cell_volume   747.02415558
_cell_formula_units_Z   1
loop_
 _symmetry_equiv_pos_site_id
 _symmetry_equiv_pos_as_xyz
  1  'x, y, z'
loop_
 _atom_site_type_symbol
 _atom_site_label
 _atom_site_symmetry_multiplicity
 _atom_site_fract_x
 _atom_site_fract_y
 _atom_site_fract_z
 _atom_site_occupancy
  Y  Y0  1  0.290487  0.089725  0.378068  1
  Ho  Ho1  1  0.291357  0.909704  0.878582  1
  Ho  Ho2  1  0.708939  0.088342  0.878331  1
  Ho  Ho3  1  0.708501  0.910010  0.378385  1
  Ho  Ho4  1  0.587457  0.789653  0.879569  1
  Ho  Ho5  1  0.587285  0.209400  0.378182  1
  Ho  Ho6  1  0.412506  0.789898  0.378961  1
  Ho  Ho7  1  0.410823  0.209435  0.879730  1
  Ho  Ho8  1  0.210266  0.412640  0.620364  1
  Ho  Ho9  1  0.209921  0.587557  0.120920  1
  Ho  Ho10  1  0.790613  0.412922  0.121795  1
  Ho  Ho11  1  0.790637  0.589326  0.620333  1
  Ho  Ho12  1  0.910215  0.708853  0.121226  1
  Ho  Ho13  1  0.911765  0.291117  0.621527  1
  Ho  Ho14  1  0.090097  0.708705  0.621553  1
  Ho  Ho15  1  0.089777  0.291736  0.121505  1
  Ho  Ho16  1  0.999491  0.999772  0.499953  1
  Ho  Ho17  1  0.000088  0.000219  0.000233  1
  Ho  Ho18  1  0.499803  0.499871  0.999779  1
  Ho  Ho19  1  0.500174  0.500266  0.500120  1
  Ir  Ir20  1  0.654622  0.653908  0.250008  1
  Ir  Ir21  1  0.346219  0.346237  0.249552  1
  Ir  Ir22  1  0.345344  0.654631  0.749980  1
  Rh  Rh23  1  0.845809  0.154129  0.250029  1
  Rh  Rh24  1  0.846304  0.846908  0.750254  1
  Rh  Rh25  1  0.152545  0.153868  0.751056  1
  Rh  Rh26  1  0.153120  0.846116  0.249789  1
  Rh  Rh27  1  0.655067  0.344975  0.750036  1
  Rh  Rh28  1  0.500941  0.000195  0.122440  1
  Rh  Rh29  1  0.501118  0.000414  0.624659  1
  Rh  Rh30  1  0.999230  0.499662  0.876182  1
  Rh  Rh31  1  0.999483  0.499802  0.376899  1
