# generated using pymatgen
data_CaTb6RhI12
_symmetry_space_group_name_H-M   'P 1'
_cell_length_a   9.85194783
_cell_length_b   9.85194764
_cell_length_c   9.85194839
_cell_angle_alpha   107.10418583
_cell_angle_beta   107.10419197
_cell_angle_gamma   107.10419637
_symmetry_Int_Tables_number   1
_chemical_formula_structural   CaTb6RhI12
_chemical_formula_sum   'Ca1 Tb6 Rh1 I12'
_cell_volume   794.09044247
_cell_formula_units_Z   1
loop_
 _symmetry_equiv_pos_site_id
 _symmetry_equiv_pos_as_xyz
  1  'x, y, z'
loop_
 _atom_site_type_symbol
 _atom_site_label
 _atom_site_symmetry_multiplicity
 _atom_site_fract_x
 _atom_site_fract_y
 _atom_site_fract_z
 _atom_site_occupancy
  Ca  Ca0  1  0.500000  0.500000  0.500000  1
  Tb  Tb1  1  0.022032  0.094830  0.297942  1
  Tb  Tb2  1  0.094830  0.297942  0.022032  1
  Tb  Tb3  1  0.297942  0.022032  0.094830  1
  Tb  Tb4  1  0.977968  0.905170  0.702058  1
  Tb  Tb5  1  0.905170  0.702058  0.977968  1
  Tb  Tb6  1  0.702058  0.977968  0.905170  1
  Rh  Rh7  1  0.000000  0.000000  0.000000  1
  I  I8  1  0.150869  0.456295  0.377967  1
  I  I9  1  0.456295  0.377967  0.150869  1
  I  I10  1  0.377967  0.150869  0.456295  1
  I  I11  1  0.849131  0.543705  0.622033  1
  I  I12  1  0.543705  0.622033  0.849131  1
  I  I13  1  0.622033  0.849131  0.543705  1
  I  I14  1  0.678443  0.072425  0.223915  1
  I  I15  1  0.072425  0.223915  0.678443  1
  I  I16  1  0.223915  0.678443  0.072425  1
  I  I17  1  0.321557  0.927575  0.776085  1
  I  I18  1  0.927575  0.776085  0.321557  1
  I  I19  1  0.776085  0.321557  0.927575  1
