# generated using pymatgen
data_Hf8Sc8Si16Mo3W
_symmetry_space_group_name_H-M   'P 1'
_cell_length_a   7.02331422
_cell_length_b   7.02331383
_cell_length_c   12.75632408
_cell_angle_alpha   90.02352539
_cell_angle_beta   89.97647493
_cell_angle_gamma   89.98535785
_symmetry_Int_Tables_number   1
_chemical_formula_structural   Hf8Sc8Si16Mo3W
_chemical_formula_sum   'Hf8 Sc8 Si16 Mo3 W1'
_cell_volume   629.23030456
_cell_formula_units_Z   1
loop_
 _symmetry_equiv_pos_site_id
 _symmetry_equiv_pos_as_xyz
  1  'x, y, z'
loop_
 _atom_site_type_symbol
 _atom_site_label
 _atom_site_symmetry_multiplicity
 _atom_site_fract_x
 _atom_site_fract_y
 _atom_site_fract_z
 _atom_site_occupancy
  Hf  Hf0  1  0.643207  0.494070  0.874902  1
  Hf  Hf1  1  0.357332  0.505875  0.375554  1
  Hf  Hf2  1  0.994005  0.857769  0.625067  1
  Hf  Hf3  1  0.005567  0.143180  0.125254  1
  Hf  Hf4  1  0.505875  0.357332  0.624446  1
  Hf  Hf5  1  0.494070  0.643207  0.125098  1
  Hf  Hf6  1  0.857769  0.994005  0.374933  1
  Hf  Hf7  1  0.143180  0.005567  0.874746  1
  Sc  Sc8  1  0.845653  0.499606  0.284026  1
  Sc  Sc9  1  0.154191  0.500856  0.783446  1
  Sc  Sc10  1  0.998964  0.653922  0.033607  1
  Sc  Sc11  1  0.000785  0.345285  0.533523  1
  Sc  Sc12  1  0.500856  0.154191  0.216554  1
  Sc  Sc13  1  0.499606  0.845653  0.715974  1
  Sc  Sc14  1  0.653922  0.998964  0.966393  1
  Sc  Sc15  1  0.345285  0.000785  0.466477  1
  Si  Si16  1  0.701139  0.351596  0.070150  1
  Si  Si17  1  0.297659  0.648334  0.570970  1
  Si  Si18  1  0.851928  0.798051  0.820309  1
  Si  Si19  1  0.148439  0.202235  0.320541  1
  Si  Si20  1  0.648334  0.297659  0.429030  1
  Si  Si21  1  0.351596  0.701139  0.929850  1
  Si  Si22  1  0.798051  0.851928  0.179691  1
  Si  Si23  1  0.202235  0.148439  0.679459  1
  Si  Si24  1  0.803076  0.549876  0.683558  1
  Si  Si25  1  0.196763  0.450424  0.183935  1
  Si  Si26  1  0.049861  0.696872  0.434193  1
  Si  Si27  1  0.950622  0.303094  0.933711  1
  Si  Si28  1  0.450424  0.196763  0.816065  1
  Si  Si29  1  0.549876  0.803076  0.316442  1
  Si  Si30  1  0.696872  0.049861  0.565807  1
  Si  Si31  1  0.303094  0.950622  0.066289  1
  Mo  Mo32  1  0.822090  0.178518  0.749873  1
  Mo  Mo33  1  0.178518  0.822090  0.250127  1
  Mo  Mo34  1  0.677914  0.677914  0.500000  1
  W  W35  1  0.321245  0.321245  0.000000  1
