# generated using pymatgen
data_Pa2InTcRh
_symmetry_space_group_name_H-M   'P 1'
_cell_length_a   7.66276985
_cell_length_b   7.66276985
_cell_length_c   3.62623000
_cell_angle_alpha   90.00000000
_cell_angle_beta   90.00000000
_cell_angle_gamma   90.54558074
_symmetry_Int_Tables_number   1
_chemical_formula_structural   Pa2InTcRh
_chemical_formula_sum   'Pa4 In2 Tc2 Rh2'
_cell_volume   212.91547151
_cell_formula_units_Z   2
loop_
 _symmetry_equiv_pos_site_id
 _symmetry_equiv_pos_as_xyz
  1  'x, y, z'
loop_
 _atom_site_type_symbol
 _atom_site_label
 _atom_site_symmetry_multiplicity
 _atom_site_fract_x
 _atom_site_fract_y
 _atom_site_fract_z
 _atom_site_occupancy
  Pa  Pa0  1  0.671965  0.171965  0.500000  1
  Pa  Pa1  1  0.328035  0.828035  0.500000  1
  Pa  Pa2  1  0.163163  0.336837  0.500000  1
  Pa  Pa3  1  0.836837  0.663163  0.500000  1
  In  In4  1  0.000000  0.000000  0.000000  1
  In  In5  1  0.500000  0.500000  0.000000  1
  Tc  Tc6  1  0.138787  0.638787  0.000000  1
  Tc  Tc7  1  0.861213  0.361213  0.000000  1
  Rh  Rh8  1  0.633875  0.866125  0.000000  1
  Rh  Rh9  1  0.366125  0.133875  0.000000  1
