# generated using pymatgen
data_Mg(TiPt4)3
_symmetry_space_group_name_H-M   'P 1'
_cell_length_a   5.59388800
_cell_length_b   5.59388790
_cell_length_c   9.11221300
_cell_angle_alpha   90.00000000
_cell_angle_beta   90.00000000
_cell_angle_gamma   120.00000058
_symmetry_Int_Tables_number   1
_chemical_formula_structural   Mg(TiPt4)3
_chemical_formula_sum   'Mg1 Ti3 Pt12'
_cell_volume   246.93464048
_cell_formula_units_Z   1
loop_
 _symmetry_equiv_pos_site_id
 _symmetry_equiv_pos_as_xyz
  1  'x, y, z'
loop_
 _atom_site_type_symbol
 _atom_site_label
 _atom_site_symmetry_multiplicity
 _atom_site_fract_x
 _atom_site_fract_y
 _atom_site_fract_z
 _atom_site_occupancy
  Mg  Mg0  1  0.333333  0.666667  0.250000  1
  Ti  Ti1  1  0.000000  0.000000  0.497286  1
  Ti  Ti2  1  0.000000  0.000000  0.002714  1
  Ti  Ti3  1  0.666667  0.333333  0.750000  1
  Pt  Pt4  1  0.501875  0.498125  0.503882  1
  Pt  Pt5  1  0.501875  0.003750  0.503882  1
  Pt  Pt6  1  0.996250  0.498125  0.503882  1
  Pt  Pt7  1  0.501875  0.498125  0.996118  1
  Pt  Pt8  1  0.501875  0.003750  0.996118  1
  Pt  Pt9  1  0.996250  0.498125  0.996118  1
  Pt  Pt10  1  0.832202  0.664405  0.250000  1
  Pt  Pt11  1  0.335595  0.167798  0.250000  1
  Pt  Pt12  1  0.832202  0.167798  0.250000  1
  Pt  Pt13  1  0.167248  0.334496  0.750000  1
  Pt  Pt14  1  0.665504  0.832752  0.750000  1
  Pt  Pt15  1  0.167248  0.832752  0.750000  1
