# generated using pymatgen
data_Tb4Er6AlBi5
_symmetry_space_group_name_H-M   'P 1'
_cell_length_a   9.07664546
_cell_length_b   9.07664421
_cell_length_c   6.38723300
_cell_angle_alpha   90.00000000
_cell_angle_beta   90.00000000
_cell_angle_gamma   119.41006146
_symmetry_Int_Tables_number   1
_chemical_formula_structural   Tb4Er6AlBi5
_chemical_formula_sum   'Tb4 Er6 Al1 Bi5'
_cell_volume   458.40063758
_cell_formula_units_Z   1
loop_
 _symmetry_equiv_pos_site_id
 _symmetry_equiv_pos_as_xyz
  1  'x, y, z'
loop_
 _atom_site_type_symbol
 _atom_site_label
 _atom_site_symmetry_multiplicity
 _atom_site_fract_x
 _atom_site_fract_y
 _atom_site_fract_z
 _atom_site_occupancy
  Tb  Tb0  1  0.243452  0.012869  0.750000  1
  Tb  Tb1  1  0.012869  0.243452  0.750000  1
  Tb  Tb2  1  0.758703  0.999917  0.250000  1
  Tb  Tb3  1  0.999917  0.758703  0.250000  1
  Er  Er4  1  0.659319  0.335387  0.996439  1
  Er  Er5  1  0.335387  0.659319  0.996439  1
  Er  Er6  1  0.335387  0.659319  0.503561  1
  Er  Er7  1  0.659319  0.335387  0.503561  1
  Er  Er8  1  0.749308  0.749308  0.750000  1
  Er  Er9  1  0.240610  0.240610  0.250000  1
  Al  Al10  1  0.398521  0.398521  0.750000  1
  Bi  Bi11  1  0.610566  0.001822  0.750000  1
  Bi  Bi12  1  0.001822  0.610566  0.750000  1
  Bi  Bi13  1  0.605524  0.605524  0.250000  1
  Bi  Bi14  1  0.392106  0.997191  0.250000  1
  Bi  Bi15  1  0.997191  0.392106  0.250000  1
