# generated using pymatgen
data_HoTm3Ga5Tc3
_symmetry_space_group_name_H-M   'P 1'
_cell_length_a   5.45069002
_cell_length_b   5.49946207
_cell_length_c   8.67063403
_cell_angle_alpha   89.99999982
_cell_angle_beta   89.99169792
_cell_angle_gamma   120.29642272
_symmetry_Int_Tables_number   1
_chemical_formula_structural   HoTm3Ga5Tc3
_chemical_formula_sum   'Ho1 Tm3 Ga5 Tc3'
_cell_volume   224.41309510
_cell_formula_units_Z   1
loop_
 _symmetry_equiv_pos_site_id
 _symmetry_equiv_pos_as_xyz
  1  'x, y, z'
loop_
 _atom_site_type_symbol
 _atom_site_label
 _atom_site_symmetry_multiplicity
 _atom_site_fract_x
 _atom_site_fract_y
 _atom_site_fract_z
 _atom_site_occupancy
  Ho  Ho0  1  0.335189  0.667594  0.443219  1
  Tm  Tm1  1  0.661989  0.330994  0.552571  1
  Tm  Tm2  1  0.662051  0.331026  0.947521  1
  Tm  Tm3  1  0.335496  0.667748  0.056409  1
  Ga  Ga4  1  0.836212  0.165533  0.249851  1
  Ga  Ga5  1  0.836212  0.670679  0.249851  1
  Ga  Ga6  1  0.328143  0.164071  0.249941  1
  Ga  Ga7  1  0.187606  0.839667  0.750195  1
  Ga  Ga8  1  0.187606  0.347940  0.750195  1
  Tc  Tc9  1  0.975734  0.987866  0.510147  1
  Tc  Tc10  1  0.975502  0.987750  0.990068  1
  Tc  Tc11  1  0.678263  0.839131  0.750033  1
