# generated using pymatgen
data_DyHo15In4RuRh3
_symmetry_space_group_name_H-M   'P 1'
_cell_length_a   9.61566940
_cell_length_b   9.61798102
_cell_length_c   9.62465700
_cell_angle_alpha   59.97703966
_cell_angle_beta   59.96907956
_cell_angle_gamma   59.96975376
_symmetry_Int_Tables_number   1
_chemical_formula_structural   DyHo15In4RuRh3
_chemical_formula_sum   'Dy1 Ho15 In4 Ru1 Rh3'
_cell_volume   629.00984151
_cell_formula_units_Z   1
loop_
 _symmetry_equiv_pos_site_id
 _symmetry_equiv_pos_as_xyz
  1  'x, y, z'
loop_
 _atom_site_type_symbol
 _atom_site_label
 _atom_site_symmetry_multiplicity
 _atom_site_fract_x
 _atom_site_fract_y
 _atom_site_fract_z
 _atom_site_occupancy
  Dy  Dy0  1  0.188110  0.188994  0.811447  1
  Ho  Ho1  1  0.599160  0.600571  0.202403  1
  Ho  Ho2  1  0.439912  0.057056  0.440362  1
  Ho  Ho3  1  0.440257  0.440313  0.059715  1
  Ho  Ho4  1  0.811532  0.188918  0.811411  1
  Ho  Ho5  1  0.189855  0.812351  0.189902  1
  Ho  Ho6  1  0.439912  0.057056  0.062670  1
  Ho  Ho7  1  0.189855  0.812351  0.807893  1
  Ho  Ho8  1  0.059156  0.440192  0.060266  1
  Ho  Ho9  1  0.808342  0.813067  0.189295  1
  Ho  Ho10  1  0.201486  0.601170  0.598671  1
  Ho  Ho11  1  0.059156  0.440192  0.440385  1
  Ho  Ho12  1  0.061935  0.057561  0.440252  1
  Ho  Ho13  1  0.811532  0.188918  0.188137  1
  Ho  Ho14  1  0.600684  0.200261  0.599528  1
  Ho  Ho15  1  0.599160  0.600571  0.597866  1
  In  In16  1  0.833147  0.833468  0.833236  1
  In  In17  1  0.833147  0.833468  0.500151  1
  In  In18  1  0.500362  0.833274  0.833183  1
  In  In19  1  0.832430  0.502096  0.832738  1
  Ru  Ru20  1  0.392346  0.823874  0.391890  1
  Rh  Rh21  1  0.391968  0.391360  0.391630  1
  Rh  Rh22  1  0.824585  0.391562  0.391926  1
  Rh  Rh23  1  0.391968  0.391360  0.825041  1
