# generated using pymatgen
data_La3Y(Mo2O7)2
_symmetry_space_group_name_H-M   'P 1'
_cell_length_a   7.58389189
_cell_length_b   7.48560124
_cell_length_c   7.58389200
_cell_angle_alpha   59.56468285
_cell_angle_beta   59.99999950
_cell_angle_gamma   59.56468301
_symmetry_Int_Tables_number   1
_chemical_formula_structural   La3Y(Mo2O7)2
_chemical_formula_sum   'La3 Y1 Mo4 O14'
_cell_volume   302.41743431
_cell_formula_units_Z   1
loop_
 _symmetry_equiv_pos_site_id
 _symmetry_equiv_pos_as_xyz
  1  'x, y, z'
loop_
 _atom_site_type_symbol
 _atom_site_label
 _atom_site_symmetry_multiplicity
 _atom_site_fract_x
 _atom_site_fract_y
 _atom_site_fract_z
 _atom_site_occupancy
  La  La0  1  0.125000  0.125000  0.125000  1
  La  La1  1  0.625000  0.125000  0.125000  1
  La  La2  1  0.125000  0.125000  0.625000  1
  Y  Y3  1  0.125000  0.625000  0.125000  1
  Mo  Mo4  1  0.625000  0.625000  0.625000  1
  Mo  Mo5  1  0.125000  0.625000  0.625000  1
  Mo  Mo6  1  0.625000  0.125000  0.625000  1
  Mo  Mo7  1  0.625000  0.625000  0.125000  1
  O  O8  1  0.247165  0.258504  0.247165  1
  O  O9  1  0.002835  0.991496  0.002835  1
  O  O10  1  0.543774  0.956894  0.543774  1
  O  O11  1  0.289506  0.701817  0.289506  1
  O  O12  1  0.530830  0.548183  0.960494  1
  O  O13  1  0.960494  0.548183  0.530830  1
  O  O14  1  0.543774  0.956894  0.955558  1
  O  O15  1  0.955558  0.956894  0.543774  1
  O  O16  1  0.960494  0.548183  0.960494  1
  O  O17  1  0.706226  0.293106  0.294442  1
  O  O18  1  0.289506  0.701817  0.719170  1
  O  O19  1  0.719170  0.701817  0.289506  1
  O  O20  1  0.294442  0.293106  0.706226  1
  O  O21  1  0.706226  0.293106  0.706226  1
