# generated using pymatgen
data_Sc(GaNi)6
_symmetry_space_group_name_H-M   'P 1'
_cell_length_a   6.43636809
_cell_length_b   6.43636847
_cell_length_c   6.43636778
_cell_angle_alpha   134.53906357
_cell_angle_beta   101.13315061
_cell_angle_gamma   96.05683006
_symmetry_Int_Tables_number   1
_chemical_formula_structural   Sc(GaNi)6
_chemical_formula_sum   'Sc1 Ga6 Ni6'
_cell_volume   175.05925496
_cell_formula_units_Z   1
loop_
 _symmetry_equiv_pos_site_id
 _symmetry_equiv_pos_as_xyz
  1  'x, y, z'
loop_
 _atom_site_type_symbol
 _atom_site_label
 _atom_site_symmetry_multiplicity
 _atom_site_fract_x
 _atom_site_fract_y
 _atom_site_fract_z
 _atom_site_occupancy
  Sc  Sc0  1  0.000000  0.000000  0.000000  1
  Ga  Ga1  1  0.336037  0.000000  0.336037  1
  Ga  Ga2  1  0.340599  0.340599  0.000000  1
  Ga  Ga3  1  0.659401  0.659401  0.000000  1
  Ga  Ga4  1  0.822754  0.322754  0.500000  1
  Ga  Ga5  1  0.177246  0.677246  0.500000  1
  Ga  Ga6  1  0.663963  0.000000  0.663963  1
  Ni  Ni7  1  0.760052  0.500000  0.260052  1
  Ni  Ni8  1  0.000000  0.000000  0.500000  1
  Ni  Ni9  1  0.000000  0.500000  0.000000  1
  Ni  Ni10  1  0.500000  0.000000  0.000000  1
  Ni  Ni11  1  0.500000  0.500000  0.500000  1
  Ni  Ni12  1  0.239948  0.500000  0.739948  1
