# generated using pymatgen
data_La2Pr6Sc11Si16Ag
_symmetry_space_group_name_H-M   'P 1'
_cell_length_a   7.21927809
_cell_length_b   7.58607233
_cell_length_c   14.30055233
_cell_angle_alpha   90.01715888
_cell_angle_beta   89.99042285
_cell_angle_gamma   90.23149665
_symmetry_Int_Tables_number   1
_chemical_formula_structural   La2Pr6Sc11Si16Ag
_chemical_formula_sum   'La2 Pr6 Sc11 Si16 Ag1'
_cell_volume   783.17712054
_cell_formula_units_Z   1
loop_
 _symmetry_equiv_pos_site_id
 _symmetry_equiv_pos_as_xyz
  1  'x, y, z'
loop_
 _atom_site_type_symbol
 _atom_site_label
 _atom_site_symmetry_multiplicity
 _atom_site_fract_x
 _atom_site_fract_y
 _atom_site_fract_z
 _atom_site_occupancy
  La  La0  1  0.012980  0.172594  0.402935  1
  La  La1  1  0.511521  0.331303  0.402796  1
  Pr  Pr2  1  0.490634  0.681718  0.898090  1
  Pr  Pr3  1  0.491101  0.681993  0.602968  1
  Pr  Pr4  1  0.978906  0.826401  0.603556  1
  Pr  Pr5  1  0.978673  0.826666  0.897629  1
  Pr  Pr6  1  0.511871  0.330057  0.097489  1
  Pr  Pr7  1  0.012685  0.173432  0.097194  1
  Sc  Sc8  1  0.333740  0.171469  0.625540  1
  Sc  Sc9  1  0.672709  0.822430  0.373487  1
  Sc  Sc10  1  0.172182  0.677279  0.375554  1
  Sc  Sc11  1  0.827746  0.314283  0.874878  1
  Sc  Sc12  1  0.827592  0.314764  0.625638  1
  Sc  Sc13  1  0.841765  0.503386  0.248953  1
  Sc  Sc14  1  0.341564  0.996727  0.248902  1
  Sc  Sc15  1  0.333657  0.172239  0.875107  1
  Sc  Sc16  1  0.172010  0.677298  0.123091  1
  Sc  Sc17  1  0.672562  0.821967  0.125147  1
  Sc  Sc18  1  0.158047  0.493077  0.750296  1
  Si  Si19  1  0.277616  0.884173  0.750541  1
  Si  Si20  1  0.467407  0.625874  0.249091  1
  Si  Si21  1  0.042287  0.123085  0.750300  1
  Si  Si22  1  0.531179  0.383371  0.750369  1
  Si  Si23  1  0.152533  0.466804  0.542099  1
  Si  Si24  1  0.968750  0.872711  0.249136  1
  Si  Si25  1  0.710057  0.116240  0.248924  1
  Si  Si26  1  0.850417  0.536354  0.037525  1
  Si  Si27  1  0.349989  0.963607  0.039086  1
  Si  Si28  1  0.153043  0.465150  0.958650  1
  Si  Si29  1  0.652376  0.039504  0.532299  1
  Si  Si30  1  0.351135  0.961529  0.461530  1
  Si  Si31  1  0.851360  0.538349  0.463311  1
  Si  Si32  1  0.791408  0.591860  0.750563  1
  Si  Si33  1  0.209666  0.387489  0.248725  1
  Si  Si34  1  0.653126  0.041058  0.968280  1
  Ag  Ag35  1  0.645707  0.013756  0.750321  1
