# generated using pymatgen
data_TbY5Al18(Si3Os4)2
_symmetry_space_group_name_H-M   'P 1'
_cell_length_a   8.71577900
_cell_length_b   8.69059345
_cell_length_c   9.55771500
_cell_angle_alpha   90.00012240
_cell_angle_beta   89.99997486
_cell_angle_gamma   120.09868241
_symmetry_Int_Tables_number   1
_chemical_formula_structural   TbY5Al18(Si3Os4)2
_chemical_formula_sum   'Tb1 Y5 Al18 Si6 Os8'
_cell_volume   626.33637468
_cell_formula_units_Z   1
loop_
 _symmetry_equiv_pos_site_id
 _symmetry_equiv_pos_as_xyz
  1  'x, y, z'
loop_
 _atom_site_type_symbol
 _atom_site_label
 _atom_site_symmetry_multiplicity
 _atom_site_fract_x
 _atom_site_fract_y
 _atom_site_fract_z
 _atom_site_occupancy
  Tb  Tb0  1  0.803072  0.191749  0.750000  1
  Y  Y1  1  0.192925  0.385855  0.250000  1
  Y  Y2  1  0.807056  0.614177  0.750000  1
  Y  Y3  1  0.610868  0.808000  0.250000  1
  Y  Y4  1  0.389089  0.192021  0.750000  1
  Y  Y5  1  0.197102  0.808025  0.250001  1
  Al  Al6  1  0.165111  0.330191  0.578094  1
  Al  Al7  1  0.834912  0.669813  0.421915  1
  Al  Al8  1  0.670267  0.834470  0.576395  1
  Al  Al9  1  0.834912  0.669814  0.078085  1
  Al  Al10  1  0.329738  0.165510  0.423613  1
  Al  Al11  1  0.165111  0.330191  0.921906  1
  Al  Al12  1  0.164224  0.834495  0.576380  1
  Al  Al13  1  0.329738  0.165510  0.076387  1
  Al  Al14  1  0.835789  0.165504  0.423595  1
  Al  Al15  1  0.670267  0.834471  0.923605  1
  Al  Al16  1  0.835789  0.165503  0.076405  1
  Al  Al17  1  0.164224  0.834495  0.923620  1
  Al  Al18  1  0.872441  0.432934  0.250000  1
  Al  Al19  1  0.127679  0.567194  0.750000  1
  Al  Al20  1  0.560474  0.432924  0.250000  1
  Al  Al21  1  0.439537  0.567064  0.749999  1
  Al  Al22  1  0.999411  0.998840  0.250001  1
  Al  Al23  1  0.000568  0.001180  0.749999  1
  Si  Si24  1  0.331965  0.663961  0.038663  1
  Si  Si25  1  0.667961  0.336117  0.961378  1
  Si  Si26  1  0.667962  0.336118  0.538621  1
  Si  Si27  1  0.331965  0.663961  0.461337  1
  Si  Si28  1  0.563487  0.126994  0.250000  1
  Si  Si29  1  0.436412  0.872907  0.750000  1
  Os  Os30  1  0.499940  0.999977  0.000034  1
  Os  Os31  1  0.000019  0.500048  0.000019  1
  Os  Os32  1  0.499941  0.999977  0.499965  1
  Os  Os33  1  0.499980  0.500012  0.000011  1
  Os  Os34  1  0.000020  0.500047  0.499982  1
  Os  Os35  1  0.499981  0.500012  0.499990  1
  Os  Os36  1  0.000032  0.999970  0.000037  1
  Os  Os37  1  0.000032  0.999970  0.499962  1
