# generated using pymatgen
data_CeV2O7
_symmetry_space_group_name_H-M   'P 1'
_cell_length_a   7.61895700
_cell_length_b   9.40361700
_cell_length_c   6.01054400
_cell_angle_alpha   89.99994094
_cell_angle_beta   90.00000561
_cell_angle_gamma   90.00112456
_symmetry_Int_Tables_number   1
_chemical_formula_structural   CeV2O7
_chemical_formula_sum   'Ce2 V4 O14'
_cell_volume   430.62995419
_cell_formula_units_Z   2
loop_
 _symmetry_equiv_pos_site_id
 _symmetry_equiv_pos_as_xyz
  1  'x, y, z'
loop_
 _atom_site_type_symbol
 _atom_site_label
 _atom_site_symmetry_multiplicity
 _atom_site_fract_x
 _atom_site_fract_y
 _atom_site_fract_z
 _atom_site_occupancy
  Ce  Ce0  1  0.500001  0.500000  0.000000  1
  Ce  Ce1  1  0.000000  0.000000  0.500000  1
  V  V2  1  0.307604  0.110707  0.000005  1
  V  V3  1  0.692397  0.889294  0.999995  1
  V  V4  1  0.807602  0.389297  0.500004  1
  V  V5  1  0.192398  0.610703  0.499996  1
  O  O6  1  0.500001  0.000000  0.000000  1
  O  O7  1  0.367386  0.287294  0.000008  1
  O  O8  1  0.632615  0.712707  0.999992  1
  O  O9  1  0.184461  0.076396  0.233772  1
  O  O10  1  0.815544  0.923605  0.233757  1
  O  O11  1  0.684456  0.423603  0.266242  1
  O  O12  1  0.315539  0.576396  0.266228  1
  O  O13  1  0.867384  0.212706  0.500008  1
  O  O14  1  0.000000  0.500000  0.500000  1
  O  O15  1  0.132616  0.787294  0.499992  1
  O  O16  1  0.684461  0.423604  0.733771  1
  O  O17  1  0.315544  0.576397  0.733757  1
  O  O18  1  0.184457  0.076396  0.766243  1
  O  O19  1  0.815540  0.923605  0.766228  1
