# generated using pymatgen
data_SmY4Sc(Si3Ru)8
_symmetry_space_group_name_H-M   'P 1'
_cell_length_a   10.09564375
_cell_length_b   10.09557746
_cell_length_c   8.13212363
_cell_angle_alpha   90.04351370
_cell_angle_beta   89.97562270
_cell_angle_gamma   132.51417452
_symmetry_Int_Tables_number   1
_chemical_formula_structural   SmY4Sc(Si3Ru)8
_chemical_formula_sum   'Sm1 Y4 Sc1 Si24 Ru8'
_cell_volume   610.94404365
_cell_formula_units_Z   1
loop_
 _symmetry_equiv_pos_site_id
 _symmetry_equiv_pos_as_xyz
  1  'x, y, z'
loop_
 _atom_site_type_symbol
 _atom_site_label
 _atom_site_symmetry_multiplicity
 _atom_site_fract_x
 _atom_site_fract_y
 _atom_site_fract_z
 _atom_site_occupancy
  Sm  Sm0  1  0.002641  0.502403  0.249512  1
  Y  Y1  1  0.500003  0.500006  0.500081  1
  Y  Y2  1  0.497680  0.997373  0.750503  1
  Y  Y3  1  0.997387  0.497665  0.750513  1
  Y  Y4  1  0.502351  0.002635  0.249495  1
  Sc  Sc5  1  0.000000  0.000006  0.999935  1
  Si  Si6  1  0.294965  0.706385  0.999299  1
  Si  Si7  1  0.794545  0.204263  0.500636  1
  Si  Si8  1  0.705075  0.293687  0.999359  1
  Si  Si9  1  0.205546  0.795790  0.500718  1
  Si  Si10  1  0.833583  0.833648  0.330761  1
  Si  Si11  1  0.166404  0.166373  0.669218  1
  Si  Si12  1  0.669720  0.669756  0.834488  1
  Si  Si13  1  0.330313  0.330235  0.165535  1
  Si  Si14  1  0.620645  0.386294  0.227573  1
  Si  Si15  1  0.613510  0.379060  0.772518  1
  Si  Si16  1  0.110527  0.878793  0.730288  1
  Si  Si17  1  0.121305  0.889609  0.269522  1
  Si  Si18  1  0.378918  0.613425  0.772529  1
  Si  Si19  1  0.386770  0.621244  0.227620  1
  Si  Si20  1  0.889200  0.120792  0.269577  1
  Si  Si21  1  0.878938  0.110610  0.730299  1
  Si  Si22  1  0.845627  0.614284  0.004031  1
  Si  Si23  1  0.385963  0.154523  0.995601  1
  Si  Si24  1  0.888339  0.655060  0.505333  1
  Si  Si25  1  0.344828  0.111586  0.495001  1
  Si  Si26  1  0.154319  0.385788  0.995311  1
  Si  Si27  1  0.614110  0.845544  0.004326  1
  Si  Si28  1  0.111715  0.344866  0.495337  1
  Si  Si29  1  0.655236  0.888480  0.505044  1
  Ru  Ru30  1  0.168185  0.833318  0.999292  1
  Ru  Ru31  1  0.668172  0.330321  0.500512  1
  Ru  Ru32  1  0.831825  0.166727  0.999504  1
  Ru  Ru33  1  0.331829  0.669648  0.500727  1
  Ru  Ru34  1  0.626068  0.626193  0.126932  1
  Ru  Ru35  1  0.373688  0.373824  0.873163  1
  Ru  Ru36  1  0.873605  0.873437  0.627561  1
  Ru  Ru37  1  0.126467  0.126352  0.372345  1
