# generated using pymatgen
data_LaDyZn3PRh4
_symmetry_space_group_name_H-M   'P 1'
_cell_length_a   4.10449500
_cell_length_b   4.10449500
_cell_length_c   10.64810000
_cell_angle_alpha   90.00000000
_cell_angle_beta   90.00000000
_cell_angle_gamma   90.00000000
_symmetry_Int_Tables_number   1
_chemical_formula_structural   LaDyZn3PRh4
_chemical_formula_sum   'La1 Dy1 Zn3 P1 Rh4'
_cell_volume   179.38725446
_cell_formula_units_Z   1
loop_
 _symmetry_equiv_pos_site_id
 _symmetry_equiv_pos_as_xyz
  1  'x, y, z'
loop_
 _atom_site_type_symbol
 _atom_site_label
 _atom_site_symmetry_multiplicity
 _atom_site_fract_x
 _atom_site_fract_y
 _atom_site_fract_z
 _atom_site_occupancy
  La  La0  1  0.500000  0.000000  0.746641  1
  Dy  Dy1  1  0.000000  0.500000  0.241889  1
  Zn  Zn2  1  0.000000  0.000000  0.488276  1
  Zn  Zn3  1  0.500000  0.500000  0.488276  1
  Zn  Zn4  1  0.000000  0.500000  0.879259  1
  P  P5  1  0.500000  0.000000  0.125788  1
  Rh  Rh6  1  0.000000  0.000000  0.024574  1
  Rh  Rh7  1  0.500000  0.500000  0.024574  1
  Rh  Rh8  1  0.000000  0.500000  0.638818  1
  Rh  Rh9  1  0.500000  0.000000  0.341907  1
