# generated using pymatgen
data_La2ZnCdPt
_symmetry_space_group_name_H-M   'P 1'
_cell_length_a   8.04143400
_cell_length_b   8.15009300
_cell_length_c   3.94849100
_cell_angle_alpha   90.00000000
_cell_angle_beta   90.00000000
_cell_angle_gamma   90.00000000
_symmetry_Int_Tables_number   1
_chemical_formula_structural   La2ZnCdPt
_chemical_formula_sum   'La4 Zn2 Cd2 Pt2'
_cell_volume   258.77792057
_cell_formula_units_Z   2
loop_
 _symmetry_equiv_pos_site_id
 _symmetry_equiv_pos_as_xyz
  1  'x, y, z'
loop_
 _atom_site_type_symbol
 _atom_site_label
 _atom_site_symmetry_multiplicity
 _atom_site_fract_x
 _atom_site_fract_y
 _atom_site_fract_z
 _atom_site_occupancy
  La  La0  1  0.827289  0.694080  0.500000  1
  La  La1  1  0.327289  0.805920  0.500000  1
  La  La2  1  0.678596  0.154941  0.500000  1
  La  La3  1  0.178596  0.345059  0.500000  1
  Zn  Zn4  1  0.868911  0.386756  0.000000  1
  Zn  Zn5  1  0.368911  0.113244  0.000000  1
  Cd  Cd6  1  0.011095  0.008794  0.000000  1
  Cd  Cd7  1  0.511095  0.491206  0.000000  1
  Pt  Pt8  1  0.614108  0.883692  0.000000  1
  Pt  Pt9  1  0.114108  0.616308  0.000000  1
