# generated using pymatgen
data_Ce3HoAl2(InRh2)2
_symmetry_space_group_name_H-M   'P 1'
_cell_length_a   4.12253600
_cell_length_b   7.43911392
_cell_length_c   16.37582508
_cell_angle_alpha   89.19719267
_cell_angle_beta   90.00000000
_cell_angle_gamma   90.00000000
_symmetry_Int_Tables_number   1
_chemical_formula_structural   Ce3HoAl2(InRh2)2
_chemical_formula_sum   'Ce6 Ho2 Al4 In4 Rh8'
_cell_volume   502.16475035
_cell_formula_units_Z   2
loop_
 _symmetry_equiv_pos_site_id
 _symmetry_equiv_pos_as_xyz
  1  'x, y, z'
loop_
 _atom_site_type_symbol
 _atom_site_label
 _atom_site_symmetry_multiplicity
 _atom_site_fract_x
 _atom_site_fract_y
 _atom_site_fract_z
 _atom_site_occupancy
  Ce  Ce0  1  0.250000  0.675102  0.940632  1
  Ce  Ce1  1  0.750000  0.324898  0.059368  1
  Ce  Ce2  1  0.250000  0.049064  0.783398  1
  Ce  Ce3  1  0.750000  0.950936  0.216602  1
  Ce  Ce4  1  0.250000  0.546146  0.711614  1
  Ce  Ce5  1  0.750000  0.453854  0.288386  1
  Ho  Ho6  1  0.250000  0.172868  0.558005  1
  Ho  Ho7  1  0.750000  0.827132  0.441995  1
  Al  Al8  1  0.250000  0.997930  0.062238  1
  Al  Al9  1  0.750000  0.002070  0.937762  1
  Al  Al10  1  0.250000  0.504791  0.440153  1
  Al  Al11  1  0.750000  0.495209  0.559847  1
  In  In12  1  0.250000  0.115014  0.352486  1
  In  In13  1  0.750000  0.884986  0.647514  1
  In  In14  1  0.250000  0.618632  0.151302  1
  In  In15  1  0.750000  0.381368  0.848698  1
  Rh  Rh16  1  0.750000  0.285566  0.435915  1
  Rh  Rh17  1  0.250000  0.714434  0.564085  1
  Rh  Rh18  1  0.750000  0.783811  0.062912  1
  Rh  Rh19  1  0.250000  0.216189  0.937088  1
  Rh  Rh20  1  0.750000  0.768475  0.820437  1
  Rh  Rh21  1  0.250000  0.231525  0.179563  1
  Rh  Rh22  1  0.750000  0.264485  0.681467  1
  Rh  Rh23  1  0.250000  0.735515  0.318533  1
