# generated using pymatgen
data_Ta27NbO70
_symmetry_space_group_name_H-M   'P 1'
_cell_length_a   3.87190600
_cell_length_b   19.78875754
_cell_length_c   20.81448100
_cell_angle_alpha   64.29076314
_cell_angle_beta   90.00000000
_cell_angle_gamma   90.00000000
_symmetry_Int_Tables_number   1
_chemical_formula_structural   Ta27NbO70
_chemical_formula_sum   'Ta27 Nb1 O70'
_cell_volume   1436.93502648
_cell_formula_units_Z   1
loop_
 _symmetry_equiv_pos_site_id
 _symmetry_equiv_pos_as_xyz
  1  'x, y, z'
loop_
 _atom_site_type_symbol
 _atom_site_label
 _atom_site_symmetry_multiplicity
 _atom_site_fract_x
 _atom_site_fract_y
 _atom_site_fract_z
 _atom_site_occupancy
  Ta  Ta0  1  0.008111  0.160181  0.833947  1
  Ta  Ta1  1  0.499799  0.421266  0.703982  1
  Ta  Ta2  1  0.995523  0.004039  0.763507  1
  Ta  Ta3  1  0.004458  0.155089  0.566672  1
  Ta  Ta4  1  0.999418  0.693477  0.628961  1
  Ta  Ta5  1  0.995523  0.995961  0.236493  1
  Ta  Ta6  1  0.001389  0.151556  0.303345  1
  Ta  Ta7  1  0.501808  0.733241  0.840064  1
  Ta  Ta8  1  0.000084  0.315152  0.639275  1
  Ta  Ta9  1  0.000084  0.684848  0.360725  1
  Ta  Ta10  1  0.001389  0.848444  0.696655  1
  Ta  Ta11  1  0.999724  0.531145  0.562748  1
  Ta  Ta12  1  0.491084  0.111230  0.093878  1
  Ta  Ta13  1  0.499902  0.579980  0.771072  1
  Ta  Ta14  1  0.503193  0.264403  0.899055  1
  Ta  Ta15  1  0.493377  0.423841  0.965596  1
  Ta  Ta16  1  0.499799  0.578734  0.296018  1
  Ta  Ta17  1  0.992263  0.000000  0.500000  1
  Ta  Ta18  1  0.491084  0.888770  0.906122  1
  Ta  Ta19  1  0.999724  0.468855  0.437252  1
  Ta  Ta20  1  0.004458  0.844911  0.433328  1
  Ta  Ta21  1  0.499902  0.420020  0.228928  1
  Ta  Ta22  1  0.501808  0.266759  0.159936  1
  Ta  Ta23  1  0.008111  0.839819  0.166053  1
  Ta  Ta24  1  0.999418  0.306523  0.371039  1
  Ta  Ta25  1  0.493377  0.576159  0.034404  1
  Ta  Ta26  1  0.503193  0.735597  0.100945  1
  Nb  Nb27  1  0.765879  0.000000  0.000000  1
  O  O28  1  0.498694  0.183191  0.130866  1
  O  O29  1  0.500689  0.339466  0.066527  1
  O  O30  1  0.001029  0.755120  0.812974  1
  O  O31  1  0.999713  0.576639  0.461649  1
  O  O32  1  0.003820  0.086903  0.936945  1
  O  O33  1  0.496267  0.014985  0.205358  1
  O  O34  1  0.999832  0.404380  0.258888  1
  O  O35  1  0.003229  0.079554  0.535790  1
  O  O36  1  0.999713  0.423361  0.538351  1
  O  O37  1  0.501292  0.164681  0.572741  1
  O  O38  1  0.500399  0.341328  0.200586  1
  O  O39  1  0.499293  0.501640  0.861829  1
  O  O40  1  0.999783  0.427276  0.671014  1
  O  O41  1  0.501292  0.835319  0.427259  1
  O  O42  1  0.999832  0.595620  0.741112  1
  O  O43  1  0.500951  0.341000  0.791849  1
  O  O44  1  0.499617  0.665027  0.653354  1
  O  O45  1  0.499733  0.503795  0.586085  1
  O  O46  1  0.997975  0.416963  0.962750  1
  O  O47  1  0.500399  0.658672  0.799414  1
  O  O48  1  0.996822  0.918664  0.327032  1
  O  O49  1  0.000592  0.246349  0.736740  1
  O  O50  1  0.499970  0.343705  0.646122  1
  O  O51  1  0.998743  0.075983  0.264563  1
  O  O52  1  0.504250  0.819824  0.153883  1
  O  O53  1  0.999560  0.238351  0.465877  1
  O  O54  1  0.499733  0.496205  0.413915  1
  O  O55  1  0.000123  0.762999  0.667913  1
  O  O56  1  0.999731  0.606748  0.589425  1
  O  O57  1  0.500885  0.825685  0.724070  1
  O  O58  1  0.498694  0.816809  0.869134  1
  O  O59  1  0.499362  0.000000  0.500000  1
  O  O60  1  0.496683  0.028561  0.058136  1
  O  O61  1  0.999783  0.572724  0.328986  1
  O  O62  1  0.003820  0.913097  0.063055  1
  O  O63  1  0.497320  0.182122  0.996665  1
  O  O64  1  0.996822  0.081336  0.672968  1
  O  O65  1  0.499293  0.498360  0.138171  1
  O  O66  1  0.997975  0.583037  0.037250  1
  O  O67  1  0.000281  0.919146  0.602964  1
  O  O68  1  0.500951  0.659000  0.208151  1
  O  O69  1  0.003021  0.914081  0.196313  1
  O  O70  1  0.003021  0.085919  0.803687  1
  O  O71  1  0.499681  0.500883  0.271582  1
  O  O72  1  0.000123  0.237001  0.332087  1
  O  O73  1  0.001029  0.244880  0.187026  1
  O  O74  1  0.001077  0.252873  0.597789  1
  O  O75  1  0.496267  0.985015  0.794642  1
  O  O76  1  0.500885  0.174315  0.275930  1
  O  O77  1  0.504250  0.180176  0.846117  1
  O  O78  1  0.000281  0.080854  0.397036  1
  O  O79  1  0.499970  0.656295  0.353878  1
  O  O80  1  0.001077  0.747127  0.402211  1
  O  O81  1  0.995031  0.914570  0.882021  1
  O  O82  1  0.501599  0.339290  0.927065  1
  O  O83  1  0.499617  0.334973  0.346646  1
  O  O84  1  0.497320  0.817878  0.003335  1
  O  O85  1  0.499681  0.499117  0.728418  1
  O  O86  1  0.496683  0.971439  0.941864  1
  O  O87  1  0.999731  0.393252  0.410575  1
  O  O88  1  0.003229  0.920446  0.464210  1
  O  O89  1  0.999560  0.761649  0.534123  1
  O  O90  1  0.495876  0.500000  0.000000  1
  O  O91  1  0.995031  0.085430  0.117979  1
  O  O92  1  0.998743  0.924017  0.735437  1
  O  O93  1  0.500689  0.660534  0.933473  1
  O  O94  1  0.002762  0.247079  0.884763  1
  O  O95  1  0.501599  0.660710  0.072935  1
  O  O96  1  0.002762  0.752921  0.115237  1
  O  O97  1  0.000592  0.753651  0.263260  1
