# generated using pymatgen
data_Gd12Ni5Sn
_symmetry_space_group_name_H-M   'P 1'
_cell_length_a   8.41395107
_cell_length_b   8.41336082
_cell_length_c   8.41395094
_cell_angle_alpha   107.00757544
_cell_angle_beta   109.65013018
_cell_angle_gamma   111.79413225
_symmetry_Int_Tables_number   1
_chemical_formula_structural   Gd12Ni5Sn
_chemical_formula_sum   'Gd12 Ni5 Sn1'
_cell_volume   457.69194623
_cell_formula_units_Z   1
loop_
 _symmetry_equiv_pos_site_id
 _symmetry_equiv_pos_as_xyz
  1  'x, y, z'
loop_
 _atom_site_type_symbol
 _atom_site_label
 _atom_site_symmetry_multiplicity
 _atom_site_fract_x
 _atom_site_fract_y
 _atom_site_fract_z
 _atom_site_occupancy
  Gd  Gd0  1  0.476410  0.294725  0.181703  1
  Gd  Gd1  1  0.113023  0.294725  0.818316  1
  Gd  Gd2  1  0.886977  0.705275  0.181684  1
  Gd  Gd3  1  0.523590  0.705275  0.818297  1
  Gd  Gd4  1  0.305977  0.627747  0.321772  1
  Gd  Gd5  1  0.306011  0.984256  0.678244  1
  Gd  Gd6  1  0.694023  0.372253  0.678228  1
  Gd  Gd7  1  0.693989  0.015744  0.321756  1
  Gd  Gd8  1  0.190945  0.210767  0.401725  1
  Gd  Gd9  1  0.809055  0.789233  0.598275  1
  Gd  Gd10  1  0.190958  0.789233  0.980177  1
  Gd  Gd11  1  0.809042  0.210767  0.019823  1
  Ni  Ni12  1  0.499897  0.623049  0.123152  1
  Ni  Ni13  1  0.500103  0.376951  0.876848  1
  Ni  Ni14  1  0.365413  0.000000  0.365413  1
  Ni  Ni15  1  0.634587  0.000000  0.634587  1
  Ni  Ni16  1  0.000000  0.000000  0.000000  1
  Sn  Sn17  1  0.000000  0.500000  0.500000  1
