# generated using pymatgen
data_DyY3Ti4Cr4O20
_symmetry_space_group_name_H-M   'P 1'
_cell_length_a   5.85560700
_cell_length_b   7.46746601
_cell_length_c   8.60693201
_cell_angle_alpha   89.99555150
_cell_angle_beta   90.00000000
_cell_angle_gamma   90.00000000
_symmetry_Int_Tables_number   1
_chemical_formula_structural   DyY3Ti4Cr4O20
_chemical_formula_sum   'Dy1 Y3 Ti4 Cr4 O20'
_cell_volume   376.35140901
_cell_formula_units_Z   1
loop_
 _symmetry_equiv_pos_site_id
 _symmetry_equiv_pos_as_xyz
  1  'x, y, z'
loop_
 _atom_site_type_symbol
 _atom_site_label
 _atom_site_symmetry_multiplicity
 _atom_site_fract_x
 _atom_site_fract_y
 _atom_site_fract_z
 _atom_site_occupancy
  Dy  Dy0  1  0.500000  0.358817  0.329794  1
  Y  Y1  1  0.500000  0.640974  0.670097  1
  Y  Y2  1  0.500000  0.141062  0.829814  1
  Y  Y3  1  0.500000  0.858911  0.170190  1
  Ti  Ti4  1  0.000000  0.118153  0.146545  1
  Ti  Ti5  1  0.000000  0.881865  0.853462  1
  Ti  Ti6  1  0.000000  0.381887  0.646436  1
  Ti  Ti7  1  0.000000  0.618001  0.353481  1
  Cr  Cr8  1  0.254101  0.000069  0.499968  1
  Cr  Cr9  1  0.745899  0.000069  0.499968  1
  Cr  Cr10  1  0.745899  0.499961  0.000096  1
  Cr  Cr11  1  0.254101  0.499961  0.000096  1
  O  O12  1  0.253108  0.111018  0.287760  1
  O  O13  1  0.747421  0.889576  0.712304  1
  O  O14  1  0.252579  0.889576  0.712304  1
  O  O15  1  0.747421  0.389571  0.787705  1
  O  O16  1  0.746892  0.111018  0.287760  1
  O  O17  1  0.252813  0.610157  0.212409  1
  O  O18  1  0.747187  0.610157  0.212409  1
  O  O19  1  0.252579  0.389571  0.787705  1
  O  O20  1  0.000000  0.342600  0.077781  1
  O  O21  1  0.000000  0.657355  0.922237  1
  O  O22  1  0.000000  0.157360  0.577763  1
  O  O23  1  0.000000  0.842642  0.422220  1
  O  O24  1  0.500000  0.332778  0.060380  1
  O  O25  1  0.500000  0.667203  0.940151  1
  O  O26  1  0.500000  0.167484  0.559489  1
  O  O27  1  0.500000  0.832786  0.440153  1
  O  O28  1  0.220275  0.000009  0.000028  1
  O  O29  1  0.779725  0.000009  0.000028  1
  O  O30  1  0.779360  0.499699  0.499733  1
  O  O31  1  0.220640  0.499699  0.499733  1
