# generated using pymatgen
data_Y4TcOs4Ru3
_symmetry_space_group_name_H-M   'P 1'
_cell_length_a   5.18875002
_cell_length_b   5.37773891
_cell_length_c   9.05533000
_cell_angle_alpha   90.00000000
_cell_angle_beta   90.00000000
_cell_angle_gamma   120.21057914
_symmetry_Int_Tables_number   1
_chemical_formula_structural   Y4TcOs4Ru3
_chemical_formula_sum   'Y4 Tc1 Os4 Ru3'
_cell_volume   218.35941097
_cell_formula_units_Z   1
loop_
 _symmetry_equiv_pos_site_id
 _symmetry_equiv_pos_as_xyz
  1  'x, y, z'
loop_
 _atom_site_type_symbol
 _atom_site_label
 _atom_site_symmetry_multiplicity
 _atom_site_fract_x
 _atom_site_fract_y
 _atom_site_fract_z
 _atom_site_occupancy
  Y  Y0  1  0.332754  0.667514  0.433509  1
  Y  Y1  1  0.661532  0.329206  0.565964  1
  Y  Y2  1  0.661532  0.329206  0.934036  1
  Y  Y3  1  0.332754  0.667514  0.066491  1
  Tc  Tc4  1  0.672822  0.838400  0.750000  1
  Os  Os5  1  0.833528  0.169391  0.250000  1
  Os  Os6  1  0.829209  0.658612  0.250000  1
  Os  Os7  1  0.343159  0.172828  0.250000  1
  Os  Os8  1  0.174181  0.833757  0.750000  1
  Ru  Ru9  1  0.990863  0.990313  0.499920  1
  Ru  Ru10  1  0.990863  0.990313  0.000080  1
  Ru  Ru11  1  0.176802  0.352947  0.750000  1
