# generated using pymatgen
data_Nd16TlCd(AgPt2)2
_symmetry_space_group_name_H-M   'P 1'
_cell_length_a   9.96772847
_cell_length_b   9.98568497
_cell_length_c   9.98568527
_cell_angle_alpha   60.24889097
_cell_angle_beta   60.15831689
_cell_angle_gamma   60.15832363
_symmetry_Int_Tables_number   1
_chemical_formula_structural   Nd16TlCd(AgPt2)2
_chemical_formula_sum   'Nd16 Tl1 Cd1 Ag2 Pt4'
_cell_volume   705.80743387
_cell_formula_units_Z   1
loop_
 _symmetry_equiv_pos_site_id
 _symmetry_equiv_pos_as_xyz
  1  'x, y, z'
loop_
 _atom_site_type_symbol
 _atom_site_label
 _atom_site_symmetry_multiplicity
 _atom_site_fract_x
 _atom_site_fract_y
 _atom_site_fract_z
 _atom_site_occupancy
  Nd  Nd0  1  0.350851  0.350571  0.350571  1
  Nd  Nd1  1  0.352930  0.352532  0.942778  1
  Nd  Nd2  1  0.352930  0.942778  0.352532  1
  Nd  Nd3  1  0.940066  0.353283  0.353283  1
  Nd  Nd4  1  0.811240  0.190412  0.190412  1
  Nd  Nd5  1  0.191396  0.807561  0.807561  1
  Nd  Nd6  1  0.190213  0.811011  0.190665  1
  Nd  Nd7  1  0.807845  0.191473  0.807638  1
  Nd  Nd8  1  0.190213  0.190665  0.811011  1
  Nd  Nd9  1  0.807845  0.807638  0.191473  1
  Nd  Nd10  1  0.939959  0.564424  0.564424  1
  Nd  Nd11  1  0.562261  0.937041  0.937041  1
  Nd  Nd12  1  0.562763  0.943927  0.564217  1
  Nd  Nd13  1  0.933964  0.563089  0.938467  1
  Nd  Nd14  1  0.562763  0.564217  0.943927  1
  Nd  Nd15  1  0.933964  0.938467  0.563089  1
  Tl  Tl16  1  0.583536  0.581279  0.581279  1
  Cd  Cd17  1  0.262010  0.577008  0.577008  1
  Ag  Ag18  1  0.582006  0.582500  0.249687  1
  Ag  Ag19  1  0.582006  0.249687  0.582500  1
  Pt  Pt20  1  0.143525  0.144384  0.144384  1
  Pt  Pt21  1  0.142990  0.143653  0.569159  1
  Pt  Pt22  1  0.142990  0.569159  0.143653  1
  Pt  Pt23  1  0.569735  0.143242  0.143242  1
