# generated using pymatgen
data_Y3LuNi4(SnH)4
_symmetry_space_group_name_H-M   'P 1'
_cell_length_a   4.23603100
_cell_length_b   7.09254103
_cell_length_c   8.30268805
_cell_angle_alpha   90.01180771
_cell_angle_beta   90.00000000
_cell_angle_gamma   90.00000000
_symmetry_Int_Tables_number   1
_chemical_formula_structural   Y3LuNi4(SnH)4
_chemical_formula_sum   'Y3 Lu1 Ni4 Sn4 H4'
_cell_volume   249.44781166
_cell_formula_units_Z   1
loop_
 _symmetry_equiv_pos_site_id
 _symmetry_equiv_pos_as_xyz
  1  'x, y, z'
loop_
 _atom_site_type_symbol
 _atom_site_label
 _atom_site_symmetry_multiplicity
 _atom_site_fract_x
 _atom_site_fract_y
 _atom_site_fract_z
 _atom_site_occupancy
  Y  Y0  1  0.750000  0.515699  0.813402  1
  Y  Y1  1  0.250000  0.483835  0.185399  1
  Y  Y2  1  0.250000  0.984184  0.313714  1
  Lu  Lu3  1  0.750000  0.016054  0.684014  1
  Ni  Ni4  1  0.750000  0.273929  0.394761  1
  Ni  Ni5  1  0.250000  0.730806  0.609541  1
  Ni  Ni6  1  0.250000  0.221952  0.888493  1
  Ni  Ni7  1  0.750000  0.774268  0.108953  1
  Sn  Sn8  1  0.750000  0.155029  0.069487  1
  Sn  Sn9  1  0.250000  0.843525  0.926332  1
  Sn  Sn10  1  0.250000  0.343377  0.571858  1
  Sn  Sn11  1  0.750000  0.656727  0.429670  1
  H  H12  1  0.250000  0.952933  0.580136  1
  H  H13  1  0.750000  0.051704  0.425166  1
  H  H14  1  0.750000  0.551375  0.078403  1
  H  H15  1  0.250000  0.444602  0.920670  1
