# generated using pymatgen
data_Hf10ZnSi(SnSb)3
_symmetry_space_group_name_H-M   'P 1'
_cell_length_a   8.60794500
_cell_length_b   8.60786007
_cell_length_c   5.79982700
_cell_angle_alpha   90.00135564
_cell_angle_beta   89.99728874
_cell_angle_gamma   120.00027285
_symmetry_Int_Tables_number   1
_chemical_formula_structural   Hf10ZnSi(SnSb)3
_chemical_formula_sum   'Hf10 Zn1 Si1 Sn3 Sb3'
_cell_volume   372.16811164
_cell_formula_units_Z   1
loop_
 _symmetry_equiv_pos_site_id
 _symmetry_equiv_pos_as_xyz
  1  'x, y, z'
loop_
 _atom_site_type_symbol
 _atom_site_label
 _atom_site_symmetry_multiplicity
 _atom_site_fract_x
 _atom_site_fract_y
 _atom_site_fract_z
 _atom_site_occupancy
  Hf  Hf0  1  0.734577  0.734965  0.247857  1
  Hf  Hf1  1  0.736036  0.000000  0.752410  1
  Hf  Hf2  1  0.999613  0.265035  0.247857  1
  Hf  Hf3  1  0.999473  0.735063  0.752343  1
  Hf  Hf4  1  0.264410  0.264937  0.752343  1
  Hf  Hf5  1  0.266013  0.000000  0.247832  1
  Hf  Hf6  1  0.333786  0.666658  0.499497  1
  Hf  Hf7  1  0.667035  0.333318  0.000568  1
  Hf  Hf8  1  0.667129  0.333341  0.499497  1
  Hf  Hf9  1  0.333717  0.666682  0.000568  1
  Zn  Zn10  1  0.001023  0.000000  0.498852  1
  Si  Si11  1  0.000846  0.000000  0.001177  1
  Sn  Sn12  1  0.388480  0.000000  0.747946  1
  Sn  Sn13  1  0.388543  0.388047  0.252152  1
  Sn  Sn14  1  0.000497  0.611953  0.252152  1
  Sb  Sb15  1  0.000658  0.391586  0.747029  1
  Sb  Sb16  1  0.609072  0.608414  0.747029  1
  Sb  Sb17  1  0.609093  0.000000  0.252893  1
