# generated using pymatgen
data_Er16CdIn3(NiPd)2
_symmetry_space_group_name_H-M   'P 1'
_cell_length_a   9.55220414
_cell_length_b   9.55620257
_cell_length_c   9.57523100
_cell_angle_alpha   59.93411278
_cell_angle_beta   59.92022829
_cell_angle_gamma   60.04523386
_symmetry_Int_Tables_number   1
_chemical_formula_structural   Er16CdIn3(NiPd)2
_chemical_formula_sum   'Er16 Cd1 In3 Ni2 Pd2'
_cell_volume   617.57847760
_cell_formula_units_Z   1
loop_
 _symmetry_equiv_pos_site_id
 _symmetry_equiv_pos_as_xyz
  1  'x, y, z'
loop_
 _atom_site_type_symbol
 _atom_site_label
 _atom_site_symmetry_multiplicity
 _atom_site_fract_x
 _atom_site_fract_y
 _atom_site_fract_z
 _atom_site_occupancy
  Er  Er0  1  0.347689  0.347928  0.358263  1
  Er  Er1  1  0.347689  0.347928  0.946119  1
  Er  Er2  1  0.343592  0.950103  0.353152  1
  Er  Er3  1  0.950193  0.343665  0.353070  1
  Er  Er4  1  0.817195  0.189539  0.188364  1
  Er  Er5  1  0.188708  0.818081  0.805698  1
  Er  Er6  1  0.188708  0.818081  0.187513  1
  Er  Er7  1  0.817195  0.189539  0.804902  1
  Er  Er8  1  0.187687  0.187343  0.812485  1
  Er  Er9  1  0.810089  0.810134  0.189889  1
  Er  Er10  1  0.937484  0.563198  0.564744  1
  Er  Er11  1  0.563874  0.935549  0.936327  1
  Er  Er12  1  0.563874  0.935549  0.564250  1
  Er  Er13  1  0.937484  0.563198  0.934573  1
  Er  Er14  1  0.564833  0.563798  0.935684  1
  Er  Er15  1  0.938210  0.935011  0.563389  1
  Cd  Cd16  1  0.250590  0.583445  0.582982  1
  In  In17  1  0.581960  0.583409  0.582549  1
  In  In18  1  0.581960  0.583409  0.252081  1
  In  In19  1  0.581912  0.251808  0.583140  1
  Ni  Ni20  1  0.142965  0.143016  0.143217  1
  Ni  Ni21  1  0.142965  0.143016  0.570803  1
  Pd  Pd22  1  0.144249  0.569058  0.143347  1
  Pd  Pd23  1  0.568898  0.144191  0.143455  1
