# generated using pymatgen
data_La3Mg2CdPd2Ru
_symmetry_space_group_name_H-M   'P 1'
_cell_length_a   7.71948209
_cell_length_b   7.59743687
_cell_length_c   4.15701500
_cell_angle_alpha   90.00000000
_cell_angle_beta   90.00000000
_cell_angle_gamma   119.10508447
_symmetry_Int_Tables_number   1
_chemical_formula_structural   La3Mg2CdPd2Ru
_chemical_formula_sum   'La3 Mg2 Cd1 Pd2 Ru1'
_cell_volume   213.01669254
_cell_formula_units_Z   1
loop_
 _symmetry_equiv_pos_site_id
 _symmetry_equiv_pos_as_xyz
  1  'x, y, z'
loop_
 _atom_site_type_symbol
 _atom_site_label
 _atom_site_symmetry_multiplicity
 _atom_site_fract_x
 _atom_site_fract_y
 _atom_site_fract_z
 _atom_site_occupancy
  La  La0  1  0.430206  0.416888  0.500000  1
  La  La1  1  0.590227  0.015276  0.500000  1
  La  La2  1  0.979457  0.572868  0.500000  1
  Mg  Mg3  1  0.237969  0.996814  0.000000  1
  Mg  Mg4  1  0.002143  0.240364  0.000000  1
  Cd  Cd5  1  0.757335  0.761171  0.000000  1
  Pd  Pd6  1  0.326334  0.662776  0.000000  1
  Pd  Pd7  1  0.012640  0.011814  0.500000  1
  Ru  Ru8  1  0.663688  0.322028  0.000000  1
