# generated using pymatgen
data_Tm4Al4PdRu3
_symmetry_space_group_name_H-M   'P 1'
_cell_length_a   4.07790100
_cell_length_b   6.92384575
_cell_length_c   8.04024256
_cell_angle_alpha   89.80667578
_cell_angle_beta   90.00000000
_cell_angle_gamma   90.00000000
_symmetry_Int_Tables_number   1
_chemical_formula_structural   Tm4Al4PdRu3
_chemical_formula_sum   'Tm4 Al4 Pd1 Ru3'
_cell_volume   227.01300680
_cell_formula_units_Z   1
loop_
 _symmetry_equiv_pos_site_id
 _symmetry_equiv_pos_as_xyz
  1  'x, y, z'
loop_
 _atom_site_type_symbol
 _atom_site_label
 _atom_site_symmetry_multiplicity
 _atom_site_fract_x
 _atom_site_fract_y
 _atom_site_fract_z
 _atom_site_occupancy
  Tm  Tm0  1  0.250000  0.026884  0.326638  1
  Tm  Tm1  1  0.250000  0.541220  0.180604  1
  Tm  Tm2  1  0.750000  0.967213  0.677399  1
  Tm  Tm3  1  0.750000  0.471054  0.816785  1
  Al  Al4  1  0.250000  0.137122  0.936184  1
  Al  Al5  1  0.250000  0.637997  0.559295  1
  Al  Al6  1  0.750000  0.854574  0.058483  1
  Al  Al7  1  0.750000  0.363189  0.443736  1
  Pd  Pd8  1  0.750000  0.231214  0.124325  1
  Ru  Ru9  1  0.250000  0.266200  0.624455  1
  Ru  Ru10  1  0.250000  0.768269  0.877041  1
  Ru  Ru11  1  0.750000  0.735065  0.375055  1
