# generated using pymatgen
data_Nd(Eu4Pt3)2
_symmetry_space_group_name_H-M   'P 1'
_cell_length_a   7.86743132
_cell_length_b   7.86743153
_cell_length_c   7.86743100
_cell_angle_alpha   70.36725189
_cell_angle_beta   70.36725909
_cell_angle_gamma   70.36725326
_symmetry_Int_Tables_number   1
_chemical_formula_structural   Nd(Eu4Pt3)2
_chemical_formula_sum   'Nd1 Eu8 Pt6'
_cell_volume   418.10856910
_cell_formula_units_Z   1
loop_
 _symmetry_equiv_pos_site_id
 _symmetry_equiv_pos_as_xyz
  1  'x, y, z'
loop_
 _atom_site_type_symbol
 _atom_site_label
 _atom_site_symmetry_multiplicity
 _atom_site_fract_x
 _atom_site_fract_y
 _atom_site_fract_z
 _atom_site_occupancy
  Nd  Nd0  1  0.802843  0.802843  0.802843  1
  Eu  Eu1  1  0.002195  0.002195  0.002195  1
  Eu  Eu2  1  0.199603  0.199603  0.199603  1
  Eu  Eu3  1  0.331744  0.602703  0.846789  1
  Eu  Eu4  1  0.846789  0.331744  0.602703  1
  Eu  Eu5  1  0.602703  0.846789  0.331744  1
  Eu  Eu6  1  0.667634  0.394533  0.155217  1
  Eu  Eu7  1  0.155217  0.667634  0.394533  1
  Eu  Eu8  1  0.394533  0.155217  0.667634  1
  Pt  Pt9  1  0.157336  0.952915  0.594063  1
  Pt  Pt10  1  0.594063  0.157336  0.952915  1
  Pt  Pt11  1  0.952915  0.594063  0.157336  1
  Pt  Pt12  1  0.834914  0.041029  0.416483  1
  Pt  Pt13  1  0.416483  0.834914  0.041029  1
  Pt  Pt14  1  0.041029  0.416483  0.834914  1
