# generated using pymatgen
data_CsNd6Sm4(C2Br9)2
_symmetry_space_group_name_H-M   'P 1'
_cell_length_a   10.94550717
_cell_length_b   11.03330995
_cell_length_c   11.20844419
_cell_angle_alpha   112.98463668
_cell_angle_beta   87.84049291
_cell_angle_gamma   118.50388302
_symmetry_Int_Tables_number   1
_chemical_formula_structural   CsNd6Sm4(C2Br9)2
_chemical_formula_sum   'Cs1 Nd6 Sm4 C4 Br18'
_cell_volume   1076.43019172
_cell_formula_units_Z   1
loop_
 _symmetry_equiv_pos_site_id
 _symmetry_equiv_pos_as_xyz
  1  'x, y, z'
loop_
 _atom_site_type_symbol
 _atom_site_label
 _atom_site_symmetry_multiplicity
 _atom_site_fract_x
 _atom_site_fract_y
 _atom_site_fract_z
 _atom_site_occupancy
  Cs  Cs0  1  0.500018  0.999628  0.499867  1
  Nd  Nd1  1  0.908104  0.586643  0.695035  1
  Nd  Nd2  1  0.115376  0.941537  0.001139  1
  Nd  Nd3  1  0.039044  0.962729  0.664496  1
  Nd  Nd4  1  0.344554  0.285700  0.302309  1
  Nd  Nd5  1  0.716513  0.632072  0.987222  1
  Nd  Nd6  1  0.884401  0.059178  0.999128  1
  Sm  Sm7  1  0.657452  0.715224  0.699483  1
  Sm  Sm8  1  0.280613  0.365457  0.014265  1
  Sm  Sm9  1  0.093062  0.411016  0.303321  1
  Sm  Sm10  1  0.962081  0.038477  0.332637  1
  C  C11  1  0.156372  0.231042  0.128238  1
  C  C12  1  0.841683  0.769731  0.871561  1
  C  C13  1  0.917040  0.846433  0.794209  1
  C  C14  1  0.080951  0.154263  0.205642  1
  Br  Br15  1  0.449967  0.530369  0.830421  1
  Br  Br16  1  0.386771  0.036588  0.161555  1
  Br  Br17  1  0.772503  0.856463  0.501158  1
  Br  Br18  1  0.837779  0.315810  0.157909  1
  Br  Br19  1  0.546801  0.468807  0.167464  1
  Br  Br20  1  0.223970  0.142551  0.497022  1
  Br  Br21  1  0.315150  0.101910  0.833596  1
  Br  Br22  1  0.687949  0.903093  0.171030  1
  Br  Br23  1  0.978669  0.765372  0.174922  1
  Br  Br24  1  0.932050  0.298904  0.498845  1
  Br  Br25  1  0.024637  0.240011  0.829442  1
  Br  Br26  1  0.070287  0.697599  0.496459  1
  Br  Br27  1  0.261578  0.623311  0.188631  1
  Br  Br28  1  0.736717  0.370912  0.810156  1
  Br  Br29  1  0.636849  0.432457  0.499508  1
  Br  Br30  1  0.166046  0.686698  0.844973  1
  Br  Br31  1  0.613515  0.959501  0.836380  1
  Br  Br32  1  0.361497  0.570513  0.501980  1
