# generated using pymatgen
data_Y8HoTmIn6
_symmetry_space_group_name_H-M   'P 1'
_cell_length_a   6.07417838
_cell_length_b   9.18189471
_cell_length_c   9.18189431
_cell_angle_alpha   83.69882072
_cell_angle_beta   70.67391796
_cell_angle_gamma   70.67391535
_symmetry_Int_Tables_number   1
_chemical_formula_structural   Y8HoTmIn6
_chemical_formula_sum   'Y8 Ho1 Tm1 In6'
_cell_volume   456.01000684
_cell_formula_units_Z   1
loop_
 _symmetry_equiv_pos_site_id
 _symmetry_equiv_pos_as_xyz
  1  'x, y, z'
loop_
 _atom_site_type_symbol
 _atom_site_label
 _atom_site_symmetry_multiplicity
 _atom_site_fract_x
 _atom_site_fract_y
 _atom_site_fract_z
 _atom_site_occupancy
  Y  Y0  1  0.718193  0.863497  0.699969  1
  Y  Y1  1  0.281414  0.136505  0.300045  1
  Y  Y2  1  0.781807  0.300031  0.136503  1
  Y  Y3  1  0.218586  0.699955  0.863495  1
  Y  Y4  1  0.582034  0.699833  0.136569  1
  Y  Y5  1  0.418353  0.300161  0.863433  1
  Y  Y6  1  0.081647  0.136567  0.699839  1
  Y  Y7  1  0.917966  0.863431  0.300167  1
  Ho  Ho8  1  0.250000  0.499971  0.500029  1
  Tm  Tm9  1  0.750000  0.500078  0.499922  1
  In  In10  1  0.160122  0.499798  0.178617  1
  In  In11  1  0.838090  0.500292  0.821507  1
  In  In12  1  0.339878  0.821383  0.500202  1
  In  In13  1  0.661910  0.178493  0.499708  1
  In  In14  1  0.250000  0.999971  0.000029  1
  In  In15  1  0.750000  0.000034  0.999966  1
