# generated using pymatgen
data_Pa(TlI3)2
_symmetry_space_group_name_H-M   'P 1'
_cell_length_a   8.02669515
_cell_length_b   8.63552800
_cell_length_c   11.47626200
_cell_angle_alpha   90.00000000
_cell_angle_beta   90.49878475
_cell_angle_gamma   90.00000000
_symmetry_Int_Tables_number   1
_chemical_formula_structural   Pa(TlI3)2
_chemical_formula_sum   'Pa2 Tl4 I12'
_cell_volume   795.44409732
_cell_formula_units_Z   2
loop_
 _symmetry_equiv_pos_site_id
 _symmetry_equiv_pos_as_xyz
  1  'x, y, z'
loop_
 _atom_site_type_symbol
 _atom_site_label
 _atom_site_symmetry_multiplicity
 _atom_site_fract_x
 _atom_site_fract_y
 _atom_site_fract_z
 _atom_site_occupancy
  Pa  Pa0  1  0.000000  0.000000  0.000000  1
  Pa  Pa1  1  0.500000  0.500000  0.500000  1
  Tl  Tl2  1  0.472818  0.904497  0.754916  1
  Tl  Tl3  1  0.027182  0.404497  0.745084  1
  Tl  Tl4  1  0.527182  0.095503  0.245084  1
  Tl  Tl5  1  0.972818  0.595503  0.254916  1
  I  I6  1  0.320642  0.198329  0.551586  1
  I  I7  1  0.179358  0.698329  0.948414  1
  I  I8  1  0.679358  0.801671  0.448414  1
  I  I9  1  0.820642  0.301671  0.051586  1
  I  I10  1  0.104687  0.982166  0.254130  1
  I  I11  1  0.395313  0.482166  0.245870  1
  I  I12  1  0.895313  0.017834  0.745870  1
  I  I13  1  0.604687  0.517834  0.754130  1
  I  I14  1  0.187251  0.685359  0.554668  1
  I  I15  1  0.312749  0.185359  0.945332  1
  I  I16  1  0.812749  0.314641  0.445332  1
  I  I17  1  0.687251  0.814641  0.054668  1
