# generated using pymatgen
data_LiTb16Zn(InRh2)2
_symmetry_space_group_name_H-M   'P 1'
_cell_length_a   9.67706786
_cell_length_b   9.67706735
_cell_length_c   9.66412780
_cell_angle_alpha   59.85984255
_cell_angle_beta   59.85983650
_cell_angle_gamma   59.68504040
_symmetry_Int_Tables_number   1
_chemical_formula_structural   LiTb16Zn(InRh2)2
_chemical_formula_sum   'Li1 Tb16 Zn1 In2 Rh4'
_cell_volume   637.04754523
_cell_formula_units_Z   1
loop_
 _symmetry_equiv_pos_site_id
 _symmetry_equiv_pos_as_xyz
  1  'x, y, z'
loop_
 _atom_site_type_symbol
 _atom_site_label
 _atom_site_symmetry_multiplicity
 _atom_site_fract_x
 _atom_site_fract_y
 _atom_site_fract_z
 _atom_site_occupancy
  Li  Li0  1  0.427268  0.427268  0.716363  1
  Tb  Tb1  1  0.807829  0.807829  0.192633  1
  Tb  Tb2  1  0.811624  0.188641  0.811041  1
  Tb  Tb3  1  0.187414  0.187414  0.815085  1
  Tb  Tb4  1  0.649158  0.050056  0.647617  1
  Tb  Tb5  1  0.062975  0.062975  0.437810  1
  Tb  Tb6  1  0.436899  0.436899  0.066790  1
  Tb  Tb7  1  0.652236  0.652236  0.649854  1
  Tb  Tb8  1  0.809015  0.191260  0.192632  1
  Tb  Tb9  1  0.188641  0.811624  0.811041  1
  Tb  Tb10  1  0.050056  0.649158  0.647617  1
  Tb  Tb11  1  0.438632  0.063254  0.062617  1
  Tb  Tb12  1  0.435622  0.068870  0.435958  1
  Tb  Tb13  1  0.063254  0.438632  0.062617  1
  Tb  Tb14  1  0.647103  0.647103  0.056005  1
  Tb  Tb15  1  0.191260  0.809015  0.192632  1
  Tb  Tb16  1  0.068870  0.435622  0.435958  1
  Zn  Zn17  1  0.416412  0.416412  0.417616  1
  In  In18  1  0.416046  0.742185  0.422312  1
  In  In19  1  0.742185  0.416046  0.422312  1
  Rh  Rh20  1  0.856626  0.427274  0.858516  1
  Rh  Rh21  1  0.855867  0.855867  0.859865  1
  Rh  Rh22  1  0.857736  0.857736  0.426592  1
  Rh  Rh23  1  0.427274  0.856626  0.858516  1
