# generated using pymatgen
data_Ac6Cd4Pd13
_symmetry_space_group_name_H-M   'P 1'
_cell_length_a   8.78676876
_cell_length_b   8.78676801
_cell_length_c   8.78676800
_cell_angle_alpha   109.47122291
_cell_angle_beta   109.47122120
_cell_angle_gamma   109.47121852
_symmetry_Int_Tables_number   1
_chemical_formula_structural   Ac6Cd4Pd13
_chemical_formula_sum   'Ac6 Cd4 Pd13'
_cell_volume   522.23457643
_cell_formula_units_Z   1
loop_
 _symmetry_equiv_pos_site_id
 _symmetry_equiv_pos_as_xyz
  1  'x, y, z'
loop_
 _atom_site_type_symbol
 _atom_site_label
 _atom_site_symmetry_multiplicity
 _atom_site_fract_x
 _atom_site_fract_y
 _atom_site_fract_z
 _atom_site_occupancy
  Ac  Ac0  1  0.000000  0.303017  0.303017  1
  Ac  Ac1  1  0.000000  0.696983  0.696983  1
  Ac  Ac2  1  0.303017  0.000000  0.303017  1
  Ac  Ac3  1  0.696983  0.696983  0.000000  1
  Ac  Ac4  1  0.696983  0.000000  0.696983  1
  Ac  Ac5  1  0.303017  0.303017  0.000000  1
  Cd  Cd6  1  0.000000  0.000000  0.500000  1
  Cd  Cd7  1  0.500000  0.000000  0.000000  1
  Cd  Cd8  1  0.000000  0.500000  0.000000  1
  Cd  Cd9  1  0.500000  0.500000  0.500000  1
  Pd  Pd10  1  0.338171  0.661829  0.000000  1
  Pd  Pd11  1  0.000000  0.338171  0.661829  1
  Pd  Pd12  1  0.661829  0.000000  0.338171  1
  Pd  Pd13  1  0.323656  0.661829  0.661829  1
  Pd  Pd14  1  0.661829  0.323656  0.661829  1
  Pd  Pd15  1  0.676344  0.338171  0.338171  1
  Pd  Pd16  1  0.338171  0.676344  0.338171  1
  Pd  Pd17  1  0.338171  0.338171  0.676344  1
  Pd  Pd18  1  0.000000  0.661829  0.338171  1
  Pd  Pd19  1  0.661829  0.661829  0.323656  1
  Pd  Pd20  1  0.338171  0.000000  0.661829  1
  Pd  Pd21  1  0.000000  0.000000  0.000000  1
  Pd  Pd22  1  0.661829  0.338171  0.000000  1
