# generated using pymatgen
data_Y11Ho(CoTc)2
_symmetry_space_group_name_H-M   'P 1'
_cell_length_a   6.34939281
_cell_length_b   7.23781357
_cell_length_c   9.27552691
_cell_angle_alpha   89.97023794
_cell_angle_beta   89.91412822
_cell_angle_gamma   89.90836497
_symmetry_Int_Tables_number   1
_chemical_formula_structural   Y11Ho(CoTc)2
_chemical_formula_sum   'Y11 Ho1 Co2 Tc2'
_cell_volume   426.26244965
_cell_formula_units_Z   1
loop_
 _symmetry_equiv_pos_site_id
 _symmetry_equiv_pos_as_xyz
  1  'x, y, z'
loop_
 _atom_site_type_symbol
 _atom_site_label
 _atom_site_symmetry_multiplicity
 _atom_site_fract_x
 _atom_site_fract_y
 _atom_site_fract_z
 _atom_site_occupancy
  Y  Y0  1  0.668227  0.173324  0.064168  1
  Y  Y1  1  0.370633  0.547220  0.249738  1
  Y  Y2  1  0.142397  0.041719  0.249799  1
  Y  Y3  1  0.823912  0.681358  0.432437  1
  Y  Y4  1  0.324418  0.818643  0.933132  1
  Y  Y5  1  0.168031  0.326639  0.564138  1
  Y  Y6  1  0.668344  0.173432  0.436000  1
  Y  Y7  1  0.167678  0.326768  0.936062  1
  Y  Y8  1  0.324100  0.818780  0.567336  1
  Y  Y9  1  0.869980  0.952486  0.750498  1
  Y  Y10  1  0.642496  0.458135  0.750483  1
  Ho  Ho11  1  0.823807  0.680607  0.068030  1
  Co  Co12  1  0.540656  0.884512  0.249089  1
  Co  Co13  1  0.039179  0.614664  0.750484  1
  Tc  Tc14  1  0.962611  0.392899  0.248687  1
  Tc  Tc15  1  0.463531  0.108815  0.749919  1
