# generated using pymatgen
data_Er6Lu4CdIn7
_symmetry_space_group_name_H-M   'P 1'
_cell_length_a   9.15061700
_cell_length_b   9.15061694
_cell_length_c   6.60529000
_cell_angle_alpha   90.00000000
_cell_angle_beta   90.00000000
_cell_angle_gamma   119.99999661
_symmetry_Int_Tables_number   1
_chemical_formula_structural   Er6Lu4CdIn7
_chemical_formula_sum   'Er6 Lu4 Cd1 In7'
_cell_volume   478.98651844
_cell_formula_units_Z   1
loop_
 _symmetry_equiv_pos_site_id
 _symmetry_equiv_pos_as_xyz
  1  'x, y, z'
loop_
 _atom_site_type_symbol
 _atom_site_label
 _atom_site_symmetry_multiplicity
 _atom_site_fract_x
 _atom_site_fract_y
 _atom_site_fract_z
 _atom_site_occupancy
  Er  Er0  1  0.289959  0.000000  0.749851  1
  Er  Er1  1  0.710041  0.000000  0.250149  1
  Er  Er2  1  0.000000  0.289959  0.749851  1
  Er  Er3  1  0.000000  0.710041  0.250149  1
  Er  Er4  1  0.710041  0.710041  0.749851  1
  Er  Er5  1  0.289959  0.289959  0.250149  1
  Lu  Lu6  1  0.333333  0.666667  0.500000  1
  Lu  Lu7  1  0.666667  0.333333  0.500000  1
  Lu  Lu8  1  0.666667  0.333333  0.000000  1
  Lu  Lu9  1  0.333333  0.666667  0.000000  1
  Cd  Cd10  1  0.000000  0.000000  0.500000  1
  In  In11  1  0.000000  0.000000  0.000000  1
  In  In12  1  0.627984  0.000000  0.749788  1
  In  In13  1  0.372016  0.000000  0.250212  1
  In  In14  1  0.000000  0.627984  0.749788  1
  In  In15  1  0.000000  0.372016  0.250212  1
  In  In16  1  0.372016  0.372016  0.749788  1
  In  In17  1  0.627984  0.627984  0.250212  1
