# generated using pymatgen
data_Tm10ZnSn6Te
_symmetry_space_group_name_H-M   'P 1'
_cell_length_a   9.05080300
_cell_length_b   9.05080160
_cell_length_c   6.48301400
_cell_angle_alpha   90.00000000
_cell_angle_beta   90.00000000
_cell_angle_gamma   120.00000145
_symmetry_Int_Tables_number   1
_chemical_formula_structural   Tm10ZnSn6Te
_chemical_formula_sum   'Tm10 Zn1 Sn6 Te1'
_cell_volume   459.91941384
_cell_formula_units_Z   1
loop_
 _symmetry_equiv_pos_site_id
 _symmetry_equiv_pos_as_xyz
  1  'x, y, z'
loop_
 _atom_site_type_symbol
 _atom_site_label
 _atom_site_symmetry_multiplicity
 _atom_site_fract_x
 _atom_site_fract_y
 _atom_site_fract_z
 _atom_site_occupancy
  Tm  Tm0  1  0.666667  0.333333  0.000000  1
  Tm  Tm1  1  0.333333  0.666667  0.000000  1
  Tm  Tm2  1  0.333333  0.666667  0.500000  1
  Tm  Tm3  1  0.666667  0.333333  0.500000  1
  Tm  Tm4  1  0.732210  0.732210  0.743416  1
  Tm  Tm5  1  0.267790  0.000000  0.743416  1
  Tm  Tm6  1  0.000000  0.267790  0.743416  1
  Tm  Tm7  1  0.267790  0.267790  0.256584  1
  Tm  Tm8  1  0.732210  0.000000  0.256584  1
  Tm  Tm9  1  0.000000  0.732210  0.256584  1
  Zn  Zn10  1  0.000000  0.000000  0.500000  1
  Sn  Sn11  1  0.387719  0.387719  0.750146  1
  Sn  Sn12  1  0.612281  0.000000  0.750146  1
  Sn  Sn13  1  0.000000  0.612281  0.750146  1
  Sn  Sn14  1  0.612281  0.612281  0.249854  1
  Sn  Sn15  1  0.387719  0.000000  0.249854  1
  Sn  Sn16  1  0.000000  0.387719  0.249854  1
  Te  Te17  1  0.000000  0.000000  0.000000  1
