# generated using pymatgen
data_Hf7Zr13(CoAs3)4
_symmetry_space_group_name_H-M   'P 1'
_cell_length_a   17.56009794
_cell_length_b   3.72224300
_cell_length_c   10.49919357
_cell_angle_alpha   90.00000546
_cell_angle_beta   89.96243977
_cell_angle_gamma   90.00002844
_symmetry_Int_Tables_number   1
_chemical_formula_structural   Hf7Zr13(CoAs3)4
_chemical_formula_sum   'Hf7 Zr13 Co4 As12'
_cell_volume   686.25813382
_cell_formula_units_Z   1
loop_
 _symmetry_equiv_pos_site_id
 _symmetry_equiv_pos_as_xyz
  1  'x, y, z'
loop_
 _atom_site_type_symbol
 _atom_site_label
 _atom_site_symmetry_multiplicity
 _atom_site_fract_x
 _atom_site_fract_y
 _atom_site_fract_z
 _atom_site_occupancy
  Hf  Hf0  1  0.223753  0.750000  0.016138  1
  Hf  Hf1  1  0.776389  0.250002  0.983978  1
  Hf  Hf2  1  0.723846  0.750000  0.483799  1
  Hf  Hf3  1  0.167097  0.250001  0.242110  1
  Hf  Hf4  1  0.333485  0.750000  0.742441  1
  Hf  Hf5  1  0.667538  0.250001  0.257889  1
  Hf  Hf6  1  0.832513  0.750000  0.758080  1
  Zr  Zr7  1  0.367280  0.250001  0.185226  1
  Zr  Zr8  1  0.132290  0.750000  0.685651  1
  Zr  Zr9  1  0.866801  0.250001  0.314496  1
  Zr  Zr10  1  0.633344  0.750000  0.814843  1
  Zr  Zr11  1  0.076957  0.250002  0.941159  1
  Zr  Zr12  1  0.423392  0.750000  0.441821  1
  Zr  Zr13  1  0.577186  0.250001  0.558670  1
  Zr  Zr14  1  0.923119  0.749999  0.058822  1
  Zr  Zr15  1  0.477486  0.250001  0.880151  1
  Zr  Zr16  1  0.022186  0.750000  0.379219  1
  Zr  Zr17  1  0.976374  0.250001  0.620683  1
  Zr  Zr18  1  0.523058  0.750000  0.120434  1
  Zr  Zr19  1  0.274894  0.250001  0.515089  1
  Co  Co20  1  0.407648  0.250001  0.633787  1
  Co  Co21  1  0.093452  0.750000  0.132881  1
  Co  Co22  1  0.906264  0.250001  0.867253  1
  Co  Co23  1  0.593995  0.750000  0.367378  1
  As  As24  1  0.220466  0.250001  0.815350  1
  As  As25  1  0.279875  0.750000  0.314061  1
  As  As26  1  0.720353  0.250001  0.683778  1
  As  As27  1  0.779827  0.750000  0.183691  1
  As  As28  1  0.117900  0.250001  0.491873  1
  As  As29  1  0.380465  0.750000  0.991719  1
  As  As30  1  0.619891  0.250001  0.008520  1
  As  As31  1  0.880149  0.750000  0.508318  1
  As  As32  1  0.009146  0.250001  0.187347  1
  As  As33  1  0.491487  0.750000  0.688233  1
  As  As34  1  0.509559  0.250001  0.312456  1
  As  As35  1  0.990534  0.750000  0.812656  1
