# generated using pymatgen
data_Hg(HSe10)2
_symmetry_space_group_name_H-M   'P 1'
_cell_length_a   18.20483105
_cell_length_b   18.20483119
_cell_length_c   12.55349707
_cell_angle_alpha   71.89212104
_cell_angle_beta   71.89212081
_cell_angle_gamma   12.87984599
_symmetry_Int_Tables_number   1
_chemical_formula_structural   Hg(HSe10)2
_chemical_formula_sum   'Hg1 H2 Se20'
_cell_volume   880.85806565
_cell_formula_units_Z   1
loop_
 _symmetry_equiv_pos_site_id
 _symmetry_equiv_pos_as_xyz
  1  'x, y, z'
loop_
 _atom_site_type_symbol
 _atom_site_label
 _atom_site_symmetry_multiplicity
 _atom_site_fract_x
 _atom_site_fract_y
 _atom_site_fract_z
 _atom_site_occupancy
  Hg  Hg0  1  0.000000  0.000000  0.500000  1
  H  H1  1  0.355675  0.355675  0.119588  1
  H  H2  1  0.644325  0.644325  0.880412  1
  Se  Se3  1  0.425507  0.425507  0.342813  1
  Se  Se4  1  0.704797  0.704797  0.162092  1
  Se  Se5  1  0.295203  0.295203  0.837908  1
  Se  Se6  1  0.944883  0.944883  0.804280  1
  Se  Se7  1  0.055117  0.055117  0.195720  1
  Se  Se8  1  0.824020  0.824020  0.382841  1
  Se  Se9  1  0.175980  0.175980  0.617159  1
  Se  Se10  1  0.574493  0.574493  0.657187  1
  Se  Se11  1  0.172899  0.172899  0.211198  1
  Se  Se12  1  0.686197  0.686197  0.873054  1
  Se  Se13  1  0.313803  0.313803  0.126946  1
  Se  Se14  1  0.827101  0.827101  0.788802  1
  Se  Se15  1  0.359431  0.359431  0.466541  1
  Se  Se16  1  0.709403  0.709403  0.675179  1
  Se  Se17  1  0.290597  0.290597  0.324821  1
  Se  Se18  1  0.640569  0.640569  0.533459  1
  Se  Se19  1  0.461713  0.461713  0.866527  1
  Se  Se20  1  0.538287  0.538287  0.133473  1
  Se  Se21  1  0.929744  0.929744  0.239692  1
  Se  Se22  1  0.070256  0.070256  0.760308  1
