# generated using pymatgen
data_CaDy4Y2FeI12
_symmetry_space_group_name_H-M   'P 1'
_cell_length_a   9.72909691
_cell_length_b   9.81344315
_cell_length_c   9.74819772
_cell_angle_alpha   106.95993020
_cell_angle_beta   106.79110201
_cell_angle_gamma   106.84504545
_symmetry_Int_Tables_number   1
_chemical_formula_structural   CaDy4Y2FeI12
_chemical_formula_sum   'Ca1 Dy4 Y2 Fe1 I12'
_cell_volume   777.93907999
_cell_formula_units_Z   1
loop_
 _symmetry_equiv_pos_site_id
 _symmetry_equiv_pos_as_xyz
  1  'x, y, z'
loop_
 _atom_site_type_symbol
 _atom_site_label
 _atom_site_symmetry_multiplicity
 _atom_site_fract_x
 _atom_site_fract_y
 _atom_site_fract_z
 _atom_site_occupancy
  Ca  Ca0  1  0.500060  0.499901  0.499915  1
  Dy  Dy1  1  0.714457  0.977148  0.907256  1
  Dy  Dy2  1  0.976702  0.908542  0.715428  1
  Dy  Dy3  1  0.097025  0.299817  0.023899  1
  Dy  Dy4  1  0.285484  0.022876  0.092331  1
  Y  Y5  1  0.902727  0.698366  0.976005  1
  Y  Y6  1  0.023442  0.092196  0.285686  1
  Fe  Fe7  1  0.000136  0.000242  0.999776  1
  I  I8  1  0.072617  0.222021  0.681105  1
  I  I9  1  0.377486  0.149594  0.455036  1
  I  I10  1  0.623136  0.850483  0.545147  1
  I  I11  1  0.227382  0.682328  0.074255  1
  I  I12  1  0.773051  0.318093  0.925816  1
  I  I13  1  0.682323  0.073079  0.223370  1
  I  I14  1  0.544825  0.625556  0.851908  1
  I  I15  1  0.852069  0.546587  0.622071  1
  I  I16  1  0.926938  0.777516  0.319053  1
  I  I17  1  0.316761  0.926964  0.776076  1
  I  I18  1  0.454969  0.374530  0.148031  1
  I  I19  1  0.148408  0.454163  0.377836  1
