# generated using pymatgen
data_Tb8Tm2IrRu3
_symmetry_space_group_name_H-M   'P 1'
_cell_length_a   6.38729529
_cell_length_b   7.30355949
_cell_length_c   8.50693809
_cell_angle_alpha   96.70195628
_cell_angle_beta   111.89482746
_cell_angle_gamma   90.18755910
_symmetry_Int_Tables_number   1
_chemical_formula_structural   Tb8Tm2IrRu3
_chemical_formula_sum   'Tb8 Tm2 Ir1 Ru3'
_cell_volume   365.23590000
_cell_formula_units_Z   1
loop_
 _symmetry_equiv_pos_site_id
 _symmetry_equiv_pos_as_xyz
  1  'x, y, z'
loop_
 _atom_site_type_symbol
 _atom_site_label
 _atom_site_symmetry_multiplicity
 _atom_site_fract_x
 _atom_site_fract_y
 _atom_site_fract_z
 _atom_site_occupancy
  Tb  Tb0  1  0.793014  0.082050  0.815357  1
  Tb  Tb1  1  0.977473  0.415414  0.185848  1
  Tb  Tb2  1  0.208164  0.915825  0.184980  1
  Tb  Tb3  1  0.024916  0.585093  0.815503  1
  Tb  Tb4  1  0.205975  0.184639  0.566476  1
  Tb  Tb5  1  0.640608  0.314694  0.431962  1
  Tb  Tb6  1  0.792819  0.814491  0.432841  1
  Tb  Tb7  1  0.358218  0.686537  0.565667  1
  Tm  Tm8  1  0.422795  0.249850  0.000251  1
  Tm  Tm9  1  0.577183  0.751019  0.000742  1
  Ir  Ir10  1  0.601483  0.424988  0.782318  1
  Ru  Ru11  1  0.821106  0.075757  0.217792  1
  Ru  Ru12  1  0.396511  0.574556  0.218214  1
  Ru  Ru13  1  0.179734  0.925086  0.782047  1
