# generated using pymatgen
data_Dy3Er4Tm3Ru4
_symmetry_space_group_name_H-M   'P 1'
_cell_length_a   6.29240973
_cell_length_b   7.26168015
_cell_length_c   8.40679067
_cell_angle_alpha   96.84489958
_cell_angle_beta   112.08481413
_cell_angle_gamma   90.00833708
_symmetry_Int_Tables_number   1
_chemical_formula_structural   Dy3Er4Tm3Ru4
_chemical_formula_sum   'Dy3 Er4 Tm3 Ru4'
_cell_volume   352.99151738
_cell_formula_units_Z   1
loop_
 _symmetry_equiv_pos_site_id
 _symmetry_equiv_pos_as_xyz
  1  'x, y, z'
loop_
 _atom_site_type_symbol
 _atom_site_label
 _atom_site_symmetry_multiplicity
 _atom_site_fract_x
 _atom_site_fract_y
 _atom_site_fract_z
 _atom_site_occupancy
  Dy  Dy0  1  0.789971  0.083683  0.811954  1
  Dy  Dy1  1  0.977127  0.416469  0.186934  1
  Dy  Dy2  1  0.210497  0.916003  0.187390  1
  Er  Er3  1  0.022123  0.584271  0.813095  1
  Er  Er4  1  0.205646  0.184227  0.566137  1
  Er  Er5  1  0.640099  0.316125  0.434883  1
  Er  Er6  1  0.794632  0.815469  0.434393  1
  Tm  Tm7  1  0.359959  0.684345  0.566144  1
  Tm  Tm8  1  0.419520  0.250017  0.999607  1
  Tm  Tm9  1  0.579601  0.749914  0.999623  1
  Ru  Ru10  1  0.601976  0.425113  0.778924  1
  Ru  Ru11  1  0.821375  0.076472  0.220975  1
  Ru  Ru12  1  0.399381  0.575479  0.220670  1
  Ru  Ru13  1  0.178093  0.922416  0.779270  1
