# generated using pymatgen
data_Ho16Tl2CdNi4Ag
_symmetry_space_group_name_H-M   'P 1'
_cell_length_a   9.48512156
_cell_length_b   9.47747074
_cell_length_c   9.51279100
_cell_angle_alpha   59.87664650
_cell_angle_beta   59.90345822
_cell_angle_gamma   60.01539098
_symmetry_Int_Tables_number   1
_chemical_formula_structural   Ho16Tl2CdNi4Ag
_chemical_formula_sum   'Ho16 Tl2 Cd1 Ni4 Ag1'
_cell_volume   603.74680646
_cell_formula_units_Z   1
loop_
 _symmetry_equiv_pos_site_id
 _symmetry_equiv_pos_as_xyz
  1  'x, y, z'
loop_
 _atom_site_type_symbol
 _atom_site_label
 _atom_site_symmetry_multiplicity
 _atom_site_fract_x
 _atom_site_fract_y
 _atom_site_fract_z
 _atom_site_occupancy
  Ho  Ho0  1  0.347173  0.347899  0.347989  1
  Ho  Ho1  1  0.347173  0.347899  0.956939  1
  Ho  Ho2  1  0.353217  0.949740  0.348521  1
  Ho  Ho3  1  0.949309  0.352761  0.348964  1
  Ho  Ho4  1  0.811265  0.188666  0.189021  1
  Ho  Ho5  1  0.188276  0.811794  0.811243  1
  Ho  Ho6  1  0.188276  0.811794  0.188686  1
  Ho  Ho7  1  0.811265  0.188666  0.811047  1
  Ho  Ho8  1  0.188421  0.188813  0.811383  1
  Ho  Ho9  1  0.810201  0.811168  0.189316  1
  Ho  Ho10  1  0.938376  0.565616  0.563390  1
  Ho  Ho11  1  0.563786  0.943196  0.930014  1
  Ho  Ho12  1  0.563786  0.943196  0.563006  1
  Ho  Ho13  1  0.938376  0.565616  0.932616  1
  Ho  Ho14  1  0.563728  0.565638  0.935317  1
  Ho  Ho15  1  0.936422  0.942059  0.560759  1
  Tl  Tl16  1  0.582790  0.579926  0.588263  1
  Tl  Tl17  1  0.582790  0.579926  0.249021  1
  Cd  Cd18  1  0.256123  0.575211  0.584334  1
  Ni  Ni19  1  0.141633  0.140847  0.146448  1
  Ni  Ni20  1  0.141633  0.140847  0.571072  1
  Ni  Ni21  1  0.140922  0.573385  0.142846  1
  Ni  Ni22  1  0.572905  0.141035  0.143029  1
  Ag  Ag23  1  0.582157  0.244298  0.586772  1
