# generated using pymatgen
data_Ho3CdAg2C
_symmetry_space_group_name_H-M   'P 1'
_cell_length_a   9.37514101
_cell_length_b   9.37498144
_cell_length_c   9.37483100
_cell_angle_alpha   119.99777197
_cell_angle_beta   90.00288461
_cell_angle_gamma   120.00031257
_symmetry_Int_Tables_number   1
_chemical_formula_structural   Ho3CdAg2C
_chemical_formula_sum   'Ho12 Cd4 Ag8 C4'
_cell_volume   582.63734172
_cell_formula_units_Z   4
loop_
 _symmetry_equiv_pos_site_id
 _symmetry_equiv_pos_as_xyz
  1  'x, y, z'
loop_
 _atom_site_type_symbol
 _atom_site_label
 _atom_site_symmetry_multiplicity
 _atom_site_fract_x
 _atom_site_fract_y
 _atom_site_fract_z
 _atom_site_occupancy
  Ho  Ho0  1  0.935013  0.370069  0.185032  1
  Ho  Ho1  1  0.935046  0.750028  0.185039  1
  Ho  Ho2  1  0.314920  0.749974  0.185054  1
  Ho  Ho3  1  0.685033  0.249981  0.435030  1
  Ho  Ho4  1  0.685057  0.870103  0.435054  1
  Ho  Ho5  1  0.064909  0.249994  0.435069  1
  Ho  Ho6  1  0.314922  0.129879  0.564949  1
  Ho  Ho7  1  0.314944  0.750006  0.564969  1
  Ho  Ho8  1  0.935073  0.749986  0.564921  1
  Ho  Ho9  1  0.685062  0.250026  0.814953  1
  Ho  Ho10  1  0.064959  0.629912  0.814949  1
  Ho  Ho11  1  0.064955  0.249986  0.814961  1
  Cd  Cd12  1  0.000104  0.000129  0.000129  1
  Cd  Cd13  1  0.499959  0.999979  0.000003  1
  Cd  Cd14  1  0.500106  0.500040  0.000042  1
  Cd  Cd15  1  0.500083  0.500000  0.499924  1
  Ag  Ag16  1  0.708719  0.917433  0.126179  1
  Ag  Ag17  1  0.291275  0.082515  0.208725  1
  Ag  Ag18  1  0.291243  0.417465  0.208762  1
  Ag  Ag19  1  0.626231  0.417516  0.208745  1
  Ag  Ag20  1  0.373737  0.582456  0.791224  1
  Ag  Ag21  1  0.708724  0.582500  0.791209  1
  Ag  Ag22  1  0.708709  0.917489  0.791282  1
  Ag  Ag23  1  0.291230  0.082527  0.873792  1
  C  C24  1  0.000012  0.500003  0.000001  1
  C  C25  1  0.999992  0.999992  0.499979  1
  C  C26  1  0.500002  0.000017  0.500025  1
  C  C27  1  0.999988  0.500007  0.500006  1
