# generated using pymatgen
data_Tm3Mg5(B6Os)4
_symmetry_space_group_name_H-M   'P 1'
_cell_length_a   3.53880400
_cell_length_b   8.88035737
_cell_length_c   11.17364673
_cell_angle_alpha   89.91812028
_cell_angle_beta   90.00000513
_cell_angle_gamma   89.99999355
_symmetry_Int_Tables_number   1
_chemical_formula_structural   Tm3Mg5(B6Os)4
_chemical_formula_sum   'Tm3 Mg5 B24 Os4'
_cell_volume   351.14092238
_cell_formula_units_Z   1
loop_
 _symmetry_equiv_pos_site_id
 _symmetry_equiv_pos_as_xyz
  1  'x, y, z'
loop_
 _atom_site_type_symbol
 _atom_site_label
 _atom_site_symmetry_multiplicity
 _atom_site_fract_x
 _atom_site_fract_y
 _atom_site_fract_z
 _atom_site_occupancy
  Tm  Tm0  1  0.000000  0.323640  0.414055  1
  Tm  Tm1  1  0.000000  0.675106  0.587823  1
  Tm  Tm2  1  0.000001  0.824417  0.084782  1
  Mg  Mg3  1  0.999999  0.167833  0.911673  1
  Mg  Mg4  1  0.000000  0.946809  0.371264  1
  Mg  Mg5  1  0.000000  0.055755  0.629299  1
  Mg  Mg6  1  0.000000  0.445927  0.126536  1
  Mg  Mg7  1  0.999998  0.555238  0.873263  1
  B  B8  1  0.500000  0.555764  0.433537  1
  B  B9  1  0.500000  0.443504  0.567581  1
  B  B10  1  0.499999  0.055418  0.064696  1
  B  B11  1  0.500000  0.944243  0.933053  1
  B  B12  1  0.500001  0.756664  0.418840  1
  B  B13  1  0.499999  0.243610  0.583204  1
  B  B14  1  0.500000  0.257314  0.078569  1
  B  B15  1  0.500000  0.744162  0.918103  1
  B  B16  1  0.500001  0.795790  0.262428  1
  B  B17  1  0.499999  0.203831  0.739521  1
  B  B18  1  0.500000  0.295175  0.236685  1
  B  B19  1  0.500001  0.704582  0.762815  1
  B  B20  1  0.500000  0.629786  0.181764  1
  B  B21  1  0.499999  0.369146  0.821023  1
  B  B22  1  0.500000  0.129900  0.317435  1
  B  B23  1  0.500001  0.870894  0.682130  1
  B  B24  1  0.500000  0.982518  0.211840  1
  B  B25  1  0.500000  0.019984  0.788277  1
  B  B26  1  0.500000  0.481591  0.286759  1
  B  B27  1  0.500000  0.518159  0.713756  1
  B  B28  1  0.500000  0.593210  0.025128  1
  B  B29  1  0.499999  0.407340  0.975002  1
  B  B30  1  0.500000  0.093365  0.474913  1
  B  B31  1  0.500000  0.907071  0.525500  1
  Os  Os32  1  0.000001  0.641560  0.319137  1
  Os  Os33  1  0.999999  0.359401  0.683886  1
  Os  Os34  1  0.999999  0.142403  0.177490  1
  Os  Os35  1  0.000001  0.858893  0.818231  1
