# generated using pymatgen
data_La7Nd13Si16
_symmetry_space_group_name_H-M   'P 1'
_cell_length_a   7.92054215
_cell_length_b   7.92264076
_cell_length_c   15.33545425
_cell_angle_alpha   90.05436490
_cell_angle_beta   89.96988838
_cell_angle_gamma   90.05375454
_symmetry_Int_Tables_number   1
_chemical_formula_structural   La7Nd13Si16
_chemical_formula_sum   'La7 Nd13 Si16'
_cell_volume   962.32345626
_cell_formula_units_Z   1
loop_
 _symmetry_equiv_pos_site_id
 _symmetry_equiv_pos_as_xyz
  1  'x, y, z'
loop_
 _atom_site_type_symbol
 _atom_site_label
 _atom_site_symmetry_multiplicity
 _atom_site_fract_x
 _atom_site_fract_y
 _atom_site_fract_z
 _atom_site_occupancy
  La  La0  1  0.012862  0.378153  0.552625  1
  La  La1  1  0.622340  0.986668  0.947743  1
  La  La2  1  0.121708  0.513339  0.803069  1
  La  La3  1  0.877976  0.487118  0.302277  1
  La  La4  1  0.512702  0.122031  0.197296  1
  La  La5  1  0.486945  0.877984  0.697438  1
  La  La6  1  0.378022  0.012800  0.447223  1
  Nd  Nd7  1  0.373394  0.481444  0.373219  1
  Nd  Nd8  1  0.873228  0.018258  0.376384  1
  Nd  Nd9  1  0.981333  0.126215  0.123142  1
  Nd  Nd10  1  0.018545  0.873443  0.623364  1
  Nd  Nd11  1  0.627157  0.519423  0.873849  1
  Nd  Nd12  1  0.481525  0.373418  0.626627  1
  Nd  Nd13  1  0.519312  0.627104  0.126257  1
  Nd  Nd14  1  0.126000  0.981244  0.876972  1
  Nd  Nd15  1  0.988823  0.619553  0.053557  1
  Nd  Nd16  1  0.691629  0.691892  0.500161  1
  Nd  Nd17  1  0.808359  0.191840  0.750148  1
  Nd  Nd18  1  0.191574  0.807657  0.249738  1
  Nd  Nd19  1  0.307753  0.308787  0.000090  1
  Si  Si20  1  0.079688  0.713573  0.439365  1
  Si  Si21  1  0.921173  0.287906  0.939837  1
  Si  Si22  1  0.713801  0.079669  0.560504  1
  Si  Si23  1  0.213187  0.421401  0.188882  1
  Si  Si24  1  0.786142  0.579258  0.689446  1
  Si  Si25  1  0.420586  0.213642  0.810646  1
  Si  Si26  1  0.579789  0.785951  0.310272  1
  Si  Si27  1  0.285037  0.919760  0.060596  1
  Si  Si28  1  0.830402  0.806773  0.795871  1
  Si  Si29  1  0.168859  0.194057  0.295970  1
  Si  Si30  1  0.807295  0.829967  0.202732  1
  Si  Si31  1  0.306153  0.669167  0.546209  1
  Si  Si32  1  0.694813  0.332310  0.046483  1
  Si  Si33  1  0.669343  0.306226  0.453766  1
  Si  Si34  1  0.328738  0.692761  0.954367  1
  Si  Si35  1  0.193807  0.169208  0.703876  1
