# generated using pymatgen
data_ThBe2Ir2Rh
_symmetry_space_group_name_H-M   'P 1'
_cell_length_a   5.50296661
_cell_length_b   5.50296712
_cell_length_c   3.42202200
_cell_angle_alpha   90.00000000
_cell_angle_beta   90.00000000
_cell_angle_gamma   119.68637487
_symmetry_Int_Tables_number   1
_chemical_formula_structural   ThBe2Ir2Rh
_chemical_formula_sum   'Th1 Be2 Ir2 Rh1'
_cell_volume   90.02664514
_cell_formula_units_Z   1
loop_
 _symmetry_equiv_pos_site_id
 _symmetry_equiv_pos_as_xyz
  1  'x, y, z'
loop_
 _atom_site_type_symbol
 _atom_site_label
 _atom_site_symmetry_multiplicity
 _atom_site_fract_x
 _atom_site_fract_y
 _atom_site_fract_z
 _atom_site_occupancy
  Th  Th0  1  0.000000  0.000000  0.000000  1
  Be  Be1  1  0.667117  0.332883  0.000000  1
  Be  Be2  1  0.332883  0.667117  0.000000  1
  Ir  Ir3  1  0.500000  0.000000  0.500000  1
  Ir  Ir4  1  0.000000  0.500000  0.500000  1
  Rh  Rh5  1  0.500000  0.500000  0.500000  1
