# generated using pymatgen
data_HoEr19(CoBi5)2
_symmetry_space_group_name_H-M   'P 1'
_cell_length_a   8.01348708
_cell_length_b   9.36070600
_cell_length_c   12.03093611
_cell_angle_alpha   90.00000000
_cell_angle_beta   90.01573473
_cell_angle_gamma   90.00000000
_symmetry_Int_Tables_number   1
_chemical_formula_structural   HoEr19(CoBi5)2
_chemical_formula_sum   'Ho1 Er19 Co2 Bi10'
_cell_volume   902.46330110
_cell_formula_units_Z   1
loop_
 _symmetry_equiv_pos_site_id
 _symmetry_equiv_pos_as_xyz
  1  'x, y, z'
loop_
 _atom_site_type_symbol
 _atom_site_label
 _atom_site_symmetry_multiplicity
 _atom_site_fract_x
 _atom_site_fract_y
 _atom_site_fract_z
 _atom_site_occupancy
  Ho  Ho0  1  0.573014  0.500000  0.772544  1
  Er  Er1  1  0.428356  0.176808  0.563061  1
  Er  Er2  1  0.571622  0.823157  0.063075  1
  Er  Er3  1  0.069983  0.728644  0.436423  1
  Er  Er4  1  0.930040  0.271373  0.936433  1
  Er  Er5  1  0.069983  0.271356  0.436423  1
  Er  Er6  1  0.930040  0.728627  0.936433  1
  Er  Er7  1  0.428356  0.823192  0.563061  1
  Er  Er8  1  0.571622  0.176843  0.063075  1
  Er  Er9  1  0.427030  0.500000  0.272511  1
  Er  Er10  1  0.908376  0.000000  0.201424  1
  Er  Er11  1  0.091566  0.000000  0.701441  1
  Er  Er12  1  0.260632  0.500000  0.993858  1
  Er  Er13  1  0.739403  0.500000  0.493734  1
  Er  Er14  1  0.198893  0.000000  0.996895  1
  Er  Er15  1  0.801081  0.000000  0.496867  1
  Er  Er16  1  0.090153  0.500000  0.718071  1
  Er  Er17  1  0.909744  0.500000  0.218141  1
  Er  Er18  1  0.372276  0.000000  0.308308  1
  Er  Er19  1  0.627769  0.000000  0.808294  1
  Co  Co20  1  0.171183  0.000000  0.487923  1
  Co  Co21  1  0.828767  0.000000  0.987964  1
  Bi  Bi22  1  0.813898  0.741347  0.672149  1
  Bi  Bi23  1  0.186350  0.258870  0.172266  1
  Bi  Bi24  1  0.679956  0.241993  0.325308  1
  Bi  Bi25  1  0.319811  0.758165  0.825337  1
  Bi  Bi26  1  0.679956  0.758007  0.325308  1
  Bi  Bi27  1  0.319811  0.241835  0.825337  1
  Bi  Bi28  1  0.813898  0.258653  0.672149  1
  Bi  Bi29  1  0.186350  0.741130  0.172266  1
  Bi  Bi30  1  0.345590  0.500000  0.526785  1
  Bi  Bi31  1  0.654492  0.500000  0.027140  1
