# generated using pymatgen
data_Tb7PrHf11Si16Au
_symmetry_space_group_name_H-M   'P 1'
_cell_length_a   7.32019175
_cell_length_b   7.32373652
_cell_length_c   13.31068115
_cell_angle_alpha   89.70854416
_cell_angle_beta   90.20072540
_cell_angle_gamma   89.80064784
_symmetry_Int_Tables_number   1
_chemical_formula_structural   Tb7PrHf11Si16Au
_chemical_formula_sum   'Tb7 Pr1 Hf11 Si16 Au1'
_cell_volume   713.58302337
_cell_formula_units_Z   1
loop_
 _symmetry_equiv_pos_site_id
 _symmetry_equiv_pos_as_xyz
  1  'x, y, z'
loop_
 _atom_site_type_symbol
 _atom_site_label
 _atom_site_symmetry_multiplicity
 _atom_site_fract_x
 _atom_site_fract_y
 _atom_site_fract_z
 _atom_site_occupancy
  Tb  Tb0  1  0.005298  0.654227  0.716521  1
  Tb  Tb1  1  0.155256  0.495894  0.465113  1
  Tb  Tb2  1  0.497262  0.848271  0.031860  1
  Tb  Tb3  1  0.848584  0.497911  0.966880  1
  Tb  Tb4  1  0.495971  0.154573  0.535803  1
  Tb  Tb5  1  0.346311  0.997281  0.788846  1
  Tb  Tb6  1  0.654000  0.004875  0.283998  1
  Pr  Pr7  1  0.995857  0.344689  0.209931  1
  Hf  Hf8  1  0.824636  0.825044  0.500616  1
  Hf  Hf9  1  0.323446  0.678425  0.249241  1
  Hf  Hf10  1  0.677580  0.322453  0.751111  1
  Hf  Hf11  1  0.146934  0.996684  0.374683  1
  Hf  Hf12  1  0.856854  0.003171  0.878893  1
  Hf  Hf13  1  0.504523  0.646760  0.626926  1
  Hf  Hf14  1  0.355552  0.491910  0.877371  1
  Hf  Hf15  1  0.490403  0.355502  0.121723  1
  Hf  Hf16  1  0.647027  0.506027  0.374288  1
  Hf  Hf17  1  0.996463  0.145142  0.626521  1
  Hf  Hf18  1  0.003049  0.856781  0.120278  1
  Si  Si19  1  0.363455  0.295635  0.317262  1
  Si  Si20  1  0.640094  0.704102  0.819856  1
  Si  Si21  1  0.206831  0.860911  0.568776  1
  Si  Si22  1  0.131761  0.775409  0.926574  1
  Si  Si23  1  0.770343  0.128434  0.071223  1
  Si  Si24  1  0.861060  0.206242  0.432905  1
  Si  Si25  1  0.296690  0.359379  0.683754  1
  Si  Si26  1  0.700600  0.642804  0.180512  1
  Si  Si27  1  0.296364  0.050284  0.188958  1
  Si  Si28  1  0.705851  0.950023  0.687154  1
  Si  Si29  1  0.449786  0.795048  0.436128  1
  Si  Si30  1  0.212228  0.569876  0.063130  1
  Si  Si31  1  0.565115  0.210071  0.935363  1
  Si  Si32  1  0.795093  0.449817  0.564751  1
  Si  Si33  1  0.052881  0.294032  0.811387  1
  Si  Si34  1  0.949095  0.709535  0.313950  1
  Au  Au35  1  0.177747  0.172779  0.997712  1
