# generated using pymatgen
data_YLuNi6(BIr)2
_symmetry_space_group_name_H-M   'P 1'
_cell_length_a   5.13978850
_cell_length_b   5.13978845
_cell_length_c   7.07099300
_cell_angle_alpha   90.00000000
_cell_angle_beta   90.00000000
_cell_angle_gamma   122.44661958
_symmetry_Int_Tables_number   1
_chemical_formula_structural   YLuNi6(BIr)2
_chemical_formula_sum   'Y1 Lu1 Ni6 B2 Ir2'
_cell_volume   157.63679458
_cell_formula_units_Z   1
loop_
 _symmetry_equiv_pos_site_id
 _symmetry_equiv_pos_as_xyz
  1  'x, y, z'
loop_
 _atom_site_type_symbol
 _atom_site_label
 _atom_site_symmetry_multiplicity
 _atom_site_fract_x
 _atom_site_fract_y
 _atom_site_fract_z
 _atom_site_occupancy
  Y  Y0  1  0.000000  0.000000  0.000000  1
  Lu  Lu1  1  0.000000  0.000000  0.500000  1
  Ni  Ni2  1  0.331565  0.668435  0.000000  1
  Ni  Ni3  1  0.668435  0.331565  0.000000  1
  Ni  Ni4  1  0.500000  0.000000  0.292636  1
  Ni  Ni5  1  0.000000  0.500000  0.292636  1
  Ni  Ni6  1  0.500000  0.000000  0.707364  1
  Ni  Ni7  1  0.000000  0.500000  0.707364  1
  B  B8  1  0.673078  0.326922  0.500000  1
  B  B9  1  0.326922  0.673078  0.500000  1
  Ir  Ir10  1  0.500000  0.500000  0.290987  1
  Ir  Ir11  1  0.500000  0.500000  0.709013  1
