# generated using pymatgen
data_Yb10ZnCu2Hg2Os
_symmetry_space_group_name_H-M   'P 1'
_cell_length_a   9.03089441
_cell_length_b   9.03089493
_cell_length_c   9.01696174
_cell_angle_alpha   129.48301909
_cell_angle_beta   129.48301992
_cell_angle_gamma   74.35137511
_symmetry_Int_Tables_number   1
_chemical_formula_structural   Yb10ZnCu2Hg2Os
_chemical_formula_sum   'Yb10 Zn1 Cu2 Hg2 Os1'
_cell_volume   426.74860044
_cell_formula_units_Z   1
loop_
 _symmetry_equiv_pos_site_id
 _symmetry_equiv_pos_as_xyz
  1  'x, y, z'
loop_
 _atom_site_type_symbol
 _atom_site_label
 _atom_site_symmetry_multiplicity
 _atom_site_fract_x
 _atom_site_fract_y
 _atom_site_fract_z
 _atom_site_occupancy
  Yb  Yb0  1  0.490566  0.503389  0.993955  1
  Yb  Yb1  1  0.003389  0.990566  0.993955  1
  Yb  Yb2  1  0.524631  0.024631  0.824876  1
  Yb  Yb3  1  0.186200  0.686200  0.141733  1
  Yb  Yb4  1  0.039100  0.203951  0.517570  1
  Yb  Yb5  1  0.703951  0.539100  0.517570  1
  Yb  Yb6  1  0.455534  0.955534  0.141733  1
  Yb  Yb7  1  0.800244  0.300244  0.824876  1
  Yb  Yb8  1  0.978470  0.813618  0.517570  1
  Yb  Yb9  1  0.313618  0.478470  0.517570  1
  Zn  Zn10  1  0.883320  0.383320  0.266637  1
  Cu  Cu11  1  0.613180  0.882104  0.495285  1
  Cu  Cu12  1  0.382104  0.113180  0.495285  1
  Hg  Hg13  1  0.254575  0.254575  0.009151  1
  Hg  Hg14  1  0.754575  0.754575  0.009151  1
  Os  Os15  1  0.116541  0.616541  0.733083  1
