# generated using pymatgen
data_Ta18Al8CoGe
_symmetry_space_group_name_H-M   'P 1'
_cell_length_a   9.93595709
_cell_length_b   9.93593734
_cell_length_c   9.93595043
_cell_angle_alpha   93.82805864
_cell_angle_beta   93.82760938
_cell_angle_gamma   150.05151036
_symmetry_Int_Tables_number   1
_chemical_formula_structural   Ta18Al8CoGe
_chemical_formula_sum   'Ta18 Al8 Co1 Ge1'
_cell_volume   473.06296656
_cell_formula_units_Z   1
loop_
 _symmetry_equiv_pos_site_id
 _symmetry_equiv_pos_as_xyz
  1  'x, y, z'
loop_
 _atom_site_type_symbol
 _atom_site_label
 _atom_site_symmetry_multiplicity
 _atom_site_fract_x
 _atom_site_fract_y
 _atom_site_fract_z
 _atom_site_occupancy
  Ta  Ta0  1  0.567449  0.794024  0.355995  1
  Ta  Ta1  1  0.072887  0.146696  0.234493  1
  Ta  Ta2  1  0.587799  0.353321  0.926189  1
  Ta  Ta3  1  0.661599  0.587798  0.234491  1
  Ta  Ta4  1  0.353309  0.427120  0.765512  1
  Ta  Ta5  1  0.794024  0.438023  0.226574  1
  Ta  Ta6  1  0.427097  0.661598  0.073803  1
  Ta  Ta7  1  0.146679  0.912201  0.073812  1
  Ta  Ta8  1  0.705977  0.932551  0.644005  1
  Ta  Ta9  1  0.438015  0.211445  0.643996  1
  Ta  Ta10  1  0.912202  0.838398  0.765513  1
  Ta  Ta11  1  0.061980  0.705976  0.773427  1
  Ta  Ta12  1  0.211451  0.567449  0.773431  1
  Ta  Ta13  1  0.250002  0.750000  0.500002  1
  Ta  Ta14  1  0.288553  0.061984  0.356002  1
  Ta  Ta15  1  0.750000  0.249997  0.499997  1
  Ta  Ta16  1  0.838402  0.072903  0.926199  1
  Ta  Ta17  1  0.932552  0.288549  0.226571  1
  Al  Al18  1  0.372266  0.872239  0.244505  1
  Al  Al19  1  0.872250  0.627747  0.499996  1
  Al  Al20  1  0.499691  0.000313  0.000002  1
  Al  Al21  1  0.127743  0.372252  0.499994  1
  Al  Al22  1  0.627760  0.127735  0.755495  1
  Al  Al23  1  0.000351  0.499650  0.000002  1
  Al  Al24  1  0.499665  0.499678  0.499331  1
  Al  Al25  1  0.000316  0.000329  0.500655  1
  Co  Co26  1  0.749995  0.750006  0.000001  1
  Ge  Ge27  1  0.249986  0.250019  0.000006  1
