# generated using pymatgen
data_Ta6Re5Si6Os
_symmetry_space_group_name_H-M   'P 1'
_cell_length_a   7.54699183
_cell_length_b   7.52694537
_cell_length_c   7.52694576
_cell_angle_alpha   127.77946542
_cell_angle_beta   122.93713242
_cell_angle_gamma   80.94565383
_symmetry_Int_Tables_number   1
_chemical_formula_structural   Ta6Re5Si6Os
_chemical_formula_sum   'Ta6 Re5 Si6 Os1'
_cell_volume   273.49229908
_cell_formula_units_Z   1
loop_
 _symmetry_equiv_pos_site_id
 _symmetry_equiv_pos_as_xyz
  1  'x, y, z'
loop_
 _atom_site_type_symbol
 _atom_site_label
 _atom_site_symmetry_multiplicity
 _atom_site_fract_x
 _atom_site_fract_y
 _atom_site_fract_z
 _atom_site_occupancy
  Ta  Ta0  1  0.556090  0.094060  0.044899  1
  Ta  Ta1  1  0.443910  0.488809  0.537970  1
  Ta  Ta2  1  0.974168  0.500376  0.037809  1
  Ta  Ta3  1  0.025832  0.063641  0.526207  1
  Ta  Ta4  1  0.754501  0.914104  0.663288  1
  Ta  Ta5  1  0.245499  0.908787  0.159603  1
  Re  Re6  1  0.000000  0.246440  0.246440  1
  Re  Re7  1  0.161789  0.748891  0.658253  1
  Re  Re8  1  0.838211  0.496464  0.587102  1
  Re  Re9  1  0.593934  0.747495  0.089613  1
  Re  Re10  1  0.406066  0.495679  0.153561  1
  Si  Si11  1  0.777268  0.530766  0.253032  1
  Si  Si12  1  0.222732  0.475764  0.753498  1
  Si  Si13  1  0.338025  0.833001  0.503190  1
  Si  Si14  1  0.661975  0.165166  0.494977  1
  Si  Si15  1  0.828707  0.825721  0.988849  1
  Si  Si16  1  0.171293  0.160142  0.997014  1
  Os  Os17  1  0.500000  0.246893  0.746893  1
