# generated using pymatgen
data_Hf6SnGeSb
_symmetry_space_group_name_H-M   'P 1'
_cell_length_a   3.88781800
_cell_length_b   7.55712678
_cell_length_c   7.55712800
_cell_angle_alpha   119.99999657
_cell_angle_beta   90.00000000
_cell_angle_gamma   90.00000000
_symmetry_Int_Tables_number   1
_chemical_formula_structural   Hf6SnGeSb
_chemical_formula_sum   'Hf6 Sn1 Ge1 Sb1'
_cell_volume   192.28706003
_cell_formula_units_Z   1
loop_
 _symmetry_equiv_pos_site_id
 _symmetry_equiv_pos_as_xyz
  1  'x, y, z'
loop_
 _atom_site_type_symbol
 _atom_site_label
 _atom_site_symmetry_multiplicity
 _atom_site_fract_x
 _atom_site_fract_y
 _atom_site_fract_z
 _atom_site_occupancy
  Hf  Hf0  1  0.500000  0.246742  0.002058  1
  Hf  Hf1  1  0.000000  0.604243  0.999086  1
  Hf  Hf2  1  0.500000  0.997942  0.244683  1
  Hf  Hf3  1  0.000000  0.394844  0.395758  1
  Hf  Hf4  1  0.000000  0.000914  0.605157  1
  Hf  Hf5  1  0.500000  0.755317  0.753258  1
  Sn  Sn6  1  0.500000  0.666668  0.333334  1
  Ge  Ge7  1  0.000000  0.000000  0.000000  1
  Sb  Sb8  1  0.500000  0.333334  0.666668  1
