# generated using pymatgen
data_Pr2Re3Tc14C3
_symmetry_space_group_name_H-M   'P 1'
_cell_length_a   7.03112177
_cell_length_b   7.03112146
_cell_length_c   7.03112177
_cell_angle_alpha   83.00212821
_cell_angle_beta   83.00213684
_cell_angle_gamma   83.00213938
_symmetry_Int_Tables_number   1
_chemical_formula_structural   Pr2Re3Tc14C3
_chemical_formula_sum   'Pr2 Re3 Tc14 C3'
_cell_volume   340.41048283
_cell_formula_units_Z   1
loop_
 _symmetry_equiv_pos_site_id
 _symmetry_equiv_pos_as_xyz
  1  'x, y, z'
loop_
 _atom_site_type_symbol
 _atom_site_label
 _atom_site_symmetry_multiplicity
 _atom_site_fract_x
 _atom_site_fract_y
 _atom_site_fract_z
 _atom_site_occupancy
  Pr  Pr0  1  0.649161  0.649161  0.649161  1
  Pr  Pr1  1  0.350839  0.350839  0.350839  1
  Re  Re2  1  0.000000  0.000000  0.500000  1
  Re  Re3  1  0.500000  0.000000  0.000000  1
  Re  Re4  1  0.000000  0.500000  0.000000  1
  Tc  Tc5  1  0.721775  0.278225  0.000000  1
  Tc  Tc6  1  0.000000  0.721775  0.278225  1
  Tc  Tc7  1  0.278225  0.000000  0.721775  1
  Tc  Tc8  1  0.000000  0.278225  0.721775  1
  Tc  Tc9  1  0.721775  0.000000  0.278225  1
  Tc  Tc10  1  0.278225  0.721775  0.000000  1
  Tc  Tc11  1  0.347467  0.347467  0.867172  1
  Tc  Tc12  1  0.867172  0.347467  0.347467  1
  Tc  Tc13  1  0.347467  0.867172  0.347467  1
  Tc  Tc14  1  0.652533  0.652533  0.132828  1
  Tc  Tc15  1  0.132828  0.652533  0.652533  1
  Tc  Tc16  1  0.652533  0.132828  0.652533  1
  Tc  Tc17  1  0.902942  0.902942  0.902942  1
  Tc  Tc18  1  0.097058  0.097058  0.097058  1
  C  C19  1  0.500000  0.500000  0.000000  1
  C  C20  1  0.000000  0.500000  0.500000  1
  C  C21  1  0.500000  0.000000  0.500000  1
