# generated using pymatgen
data_Cs8Na4YHo3Sb8
_symmetry_space_group_name_H-M   'P 1'
_cell_length_a   11.64146976
_cell_length_b   11.64146833
_cell_length_c   7.59061711
_cell_angle_alpha   89.98482628
_cell_angle_beta   90.01517246
_cell_angle_gamma   99.80236561
_symmetry_Int_Tables_number   1
_chemical_formula_structural   Cs8Na4YHo3Sb8
_chemical_formula_sum   'Cs8 Na4 Y1 Ho3 Sb8'
_cell_volume   1013.69096590
_cell_formula_units_Z   1
loop_
 _symmetry_equiv_pos_site_id
 _symmetry_equiv_pos_as_xyz
  1  'x, y, z'
loop_
 _atom_site_type_symbol
 _atom_site_label
 _atom_site_symmetry_multiplicity
 _atom_site_fract_x
 _atom_site_fract_y
 _atom_site_fract_z
 _atom_site_occupancy
  Cs  Cs0  1  0.070633  0.429342  0.249994  1
  Cs  Cs1  1  0.429342  0.070633  0.750006  1
  Cs  Cs2  1  0.929466  0.570617  0.750065  1
  Cs  Cs3  1  0.570617  0.929466  0.249935  1
  Cs  Cs4  1  0.677041  0.322892  0.212982  1
  Cs  Cs5  1  0.822978  0.177037  0.713033  1
  Cs  Cs6  1  0.322892  0.677041  0.787018  1
  Cs  Cs7  1  0.177037  0.822978  0.286967  1
  Na  Na8  1  0.382006  0.382006  0.000000  1
  Na  Na9  1  0.117978  0.117978  0.500000  1
  Na  Na10  1  0.617970  0.617970  0.000000  1
  Na  Na11  1  0.882094  0.882094  0.500000  1
  Y  Y12  1  0.630863  0.630863  0.500000  1
  Ho  Ho13  1  0.130687  0.130687  0.000000  1
  Ho  Ho14  1  0.369208  0.369208  0.500000  1
  Ho  Ho15  1  0.869394  0.869394  0.000000  1
  Sb  Sb16  1  0.842376  0.658317  0.249284  1
  Sb  Sb17  1  0.658317  0.842376  0.750716  1
  Sb  Sb18  1  0.158233  0.341764  0.749980  1
  Sb  Sb19  1  0.341764  0.158233  0.250020  1
  Sb  Sb20  1  0.904974  0.095030  0.210006  1
  Sb  Sb21  1  0.594772  0.404326  0.710477  1
  Sb  Sb22  1  0.095030  0.904974  0.789994  1
  Sb  Sb23  1  0.404326  0.594772  0.289523  1
