# generated using pymatgen
data_Hf2Nb3B4Ru10W
_symmetry_space_group_name_H-M   'P 1'
_cell_length_a   9.46087903
_cell_length_b   9.45232437
_cell_length_c   3.05418000
_cell_angle_alpha   90.00000000
_cell_angle_beta   90.00000000
_cell_angle_gamma   89.96437785
_symmetry_Int_Tables_number   1
_chemical_formula_structural   Hf2Nb3B4Ru10W
_chemical_formula_sum   'Hf2 Nb3 B4 Ru10 W1'
_cell_volume   273.12701049
_cell_formula_units_Z   1
loop_
 _symmetry_equiv_pos_site_id
 _symmetry_equiv_pos_as_xyz
  1  'x, y, z'
loop_
 _atom_site_type_symbol
 _atom_site_label
 _atom_site_symmetry_multiplicity
 _atom_site_fract_x
 _atom_site_fract_y
 _atom_site_fract_z
 _atom_site_occupancy
  Hf  Hf0  1  0.824129  0.676369  0.000000  1
  Hf  Hf1  1  0.175871  0.323631  0.000000  1
  Nb  Nb2  1  0.323224  0.824285  0.000000  1
  Nb  Nb3  1  0.676776  0.175715  0.000000  1
  Nb  Nb4  1  0.000000  0.000000  0.000000  1
  B  B5  1  0.621530  0.880402  0.000000  1
  B  B6  1  0.378470  0.119598  0.000000  1
  B  B7  1  0.120243  0.622223  0.000000  1
  B  B8  1  0.879757  0.377777  0.000000  1
  Ru  Ru9  1  0.567893  0.716792  0.500000  1
  Ru  Ru10  1  0.432107  0.283208  0.500000  1
  Ru  Ru11  1  0.074884  0.781836  0.500000  1
  Ru  Ru12  1  0.925116  0.218164  0.500000  1
  Ru  Ru13  1  0.284872  0.571596  0.500000  1
  Ru  Ru14  1  0.715128  0.428404  0.500000  1
  Ru  Ru15  1  0.219855  0.070599  0.500000  1
  Ru  Ru16  1  0.780145  0.929401  0.500000  1
  Ru  Ru17  1  0.500000  0.000000  0.500000  1
  Ru  Ru18  1  0.000000  0.500000  0.500000  1
  W  W19  1  0.500000  0.500000  0.000000  1
