# generated using pymatgen
data_Nb2CoSn(BRu2)2
_symmetry_space_group_name_H-M   'P 1'
_cell_length_a   9.38016800
_cell_length_b   9.38016800
_cell_length_c   3.01293900
_cell_angle_alpha   90.00000000
_cell_angle_beta   90.00000000
_cell_angle_gamma   90.00000000
_symmetry_Int_Tables_number   1
_chemical_formula_structural   Nb2CoSn(BRu2)2
_chemical_formula_sum   'Nb4 Co2 Sn2 B4 Ru8'
_cell_volume   265.10112606
_cell_formula_units_Z   2
loop_
 _symmetry_equiv_pos_site_id
 _symmetry_equiv_pos_as_xyz
  1  'x, y, z'
loop_
 _atom_site_type_symbol
 _atom_site_label
 _atom_site_symmetry_multiplicity
 _atom_site_fract_x
 _atom_site_fract_y
 _atom_site_fract_z
 _atom_site_occupancy
  Nb  Nb0  1  0.824450  0.675550  0.000000  1
  Nb  Nb1  1  0.175550  0.324450  0.000000  1
  Nb  Nb2  1  0.324450  0.824450  0.000000  1
  Nb  Nb3  1  0.675550  0.175550  0.000000  1
  Co  Co4  1  0.500000  0.000000  0.500000  1
  Co  Co5  1  0.000000  0.500000  0.500000  1
  Sn  Sn6  1  0.500000  0.500000  0.000000  1
  Sn  Sn7  1  0.000000  0.000000  0.000000  1
  B  B8  1  0.611593  0.888407  0.000000  1
  B  B9  1  0.388407  0.111593  0.000000  1
  B  B10  1  0.111593  0.611593  0.000000  1
  B  B11  1  0.888407  0.388407  0.000000  1
  Ru  Ru12  1  0.563393  0.728455  0.500000  1
  Ru  Ru13  1  0.436607  0.271545  0.500000  1
  Ru  Ru14  1  0.063393  0.771545  0.500000  1
  Ru  Ru15  1  0.936607  0.228455  0.500000  1
  Ru  Ru16  1  0.271545  0.563393  0.500000  1
  Ru  Ru17  1  0.728455  0.436607  0.500000  1
  Ru  Ru18  1  0.228455  0.063393  0.500000  1
  Ru  Ru19  1  0.771545  0.936607  0.500000  1
