# generated using pymatgen
data_Dy10PdPb6Br
_symmetry_space_group_name_H-M   'P 1'
_cell_length_a   9.24118400
_cell_length_b   9.24118478
_cell_length_c   6.74079900
_cell_angle_alpha   90.00000000
_cell_angle_beta   90.00000000
_cell_angle_gamma   119.99999723
_symmetry_Int_Tables_number   1
_chemical_formula_structural   Dy10PdPb6Br
_chemical_formula_sum   'Dy10 Pd1 Pb6 Br1'
_cell_volume   498.53688141
_cell_formula_units_Z   1
loop_
 _symmetry_equiv_pos_site_id
 _symmetry_equiv_pos_as_xyz
  1  'x, y, z'
loop_
 _atom_site_type_symbol
 _atom_site_label
 _atom_site_symmetry_multiplicity
 _atom_site_fract_x
 _atom_site_fract_y
 _atom_site_fract_z
 _atom_site_occupancy
  Dy  Dy0  1  0.256802  0.000000  0.240391  1
  Dy  Dy1  1  0.743198  0.000000  0.759609  1
  Dy  Dy2  1  0.000000  0.256802  0.240391  1
  Dy  Dy3  1  0.000000  0.743198  0.759609  1
  Dy  Dy4  1  0.743198  0.743198  0.240391  1
  Dy  Dy5  1  0.256802  0.256802  0.759609  1
  Dy  Dy6  1  0.333333  0.666667  0.000000  1
  Dy  Dy7  1  0.666667  0.333333  0.000000  1
  Dy  Dy8  1  0.666667  0.333333  0.500000  1
  Dy  Dy9  1  0.333333  0.666667  0.500000  1
  Pd  Pd10  1  0.000000  0.000000  0.000000  1
  Pb  Pb11  1  0.608005  0.000000  0.251310  1
  Pb  Pb12  1  0.391995  0.000000  0.748690  1
  Pb  Pb13  1  0.000000  0.608005  0.251310  1
  Pb  Pb14  1  0.000000  0.391995  0.748690  1
  Pb  Pb15  1  0.391995  0.391995  0.251310  1
  Pb  Pb16  1  0.608005  0.608005  0.748690  1
  Br  Br17  1  0.000000  0.000000  0.500000  1
