# generated using pymatgen
data_Nd3MgCd2IrPd2
_symmetry_space_group_name_H-M   'P 1'
_cell_length_a   7.65761715
_cell_length_b   7.70505492
_cell_length_c   4.06757800
_cell_angle_alpha   90.00000000
_cell_angle_beta   90.00000000
_cell_angle_gamma   119.66490388
_symmetry_Int_Tables_number   1
_chemical_formula_structural   Nd3MgCd2IrPd2
_chemical_formula_sum   'Nd3 Mg1 Cd2 Ir1 Pd2'
_cell_volume   208.54149818
_cell_formula_units_Z   1
loop_
 _symmetry_equiv_pos_site_id
 _symmetry_equiv_pos_as_xyz
  1  'x, y, z'
loop_
 _atom_site_type_symbol
 _atom_site_label
 _atom_site_symmetry_multiplicity
 _atom_site_fract_x
 _atom_site_fract_y
 _atom_site_fract_z
 _atom_site_occupancy
  Nd  Nd0  1  0.585705  0.985680  0.000000  1
  Nd  Nd1  1  0.010595  0.593040  0.000000  1
  Nd  Nd2  1  0.405429  0.422809  0.000000  1
  Mg  Mg3  1  0.246657  0.000184  0.500000  1
  Cd  Cd4  1  0.997582  0.249024  0.500000  1
  Cd  Cd5  1  0.752922  0.748073  0.500000  1
  Ir  Ir6  1  0.331680  0.674356  0.500000  1
  Pd  Pd7  1  0.656524  0.325845  0.500000  1
  Pd  Pd8  1  0.012905  0.000988  0.000000  1
