# generated using pymatgen
data_Tb16Cd2Hg2OsPd3
_symmetry_space_group_name_H-M   'P 1'
_cell_length_a   9.71946908
_cell_length_b   9.71946861
_cell_length_c   9.72020657
_cell_angle_alpha   59.61197648
_cell_angle_beta   59.61197916
_cell_angle_gamma   59.65694938
_symmetry_Int_Tables_number   1
_chemical_formula_structural   Tb16Cd2Hg2OsPd3
_chemical_formula_sum   'Tb16 Cd2 Hg2 Os1 Pd3'
_cell_volume   643.79573547
_cell_formula_units_Z   1
loop_
 _symmetry_equiv_pos_site_id
 _symmetry_equiv_pos_as_xyz
  1  'x, y, z'
loop_
 _atom_site_type_symbol
 _atom_site_label
 _atom_site_symmetry_multiplicity
 _atom_site_fract_x
 _atom_site_fract_y
 _atom_site_fract_z
 _atom_site_occupancy
  Tb  Tb0  1  0.353740  0.353740  0.353120  1
  Tb  Tb1  1  0.351078  0.351078  0.944607  1
  Tb  Tb2  1  0.352140  0.942065  0.351460  1
  Tb  Tb3  1  0.942065  0.352140  0.351460  1
  Tb  Tb4  1  0.816167  0.188025  0.189393  1
  Tb  Tb5  1  0.187108  0.809611  0.809624  1
  Tb  Tb6  1  0.188025  0.816167  0.189393  1
  Tb  Tb7  1  0.809611  0.187108  0.809624  1
  Tb  Tb8  1  0.188163  0.188163  0.816796  1
  Tb  Tb9  1  0.808548  0.808548  0.188389  1
  Tb  Tb10  1  0.934504  0.565343  0.566283  1
  Tb  Tb11  1  0.557626  0.936713  0.937778  1
  Tb  Tb12  1  0.565343  0.934504  0.566283  1
  Tb  Tb13  1  0.936713  0.557626  0.937778  1
  Tb  Tb14  1  0.565312  0.565312  0.935947  1
  Tb  Tb15  1  0.936672  0.936672  0.558731  1
  Cd  Cd16  1  0.580291  0.255146  0.581116  1
  Cd  Cd17  1  0.255146  0.580291  0.581116  1
  Hg  Hg18  1  0.583694  0.583694  0.585624  1
  Hg  Hg19  1  0.584784  0.584784  0.241384  1
  Os  Os20  1  0.143794  0.143794  0.144506  1
  Pd  Pd21  1  0.145200  0.145200  0.568848  1
  Pd  Pd22  1  0.144888  0.569389  0.145370  1
  Pd  Pd23  1  0.569389  0.144888  0.145370  1
