# generated using pymatgen
data_Zr2CuPd2Au
_symmetry_space_group_name_H-M   'P 1'
_cell_length_a   3.50271600
_cell_length_b   7.01628415
_cell_length_c   8.62298730
_cell_angle_alpha   89.90432421
_cell_angle_beta   90.00000000
_cell_angle_gamma   90.00000000
_symmetry_Int_Tables_number   1
_chemical_formula_structural   Zr2CuPd2Au
_chemical_formula_sum   'Zr4 Cu2 Pd4 Au2'
_cell_volume   211.91867819
_cell_formula_units_Z   2
loop_
 _symmetry_equiv_pos_site_id
 _symmetry_equiv_pos_as_xyz
  1  'x, y, z'
loop_
 _atom_site_type_symbol
 _atom_site_label
 _atom_site_symmetry_multiplicity
 _atom_site_fract_x
 _atom_site_fract_y
 _atom_site_fract_z
 _atom_site_occupancy
  Zr  Zr0  1  0.250000  0.617524  0.749389  1
  Zr  Zr1  1  0.750000  0.382476  0.250611  1
  Zr  Zr2  1  0.250000  0.125389  0.762606  1
  Zr  Zr3  1  0.750000  0.874611  0.237394  1
  Cu  Cu4  1  0.750000  0.390572  0.924839  1
  Cu  Cu5  1  0.250000  0.609428  0.075161  1
  Pd  Pd6  1  0.250000  0.146259  0.079584  1
  Pd  Pd7  1  0.750000  0.853741  0.920416  1
  Pd  Pd8  1  0.250000  0.629809  0.400729  1
  Pd  Pd9  1  0.750000  0.370191  0.599271  1
  Au  Au10  1  0.750000  0.871741  0.585192  1
  Au  Au11  1  0.250000  0.128259  0.414808  1
