# generated using pymatgen
data_Yb3Er3Al13Si11Os8
_symmetry_space_group_name_H-M   'P 1'
_cell_length_a   8.71584879
_cell_length_b   8.70397681
_cell_length_c   9.24664401
_cell_angle_alpha   90.05741004
_cell_angle_beta   89.94528450
_cell_angle_gamma   120.17742527
_symmetry_Int_Tables_number   1
_chemical_formula_structural   Yb3Er3Al13Si11Os8
_chemical_formula_sum   'Yb3 Er3 Al13 Si11 Os8'
_cell_volume   606.40485525
_cell_formula_units_Z   1
loop_
 _symmetry_equiv_pos_site_id
 _symmetry_equiv_pos_as_xyz
  1  'x, y, z'
loop_
 _atom_site_type_symbol
 _atom_site_label
 _atom_site_symmetry_multiplicity
 _atom_site_fract_x
 _atom_site_fract_y
 _atom_site_fract_z
 _atom_site_occupancy
  Yb  Yb0  1  0.189883  0.379929  0.248814  1
  Yb  Yb1  1  0.808896  0.618491  0.750498  1
  Yb  Yb2  1  0.620739  0.809950  0.248721  1
  Er  Er3  1  0.385066  0.192479  0.750527  1
  Er  Er4  1  0.190808  0.808523  0.248242  1
  Er  Er5  1  0.807568  0.191885  0.750540  1
  Al  Al6  1  0.334217  0.666462  0.463740  1
  Al  Al7  1  0.166259  0.333133  0.577329  1
  Al  Al8  1  0.832735  0.665763  0.421871  1
  Al  Al9  1  0.667425  0.833701  0.576591  1
  Al  Al10  1  0.832395  0.665777  0.077895  1
  Al  Al11  1  0.334078  0.166509  0.419365  1
  Al  Al12  1  0.166984  0.335770  0.920700  1
  Al  Al13  1  0.166040  0.833664  0.578803  1
  Al  Al14  1  0.333822  0.166628  0.080323  1
  Al  Al15  1  0.832729  0.166258  0.420644  1
  Al  Al16  1  0.664602  0.832817  0.921539  1
  Al  Al17  1  0.832379  0.166358  0.078891  1
  Al  Al18  1  0.166890  0.832623  0.918599  1
  Si  Si19  1  0.333537  0.666893  0.052175  1
  Si  Si20  1  0.666781  0.334065  0.951209  1
  Si  Si21  1  0.667369  0.333931  0.548487  1
  Si  Si22  1  0.562392  0.120908  0.250024  1
  Si  Si23  1  0.439723  0.877556  0.748249  1
  Si  Si24  1  0.877960  0.437729  0.249849  1
  Si  Si25  1  0.119298  0.560218  0.748221  1
  Si  Si26  1  0.559918  0.441196  0.250320  1
  Si  Si27  1  0.441282  0.561465  0.748666  1
  Si  Si28  1  0.002256  0.998015  0.249254  1
  Si  Si29  1  0.001622  0.002561  0.749663  1
  Os  Os30  1  0.499177  0.001505  0.997305  1
  Os  Os31  1  0.997845  0.499321  0.998153  1
  Os  Os32  1  0.502781  0.007520  0.502876  1
  Os  Os33  1  0.499119  0.498216  0.997874  1
  Os  Os34  1  0.992514  0.496231  0.501803  1
  Os  Os35  1  0.503003  0.494721  0.503534  1
  Os  Os36  1  0.999573  0.000715  0.999286  1
  Os  Os37  1  0.000340  0.000515  0.499417  1
