# generated using pymatgen
data_Tm4Mn3PdF28
_symmetry_space_group_name_H-M   'P 1'
_cell_length_a   5.36959046
_cell_length_b   8.55762856
_cell_length_c   11.57380800
_cell_angle_alpha   62.85455726
_cell_angle_beta   90.02361364
_cell_angle_gamma   90.03965051
_symmetry_Int_Tables_number   1
_chemical_formula_structural   Tm4Mn3PdF28
_chemical_formula_sum   'Tm4 Mn3 Pd1 F28'
_cell_volume   473.24731936
_cell_formula_units_Z   1
loop_
 _symmetry_equiv_pos_site_id
 _symmetry_equiv_pos_as_xyz
  1  'x, y, z'
loop_
 _atom_site_type_symbol
 _atom_site_label
 _atom_site_symmetry_multiplicity
 _atom_site_fract_x
 _atom_site_fract_y
 _atom_site_fract_z
 _atom_site_occupancy
  Tm  Tm0  1  0.261382  0.812523  0.261829  1
  Tm  Tm1  1  0.738687  0.187211  0.735649  1
  Tm  Tm2  1  0.761978  0.191441  0.233783  1
  Tm  Tm3  1  0.236764  0.810949  0.767591  1
  Mn  Mn4  1  0.758583  0.726792  0.043548  1
  Mn  Mn5  1  0.240945  0.273101  0.956447  1
  Mn  Mn6  1  0.259770  0.273656  0.455824  1
  Pd  Pd7  1  0.740794  0.728687  0.542501  1
  F  F8  1  0.932174  0.697294  0.412842  1
  F  F9  1  0.069033  0.296445  0.578375  1
  F  F10  1  0.431339  0.296486  0.078926  1
  F  F11  1  0.567420  0.702841  0.921893  1
  F  F12  1  0.476256  0.725671  0.133555  1
  F  F13  1  0.523460  0.273003  0.866839  1
  F  F14  1  0.977815  0.277078  0.363844  1
  F  F15  1  0.044320  0.721756  0.635465  1
  F  F16  1  0.945857  0.745518  0.170670  1
  F  F17  1  0.053982  0.253717  0.828744  1
  F  F18  1  0.446055  0.256018  0.327057  1
  F  F19  1  0.556529  0.746351  0.680528  1
  F  F20  1  0.777529  0.486142  0.138313  1
  F  F21  1  0.222419  0.513893  0.862591  1
  F  F22  1  0.279897  0.514936  0.359689  1
  F  F23  1  0.720008  0.475683  0.643643  1
  F  F24  1  0.948909  0.277898  0.039844  1
  F  F25  1  0.050827  0.721870  0.960477  1
  F  F26  1  0.429265  0.722194  0.459163  1
  F  F27  1  0.551140  0.276614  0.540407  1
  F  F28  1  0.746397  0.981992  0.451111  1
  F  F29  1  0.254210  0.034402  0.546954  1
  F  F30  1  0.245361  0.033306  0.046672  1
  F  F31  1  0.754975  0.966122  0.953050  1
  F  F32  1  0.590304  0.969138  0.231197  1
  F  F33  1  0.408817  0.030950  0.771608  1
  F  F34  1  0.087852  0.030316  0.269658  1
  F  F35  1  0.908943  0.968003  0.729709  1
