# generated using pymatgen
data_Y2Er6Ti11Si16Os
_symmetry_space_group_name_H-M   'P 1'
_cell_length_a   7.00322046
_cell_length_b   7.00253381
_cell_length_c   12.85323419
_cell_angle_alpha   90.01822272
_cell_angle_beta   89.95452081
_cell_angle_gamma   89.92907600
_symmetry_Int_Tables_number   1
_chemical_formula_structural   Y2Er6Ti11Si16Os
_chemical_formula_sum   'Y2 Er6 Ti11 Si16 Os1'
_cell_volume   630.32559374
_cell_formula_units_Z   1
loop_
 _symmetry_equiv_pos_site_id
 _symmetry_equiv_pos_as_xyz
  1  'x, y, z'
loop_
 _atom_site_type_symbol
 _atom_site_label
 _atom_site_symmetry_multiplicity
 _atom_site_fract_x
 _atom_site_fract_y
 _atom_site_fract_z
 _atom_site_occupancy
  Y  Y0  1  0.340485  0.004454  0.467260  1
  Y  Y1  1  0.496685  0.840360  0.718459  1
  Er  Er2  1  0.499760  0.159239  0.214851  1
  Er  Er3  1  0.840809  0.497229  0.281730  1
  Er  Er4  1  0.158899  0.499403  0.785120  1
  Er  Er5  1  0.658239  0.998886  0.968765  1
  Er  Er6  1  0.003420  0.341211  0.532653  1
  Er  Er7  1  0.998770  0.658051  0.031448  1
  Ti  Ti8  1  0.174159  0.827616  0.248050  1
  Ti  Ti9  1  0.828015  0.174571  0.751845  1
  Ti  Ti10  1  0.674321  0.673441  0.499801  1
  Ti  Ti11  1  0.150726  0.003538  0.875452  1
  Ti  Ti12  1  0.492274  0.655274  0.124644  1
  Ti  Ti13  1  0.506919  0.349310  0.628137  1
  Ti  Ti14  1  0.655536  0.492054  0.875531  1
  Ti  Ti15  1  0.349370  0.506688  0.371867  1
  Ti  Ti16  1  0.848623  0.994203  0.374987  1
  Ti  Ti17  1  0.003199  0.151041  0.124761  1
  Ti  Ti18  1  0.993881  0.848566  0.624995  1
  Si  Si19  1  0.202328  0.132854  0.684854  1
  Si  Si20  1  0.371682  0.699625  0.933325  1
  Si  Si21  1  0.632443  0.297475  0.433966  1
  Si  Si22  1  0.699859  0.371798  0.066986  1
  Si  Si23  1  0.296190  0.630366  0.565718  1
  Si  Si24  1  0.796341  0.867791  0.183391  1
  Si  Si25  1  0.131511  0.203643  0.314955  1
  Si  Si26  1  0.868618  0.796172  0.816820  1
  Si  Si27  1  0.287868  0.955175  0.064472  1
  Si  Si28  1  0.547391  0.792137  0.314936  1
  Si  Si29  1  0.450459  0.209443  0.818487  1
  Si  Si30  1  0.793207  0.546280  0.684670  1
  Si  Si31  1  0.208558  0.450606  0.181730  1
  Si  Si32  1  0.709290  0.048684  0.565595  1
  Si  Si33  1  0.955180  0.287871  0.935554  1
  Si  Si34  1  0.047413  0.707380  0.434156  1
  Os  Os35  1  0.327573  0.327565  0.000028  1
