# generated using pymatgen
data_TbSmSbTe
_symmetry_space_group_name_H-M   'P 1'
_cell_length_a   7.69689472
_cell_length_b   7.69689580
_cell_length_c   7.69689520
_cell_angle_alpha   33.38247290
_cell_angle_beta   33.38246232
_cell_angle_gamma   33.38246278
_symmetry_Int_Tables_number   1
_chemical_formula_structural   TbSmSbTe
_chemical_formula_sum   'Tb1 Sm1 Sb1 Te1'
_cell_volume   122.92666049
_cell_formula_units_Z   1
loop_
 _symmetry_equiv_pos_site_id
 _symmetry_equiv_pos_as_xyz
  1  'x, y, z'
loop_
 _atom_site_type_symbol
 _atom_site_label
 _atom_site_symmetry_multiplicity
 _atom_site_fract_x
 _atom_site_fract_y
 _atom_site_fract_z
 _atom_site_occupancy
  Tb  Tb0  1  0.746220  0.746220  0.746220  1
  Sm  Sm1  1  0.254052  0.254052  0.254052  1
  Sb  Sb2  1  0.001622  0.001622  0.001622  1
  Te  Te3  1  0.498105  0.498105  0.498105  1
