# generated using pymatgen
data_Tb9Dy7(LuPt4)4
_symmetry_space_group_name_H-M   'P 1'
_cell_length_a   7.47605106
_cell_length_b   7.58409111
_cell_length_c   14.76795700
_cell_angle_alpha   90.00803824
_cell_angle_beta   89.99298752
_cell_angle_gamma   90.00543284
_symmetry_Int_Tables_number   1
_chemical_formula_structural   Tb9Dy7(LuPt4)4
_chemical_formula_sum   'Tb9 Dy7 Lu4 Pt16'
_cell_volume   837.32914865
_cell_formula_units_Z   1
loop_
 _symmetry_equiv_pos_site_id
 _symmetry_equiv_pos_as_xyz
  1  'x, y, z'
loop_
 _atom_site_type_symbol
 _atom_site_label
 _atom_site_symmetry_multiplicity
 _atom_site_fract_x
 _atom_site_fract_y
 _atom_site_fract_z
 _atom_site_occupancy
  Tb  Tb0  1  0.156824  0.331842  0.622808  1
  Tb  Tb1  1  0.502016  0.679842  0.593674  1
  Tb  Tb2  1  0.001914  0.820374  0.906360  1
  Tb  Tb3  1  0.498129  0.320390  0.093682  1
  Tb  Tb4  1  0.998045  0.179496  0.406149  1
  Tb  Tb5  1  0.498166  0.320403  0.406254  1
  Tb  Tb6  1  0.998059  0.179607  0.093688  1
  Tb  Tb7  1  0.501869  0.679582  0.906343  1
  Tb  Tb8  1  0.001755  0.820422  0.593709  1
  Dy  Dy9  1  0.656824  0.168105  0.622936  1
  Dy  Dy10  1  0.156763  0.331838  0.877153  1
  Dy  Dy11  1  0.343207  0.831855  0.122882  1
  Dy  Dy12  1  0.843127  0.668178  0.377062  1
  Dy  Dy13  1  0.343218  0.831868  0.377025  1
  Dy  Dy14  1  0.843196  0.668159  0.122870  1
  Dy  Dy15  1  0.656789  0.168134  0.877149  1
  Lu  Lu16  1  0.818531  0.512685  0.750135  1
  Lu  Lu17  1  0.318783  0.987296  0.750134  1
  Lu  Lu18  1  0.181308  0.487514  0.249969  1
  Lu  Lu19  1  0.681291  0.012505  0.249974  1
  Pt  Pt20  1  0.683163  0.968487  0.457110  1
  Pt  Pt21  1  0.183155  0.531560  0.042883  1
  Pt  Pt22  1  0.316961  0.031486  0.956999  1
  Pt  Pt23  1  0.816164  0.468746  0.542816  1
  Pt  Pt24  1  0.317447  0.030675  0.542833  1
  Pt  Pt25  1  0.816902  0.468524  0.957007  1
  Pt  Pt26  1  0.683080  0.968446  0.042881  1
  Pt  Pt27  1  0.183122  0.531933  0.456689  1
  Pt  Pt28  1  0.455833  0.388300  0.750266  1
  Pt  Pt29  1  0.955140  0.111490  0.750256  1
  Pt  Pt30  1  0.544608  0.611907  0.250013  1
  Pt  Pt31  1  0.044580  0.888098  0.250002  1
  Pt  Pt32  1  0.680770  0.854953  0.750001  1
  Pt  Pt33  1  0.180936  0.645297  0.750246  1
  Pt  Pt34  1  0.319174  0.145005  0.250025  1
  Pt  Pt35  1  0.819153  0.355001  0.250016  1
