# generated using pymatgen
data_Ti4Nb6Ge6B
_symmetry_space_group_name_H-M   'P 1'
_cell_length_a   7.68488700
_cell_length_b   7.68488830
_cell_length_c   5.24410300
_cell_angle_alpha   90.00000000
_cell_angle_beta   90.00000000
_cell_angle_gamma   120.00000733
_symmetry_Int_Tables_number   1
_chemical_formula_structural   Ti4Nb6Ge6B
_chemical_formula_sum   'Ti4 Nb6 Ge6 B1'
_cell_volume   268.21116836
_cell_formula_units_Z   1
loop_
 _symmetry_equiv_pos_site_id
 _symmetry_equiv_pos_as_xyz
  1  'x, y, z'
loop_
 _atom_site_type_symbol
 _atom_site_label
 _atom_site_symmetry_multiplicity
 _atom_site_fract_x
 _atom_site_fract_y
 _atom_site_fract_z
 _atom_site_occupancy
  Ti  Ti0  1  0.333333  0.666667  0.500000  1
  Ti  Ti1  1  0.666667  0.333333  0.500000  1
  Ti  Ti2  1  0.666667  0.333333  0.000000  1
  Ti  Ti3  1  0.333333  0.666667  0.000000  1
  Nb  Nb4  1  0.000000  0.758017  0.246925  1
  Nb  Nb5  1  0.241983  0.241983  0.246925  1
  Nb  Nb6  1  0.758017  0.000000  0.246925  1
  Nb  Nb7  1  0.000000  0.241983  0.753075  1
  Nb  Nb8  1  0.758017  0.758017  0.753075  1
  Nb  Nb9  1  0.241983  0.000000  0.753075  1
  Ge  Ge10  1  0.000000  0.399958  0.248404  1
  Ge  Ge11  1  0.600042  0.600042  0.248404  1
  Ge  Ge12  1  0.399958  0.000000  0.248404  1
  Ge  Ge13  1  0.000000  0.600042  0.751596  1
  Ge  Ge14  1  0.399958  0.399958  0.751596  1
  Ge  Ge15  1  0.600042  0.000000  0.751596  1
  B  B16  1  0.000000  0.000000  0.500000  1
