# generated using pymatgen
data_Na2Ti(BrO3)6
_symmetry_space_group_name_H-M   'P 1'
_cell_length_a   5.66434600
_cell_length_b   9.43127344
_cell_length_c   9.43122300
_cell_angle_alpha   60.00004996
_cell_angle_beta   90.00040275
_cell_angle_gamma   90.00029293
_symmetry_Int_Tables_number   1
_chemical_formula_structural   Na2Ti(BrO3)6
_chemical_formula_sum   'Na2 Ti1 Br6 O18'
_cell_volume   436.33391869
_cell_formula_units_Z   1
loop_
 _symmetry_equiv_pos_site_id
 _symmetry_equiv_pos_as_xyz
  1  'x, y, z'
loop_
 _atom_site_type_symbol
 _atom_site_label
 _atom_site_symmetry_multiplicity
 _atom_site_fract_x
 _atom_site_fract_y
 _atom_site_fract_z
 _atom_site_occupancy
  Na  Na0  1  0.723523  0.333334  0.333335  1
  Na  Na1  1  0.222592  0.666667  0.666666  1
  Ti  Ti2  1  0.668573  0.000000  0.000000  1
  Br  Br3  1  0.813487  0.963669  0.681225  1
  Br  Br4  1  0.813490  0.355104  0.963672  1
  Br  Br5  1  0.813487  0.681226  0.355105  1
  Br  Br6  1  0.340191  0.023408  0.301430  1
  Br  Br7  1  0.340191  0.675162  0.023408  1
  Br  Br8  1  0.340191  0.301431  0.675160  1
  O  O9  1  0.476510  0.226999  0.570962  1
  O  O10  1  0.476514  0.202037  0.226998  1
  O  O11  1  0.476514  0.570965  0.202038  1
  O  O12  1  0.974779  0.769791  0.435300  1
  O  O13  1  0.974778  0.794911  0.769789  1
  O  O14  1  0.974781  0.435300  0.794913  1
  O  O15  1  0.868491  0.046897  0.813100  1
  O  O16  1  0.868493  0.140003  0.046898  1
  O  O17  1  0.868491  0.813099  0.140003  1
  O  O18  1  0.458466  0.929501  0.194691  1
  O  O19  1  0.458463  0.875809  0.929500  1
  O  O20  1  0.458468  0.194693  0.875807  1
  O  O21  1  0.953158  0.097987  0.512748  1
  O  O22  1  0.953161  0.389261  0.097991  1
  O  O23  1  0.953159  0.512748  0.389267  1
  O  O24  1  0.446217  0.902603  0.488477  1
  O  O25  1  0.446215  0.608921  0.902602  1
  O  O26  1  0.446214  0.488477  0.608919  1
