# generated using pymatgen
data_Nb3Co4B4Mo
_symmetry_space_group_name_H-M   'P 1'
_cell_length_a   3.29579300
_cell_length_b   5.83674442
_cell_length_c   6.75780158
_cell_angle_alpha   89.68354856
_cell_angle_beta   90.00000000
_cell_angle_gamma   90.00000000
_symmetry_Int_Tables_number   1
_chemical_formula_structural   Nb3Co4B4Mo
_chemical_formula_sum   'Nb3 Co4 B4 Mo1'
_cell_volume   129.99582834
_cell_formula_units_Z   1
loop_
 _symmetry_equiv_pos_site_id
 _symmetry_equiv_pos_as_xyz
  1  'x, y, z'
loop_
 _atom_site_type_symbol
 _atom_site_label
 _atom_site_symmetry_multiplicity
 _atom_site_fract_x
 _atom_site_fract_y
 _atom_site_fract_z
 _atom_site_occupancy
  Nb  Nb0  1  0.250000  0.525430  0.679996  1
  Nb  Nb1  1  0.750000  0.474986  0.317957  1
  Nb  Nb2  1  0.250000  0.024755  0.823728  1
  Co  Co3  1  0.750000  0.858137  0.557259  1
  Co  Co4  1  0.250000  0.142955  0.440549  1
  Co  Co5  1  0.750000  0.355328  0.941489  1
  Co  Co6  1  0.250000  0.643170  0.059489  1
  B  B7  1  0.250000  0.779586  0.373082  1
  B  B8  1  0.750000  0.227128  0.618919  1
  B  B9  1  0.250000  0.266490  0.123383  1
  B  B10  1  0.750000  0.725945  0.885644  1
  Mo  Mo11  1  0.750000  0.976090  0.178504  1
