# generated using pymatgen
data_U5Pa4Re3
_symmetry_space_group_name_H-M   'P 1'
_cell_length_a   5.72711600
_cell_length_b   5.72711518
_cell_length_c   8.82074300
_cell_angle_alpha   90.00000000
_cell_angle_beta   90.00000000
_cell_angle_gamma   120.00000473
_symmetry_Int_Tables_number   1
_chemical_formula_structural   U5Pa4Re3
_chemical_formula_sum   'U5 Pa4 Re3'
_cell_volume   250.55765559
_cell_formula_units_Z   1
loop_
 _symmetry_equiv_pos_site_id
 _symmetry_equiv_pos_as_xyz
  1  'x, y, z'
loop_
 _atom_site_type_symbol
 _atom_site_label
 _atom_site_symmetry_multiplicity
 _atom_site_fract_x
 _atom_site_fract_y
 _atom_site_fract_z
 _atom_site_occupancy
  U  U0  1  0.000000  0.000000  0.497424  1
  U  U1  1  0.000000  0.000000  0.002576  1
  U  U2  1  0.176882  0.823118  0.750000  1
  U  U3  1  0.176882  0.353763  0.750000  1
  U  U4  1  0.646237  0.823118  0.750000  1
  Pa  Pa5  1  0.333333  0.666667  0.415135  1
  Pa  Pa6  1  0.666667  0.333333  0.544745  1
  Pa  Pa7  1  0.666667  0.333333  0.955255  1
  Pa  Pa8  1  0.333333  0.666667  0.084865  1
  Re  Re9  1  0.831699  0.168301  0.250000  1
  Re  Re10  1  0.831699  0.663399  0.250000  1
  Re  Re11  1  0.336601  0.168301  0.250000  1
