# generated using pymatgen
data_Pr8Er12Ag3Sn13
_symmetry_space_group_name_H-M   'P 1'
_cell_length_a   7.88181600
_cell_length_b   8.38155689
_cell_length_c   15.47826900
_cell_angle_alpha   90.00000000
_cell_angle_beta   90.00000000
_cell_angle_gamma   89.41902442
_symmetry_Int_Tables_number   1
_chemical_formula_structural   Pr8Er12Ag3Sn13
_chemical_formula_sum   'Pr8 Er12 Ag3 Sn13'
_cell_volume   1022.47112446
_cell_formula_units_Z   1
loop_
 _symmetry_equiv_pos_site_id
 _symmetry_equiv_pos_as_xyz
  1  'x, y, z'
loop_
 _atom_site_type_symbol
 _atom_site_label
 _atom_site_symmetry_multiplicity
 _atom_site_fract_x
 _atom_site_fract_y
 _atom_site_fract_z
 _atom_site_occupancy
  Pr  Pr0  1  0.503184  0.317409  0.907478  1
  Pr  Pr1  1  0.002278  0.184598  0.593138  1
  Pr  Pr2  1  0.497457  0.682202  0.409876  1
  Pr  Pr3  1  0.995519  0.818807  0.093519  1
  Pr  Pr4  1  0.497457  0.682202  0.090124  1
  Pr  Pr5  1  0.995519  0.818807  0.406481  1
  Pr  Pr6  1  0.503184  0.317409  0.592522  1
  Pr  Pr7  1  0.002278  0.184598  0.906862  1
  Er  Er8  1  0.338746  0.830244  0.870218  1
  Er  Er9  1  0.835703  0.667035  0.629468  1
  Er  Er10  1  0.652221  0.169296  0.372882  1
  Er  Er11  1  0.171628  0.334345  0.125836  1
  Er  Er12  1  0.652221  0.169296  0.127118  1
  Er  Er13  1  0.171628  0.334345  0.374164  1
  Er  Er14  1  0.338746  0.830244  0.629782  1
  Er  Er15  1  0.835703  0.667035  0.870532  1
  Er  Er16  1  0.184302  0.497539  0.750000  1
  Er  Er17  1  0.684000  0.003736  0.750000  1
  Er  Er18  1  0.818250  0.499275  0.250000  1
  Er  Er19  1  0.321476  0.994525  0.250000  1
  Ag  Ag20  1  0.542940  0.620802  0.750000  1
  Ag  Ag21  1  0.041531  0.879383  0.750000  1
  Ag  Ag22  1  0.458243  0.382172  0.250000  1
  Sn  Sn23  1  0.318668  0.036516  0.038725  1
  Sn  Sn24  1  0.821326  0.460447  0.458356  1
  Sn  Sn25  1  0.683861  0.962115  0.541513  1
  Sn  Sn26  1  0.179651  0.539358  0.957607  1
  Sn  Sn27  1  0.683861  0.962115  0.958487  1
  Sn  Sn28  1  0.179651  0.539358  0.542393  1
  Sn  Sn29  1  0.318668  0.036516  0.461275  1
  Sn  Sn30  1  0.821326  0.460447  0.041644  1
  Sn  Sn31  1  0.958856  0.125933  0.250000  1
  Sn  Sn32  1  0.300187  0.133715  0.750000  1
  Sn  Sn33  1  0.800426  0.365074  0.750000  1
  Sn  Sn34  1  0.690756  0.857081  0.250000  1
  Sn  Sn35  1  0.198550  0.636023  0.250000  1
