# generated using pymatgen
data_Ho7Tm9Cd4RuPt3
_symmetry_space_group_name_H-M   'P 1'
_cell_length_a   9.60011631
_cell_length_b   9.60011600
_cell_length_c   9.59995601
_cell_angle_alpha   59.57233344
_cell_angle_beta   59.57233822
_cell_angle_gamma   59.60906325
_symmetry_Int_Tables_number   1
_chemical_formula_structural   Ho7Tm9Cd4RuPt3
_chemical_formula_sum   'Ho7 Tm9 Cd4 Ru1 Pt3'
_cell_volume   619.70727866
_cell_formula_units_Z   1
loop_
 _symmetry_equiv_pos_site_id
 _symmetry_equiv_pos_as_xyz
  1  'x, y, z'
loop_
 _atom_site_type_symbol
 _atom_site_label
 _atom_site_symmetry_multiplicity
 _atom_site_fract_x
 _atom_site_fract_y
 _atom_site_fract_z
 _atom_site_occupancy
  Ho  Ho0  1  0.060616  0.060616  0.438098  1
  Ho  Ho1  1  0.186117  0.814877  0.815505  1
  Ho  Ho2  1  0.809814  0.187500  0.187179  1
  Ho  Ho3  1  0.814877  0.186117  0.815505  1
  Ho  Ho4  1  0.187500  0.809814  0.187179  1
  Ho  Ho5  1  0.815148  0.815148  0.185864  1
  Ho  Ho6  1  0.187295  0.187295  0.810078  1
  Tm  Tm7  1  0.601384  0.601384  0.601623  1
  Tm  Tm8  1  0.600190  0.600190  0.197665  1
  Tm  Tm9  1  0.599571  0.198158  0.600355  1
  Tm  Tm10  1  0.198158  0.599571  0.600355  1
  Tm  Tm11  1  0.065035  0.438555  0.437984  1
  Tm  Tm12  1  0.438453  0.060607  0.060437  1
  Tm  Tm13  1  0.438555  0.065035  0.437984  1
  Tm  Tm14  1  0.060607  0.438453  0.060437  1
  Tm  Tm15  1  0.438045  0.438045  0.065093  1
  Cd  Cd16  1  0.830126  0.830126  0.830499  1
  Cd  Cd17  1  0.830894  0.830894  0.504694  1
  Cd  Cd18  1  0.831004  0.504715  0.830934  1
  Cd  Cd19  1  0.504715  0.831004  0.830934  1
  Ru  Ru20  1  0.393358  0.393358  0.393461  1
  Pt  Pt21  1  0.393172  0.393172  0.822009  1
  Pt  Pt22  1  0.394160  0.821200  0.393061  1
  Pt  Pt23  1  0.821200  0.394160  0.393061  1
