# generated using pymatgen
data_V3CoNi19B6
_symmetry_space_group_name_H-M   'P 1'
_cell_length_a   7.38503985
_cell_length_b   7.38503875
_cell_length_c   7.38503859
_cell_angle_alpha   60.28681659
_cell_angle_beta   60.28682255
_cell_angle_gamma   60.28681351
_symmetry_Int_Tables_number   1
_chemical_formula_structural   V3CoNi19B6
_chemical_formula_sum   'V3 Co1 Ni19 B6'
_cell_volume   286.65088859
_cell_formula_units_Z   1
loop_
 _symmetry_equiv_pos_site_id
 _symmetry_equiv_pos_as_xyz
  1  'x, y, z'
loop_
 _atom_site_type_symbol
 _atom_site_label
 _atom_site_symmetry_multiplicity
 _atom_site_fract_x
 _atom_site_fract_y
 _atom_site_fract_z
 _atom_site_occupancy
  V  V0  1  0.254820  0.254820  0.254820  1
  V  V1  1  0.749528  0.749528  0.749528  1
  V  V2  1  0.000168  0.000168  0.000168  1
  Co  Co3  1  0.380351  0.380351  0.380351  1
  Ni  Ni4  1  0.617720  0.617720  0.617720  1
  Ni  Ni5  1  0.381241  0.381241  0.856018  1
  Ni  Ni6  1  0.381241  0.856018  0.381241  1
  Ni  Ni7  1  0.618176  0.618176  0.145266  1
  Ni  Ni8  1  0.618176  0.145266  0.618176  1
  Ni  Ni9  1  0.856018  0.381241  0.381241  1
  Ni  Ni10  1  0.145266  0.618176  0.618176  1
  Ni  Ni11  1  0.338860  0.000179  0.000179  1
  Ni  Ni12  1  0.660364  0.999452  0.999452  1
  Ni  Ni13  1  0.999073  0.340199  0.660657  1
  Ni  Ni14  1  0.999073  0.660657  0.340199  1
  Ni  Ni15  1  0.000179  0.338860  0.000179  1
  Ni  Ni16  1  0.660657  0.999073  0.340199  1
  Ni  Ni17  1  0.999452  0.660364  0.999452  1
  Ni  Ni18  1  0.340199  0.999073  0.660657  1
  Ni  Ni19  1  0.000179  0.000179  0.338860  1
  Ni  Ni20  1  0.999452  0.999452  0.660364  1
  Ni  Ni21  1  0.660657  0.340199  0.999073  1
  Ni  Ni22  1  0.340199  0.660657  0.999073  1
  B  B23  1  0.727859  0.270354  0.270354  1
  B  B24  1  0.269254  0.730564  0.730564  1
  B  B25  1  0.270354  0.727859  0.270354  1
  B  B26  1  0.730564  0.269254  0.730564  1
  B  B27  1  0.270354  0.270354  0.727859  1
  B  B28  1  0.730564  0.730564  0.269254  1
