# generated using pymatgen
data_Ho3Hf3Ga6PdPt5
_symmetry_space_group_name_H-M   'P 1'
_cell_length_a   7.27889700
_cell_length_b   7.27889713
_cell_length_c   7.31802200
_cell_angle_alpha   90.00000000
_cell_angle_beta   90.00000000
_cell_angle_gamma   120.00001303
_symmetry_Int_Tables_number   1
_chemical_formula_structural   Ho3Hf3Ga6PdPt5
_chemical_formula_sum   'Ho3 Hf3 Ga6 Pd1 Pt5'
_cell_volume   335.78047658
_cell_formula_units_Z   1
loop_
 _symmetry_equiv_pos_site_id
 _symmetry_equiv_pos_as_xyz
  1  'x, y, z'
loop_
 _atom_site_type_symbol
 _atom_site_label
 _atom_site_symmetry_multiplicity
 _atom_site_fract_x
 _atom_site_fract_y
 _atom_site_fract_z
 _atom_site_occupancy
  Ho  Ho0  1  0.590341  0.999555  0.750000  1
  Ho  Ho1  1  0.409214  0.409659  0.750000  1
  Ho  Ho2  1  0.000445  0.590786  0.750000  1
  Hf  Hf3  1  0.390668  0.390295  0.250000  1
  Hf  Hf4  1  0.999625  0.609332  0.250000  1
  Hf  Hf5  1  0.609705  0.000375  0.250000  1
  Ga  Ga6  1  0.263857  0.999821  0.007036  1
  Ga  Ga7  1  0.263857  0.999821  0.492964  1
  Ga  Ga8  1  0.000179  0.264035  0.492964  1
  Ga  Ga9  1  0.000179  0.264035  0.007036  1
  Ga  Ga10  1  0.735965  0.736143  0.007036  1
  Ga  Ga11  1  0.735965  0.736143  0.492964  1
  Pd  Pd12  1  0.000000  0.000000  0.750000  1
  Pt  Pt13  1  0.666667  0.333333  0.471515  1
  Pt  Pt14  1  0.666667  0.333333  0.028485  1
  Pt  Pt15  1  0.333333  0.666667  0.029537  1
  Pt  Pt16  1  0.333333  0.666667  0.470463  1
  Pt  Pt17  1  0.000000  0.000000  0.250000  1
