# generated using pymatgen
data_Eu4ZrCr3O12
_symmetry_space_group_name_H-M   'P 1'
_cell_length_a   5.53342046
_cell_length_b   5.66987840
_cell_length_c   7.90676548
_cell_angle_alpha   90.45970362
_cell_angle_beta   90.09582288
_cell_angle_gamma   89.86805787
_symmetry_Int_Tables_number   1
_chemical_formula_structural   Eu4ZrCr3O12
_chemical_formula_sum   'Eu4 Zr1 Cr3 O12'
_cell_volume   248.05646469
_cell_formula_units_Z   1
loop_
 _symmetry_equiv_pos_site_id
 _symmetry_equiv_pos_as_xyz
  1  'x, y, z'
loop_
 _atom_site_type_symbol
 _atom_site_label
 _atom_site_symmetry_multiplicity
 _atom_site_fract_x
 _atom_site_fract_y
 _atom_site_fract_z
 _atom_site_occupancy
  Eu  Eu0  1  0.010389  0.553286  0.261517  1
  Eu  Eu1  1  0.509782  0.956647  0.738154  1
  Eu  Eu2  1  0.490328  0.043456  0.262089  1
  Eu  Eu3  1  0.989898  0.447716  0.737990  1
  Zr  Zr4  1  0.500080  0.499850  0.000082  1
  Cr  Cr5  1  0.000027  0.000053  0.000022  1
  Cr  Cr6  1  0.499963  0.499880  0.499965  1
  Cr  Cr7  1  0.000020  0.000049  0.499967  1
  O  O8  1  0.590334  0.471652  0.256746  1
  O  O9  1  0.906492  0.968281  0.250747  1
  O  O10  1  0.409888  0.528323  0.743335  1
  O  O11  1  0.093288  0.031658  0.749195  1
  O  O12  1  0.193734  0.294203  0.050057  1
  O  O13  1  0.295884  0.794031  0.455657  1
  O  O14  1  0.795910  0.705716  0.544386  1
  O  O15  1  0.706044  0.195775  0.947713  1
  O  O16  1  0.806428  0.705652  0.950160  1
  O  O17  1  0.703801  0.205558  0.544128  1
  O  O18  1  0.203850  0.294281  0.455406  1
  O  O19  1  0.293859  0.803935  0.052684  1
