# generated using pymatgen
data_Ba4Tc2NiO12
_symmetry_space_group_name_H-M   'P 1'
_cell_length_a   5.82755657
_cell_length_b   5.82754991
_cell_length_c   10.06762369
_cell_angle_alpha   89.99968162
_cell_angle_beta   73.17504208
_cell_angle_gamma   119.99976444
_symmetry_Int_Tables_number   1
_chemical_formula_structural   Ba4Tc2NiO12
_chemical_formula_sum   'Ba4 Tc2 Ni1 O12'
_cell_volume   279.06717089
_cell_formula_units_Z   1
loop_
 _symmetry_equiv_pos_site_id
 _symmetry_equiv_pos_as_xyz
  1  'x, y, z'
loop_
 _atom_site_type_symbol
 _atom_site_label
 _atom_site_symmetry_multiplicity
 _atom_site_fract_x
 _atom_site_fract_y
 _atom_site_fract_z
 _atom_site_occupancy
  Ba  Ba0  1  0.573037  0.286525  0.140489  1
  Ba  Ba1  1  0.424496  0.712243  0.863226  1
  Ba  Ba2  1  0.247091  0.123550  0.629355  1
  Ba  Ba3  1  0.741114  0.870571  0.388397  1
  Tc  Tc4  1  0.996230  0.998110  0.005618  1
  Tc  Tc5  1  0.014653  0.507335  0.478062  1
  Ni  Ni6  1  0.820230  0.410095  0.769622  1
  O  O7  1  0.772222  0.612257  0.615555  1
  O  O8  1  0.224496  0.612251  0.615559  1
  O  O9  1  0.772223  0.159967  0.615557  1
  O  O10  1  0.235626  0.380667  0.383798  1
  O  O11  1  0.761309  0.380656  0.383791  1
  O  O12  1  0.235623  0.854972  0.383794  1
  O  O13  1  0.078376  0.810305  0.111297  1
  O  O14  1  0.620602  0.810302  0.111324  1
  O  O15  1  0.078365  0.268052  0.111304  1
  O  O16  1  0.921869  0.197254  0.880757  1
  O  O17  1  0.394579  0.197290  0.880737  1
  O  O18  1  0.921860  0.724596  0.880761  1
