# generated using pymatgen
data_YbPr5(HfBi5)2
_symmetry_space_group_name_H-M   'P 1'
_cell_length_a   9.83265600
_cell_length_b   9.83567955
_cell_length_c   6.50770800
_cell_angle_alpha   90.00000000
_cell_angle_beta   90.00000000
_cell_angle_gamma   119.98983160
_symmetry_Int_Tables_number   1
_chemical_formula_structural   YbPr5(HfBi5)2
_chemical_formula_sum   'Yb1 Pr5 Hf2 Bi10'
_cell_volume   545.10277912
_cell_formula_units_Z   1
loop_
 _symmetry_equiv_pos_site_id
 _symmetry_equiv_pos_as_xyz
  1  'x, y, z'
loop_
 _atom_site_type_symbol
 _atom_site_label
 _atom_site_symmetry_multiplicity
 _atom_site_fract_x
 _atom_site_fract_y
 _atom_site_fract_z
 _atom_site_occupancy
  Yb  Yb0  1  0.622291  0.000000  0.250000  1
  Pr  Pr1  1  0.382280  0.000000  0.750000  1
  Pr  Pr2  1  0.997791  0.619856  0.250000  1
  Pr  Pr3  1  0.000696  0.378305  0.750000  1
  Pr  Pr4  1  0.377935  0.380144  0.250000  1
  Pr  Pr5  1  0.622390  0.621695  0.750000  1
  Hf  Hf6  1  0.999419  0.000000  0.001871  1
  Hf  Hf7  1  0.999419  0.000000  0.498129  1
  Bi  Bi8  1  0.262339  0.000000  0.250000  1
  Bi  Bi9  1  0.739807  0.000000  0.750000  1
  Bi  Bi10  1  0.998236  0.261745  0.250000  1
  Bi  Bi11  1  0.001959  0.738842  0.750000  1
  Bi  Bi12  1  0.736491  0.738255  0.250000  1
  Bi  Bi13  1  0.263116  0.261158  0.750000  1
  Bi  Bi14  1  0.332765  0.667616  0.999966  1
  Bi  Bi15  1  0.665150  0.332384  0.999966  1
  Bi  Bi16  1  0.665150  0.332384  0.500034  1
  Bi  Bi17  1  0.332765  0.667616  0.500034  1
