# generated using pymatgen
data_Rb3Ru2Br9
_symmetry_space_group_name_H-M   'P 1'
_cell_length_a   7.63916900
_cell_length_b   7.63916839
_cell_length_c   18.58138700
_cell_angle_alpha   90.00000000
_cell_angle_beta   90.00000000
_cell_angle_gamma   119.99999832
_symmetry_Int_Tables_number   1
_chemical_formula_structural   Rb3Ru2Br9
_chemical_formula_sum   'Rb6 Ru4 Br18'
_cell_volume   939.07649164
_cell_formula_units_Z   2
loop_
 _symmetry_equiv_pos_site_id
 _symmetry_equiv_pos_as_xyz
  1  'x, y, z'
loop_
 _atom_site_type_symbol
 _atom_site_label
 _atom_site_symmetry_multiplicity
 _atom_site_fract_x
 _atom_site_fract_y
 _atom_site_fract_z
 _atom_site_occupancy
  Rb  Rb0  1  0.666667  0.333333  0.939841  1
  Rb  Rb1  1  0.333333  0.666667  0.439841  1
  Rb  Rb2  1  0.666667  0.333333  0.560159  1
  Rb  Rb3  1  0.333333  0.666667  0.060159  1
  Rb  Rb4  1  0.000000  0.000000  0.750000  1
  Rb  Rb5  1  0.000000  0.000000  0.250000  1
  Ru  Ru6  1  0.333333  0.666667  0.675766  1
  Ru  Ru7  1  0.666667  0.333333  0.175766  1
  Ru  Ru8  1  0.666667  0.333333  0.324234  1
  Ru  Ru9  1  0.333333  0.666667  0.824234  1
  Br  Br10  1  0.822097  0.644195  0.096696  1
  Br  Br11  1  0.177903  0.822097  0.596696  1
  Br  Br12  1  0.644195  0.822097  0.596696  1
  Br  Br13  1  0.355805  0.177903  0.096696  1
  Br  Br14  1  0.822097  0.177903  0.096696  1
  Br  Br15  1  0.177903  0.355805  0.903304  1
  Br  Br16  1  0.177903  0.822097  0.903304  1
  Br  Br17  1  0.177903  0.355805  0.596696  1
  Br  Br18  1  0.644195  0.822097  0.903304  1
  Br  Br19  1  0.355805  0.177903  0.403304  1
  Br  Br20  1  0.822097  0.644195  0.403304  1
  Br  Br21  1  0.822097  0.177903  0.403304  1
  Br  Br22  1  0.506081  0.012163  0.250000  1
  Br  Br23  1  0.493919  0.506081  0.750000  1
  Br  Br24  1  0.012163  0.506081  0.750000  1
  Br  Br25  1  0.987837  0.493919  0.250000  1
  Br  Br26  1  0.506081  0.493919  0.250000  1
  Br  Br27  1  0.493919  0.987837  0.750000  1
