# generated using pymatgen
data_Mn4Nb5P4
_symmetry_space_group_name_H-M   'P 1'
_cell_length_a   7.24976742
_cell_length_b   7.24976772
_cell_length_c   7.24976759
_cell_angle_alpha   93.50982977
_cell_angle_beta   93.50982957
_cell_angle_gamma   151.34949134
_symmetry_Int_Tables_number   1
_chemical_formula_structural   Mn4Nb5P4
_chemical_formula_sum   'Mn4 Nb5 P4'
_cell_volume   177.01566157
_cell_formula_units_Z   1
loop_
 _symmetry_equiv_pos_site_id
 _symmetry_equiv_pos_as_xyz
  1  'x, y, z'
loop_
 _atom_site_type_symbol
 _atom_site_label
 _atom_site_symmetry_multiplicity
 _atom_site_fract_x
 _atom_site_fract_y
 _atom_site_fract_z
 _atom_site_occupancy
  Mn  Mn0  1  0.926650  0.400459  0.327110  1
  Mn  Mn1  1  0.073350  0.599541  0.672890  1
  Mn  Mn2  1  0.599541  0.926650  0.526189  1
  Mn  Mn3  1  0.400459  0.073350  0.473811  1
  Nb  Nb4  1  0.500000  0.500000  0.000000  1
  Nb  Nb5  1  0.800884  0.129411  0.930295  1
  Nb  Nb6  1  0.129411  0.199116  0.328527  1
  Nb  Nb7  1  0.870589  0.800884  0.671473  1
  Nb  Nb8  1  0.199116  0.870589  0.069705  1
  P  P9  1  0.556829  0.240555  0.797384  1
  P  P10  1  0.240555  0.443171  0.683725  1
  P  P11  1  0.759445  0.556829  0.316275  1
  P  P12  1  0.443171  0.759445  0.202616  1
