# generated using pymatgen
data_Nd3Y17(CoSb2)4
_symmetry_space_group_name_H-M   'P 1'
_cell_length_a   7.98701008
_cell_length_b   8.86881400
_cell_length_c   12.24150182
_cell_angle_alpha   90.00000000
_cell_angle_beta   90.15243718
_cell_angle_gamma   90.00000000
_symmetry_Int_Tables_number   1
_chemical_formula_structural   Nd3Y17(CoSb2)4
_chemical_formula_sum   'Nd3 Y17 Co4 Sb8'
_cell_volume   867.12746773
_cell_formula_units_Z   1
loop_
 _symmetry_equiv_pos_site_id
 _symmetry_equiv_pos_as_xyz
  1  'x, y, z'
loop_
 _atom_site_type_symbol
 _atom_site_label
 _atom_site_symmetry_multiplicity
 _atom_site_fract_x
 _atom_site_fract_y
 _atom_site_fract_z
 _atom_site_occupancy
  Nd  Nd0  1  0.124097  0.250000  0.195064  1
  Nd  Nd1  1  0.376584  0.250000  0.693708  1
  Nd  Nd2  1  0.876343  0.750000  0.805628  1
  Y  Y3  1  0.155212  0.750000  0.204018  1
  Y  Y4  1  0.654345  0.250000  0.296768  1
  Y  Y5  1  0.844802  0.250000  0.796111  1
  Y  Y6  1  0.344991  0.750000  0.704142  1
  Y  Y7  1  0.453598  0.750000  0.998055  1
  Y  Y8  1  0.951524  0.250000  0.501632  1
  Y  Y9  1  0.547390  0.250000  0.003216  1
  Y  Y10  1  0.046355  0.750000  0.497735  1
  Y  Y11  1  0.622784  0.750000  0.306458  1
  Y  Y12  1  0.821399  0.965034  0.066250  1
  Y  Y13  1  0.321883  0.032199  0.432652  1
  Y  Y14  1  0.179057  0.464163  0.933730  1
  Y  Y15  1  0.678973  0.536815  0.565137  1
  Y  Y16  1  0.179057  0.035837  0.933730  1
  Y  Y17  1  0.678973  0.963185  0.565137  1
  Y  Y18  1  0.821399  0.534966  0.066250  1
  Y  Y19  1  0.321883  0.467801  0.432652  1
  Co  Co20  1  0.435004  0.750000  0.490793  1
  Co  Co21  1  0.933890  0.250000  0.009329  1
  Co  Co22  1  0.565658  0.250000  0.508407  1
  Co  Co23  1  0.065872  0.750000  0.991122  1
  Sb  Sb24  1  0.925380  0.989900  0.329118  1
  Sb  Sb25  1  0.432687  0.005435  0.171947  1
  Sb  Sb26  1  0.070523  0.491799  0.670137  1
  Sb  Sb27  1  0.570872  0.507709  0.829935  1
  Sb  Sb28  1  0.070523  0.008201  0.670137  1
  Sb  Sb29  1  0.570872  0.992291  0.829935  1
  Sb  Sb30  1  0.925380  0.510100  0.329118  1
  Sb  Sb31  1  0.432687  0.494565  0.171947  1
