# generated using pymatgen
data_Pr2Sm(MgHg)3
_symmetry_space_group_name_H-M   'P 1'
_cell_length_a   7.57825027
_cell_length_b   7.57824827
_cell_length_c   4.75391100
_cell_angle_alpha   90.00000000
_cell_angle_beta   90.00000000
_cell_angle_gamma   119.61725227
_symmetry_Int_Tables_number   1
_chemical_formula_structural   Pr2Sm(MgHg)3
_chemical_formula_sum   'Pr2 Sm1 Mg3 Hg3'
_cell_volume   237.34580467
_cell_formula_units_Z   1
loop_
 _symmetry_equiv_pos_site_id
 _symmetry_equiv_pos_as_xyz
  1  'x, y, z'
loop_
 _atom_site_type_symbol
 _atom_site_label
 _atom_site_symmetry_multiplicity
 _atom_site_fract_x
 _atom_site_fract_y
 _atom_site_fract_z
 _atom_site_occupancy
  Pr  Pr0  1  0.419968  0.001937  0.000000  1
  Pr  Pr1  1  0.001937  0.419968  0.000000  1
  Sm  Sm2  1  0.581362  0.581361  0.000000  1
  Mg  Mg3  1  0.758949  0.000225  0.499999  1
  Mg  Mg4  1  0.238540  0.238539  0.499999  1
  Mg  Mg5  1  0.000225  0.758949  0.499999  1
  Hg  Hg6  1  0.994733  0.994733  0.000000  1
  Hg  Hg7  1  0.665403  0.338882  0.499999  1
  Hg  Hg8  1  0.338883  0.665404  0.499999  1
