# generated using pymatgen
data_HfZrSc2(SiW)4
_symmetry_space_group_name_H-M   'P 1'
_cell_length_a   3.52489600
_cell_length_b   6.99628400
_cell_length_c   8.23038100
_cell_angle_alpha   90.00003726
_cell_angle_beta   90.00000000
_cell_angle_gamma   90.00000000
_symmetry_Int_Tables_number   1
_chemical_formula_structural   HfZrSc2(SiW)4
_chemical_formula_sum   'Hf1 Zr1 Sc2 Si4 W4'
_cell_volume   202.97085370
_cell_formula_units_Z   1
loop_
 _symmetry_equiv_pos_site_id
 _symmetry_equiv_pos_as_xyz
  1  'x, y, z'
loop_
 _atom_site_type_symbol
 _atom_site_label
 _atom_site_symmetry_multiplicity
 _atom_site_fract_x
 _atom_site_fract_y
 _atom_site_fract_z
 _atom_site_occupancy
  Hf  Hf0  1  0.750000  0.957501  0.666923  1
  Zr  Zr1  1  0.750000  0.458162  0.832961  1
  Sc  Sc2  1  0.250000  0.541358  0.165542  1
  Sc  Sc3  1  0.250000  0.041110  0.335379  1
  Si  Si4  1  0.250000  0.757947  0.862245  1
  Si  Si5  1  0.250000  0.256343  0.637107  1
  Si  Si6  1  0.750000  0.240968  0.141656  1
  Si  Si7  1  0.750000  0.740927  0.358486  1
  W  W8  1  0.250000  0.632932  0.560387  1
  W  W9  1  0.250000  0.130654  0.939336  1
  W  W10  1  0.750000  0.370682  0.440897  1
  W  W11  1  0.750000  0.871415  0.059081  1
