# generated using pymatgen
data_LaGa2NiSn
_symmetry_space_group_name_H-M   'P 1'
_cell_length_a   6.15556372
_cell_length_b   6.15571051
_cell_length_c   4.37318754
_cell_angle_alpha   69.19137837
_cell_angle_beta   69.19500019
_cell_angle_gamma   42.58097370
_symmetry_Int_Tables_number   1
_chemical_formula_structural   LaGa2NiSn
_chemical_formula_sum   'La1 Ga2 Ni1 Sn1'
_cell_volume   103.65556291
_cell_formula_units_Z   1
loop_
 _symmetry_equiv_pos_site_id
 _symmetry_equiv_pos_as_xyz
  1  'x, y, z'
loop_
 _atom_site_type_symbol
 _atom_site_label
 _atom_site_symmetry_multiplicity
 _atom_site_fract_x
 _atom_site_fract_y
 _atom_site_fract_z
 _atom_site_occupancy
  La  La0  1  0.978785  0.978787  0.021213  1
  Ga  Ga1  1  0.404771  0.404773  0.595227  1
  Ga  Ga2  1  0.728018  0.728019  0.771982  1
  Ni  Ni3  1  0.624345  0.624347  0.375654  1
  Sn  Sn4  1  0.233084  0.233084  0.266917  1
