# generated using pymatgen
data_YLuCr2F14
_symmetry_space_group_name_H-M   'P 1'
_cell_length_a   5.44423666
_cell_length_b   8.69602305
_cell_length_c   11.62780031
_cell_angle_alpha   63.09836646
_cell_angle_beta   90.18224757
_cell_angle_gamma   89.99884520
_symmetry_Int_Tables_number   1
_chemical_formula_structural   YLuCr2F14
_chemical_formula_sum   'Y2 Lu2 Cr4 F28'
_cell_volume   490.92194611
_cell_formula_units_Z   2
loop_
 _symmetry_equiv_pos_site_id
 _symmetry_equiv_pos_as_xyz
  1  'x, y, z'
loop_
 _atom_site_type_symbol
 _atom_site_label
 _atom_site_symmetry_multiplicity
 _atom_site_fract_x
 _atom_site_fract_y
 _atom_site_fract_z
 _atom_site_occupancy
  Y  Y0  1  0.764833  0.187652  0.234783  1
  Y  Y1  1  0.235167  0.812348  0.765217  1
  Lu  Lu2  1  0.266816  0.808413  0.265578  1
  Lu  Lu3  1  0.733184  0.191587  0.734422  1
  Cr  Cr4  1  0.758096  0.727741  0.044845  1
  Cr  Cr5  1  0.241904  0.272259  0.955155  1
  Cr  Cr6  1  0.258050  0.275800  0.457519  1
  Cr  Cr7  1  0.741950  0.724200  0.542481  1
  F  F8  1  0.936481  0.706626  0.420159  1
  F  F9  1  0.063519  0.293374  0.579841  1
  F  F10  1  0.435172  0.292864  0.077958  1
  F  F11  1  0.564828  0.707136  0.922042  1
  F  F12  1  0.474656  0.730811  0.137912  1
  F  F13  1  0.525344  0.269189  0.862088  1
  F  F14  1  0.975171  0.271733  0.364476  1
  F  F15  1  0.024829  0.728267  0.635524  1
  F  F16  1  0.953860  0.746154  0.170860  1
  F  F17  1  0.046140  0.253846  0.829140  1
  F  F18  1  0.447919  0.257652  0.330988  1
  F  F19  1  0.552081  0.742348  0.669012  1
  F  F20  1  0.768864  0.491103  0.138427  1
  F  F21  1  0.231136  0.508897  0.861573  1
  F  F22  1  0.269318  0.512942  0.362532  1
  F  F23  1  0.730682  0.487058  0.637468  1
  F  F24  1  0.952881  0.280931  0.042560  1
  F  F25  1  0.047119  0.719069  0.957440  1
  F  F26  1  0.449941  0.719821  0.453083  1
  F  F27  1  0.550059  0.280179  0.546917  1
  F  F28  1  0.741280  0.960315  0.453894  1
  F  F29  1  0.258720  0.039685  0.546106  1
  F  F30  1  0.241314  0.036890  0.046589  1
  F  F31  1  0.758686  0.963110  0.953411  1
  F  F32  1  0.583819  0.968071  0.227548  1
  F  F33  1  0.416181  0.031929  0.772452  1
  F  F34  1  0.093566  0.021347  0.272688  1
  F  F35  1  0.906434  0.978653  0.727312  1
