# generated using pymatgen
data_Dy5Lu5(AlSb2)2
_symmetry_space_group_name_H-M   'P 1'
_cell_length_a   8.77538700
_cell_length_b   8.78777869
_cell_length_c   6.30557400
_cell_angle_alpha   89.99963488
_cell_angle_beta   90.00103161
_cell_angle_gamma   119.90848454
_symmetry_Int_Tables_number   1
_chemical_formula_structural   Dy5Lu5(AlSb2)2
_chemical_formula_sum   'Dy5 Lu5 Al2 Sb4'
_cell_volume   421.50274107
_cell_formula_units_Z   1
loop_
 _symmetry_equiv_pos_site_id
 _symmetry_equiv_pos_as_xyz
  1  'x, y, z'
loop_
 _atom_site_type_symbol
 _atom_site_label
 _atom_site_symmetry_multiplicity
 _atom_site_fract_x
 _atom_site_fract_y
 _atom_site_fract_z
 _atom_site_occupancy
  Dy  Dy0  1  0.755892  0.998392  0.750001  1
  Dy  Dy1  1  0.008547  0.244219  0.249994  1
  Dy  Dy2  1  0.008559  0.764940  0.750020  1
  Dy  Dy3  1  0.243687  0.233741  0.749987  1
  Dy  Dy4  1  0.242277  0.009623  0.249988  1
  Lu  Lu5  1  0.335436  0.668004  0.000346  1
  Lu  Lu6  1  0.655595  0.327467  0.499852  1
  Lu  Lu7  1  0.655575  0.327470  0.000152  1
  Lu  Lu8  1  0.335419  0.667998  0.499652  1
  Lu  Lu9  1  0.755056  0.756157  0.250004  1
  Al  Al10  1  0.398464  0.996529  0.749998  1
  Al  Al11  1  0.399651  0.402862  0.250003  1
  Sb  Sb12  1  0.997062  0.607105  0.249990  1
  Sb  Sb13  1  0.998386  0.392085  0.750009  1
  Sb  Sb14  1  0.604875  0.603647  0.750001  1
  Sb  Sb15  1  0.605521  0.999756  0.250003  1
