# generated using pymatgen
data_Sc3Ni19P6Ru
_symmetry_space_group_name_H-M   'P 1'
_cell_length_a   7.89498425
_cell_length_b   7.89498458
_cell_length_c   7.94058328
_cell_angle_alpha   60.18978231
_cell_angle_beta   60.18978182
_cell_angle_gamma   59.99999965
_symmetry_Int_Tables_number   1
_chemical_formula_structural   Sc3Ni19P6Ru
_chemical_formula_sum   'Sc3 Ni19 P6 Ru1'
_cell_volume   350.97793923
_cell_formula_units_Z   1
loop_
 _symmetry_equiv_pos_site_id
 _symmetry_equiv_pos_as_xyz
  1  'x, y, z'
loop_
 _atom_site_type_symbol
 _atom_site_label
 _atom_site_symmetry_multiplicity
 _atom_site_fract_x
 _atom_site_fract_y
 _atom_site_fract_z
 _atom_site_occupancy
  Sc  Sc0  1  0.748688  0.748688  0.753935  1
  Sc  Sc1  1  0.249601  0.249601  0.251197  1
  Sc  Sc2  1  0.000392  0.000392  0.998824  1
  Ni  Ni3  1  0.620182  0.620182  0.610561  1
  Ni  Ni4  1  0.995914  0.350599  0.999411  1
  Ni  Ni5  1  0.350599  0.995914  0.999411  1
  Ni  Ni6  1  0.999096  0.353675  0.648133  1
  Ni  Ni7  1  0.846819  0.384067  0.385047  1
  Ni  Ni8  1  0.353675  0.999096  0.648133  1
  Ni  Ni9  1  0.995418  0.995418  0.353867  1
  Ni  Ni10  1  0.654076  0.350599  0.999411  1
  Ni  Ni11  1  0.995418  0.655298  0.353867  1
  Ni  Ni12  1  0.999096  0.999096  0.648133  1
  Ni  Ni13  1  0.350599  0.654076  0.999411  1
  Ni  Ni14  1  0.654076  0.995914  0.999411  1
  Ni  Ni15  1  0.995914  0.654076  0.999411  1
  Ni  Ni16  1  0.384067  0.846819  0.385047  1
  Ni  Ni17  1  0.614215  0.614215  0.157355  1
  Ni  Ni18  1  0.620182  0.149076  0.610561  1
  Ni  Ni19  1  0.149076  0.620182  0.610561  1
  Ni  Ni20  1  0.384067  0.384067  0.385047  1
  Ni  Ni21  1  0.655298  0.995418  0.353867  1
  P  P22  1  0.741154  0.261642  0.735561  1
  P  P23  1  0.264170  0.736529  0.262771  1
  P  P24  1  0.261642  0.741154  0.735561  1
  P  P25  1  0.261642  0.261642  0.735561  1
  P  P26  1  0.736529  0.736529  0.262771  1
  P  P27  1  0.736529  0.264170  0.262771  1
  Ru  Ru28  1  0.381866  0.381866  0.854402  1
