# generated using pymatgen
data_Y2ErZr(Ga3Rh)6
_symmetry_space_group_name_H-M   'P 1'
_cell_length_a   7.56081013
_cell_length_b   7.54574876
_cell_length_c   9.47940700
_cell_angle_alpha   90.00000000
_cell_angle_beta   90.00000000
_cell_angle_gamma   119.84456956
_symmetry_Int_Tables_number   1
_chemical_formula_structural   Y2ErZr(Ga3Rh)6
_chemical_formula_sum   'Y2 Er1 Zr1 Ga18 Rh6'
_cell_volume   469.09472216
_cell_formula_units_Z   1
loop_
 _symmetry_equiv_pos_site_id
 _symmetry_equiv_pos_as_xyz
  1  'x, y, z'
loop_
 _atom_site_type_symbol
 _atom_site_label
 _atom_site_symmetry_multiplicity
 _atom_site_fract_x
 _atom_site_fract_y
 _atom_site_fract_z
 _atom_site_occupancy
  Y  Y0  1  0.004147  0.330848  0.750000  1
  Y  Y1  1  0.331322  0.003711  0.750000  1
  Er  Er2  1  0.669490  0.997545  0.250000  1
  Zr  Zr3  1  0.996481  0.668057  0.250000  1
  Ga  Ga4  1  0.123481  0.122263  0.250000  1
  Ga  Ga5  1  0.873093  0.872905  0.750000  1
  Ga  Ga6  1  0.999184  0.337059  0.082709  1
  Ga  Ga7  1  0.000316  0.665547  0.923168  1
  Ga  Ga8  1  0.000316  0.665547  0.576832  1
  Ga  Ga9  1  0.331573  0.997113  0.417179  1
  Ga  Ga10  1  0.999184  0.337059  0.417291  1
  Ga  Ga11  1  0.665661  0.999605  0.578663  1
  Ga  Ga12  1  0.665661  0.999605  0.921337  1
  Ga  Ga13  1  0.331573  0.997113  0.082821  1
  Ga  Ga14  1  0.333279  0.333180  0.563905  1
  Ga  Ga15  1  0.669606  0.667736  0.431935  1
  Ga  Ga16  1  0.669606  0.667736  0.068065  1
  Ga  Ga17  1  0.333279  0.333180  0.936095  1
  Ga  Ga18  1  0.336962  0.548897  0.250000  1
  Ga  Ga19  1  0.661936  0.453587  0.750000  1
  Ga  Ga20  1  0.551813  0.340766  0.250000  1
  Ga  Ga21  1  0.452344  0.660869  0.750000  1
  Rh  Rh22  1  0.672408  0.328954  0.000910  1
  Rh  Rh23  1  0.327751  0.672004  0.001508  1
  Rh  Rh24  1  0.327751  0.672004  0.498492  1
  Rh  Rh25  1  0.672408  0.328954  0.499090  1
  Rh  Rh26  1  0.999688  0.999077  0.001002  1
  Rh  Rh27  1  0.999688  0.999077  0.498998  1
