# generated using pymatgen
data_HoScTcB6
_symmetry_space_group_name_H-M   'P 1'
_cell_length_a   3.57540200
_cell_length_b   8.99220600
_cell_length_c   11.36291900
_cell_angle_alpha   90.00000000
_cell_angle_beta   90.00000000
_cell_angle_gamma   90.00000000
_symmetry_Int_Tables_number   1
_chemical_formula_structural   HoScTcB6
_chemical_formula_sum   'Ho4 Sc4 Tc4 B24'
_cell_volume   365.32638300
_cell_formula_units_Z   4
loop_
 _symmetry_equiv_pos_site_id
 _symmetry_equiv_pos_as_xyz
  1  'x, y, z'
loop_
 _atom_site_type_symbol
 _atom_site_label
 _atom_site_symmetry_multiplicity
 _atom_site_fract_x
 _atom_site_fract_y
 _atom_site_fract_z
 _atom_site_occupancy
  Ho  Ho0  1  0.000000  0.322069  0.414149  1
  Ho  Ho1  1  0.000000  0.677931  0.585851  1
  Ho  Ho2  1  0.000000  0.822069  0.085851  1
  Ho  Ho3  1  0.000000  0.177931  0.914149  1
  Sc  Sc4  1  0.000000  0.944029  0.369761  1
  Sc  Sc5  1  0.000000  0.055971  0.630239  1
  Sc  Sc6  1  0.000000  0.444029  0.130239  1
  Sc  Sc7  1  0.000000  0.555971  0.869761  1
  Tc  Tc8  1  0.000000  0.640802  0.318362  1
  Tc  Tc9  1  0.000000  0.359198  0.681638  1
  Tc  Tc10  1  0.000000  0.140802  0.181638  1
  Tc  Tc11  1  0.000000  0.859198  0.818362  1
  B  B12  1  0.500000  0.554414  0.432689  1
  B  B13  1  0.500000  0.445586  0.567311  1
  B  B14  1  0.500000  0.054414  0.067311  1
  B  B15  1  0.500000  0.945586  0.932689  1
  B  B16  1  0.500000  0.754307  0.418638  1
  B  B17  1  0.500000  0.245693  0.581362  1
  B  B18  1  0.500000  0.254307  0.081362  1
  B  B19  1  0.500000  0.745693  0.918638  1
  B  B20  1  0.500000  0.795236  0.264839  1
  B  B21  1  0.500000  0.204764  0.735161  1
  B  B22  1  0.500000  0.295236  0.235161  1
  B  B23  1  0.500000  0.704764  0.764839  1
  B  B24  1  0.500000  0.629323  0.183047  1
  B  B25  1  0.500000  0.370677  0.816953  1
  B  B26  1  0.500000  0.129323  0.316953  1
  B  B27  1  0.500000  0.870677  0.683047  1
  B  B28  1  0.500000  0.981518  0.213575  1
  B  B29  1  0.500000  0.018482  0.786425  1
  B  B30  1  0.500000  0.481518  0.286425  1
  B  B31  1  0.500000  0.518482  0.713575  1
  B  B32  1  0.500000  0.595825  0.026303  1
  B  B33  1  0.500000  0.404175  0.973697  1
  B  B34  1  0.500000  0.095825  0.473697  1
  B  B35  1  0.500000  0.904175  0.526303  1
