# generated using pymatgen
data_Sr3Tb(Al3Pt)6
_symmetry_space_group_name_H-M   'P 1'
_cell_length_a   7.69739922
_cell_length_b   7.69843283
_cell_length_c   9.62742100
_cell_angle_alpha   90.00000000
_cell_angle_beta   90.00000000
_cell_angle_gamma   119.58085141
_symmetry_Int_Tables_number   1
_chemical_formula_structural   Sr3Tb(Al3Pt)6
_chemical_formula_sum   'Sr3 Tb1 Al18 Pt6'
_cell_volume   496.14175043
_cell_formula_units_Z   1
loop_
 _symmetry_equiv_pos_site_id
 _symmetry_equiv_pos_as_xyz
  1  'x, y, z'
loop_
 _atom_site_type_symbol
 _atom_site_label
 _atom_site_symmetry_multiplicity
 _atom_site_fract_x
 _atom_site_fract_y
 _atom_site_fract_z
 _atom_site_occupancy
  Sr  Sr0  1  0.994567  0.669291  0.250000  1
  Sr  Sr1  1  0.003902  0.330478  0.750000  1
  Sr  Sr2  1  0.670954  0.996178  0.250000  1
  Tb  Tb3  1  0.330115  0.002890  0.750000  1
  Al  Al4  1  0.135909  0.134928  0.250000  1
  Al  Al5  1  0.871022  0.866889  0.750000  1
  Al  Al6  1  0.003375  0.334875  0.072724  1
  Al  Al7  1  0.999655  0.667306  0.922764  1
  Al  Al8  1  0.999655  0.667306  0.577236  1
  Al  Al9  1  0.334489  0.002230  0.428877  1
  Al  Al10  1  0.003375  0.334875  0.427276  1
  Al  Al11  1  0.663527  0.997986  0.577049  1
  Al  Al12  1  0.663527  0.997986  0.922951  1
  Al  Al13  1  0.334489  0.002230  0.071123  1
  Al  Al14  1  0.334286  0.332169  0.557275  1
  Al  Al15  1  0.664524  0.664700  0.450026  1
  Al  Al16  1  0.664524  0.664700  0.049974  1
  Al  Al17  1  0.334286  0.332169  0.942725  1
  Al  Al18  1  0.340367  0.543315  0.250000  1
  Al  Al19  1  0.653687  0.452153  0.750000  1
  Al  Al20  1  0.540955  0.339714  0.250000  1
  Al  Al21  1  0.458249  0.665488  0.750000  1
  Pt  Pt22  1  0.669472  0.328400  0.998589  1
  Pt  Pt23  1  0.329256  0.671332  0.998180  1
  Pt  Pt24  1  0.329256  0.671332  0.501820  1
  Pt  Pt25  1  0.669472  0.328400  0.501411  1
  Pt  Pt26  1  0.001553  0.000339  0.998114  1
  Pt  Pt27  1  0.001553  0.000339  0.501886  1
