# generated using pymatgen
data_Li2Nd8GaSi12Pd
_symmetry_space_group_name_H-M   'P 1'
_cell_length_a   8.26628600
_cell_length_b   8.26628715
_cell_length_c   8.44922900
_cell_angle_alpha   90.00000000
_cell_angle_beta   90.00000000
_cell_angle_gamma   119.99999539
_symmetry_Int_Tables_number   1
_chemical_formula_structural   Li2Nd8GaSi12Pd
_chemical_formula_sum   'Li2 Nd8 Ga1 Si12 Pd1'
_cell_volume   499.99843786
_cell_formula_units_Z   1
loop_
 _symmetry_equiv_pos_site_id
 _symmetry_equiv_pos_as_xyz
  1  'x, y, z'
loop_
 _atom_site_type_symbol
 _atom_site_label
 _atom_site_symmetry_multiplicity
 _atom_site_fract_x
 _atom_site_fract_y
 _atom_site_fract_z
 _atom_site_occupancy
  Li  Li0  1  0.666667  0.333333  0.996629  1
  Li  Li1  1  0.333333  0.666667  0.002703  1
  Nd  Nd2  1  0.498351  0.501649  0.750896  1
  Nd  Nd3  1  0.499317  0.500683  0.249098  1
  Nd  Nd4  1  0.003299  0.501649  0.750896  1
  Nd  Nd5  1  0.001363  0.500683  0.249098  1
  Nd  Nd6  1  0.498351  0.996701  0.750896  1
  Nd  Nd7  1  0.499317  0.998637  0.249098  1
  Nd  Nd8  1  0.000000  0.000000  0.752180  1
  Nd  Nd9  1  0.000000  0.000000  0.247971  1
  Ga  Ga10  1  0.333333  0.666667  0.498189  1
  Si  Si11  1  0.833243  0.166757  0.000463  1
  Si  Si12  1  0.165954  0.834046  0.999710  1
  Si  Si13  1  0.333515  0.166757  0.000463  1
  Si  Si14  1  0.161002  0.838998  0.499895  1
  Si  Si15  1  0.668092  0.834046  0.999710  1
  Si  Si16  1  0.831493  0.168507  0.500302  1
  Si  Si17  1  0.833243  0.666485  0.000463  1
  Si  Si18  1  0.677994  0.838998  0.499895  1
  Si  Si19  1  0.165954  0.331908  0.999710  1
  Si  Si20  1  0.337013  0.168507  0.500302  1
  Si  Si21  1  0.161002  0.322006  0.499895  1
  Si  Si22  1  0.831493  0.662987  0.500302  1
  Pd  Pd23  1  0.666667  0.333333  0.501231  1
