# generated using pymatgen
data_EuCu2SiP
_symmetry_space_group_name_H-M   'P 1'
_cell_length_a   5.73819131
_cell_length_b   5.73819137
_cell_length_c   5.73819171
_cell_angle_alpha   138.47092714
_cell_angle_beta   138.47092854
_cell_angle_gamma   60.18250917
_symmetry_Int_Tables_number   1
_chemical_formula_structural   EuCu2SiP
_chemical_formula_sum   'Eu1 Cu2 Si1 P1'
_cell_volume   82.18969914
_cell_formula_units_Z   1
loop_
 _symmetry_equiv_pos_site_id
 _symmetry_equiv_pos_as_xyz
  1  'x, y, z'
loop_
 _atom_site_type_symbol
 _atom_site_label
 _atom_site_symmetry_multiplicity
 _atom_site_fract_x
 _atom_site_fract_y
 _atom_site_fract_z
 _atom_site_occupancy
  Eu  Eu0  1  0.003909  0.003909  0.000000  1
  Cu  Cu1  1  0.251542  0.751542  0.500000  1
  Cu  Cu2  1  0.751542  0.251542  0.500000  1
  Si  Si3  1  0.378805  0.378805  0.000000  1
  P  P4  1  0.614202  0.614202  0.000000  1
