# generated using pymatgen
data_NaTl2Pd3F12
_symmetry_space_group_name_H-M   'P 1'
_cell_length_a   7.39650091
_cell_length_b   7.87703560
_cell_length_c   10.57365300
_cell_angle_alpha   89.95126571
_cell_angle_beta   85.48315205
_cell_angle_gamma   89.40090874
_symmetry_Int_Tables_number   1
_chemical_formula_structural   NaTl2Pd3F12
_chemical_formula_sum   'Na2 Tl4 Pd6 F24'
_cell_volume   614.10058817
_cell_formula_units_Z   2
loop_
 _symmetry_equiv_pos_site_id
 _symmetry_equiv_pos_as_xyz
  1  'x, y, z'
loop_
 _atom_site_type_symbol
 _atom_site_label
 _atom_site_symmetry_multiplicity
 _atom_site_fract_x
 _atom_site_fract_y
 _atom_site_fract_z
 _atom_site_occupancy
  Na  Na0  1  0.708862  0.245412  0.746978  1
  Na  Na1  1  0.291138  0.754588  0.253022  1
  Tl  Tl2  1  0.534159  0.753665  0.590195  1
  Tl  Tl3  1  0.465841  0.246335  0.409805  1
  Tl  Tl4  1  0.045477  0.260714  0.139217  1
  Tl  Tl5  1  0.954523  0.739286  0.860783  1
  Pd  Pd6  1  0.816037  0.748598  0.211600  1
  Pd  Pd7  1  0.183963  0.251402  0.788400  1
  Pd  Pd8  1  0.000000  0.500000  0.500000  1
  Pd  Pd9  1  0.000000  0.000000  0.500000  1
  Pd  Pd10  1  0.500000  0.000000  0.000000  1
  Pd  Pd11  1  0.500000  0.500000  0.000000  1
  F  F12  1  0.049090  0.736172  0.109363  1
  F  F13  1  0.950910  0.263828  0.890637  1
  F  F14  1  0.586286  0.759627  0.320254  1
  F  F15  1  0.413714  0.240373  0.679746  1
  F  F16  1  0.749487  0.446445  0.564791  1
  F  F17  1  0.250513  0.553555  0.435209  1
  F  F18  1  0.743490  0.053075  0.553343  1
  F  F19  1  0.256510  0.946925  0.446657  1
  F  F20  1  0.639800  0.956217  0.836422  1
  F  F21  1  0.360200  0.043783  0.163578  1
  F  F22  1  0.639944  0.542434  0.836814  1
  F  F23  1  0.360056  0.457566  0.163186  1
  F  F24  1  0.581671  0.249243  0.976523  1
  F  F25  1  0.418329  0.750757  0.023477  1
  F  F26  1  0.273637  0.437889  0.907613  1
  F  F27  1  0.726363  0.562111  0.092387  1
  F  F28  1  0.268011  0.064573  0.910548  1
  F  F29  1  0.731989  0.935427  0.089452  1
  F  F30  1  0.063898  0.071433  0.680929  1
  F  F31  1  0.936102  0.928567  0.319071  1
  F  F32  1  0.948432  0.751445  0.559699  1
  F  F33  1  0.051568  0.248555  0.440301  1
  F  F34  1  0.086025  0.441969  0.678024  1
  F  F35  1  0.913975  0.558031  0.321976  1
