# generated using pymatgen
data_Tb2NdIr5Rh4
_symmetry_space_group_name_H-M   'P 1'
_cell_length_a   5.33414162
_cell_length_b   5.32753332
_cell_length_c   17.52210013
_cell_angle_alpha   90.00000025
_cell_angle_beta   90.03567350
_cell_angle_gamma   119.95902444
_symmetry_Int_Tables_number   1
_chemical_formula_structural   Tb2NdIr5Rh4
_chemical_formula_sum   'Tb4 Nd2 Ir10 Rh8'
_cell_volume   431.40638153
_cell_formula_units_Z   2
loop_
 _symmetry_equiv_pos_site_id
 _symmetry_equiv_pos_as_xyz
  1  'x, y, z'
loop_
 _atom_site_type_symbol
 _atom_site_label
 _atom_site_symmetry_multiplicity
 _atom_site_fract_x
 _atom_site_fract_y
 _atom_site_fract_z
 _atom_site_occupancy
  Tb  Tb0  1  0.333229  0.666615  0.541002  1
  Tb  Tb1  1  0.666119  0.333059  0.040577  1
  Tb  Tb2  1  0.666769  0.333384  0.459207  1
  Tb  Tb3  1  0.332038  0.666020  0.959300  1
  Nd  Nd4  1  0.333481  0.666741  0.749845  1
  Nd  Nd5  1  0.666833  0.333416  0.249202  1
  Ir  Ir6  1  0.167669  0.334921  0.125854  1
  Ir  Ir7  1  0.832717  0.665069  0.625135  1
  Ir  Ir8  1  0.665445  0.832722  0.125636  1
  Ir  Ir9  1  0.167669  0.832747  0.125854  1
  Ir  Ir10  1  0.832717  0.167649  0.625135  1
  Ir  Ir11  1  0.334251  0.167126  0.625596  1
  Ir  Ir12  1  0.835210  0.665976  0.874523  1
  Ir  Ir13  1  0.835210  0.169236  0.874523  1
  Ir  Ir14  1  0.995467  0.997734  0.999550  1
  Ir  Ir15  1  0.000743  0.000372  0.499668  1
  Rh  Rh16  1  0.336553  0.168277  0.874770  1
  Rh  Rh17  1  0.665929  0.832964  0.375048  1
  Rh  Rh18  1  0.166643  0.832670  0.374965  1
  Rh  Rh19  1  0.166643  0.333972  0.374965  1
  Rh  Rh20  1  0.000362  0.000181  0.249859  1
  Rh  Rh21  1  0.997336  0.998668  0.749867  1
  Rh  Rh22  1  0.333501  0.666751  0.250102  1
  Rh  Rh23  1  0.667466  0.333732  0.749817  1
