# generated using pymatgen
data_Fe4Pt11Rh
_symmetry_space_group_name_H-M   'P 1'
_cell_length_a   3.93293700
_cell_length_b   5.53060326
_cell_length_c   11.07205723
_cell_angle_alpha   90.35250749
_cell_angle_beta   90.00000000
_cell_angle_gamma   90.00000000
_symmetry_Int_Tables_number   1
_chemical_formula_structural   Fe4Pt11Rh
_chemical_formula_sum   'Fe4 Pt11 Rh1'
_cell_volume   240.82945212
_cell_formula_units_Z   1
loop_
 _symmetry_equiv_pos_site_id
 _symmetry_equiv_pos_as_xyz
  1  'x, y, z'
loop_
 _atom_site_type_symbol
 _atom_site_label
 _atom_site_symmetry_multiplicity
 _atom_site_fract_x
 _atom_site_fract_y
 _atom_site_fract_z
 _atom_site_occupancy
  Fe  Fe0  1  0.500000  0.751772  0.373532  1
  Fe  Fe1  1  0.500000  0.748533  0.876565  1
  Fe  Fe2  1  0.500000  0.251467  0.123435  1
  Fe  Fe3  1  0.500000  0.248228  0.626468  1
  Pt  Pt4  1  0.000000  0.005346  0.247193  1
  Pt  Pt5  1  0.000000  0.994654  0.752807  1
  Pt  Pt6  1  0.000000  0.500000  0.000000  1
  Pt  Pt7  1  0.000000  0.500000  0.500000  1
  Pt  Pt8  1  0.000000  0.505049  0.249655  1
  Pt  Pt9  1  0.000000  0.494951  0.750345  1
  Pt  Pt10  1  0.500000  0.250283  0.374534  1
  Pt  Pt11  1  0.500000  0.243483  0.878247  1
  Pt  Pt12  1  0.500000  0.756517  0.121753  1
  Pt  Pt13  1  0.500000  0.749717  0.625466  1
  Pt  Pt14  1  0.000000  0.000000  0.500000  1
  Rh  Rh15  1  0.000000  0.000000  0.000000  1
