# generated using pymatgen
data_Sr4IrW3O16
_symmetry_space_group_name_H-M   'P 1'
_cell_length_a   5.15289326
_cell_length_b   5.62551915
_cell_length_c   13.05615700
_cell_angle_alpha   90.00000000
_cell_angle_beta   90.00000000
_cell_angle_gamma   90.26000256
_symmetry_Int_Tables_number   1
_chemical_formula_structural   Sr4IrW3O16
_chemical_formula_sum   'Sr4 Ir1 W3 O16'
_cell_volume   378.46406209
_cell_formula_units_Z   1
loop_
 _symmetry_equiv_pos_site_id
 _symmetry_equiv_pos_as_xyz
  1  'x, y, z'
loop_
 _atom_site_type_symbol
 _atom_site_label
 _atom_site_symmetry_multiplicity
 _atom_site_fract_x
 _atom_site_fract_y
 _atom_site_fract_z
 _atom_site_occupancy
  Sr  Sr0  1  0.750000  0.000000  0.657675  1
  Sr  Sr1  1  0.250000  0.500000  0.841243  1
  Sr  Sr2  1  0.250000  0.000000  0.342486  1
  Sr  Sr3  1  0.750000  0.500000  0.160600  1
  Ir  Ir4  1  0.750000  0.500000  0.429347  1
  W  W5  1  0.250000  0.000000  0.076176  1
  W  W6  1  0.250000  0.500000  0.573570  1
  W  W7  1  0.750000  0.000000  0.924203  1
  O  O8  1  0.131311  0.285435  0.669578  1
  O  O9  1  0.625253  0.210037  0.828350  1
  O  O10  1  0.874747  0.789963  0.828350  1
  O  O11  1  0.368689  0.714565  0.669578  1
  O  O12  1  0.879864  0.707361  0.330003  1
  O  O13  1  0.376172  0.790777  0.171881  1
  O  O14  1  0.123828  0.209223  0.171881  1
  O  O15  1  0.620136  0.292639  0.330003  1
  O  O16  1  0.561210  0.311571  0.542743  1
  O  O17  1  0.058491  0.189412  0.956521  1
  O  O18  1  0.441509  0.810588  0.956521  1
  O  O19  1  0.938790  0.688429  0.542743  1
  O  O20  1  0.435256  0.688452  0.454508  1
  O  O21  1  0.941637  0.810153  0.043767  1
  O  O22  1  0.558363  0.189847  0.043767  1
  O  O23  1  0.064744  0.311548  0.454508  1
