# generated using pymatgen
data_Ac2(SO4)3
_symmetry_space_group_name_H-M   'P 1'
_cell_length_a   11.76403140
_cell_length_b   11.76403206
_cell_length_c   7.32382702
_cell_angle_alpha   72.94854611
_cell_angle_beta   72.94854511
_cell_angle_gamma   34.69088863
_symmetry_Int_Tables_number   1
_chemical_formula_structural   Ac2(SO4)3
_chemical_formula_sum   'Ac4 S6 O24'
_cell_volume   548.97321084
_cell_formula_units_Z   2
loop_
 _symmetry_equiv_pos_site_id
 _symmetry_equiv_pos_as_xyz
  1  'x, y, z'
loop_
 _atom_site_type_symbol
 _atom_site_label
 _atom_site_symmetry_multiplicity
 _atom_site_fract_x
 _atom_site_fract_y
 _atom_site_fract_z
 _atom_site_occupancy
  Ac  Ac0  1  0.215004  0.521569  0.629592  1
  Ac  Ac1  1  0.478431  0.784996  0.870408  1
  Ac  Ac2  1  0.784996  0.478431  0.370408  1
  Ac  Ac3  1  0.521569  0.215004  0.129592  1
  S  S4  1  0.662212  0.337788  0.250000  1
  S  S5  1  0.337788  0.662212  0.750000  1
  S  S6  1  0.993946  0.371676  0.821883  1
  S  S7  1  0.628324  0.006054  0.678117  1
  S  S8  1  0.006054  0.628324  0.178117  1
  S  S9  1  0.371676  0.993946  0.321883  1
  O  O10  1  0.591187  0.518208  0.149780  1
  O  O11  1  0.481792  0.408813  0.350220  1
  O  O12  1  0.408813  0.481792  0.850220  1
  O  O13  1  0.518208  0.591187  0.649780  1
  O  O14  1  0.139109  0.156524  0.873326  1
  O  O15  1  0.843476  0.860891  0.626674  1
  O  O16  1  0.860891  0.843476  0.126674  1
  O  O17  1  0.156524  0.139109  0.373326  1
  O  O18  1  0.799093  0.242241  0.387643  1
  O  O19  1  0.757759  0.200907  0.112357  1
  O  O20  1  0.537639  0.155133  0.800003  1
  O  O21  1  0.844867  0.462361  0.699997  1
  O  O22  1  0.462361  0.844867  0.199997  1
  O  O23  1  0.155133  0.537639  0.300003  1
  O  O24  1  0.401886  0.095841  0.216938  1
  O  O25  1  0.904159  0.598114  0.283062  1
  O  O26  1  0.598114  0.904159  0.783062  1
  O  O27  1  0.095841  0.401886  0.716938  1
  O  O28  1  0.482805  0.869783  0.497310  1
  O  O29  1  0.130217  0.517195  0.002690  1
  O  O30  1  0.517195  0.130217  0.502690  1
  O  O31  1  0.869783  0.482805  0.997310  1
  O  O32  1  0.242241  0.799093  0.887643  1
  O  O33  1  0.200907  0.757759  0.612357  1
