# generated using pymatgen
data_Tb2Er3InSb2
_symmetry_space_group_name_H-M   'P 1'
_cell_length_a   8.95911672
_cell_length_b   8.92290254
_cell_length_c   6.43908700
_cell_angle_alpha   90.00000000
_cell_angle_beta   90.00000000
_cell_angle_gamma   119.86637179
_symmetry_Int_Tables_number   1
_chemical_formula_structural   Tb2Er3InSb2
_chemical_formula_sum   'Tb4 Er6 In2 Sb4'
_cell_volume   446.38488897
_cell_formula_units_Z   2
loop_
 _symmetry_equiv_pos_site_id
 _symmetry_equiv_pos_as_xyz
  1  'x, y, z'
loop_
 _atom_site_type_symbol
 _atom_site_label
 _atom_site_symmetry_multiplicity
 _atom_site_fract_x
 _atom_site_fract_y
 _atom_site_fract_z
 _atom_site_occupancy
  Tb  Tb0  1  0.002639  0.760552  0.750000  1
  Tb  Tb1  1  0.002639  0.242088  0.250000  1
  Tb  Tb2  1  0.757637  0.759113  0.250000  1
  Tb  Tb3  1  0.757637  0.998524  0.750000  1
  Er  Er4  1  0.241629  0.237705  0.750000  1
  Er  Er5  1  0.241629  0.003925  0.250000  1
  Er  Er6  1  0.333816  0.666908  0.500000  1
  Er  Er7  1  0.663241  0.331620  0.000000  1
  Er  Er8  1  0.663241  0.331620  0.500000  1
  Er  Er9  1  0.333816  0.666908  0.000000  1
  In  In10  1  0.394612  0.999103  0.750000  1
  In  In11  1  0.394612  0.395509  0.250000  1
  Sb  Sb12  1  0.999738  0.608127  0.250000  1
  Sb  Sb13  1  0.999738  0.391611  0.750000  1
  Sb  Sb14  1  0.606688  0.606213  0.750000  1
  Sb  Sb15  1  0.606688  0.000475  0.250000  1
