# generated using pymatgen
data_Sm2Lu3Ga4
_symmetry_space_group_name_H-M   'P 1'
_cell_length_a   7.50396800
_cell_length_b   7.81129500
_cell_length_c   15.07449300
_cell_angle_alpha   90.00000000
_cell_angle_beta   90.00000000
_cell_angle_gamma   90.00000000
_symmetry_Int_Tables_number   1
_chemical_formula_structural   Sm2Lu3Ga4
_chemical_formula_sum   'Sm8 Lu12 Ga16'
_cell_volume   883.60207569
_cell_formula_units_Z   4
loop_
 _symmetry_equiv_pos_site_id
 _symmetry_equiv_pos_as_xyz
  1  'x, y, z'
loop_
 _atom_site_type_symbol
 _atom_site_label
 _atom_site_symmetry_multiplicity
 _atom_site_fract_x
 _atom_site_fract_y
 _atom_site_fract_z
 _atom_site_occupancy
  Sm  Sm0  1  0.014393  0.177107  0.096056  1
  Sm  Sm1  1  0.985607  0.822893  0.903944  1
  Sm  Sm2  1  0.485607  0.677107  0.903944  1
  Sm  Sm3  1  0.985607  0.822893  0.596056  1
  Sm  Sm4  1  0.514393  0.322893  0.096056  1
  Sm  Sm5  1  0.014393  0.177107  0.403944  1
  Sm  Sm6  1  0.514393  0.322893  0.403944  1
  Sm  Sm7  1  0.485607  0.677107  0.596056  1
  Lu  Lu8  1  0.162385  0.508217  0.750000  1
  Lu  Lu9  1  0.837615  0.491783  0.250000  1
  Lu  Lu10  1  0.337615  0.008217  0.250000  1
  Lu  Lu11  1  0.662385  0.991783  0.750000  1
  Lu  Lu12  1  0.328776  0.176079  0.622946  1
  Lu  Lu13  1  0.671224  0.823921  0.377054  1
  Lu  Lu14  1  0.171224  0.676079  0.377054  1
  Lu  Lu15  1  0.671224  0.823921  0.122946  1
  Lu  Lu16  1  0.828776  0.323921  0.622946  1
  Lu  Lu17  1  0.328776  0.176079  0.877054  1
  Lu  Lu18  1  0.828776  0.323921  0.877054  1
  Lu  Lu19  1  0.171224  0.676079  0.122946  1
  Ga  Ga20  1  0.033652  0.113960  0.750000  1
  Ga  Ga21  1  0.966348  0.886040  0.250000  1
  Ga  Ga22  1  0.466348  0.613960  0.250000  1
  Ga  Ga23  1  0.533652  0.386040  0.750000  1
  Ga  Ga24  1  0.281333  0.875067  0.750000  1
  Ga  Ga25  1  0.718667  0.124933  0.250000  1
  Ga  Ga26  1  0.218667  0.375067  0.250000  1
  Ga  Ga27  1  0.781333  0.624933  0.750000  1
  Ga  Ga28  1  0.156861  0.467284  0.539355  1
  Ga  Ga29  1  0.843139  0.532716  0.460645  1
  Ga  Ga30  1  0.343139  0.967284  0.460645  1
  Ga  Ga31  1  0.843139  0.532716  0.039355  1
  Ga  Ga32  1  0.656861  0.032716  0.539355  1
  Ga  Ga33  1  0.156861  0.467284  0.960645  1
  Ga  Ga34  1  0.656861  0.032716  0.960645  1
  Ga  Ga35  1  0.343139  0.967284  0.039355  1
