# generated using pymatgen
data_Zr2ZnB2IrRu4
_symmetry_space_group_name_H-M   'P 1'
_cell_length_a   9.38352847
_cell_length_b   9.42887345
_cell_length_c   3.09190900
_cell_angle_alpha   90.00000000
_cell_angle_beta   90.00000000
_cell_angle_gamma   90.03593340
_symmetry_Int_Tables_number   1
_chemical_formula_structural   Zr2ZnB2IrRu4
_chemical_formula_sum   'Zr4 Zn2 B4 Ir2 Ru8'
_cell_volume   273.56000382
_cell_formula_units_Z   2
loop_
 _symmetry_equiv_pos_site_id
 _symmetry_equiv_pos_as_xyz
  1  'x, y, z'
loop_
 _atom_site_type_symbol
 _atom_site_label
 _atom_site_symmetry_multiplicity
 _atom_site_fract_x
 _atom_site_fract_y
 _atom_site_fract_z
 _atom_site_occupancy
  Zr  Zr0  1  0.675397  0.177795  0.000000  1
  Zr  Zr1  1  0.324603  0.822205  0.000000  1
  Zr  Zr2  1  0.174235  0.327896  0.000000  1
  Zr  Zr3  1  0.825765  0.672104  0.000000  1
  Zn  Zn4  1  0.000000  0.000000  0.000000  1
  Zn  Zn5  1  0.500000  0.500000  0.000000  1
  B  B6  1  0.124885  0.625591  0.000000  1
  B  B7  1  0.875115  0.374409  0.000000  1
  B  B8  1  0.623387  0.873591  0.000000  1
  B  B9  1  0.376613  0.126409  0.000000  1
  Ir  Ir10  1  0.216357  0.070532  0.500000  1
  Ir  Ir11  1  0.783643  0.929468  0.500000  1
  Ru  Ru12  1  0.070808  0.784239  0.500000  1
  Ru  Ru13  1  0.715377  0.428426  0.500000  1
  Ru  Ru14  1  0.929192  0.215761  0.500000  1
  Ru  Ru15  1  0.284623  0.571574  0.500000  1
  Ru  Ru16  1  0.571080  0.716554  0.500000  1
  Ru  Ru17  1  0.428920  0.283446  0.500000  1
  Ru  Ru18  1  0.500000  0.000000  0.500000  1
  Ru  Ru19  1  0.000000  0.500000  0.500000  1
