# generated using pymatgen
data_Rb2Li2CoO4
_symmetry_space_group_name_H-M   'P 1'
_cell_length_a   9.09046033
_cell_length_b   5.81399196
_cell_length_c   5.67967307
_cell_angle_alpha   94.45094392
_cell_angle_beta   110.15266112
_cell_angle_gamma   93.62670084
_symmetry_Int_Tables_number   1
_chemical_formula_structural   Rb2Li2CoO4
_chemical_formula_sum   'Rb4 Li4 Co2 O8'
_cell_volume   279.65199089
_cell_formula_units_Z   2
loop_
 _symmetry_equiv_pos_site_id
 _symmetry_equiv_pos_as_xyz
  1  'x, y, z'
loop_
 _atom_site_type_symbol
 _atom_site_label
 _atom_site_symmetry_multiplicity
 _atom_site_fract_x
 _atom_site_fract_y
 _atom_site_fract_z
 _atom_site_occupancy
  Rb  Rb0  1  0.977402  0.722858  0.192096  1
  Rb  Rb1  1  0.724346  0.151053  0.200336  1
  Rb  Rb2  1  0.275659  0.848941  0.799671  1
  Rb  Rb3  1  0.022600  0.277133  0.807913  1
  Li  Li4  1  0.419403  0.407505  0.119328  1
  Li  Li5  1  0.445909  0.811592  0.367702  1
  Li  Li6  1  0.554095  0.188409  0.632304  1
  Li  Li7  1  0.580604  0.592494  0.880664  1
  Co  Co8  1  0.275579  0.313892  0.419114  1
  Co  Co9  1  0.724411  0.686110  0.580877  1
  O  O10  1  0.611180  0.641678  0.241292  1
  O  O11  1  0.276035  0.571250  0.257328  1
  O  O12  1  0.394980  0.129410  0.289939  1
  O  O13  1  0.077077  0.203056  0.347077  1
  O  O14  1  0.922915  0.796936  0.652914  1
  O  O15  1  0.605026  0.870602  0.710074  1
  O  O16  1  0.723965  0.428757  0.742676  1
  O  O17  1  0.388813  0.358319  0.758700  1
