# generated using pymatgen
data_EuInAg5
_symmetry_space_group_name_H-M   'P 1'
_cell_length_a   5.89971737
_cell_length_b   5.90014606
_cell_length_c   5.89971702
_cell_angle_alpha   103.26730934
_cell_angle_beta   103.26561052
_cell_angle_gamma   122.75066040
_symmetry_Int_Tables_number   1
_chemical_formula_structural   EuInAg5
_chemical_formula_sum   'Eu1 In1 Ag5'
_cell_volume   151.61350543
_cell_formula_units_Z   1
loop_
 _symmetry_equiv_pos_site_id
 _symmetry_equiv_pos_as_xyz
  1  'x, y, z'
loop_
 _atom_site_type_symbol
 _atom_site_label
 _atom_site_symmetry_multiplicity
 _atom_site_fract_x
 _atom_site_fract_y
 _atom_site_fract_z
 _atom_site_occupancy
  Eu  Eu0  1  0.000019  0.000014  0.999995  1
  In  In1  1  0.750008  0.250013  0.500005  1
  Ag  Ag2  1  0.692666  0.307322  0.999999  1
  Ag  Ag3  1  0.307324  0.692668  0.000001  1
  Ag  Ag4  1  0.307323  0.307322  0.614655  1
  Ag  Ag5  1  0.692668  0.692668  0.385345  1
  Ag  Ag6  1  0.249992  0.749994  0.500001  1
