# generated using pymatgen
data_AcNd4(B3Ru)2
_symmetry_space_group_name_H-M   'P 1'
_cell_length_a   5.61452372
_cell_length_b   5.61452446
_cell_length_c   8.87636105
_cell_angle_alpha   71.56292292
_cell_angle_beta   71.56292264
_cell_angle_gamma   60.00000710
_symmetry_Int_Tables_number   1
_chemical_formula_structural   AcNd4(B3Ru)2
_chemical_formula_sum   'Ac1 Nd4 B6 Ru2'
_cell_volume   225.58494816
_cell_formula_units_Z   1
loop_
 _symmetry_equiv_pos_site_id
 _symmetry_equiv_pos_as_xyz
  1  'x, y, z'
loop_
 _atom_site_type_symbol
 _atom_site_label
 _atom_site_symmetry_multiplicity
 _atom_site_fract_x
 _atom_site_fract_y
 _atom_site_fract_z
 _atom_site_occupancy
  Ac  Ac0  1  0.000000  0.000000  0.000000  1
  Nd  Nd1  1  0.247846  0.247846  0.256461  1
  Nd  Nd2  1  0.752154  0.752154  0.743539  1
  Nd  Nd3  1  0.418793  0.418793  0.743619  1
  Nd  Nd4  1  0.581207  0.581207  0.256381  1
  B  B5  1  0.171984  0.828016  0.500000  1
  B  B6  1  0.828016  0.500000  0.500000  1
  B  B7  1  0.500000  0.171984  0.500000  1
  B  B8  1  0.171984  0.500000  0.500000  1
  B  B9  1  0.500000  0.828016  0.500000  1
  B  B10  1  0.828016  0.171984  0.500000  1
  Ru  Ru11  1  0.115808  0.115808  0.652576  1
  Ru  Ru12  1  0.884192  0.884192  0.347424  1
