# generated using pymatgen
data_CeHo11Ga20
_symmetry_space_group_name_H-M   'P 1'
_cell_length_a   6.11578093
_cell_length_b   9.61567635
_cell_length_c   11.51792374
_cell_angle_alpha   89.95430369
_cell_angle_beta   89.87477067
_cell_angle_gamma   89.90132224
_symmetry_Int_Tables_number   1
_chemical_formula_structural   CeHo11Ga20
_chemical_formula_sum   'Ce1 Ho11 Ga20'
_cell_volume   677.33596761
_cell_formula_units_Z   1
loop_
 _symmetry_equiv_pos_site_id
 _symmetry_equiv_pos_as_xyz
  1  'x, y, z'
loop_
 _atom_site_type_symbol
 _atom_site_label
 _atom_site_symmetry_multiplicity
 _atom_site_fract_x
 _atom_site_fract_y
 _atom_site_fract_z
 _atom_site_occupancy
  Ce  Ce0  1  0.888901  0.509791  0.352634  1
  Ho  Ho1  1  0.849060  0.749343  0.074663  1
  Ho  Ho2  1  0.650655  0.750148  0.575532  1
  Ho  Ho3  1  0.150844  0.249845  0.924234  1
  Ho  Ho4  1  0.351218  0.251087  0.425095  1
  Ho  Ho5  1  0.608912  0.989356  0.851465  1
  Ho  Ho6  1  0.111543  0.009831  0.648905  1
  Ho  Ho7  1  0.389547  0.490268  0.148102  1
  Ho  Ho8  1  0.109801  0.490440  0.649623  1
  Ho  Ho9  1  0.390670  0.009369  0.148262  1
  Ho  Ho10  1  0.889906  0.991271  0.351770  1
  Ho  Ho11  1  0.609360  0.509477  0.851091  1
  Ga  Ga12  1  0.874757  0.053008  0.090878  1
  Ga  Ga13  1  0.625682  0.445498  0.590623  1
  Ga  Ga14  1  0.125820  0.553882  0.909353  1
  Ga  Ga15  1  0.373783  0.947559  0.409014  1
  Ga  Ga16  1  0.125136  0.946360  0.909511  1
  Ga  Ga17  1  0.377739  0.554948  0.409594  1
  Ga  Ga18  1  0.873851  0.445728  0.089287  1
  Ga  Ga19  1  0.626289  0.053303  0.591443  1
  Ga  Ga20  1  0.173452  0.750848  0.252381  1
  Ga  Ga21  1  0.325564  0.750143  0.752551  1
  Ga  Ga22  1  0.825249  0.248987  0.748346  1
  Ga  Ga23  1  0.672705  0.249014  0.245862  1
  Ga  Ga24  1  0.374546  0.750088  0.005060  1
  Ga  Ga25  1  0.126212  0.750447  0.504010  1
  Ga  Ga26  1  0.625523  0.249528  0.994302  1
  Ga  Ga27  1  0.874592  0.248843  0.497092  1
  Ga  Ga28  1  0.601993  0.751982  0.298790  1
  Ga  Ga29  1  0.897562  0.750063  0.798870  1
  Ga  Ga30  1  0.397358  0.249903  0.700855  1
  Ga  Ga31  1  0.101768  0.249641  0.200801  1
