# generated using pymatgen
data_Ho4LuPaGa10
_symmetry_space_group_name_H-M   'P 1'
_cell_length_a   6.08893730
_cell_length_b   9.58048649
_cell_length_c   11.48680000
_cell_angle_alpha   90.00000000
_cell_angle_beta   90.00000000
_cell_angle_gamma   89.96361586
_symmetry_Int_Tables_number   1
_chemical_formula_structural   Ho4LuPaGa10
_chemical_formula_sum   'Ho8 Lu2 Pa2 Ga20'
_cell_volume   670.08213113
_cell_formula_units_Z   2
loop_
 _symmetry_equiv_pos_site_id
 _symmetry_equiv_pos_as_xyz
  1  'x, y, z'
loop_
 _atom_site_type_symbol
 _atom_site_label
 _atom_site_symmetry_multiplicity
 _atom_site_fract_x
 _atom_site_fract_y
 _atom_site_fract_z
 _atom_site_occupancy
  Ho  Ho0  1  0.847750  0.750554  0.072784  1
  Ho  Ho1  1  0.652250  0.749446  0.572784  1
  Ho  Ho2  1  0.887844  0.508300  0.351417  1
  Ho  Ho3  1  0.612156  0.991700  0.851417  1
  Ho  Ho4  1  0.113676  0.008644  0.648114  1
  Ho  Ho5  1  0.386324  0.491356  0.148114  1
  Ho  Ho6  1  0.114431  0.491487  0.648113  1
  Ho  Ho7  1  0.385569  0.008513  0.148113  1
  Lu  Lu8  1  0.144645  0.251715  0.926269  1
  Lu  Lu9  1  0.355355  0.248285  0.426269  1
  Pa  Pa10  1  0.886421  0.990536  0.353066  1
  Pa  Pa11  1  0.613579  0.509464  0.853066  1
  Ga  Ga12  1  0.872771  0.054830  0.091616  1
  Ga  Ga13  1  0.627229  0.445170  0.591616  1
  Ga  Ga14  1  0.122653  0.550490  0.909188  1
  Ga  Ga15  1  0.377347  0.949510  0.409188  1
  Ga  Ga16  1  0.124612  0.950484  0.908408  1
  Ga  Ga17  1  0.375388  0.549516  0.408408  1
  Ga  Ga18  1  0.871727  0.445008  0.090871  1
  Ga  Ga19  1  0.628273  0.054992  0.590871  1
  Ga  Ga20  1  0.165315  0.749938  0.254977  1
  Ga  Ga21  1  0.334685  0.750062  0.754977  1
  Ga  Ga22  1  0.832442  0.250533  0.744045  1
  Ga  Ga23  1  0.667558  0.249467  0.244045  1
  Ga  Ga24  1  0.371402  0.749435  0.999866  1
  Ga  Ga25  1  0.128598  0.750565  0.499866  1
  Ga  Ga26  1  0.615258  0.250757  0.997024  1
  Ga  Ga27  1  0.884742  0.249243  0.497024  1
  Ga  Ga28  1  0.597732  0.750120  0.297586  1
  Ga  Ga29  1  0.902268  0.749880  0.797586  1
  Ga  Ga30  1  0.400029  0.251435  0.706655  1
  Ga  Ga31  1  0.099971  0.248565  0.206655  1
