# generated using pymatgen
data_PrNd(Be2Rh3)2
_symmetry_space_group_name_H-M   'P 1'
_cell_length_a   6.47608986
_cell_length_b   6.47395629
_cell_length_c   6.47608963
_cell_angle_alpha   129.35703797
_cell_angle_beta   117.31439883
_cell_angle_gamma   84.67267634
_symmetry_Int_Tables_number   1
_chemical_formula_structural   PrNd(Be2Rh3)2
_chemical_formula_sum   'Pr1 Nd1 Be4 Rh6'
_cell_volume   178.60371011
_cell_formula_units_Z   1
loop_
 _symmetry_equiv_pos_site_id
 _symmetry_equiv_pos_as_xyz
  1  'x, y, z'
loop_
 _atom_site_type_symbol
 _atom_site_label
 _atom_site_symmetry_multiplicity
 _atom_site_fract_x
 _atom_site_fract_y
 _atom_site_fract_z
 _atom_site_occupancy
  Pr  Pr0  1  0.750000  0.004913  0.254912  1
  Nd  Nd1  1  0.250053  0.994805  0.744752  1
  Be  Be2  1  0.581926  0.340160  0.758233  1
  Be  Be3  1  0.417371  0.659019  0.241648  1
  Be  Be4  1  0.082682  0.324141  0.241458  1
  Be  Be5  1  0.917970  0.676395  0.758426  1
  Rh  Rh6  1  0.245770  0.500352  0.745819  1
  Rh  Rh7  1  0.745539  0.000023  0.745872  1
  Rh  Rh8  1  0.754533  0.500352  0.254581  1
  Rh  Rh9  1  0.254151  0.000023  0.254482  1
  Rh  Rh10  1  0.499683  0.499910  0.499588  1
  Rh  Rh11  1  0.000322  0.499910  0.000227  1
