# generated using pymatgen
data_Yb2Cu3Pt3O8
_symmetry_space_group_name_H-M   'P 1'
_cell_length_a   5.73225200
_cell_length_b   5.69903900
_cell_length_c   5.66843300
_cell_angle_alpha   90.00000000
_cell_angle_beta   90.00000000
_cell_angle_gamma   90.00000000
_symmetry_Int_Tables_number   1
_chemical_formula_structural   Yb2Cu3Pt3O8
_chemical_formula_sum   'Yb2 Cu3 Pt3 O8'
_cell_volume   185.17822682
_cell_formula_units_Z   1
loop_
 _symmetry_equiv_pos_site_id
 _symmetry_equiv_pos_as_xyz
  1  'x, y, z'
loop_
 _atom_site_type_symbol
 _atom_site_label
 _atom_site_symmetry_multiplicity
 _atom_site_fract_x
 _atom_site_fract_y
 _atom_site_fract_z
 _atom_site_occupancy
  Yb  Yb0  1  0.993450  0.000000  0.000000  1
  Yb  Yb1  1  0.504964  0.500000  0.500000  1
  Cu  Cu2  1  0.504972  0.251540  0.000000  1
  Cu  Cu3  1  0.504972  0.748460  0.000000  1
  Cu  Cu4  1  0.753195  0.000000  0.500000  1
  Pt  Pt5  1  0.995756  0.500000  0.251103  1
  Pt  Pt6  1  0.995756  0.500000  0.748897  1
  Pt  Pt7  1  0.250899  0.000000  0.500000  1
  O  O8  1  0.254183  0.250546  0.244486  1
  O  O9  1  0.254183  0.749454  0.244486  1
  O  O10  1  0.254183  0.250546  0.755514  1
  O  O11  1  0.254183  0.749454  0.755514  1
  O  O12  1  0.744826  0.246346  0.248643  1
  O  O13  1  0.744826  0.246346  0.751357  1
  O  O14  1  0.744826  0.753654  0.248643  1
  O  O15  1  0.744826  0.753654  0.751357  1
