# generated using pymatgen
data_TlCuSb3F18
_symmetry_space_group_name_H-M   'P 1'
_cell_length_a   9.90435700
_cell_length_b   11.19389600
_cell_length_c   14.72135300
_cell_angle_alpha   90.00000000
_cell_angle_beta   90.00000000
_cell_angle_gamma   90.00000000
_symmetry_Int_Tables_number   1
_chemical_formula_structural   TlCuSb3F18
_chemical_formula_sum   'Tl4 Cu4 Sb12 F72'
_cell_volume   1632.13200212
_cell_formula_units_Z   4
loop_
 _symmetry_equiv_pos_site_id
 _symmetry_equiv_pos_as_xyz
  1  'x, y, z'
loop_
 _atom_site_type_symbol
 _atom_site_label
 _atom_site_symmetry_multiplicity
 _atom_site_fract_x
 _atom_site_fract_y
 _atom_site_fract_z
 _atom_site_occupancy
  Tl  Tl0  1  0.533187  0.922119  0.750000  1
  Tl  Tl1  1  0.966813  0.422119  0.750000  1
  Tl  Tl2  1  0.466813  0.077881  0.250000  1
  Tl  Tl3  1  0.033187  0.577881  0.250000  1
  Cu  Cu4  1  0.000000  0.000000  0.500000  1
  Cu  Cu5  1  0.500000  0.500000  0.000000  1
  Cu  Cu6  1  0.000000  0.000000  0.000000  1
  Cu  Cu7  1  0.500000  0.500000  0.500000  1
  Sb  Sb8  1  0.095230  0.023845  0.750000  1
  Sb  Sb9  1  0.404770  0.523845  0.750000  1
  Sb  Sb10  1  0.904770  0.976155  0.250000  1
  Sb  Sb11  1  0.595230  0.476155  0.250000  1
  Sb  Sb12  1  0.696989  0.200602  0.546218  1
  Sb  Sb13  1  0.803011  0.700602  0.953782  1
  Sb  Sb14  1  0.303011  0.799398  0.046218  1
  Sb  Sb15  1  0.196989  0.299398  0.453782  1
  Sb  Sb16  1  0.303011  0.799398  0.453782  1
  Sb  Sb17  1  0.196989  0.299398  0.046218  1
  Sb  Sb18  1  0.696989  0.200602  0.953782  1
  Sb  Sb19  1  0.803011  0.700602  0.546218  1
  F  F20  1  0.098024  0.028546  0.615165  1
  F  F21  1  0.401976  0.528546  0.884835  1
  F  F22  1  0.901976  0.971454  0.115165  1
  F  F23  1  0.598024  0.471454  0.384835  1
  F  F24  1  0.901976  0.971454  0.384835  1
  F  F25  1  0.598024  0.471454  0.115165  1
  F  F26  1  0.098024  0.028546  0.884835  1
  F  F27  1  0.401976  0.528546  0.615165  1
  F  F28  1  0.118990  0.856502  0.750000  1
  F  F29  1  0.381010  0.356502  0.750000  1
  F  F30  1  0.881010  0.143498  0.250000  1
  F  F31  1  0.618990  0.643498  0.250000  1
  F  F32  1  0.286242  0.044375  0.750000  1
  F  F33  1  0.213758  0.544375  0.750000  1
  F  F34  1  0.713758  0.955625  0.250000  1
  F  F35  1  0.786242  0.455625  0.250000  1
  F  F36  1  0.076319  0.193327  0.750000  1
  F  F37  1  0.423681  0.693327  0.750000  1
  F  F38  1  0.923681  0.806673  0.250000  1
  F  F39  1  0.576319  0.306673  0.250000  1
  F  F40  1  0.904837  0.006540  0.750000  1
  F  F41  1  0.595163  0.506540  0.750000  1
  F  F42  1  0.095163  0.993460  0.250000  1
  F  F43  1  0.404837  0.493460  0.250000  1
  F  F44  1  0.835282  0.069617  0.548438  1
  F  F45  1  0.664718  0.569617  0.951562  1
  F  F46  1  0.164718  0.930383  0.048438  1
  F  F47  1  0.335282  0.430383  0.451562  1
  F  F48  1  0.164718  0.930383  0.451562  1
  F  F49  1  0.335282  0.430383  0.048438  1
  F  F50  1  0.835282  0.069617  0.951562  1
  F  F51  1  0.664718  0.569617  0.548438  1
  F  F52  1  0.799862  0.287405  0.460210  1
  F  F53  1  0.700138  0.787405  0.039790  1
  F  F54  1  0.200138  0.712595  0.960210  1
  F  F55  1  0.299862  0.212595  0.539790  1
  F  F56  1  0.200138  0.712595  0.539790  1
  F  F57  1  0.299862  0.212595  0.960210  1
  F  F58  1  0.799862  0.287405  0.039790  1
  F  F59  1  0.700138  0.787405  0.460210  1
  F  F60  1  0.604849  0.120702  0.450443  1
  F  F61  1  0.895151  0.620702  0.049557  1
  F  F62  1  0.395151  0.879298  0.950443  1
  F  F63  1  0.104849  0.379298  0.549557  1
  F  F64  1  0.395151  0.879298  0.549557  1
  F  F65  1  0.104849  0.379298  0.950443  1
  F  F66  1  0.604849  0.120702  0.049557  1
  F  F67  1  0.895151  0.620702  0.450443  1
  F  F68  1  0.562106  0.325259  0.552770  1
  F  F69  1  0.937894  0.825259  0.947230  1
  F  F70  1  0.437894  0.674741  0.052770  1
  F  F71  1  0.062106  0.174741  0.447230  1
  F  F72  1  0.437894  0.674741  0.447230  1
  F  F73  1  0.062106  0.174741  0.052770  1
  F  F74  1  0.562106  0.325259  0.947230  1
  F  F75  1  0.937894  0.825259  0.552770  1
  F  F76  1  0.600980  0.107812  0.633631  1
  F  F77  1  0.899020  0.607812  0.866369  1
  F  F78  1  0.399020  0.892188  0.133631  1
  F  F79  1  0.100980  0.392188  0.366369  1
  F  F80  1  0.399020  0.892188  0.366369  1
  F  F81  1  0.100980  0.392188  0.133631  1
  F  F82  1  0.600980  0.107812  0.866369  1
  F  F83  1  0.899020  0.607812  0.633631  1
  F  F84  1  0.795851  0.274590  0.642497  1
  F  F85  1  0.704149  0.774590  0.857503  1
  F  F86  1  0.204149  0.725410  0.142497  1
  F  F87  1  0.295851  0.225410  0.357503  1
  F  F88  1  0.204149  0.725410  0.357503  1
  F  F89  1  0.295851  0.225410  0.142497  1
  F  F90  1  0.795851  0.274590  0.857503  1
  F  F91  1  0.704149  0.774590  0.642497  1
