# generated using pymatgen
data_Tb5Dy2Er13Sn16
_symmetry_space_group_name_H-M   'P 1'
_cell_length_a   8.01224117
_cell_length_b   8.14468083
_cell_length_c   15.39541918
_cell_angle_alpha   90.00359894
_cell_angle_beta   90.09664561
_cell_angle_gamma   89.95581204
_symmetry_Int_Tables_number   1
_chemical_formula_structural   Tb5Dy2Er13Sn16
_chemical_formula_sum   'Tb5 Dy2 Er13 Sn16'
_cell_volume   1004.65940425
_cell_formula_units_Z   1
loop_
 _symmetry_equiv_pos_site_id
 _symmetry_equiv_pos_as_xyz
  1  'x, y, z'
loop_
 _atom_site_type_symbol
 _atom_site_label
 _atom_site_symmetry_multiplicity
 _atom_site_fract_x
 _atom_site_fract_y
 _atom_site_fract_z
 _atom_site_occupancy
  Tb  Tb0  1  0.020353  0.179293  0.597203  1
  Tb  Tb1  1  0.479767  0.679045  0.403314  1
  Tb  Tb2  1  0.979338  0.820795  0.096858  1
  Tb  Tb3  1  0.479356  0.678838  0.096799  1
  Tb  Tb4  1  0.979778  0.820825  0.403358  1
  Dy  Dy5  1  0.519999  0.321153  0.596864  1
  Dy  Dy6  1  0.020604  0.179350  0.902904  1
  Er  Er7  1  0.367043  0.837475  0.877168  1
  Er  Er8  1  0.866338  0.662662  0.622939  1
  Er  Er9  1  0.633186  0.162690  0.377295  1
  Er  Er10  1  0.132715  0.337493  0.122410  1
  Er  Er11  1  0.632609  0.162556  0.122492  1
  Er  Er12  1  0.133328  0.337250  0.377309  1
  Er  Er13  1  0.366766  0.837575  0.623074  1
  Er  Er14  1  0.867304  0.662526  0.877243  1
  Er  Er15  1  0.521665  0.321302  0.902604  1
  Er  Er16  1  0.198326  0.503577  0.750194  1
  Er  Er17  1  0.698102  0.996419  0.750206  1
  Er  Er18  1  0.801808  0.495854  0.249881  1
  Er  Er19  1  0.301892  0.003853  0.250047  1
  Sn  Sn20  1  0.293934  0.037855  0.041450  1
  Sn  Sn21  1  0.794533  0.461760  0.458574  1
  Sn  Sn22  1  0.705250  0.962123  0.541644  1
  Sn  Sn23  1  0.207096  0.536822  0.958016  1
  Sn  Sn24  1  0.705634  0.962701  0.958260  1
  Sn  Sn25  1  0.205032  0.538473  0.541619  1
  Sn  Sn26  1  0.294623  0.038129  0.458614  1
  Sn  Sn27  1  0.793298  0.461480  0.041024  1
  Sn  Sn28  1  0.564229  0.619203  0.750158  1
  Sn  Sn29  1  0.064229  0.880350  0.749979  1
  Sn  Sn30  1  0.435537  0.380329  0.249784  1
  Sn  Sn31  1  0.935638  0.119732  0.249807  1
  Sn  Sn32  1  0.331028  0.148907  0.750497  1
  Sn  Sn33  1  0.829807  0.351778  0.750180  1
  Sn  Sn34  1  0.669986  0.851592  0.250090  1
  Sn  Sn35  1  0.169869  0.648233  0.250140  1
