# generated using pymatgen
data_ThMn(ReO4)6
_symmetry_space_group_name_H-M   'P 1'
_cell_length_a   10.26362800
_cell_length_b   10.26362836
_cell_length_c   6.26826100
_cell_angle_alpha   90.00000000
_cell_angle_beta   90.00000000
_cell_angle_gamma   119.99999884
_symmetry_Int_Tables_number   1
_chemical_formula_structural   ThMn(ReO4)6
_chemical_formula_sum   'Th1 Mn1 Re6 O24'
_cell_volume   571.84658156
_cell_formula_units_Z   1
loop_
 _symmetry_equiv_pos_site_id
 _symmetry_equiv_pos_as_xyz
  1  'x, y, z'
loop_
 _atom_site_type_symbol
 _atom_site_label
 _atom_site_symmetry_multiplicity
 _atom_site_fract_x
 _atom_site_fract_y
 _atom_site_fract_z
 _atom_site_occupancy
  Th  Th0  1  0.333333  0.666667  0.250000  1
  Mn  Mn1  1  0.666667  0.333333  0.750000  1
  Re  Re2  1  0.088580  0.391245  0.750000  1
  Re  Re3  1  0.398403  0.304046  0.250000  1
  Re  Re4  1  0.608755  0.697334  0.750000  1
  Re  Re5  1  0.905642  0.601597  0.250000  1
  Re  Re6  1  0.302666  0.911420  0.750000  1
  Re  Re7  1  0.695954  0.094358  0.250000  1
  O  O8  1  0.491298  0.647898  0.521298  1
  O  O9  1  0.352102  0.843400  0.521298  1
  O  O10  1  0.841906  0.728930  0.250000  1
  O  O11  1  0.112021  0.846224  0.750000  1
  O  O12  1  0.271070  0.112976  0.250000  1
  O  O13  1  0.153776  0.265797  0.750000  1
  O  O14  1  0.512186  0.349983  0.021645  1
  O  O15  1  0.887024  0.158094  0.250000  1
  O  O16  1  0.106007  0.697156  0.250000  1
  O  O17  1  0.156600  0.508702  0.978702  1
  O  O18  1  0.156600  0.508702  0.521298  1
  O  O19  1  0.893609  0.293055  0.750000  1
  O  O20  1  0.302844  0.408850  0.250000  1
  O  O21  1  0.706945  0.600554  0.750000  1
  O  O22  1  0.837797  0.487814  0.478355  1
  O  O23  1  0.399446  0.106391  0.750000  1
  O  O24  1  0.650017  0.162203  0.021645  1
  O  O25  1  0.491298  0.647898  0.978702  1
  O  O26  1  0.352102  0.843400  0.978702  1
  O  O27  1  0.650017  0.162203  0.478355  1
  O  O28  1  0.512186  0.349983  0.478355  1
  O  O29  1  0.837797  0.487814  0.021645  1
  O  O30  1  0.734203  0.887979  0.750000  1
  O  O31  1  0.591150  0.893993  0.250000  1
