# generated using pymatgen
data_Dy2Tm2AlRu7
_symmetry_space_group_name_H-M   'P 1'
_cell_length_a   5.35977608
_cell_length_b   5.35977548
_cell_length_c   8.57763102
_cell_angle_alpha   89.99939806
_cell_angle_beta   90.00060116
_cell_angle_gamma   120.02813085
_symmetry_Int_Tables_number   1
_chemical_formula_structural   Dy2Tm2AlRu7
_chemical_formula_sum   'Dy2 Tm2 Al1 Ru7'
_cell_volume   213.33792130
_cell_formula_units_Z   1
loop_
 _symmetry_equiv_pos_site_id
 _symmetry_equiv_pos_as_xyz
  1  'x, y, z'
loop_
 _atom_site_type_symbol
 _atom_site_label
 _atom_site_symmetry_multiplicity
 _atom_site_fract_x
 _atom_site_fract_y
 _atom_site_fract_z
 _atom_site_occupancy
  Dy  Dy0  1  0.666654  0.333346  0.570452  1
  Dy  Dy1  1  0.333346  0.666654  0.429548  1
  Tm  Tm2  1  0.333378  0.666622  0.063782  1
  Tm  Tm3  1  0.666622  0.333378  0.936218  1
  Al  Al4  1  0.000000  0.000000  0.500000  1
  Ru  Ru5  1  0.000000  0.000000  0.000000  1
  Ru  Ru6  1  0.171341  0.342734  0.749972  1
  Ru  Ru7  1  0.171366  0.828634  0.749978  1
  Ru  Ru8  1  0.657266  0.828659  0.749972  1
  Ru  Ru9  1  0.828659  0.657266  0.250028  1
  Ru  Ru10  1  0.828634  0.171366  0.250022  1
  Ru  Ru11  1  0.342734  0.171341  0.250028  1
