# generated using pymatgen
data_Yb3(EuPt)2
_symmetry_space_group_name_H-M   'P 1'
_cell_length_a   8.71198612
_cell_length_b   8.71198577
_cell_length_c   7.66311230
_cell_angle_alpha   82.84556482
_cell_angle_beta   82.84556735
_cell_angle_gamma   44.10353244
_symmetry_Int_Tables_number   1
_chemical_formula_structural   Yb3(EuPt)2
_chemical_formula_sum   'Yb6 Eu4 Pt4'
_cell_volume   401.11160850
_cell_formula_units_Z   2
loop_
 _symmetry_equiv_pos_site_id
 _symmetry_equiv_pos_as_xyz
  1  'x, y, z'
loop_
 _atom_site_type_symbol
 _atom_site_label
 _atom_site_symmetry_multiplicity
 _atom_site_fract_x
 _atom_site_fract_y
 _atom_site_fract_z
 _atom_site_occupancy
  Yb  Yb0  1  0.368287  0.197051  0.819420  1
  Yb  Yb1  1  0.802949  0.631713  0.680580  1
  Yb  Yb2  1  0.631713  0.802949  0.180580  1
  Yb  Yb3  1  0.197051  0.368287  0.319420  1
  Yb  Yb4  1  0.579941  0.420059  0.750000  1
  Yb  Yb5  1  0.420059  0.579941  0.250000  1
  Eu  Eu6  1  0.025726  0.790919  0.924057  1
  Eu  Eu7  1  0.209081  0.974274  0.575943  1
  Eu  Eu8  1  0.974274  0.209081  0.075943  1
  Eu  Eu9  1  0.790919  0.025726  0.424057  1
  Pt  Pt10  1  0.192379  0.583438  0.580229  1
  Pt  Pt11  1  0.416562  0.807621  0.919771  1
  Pt  Pt12  1  0.807621  0.416562  0.419771  1
  Pt  Pt13  1  0.583438  0.192379  0.080229  1
