# generated using pymatgen
data_Nd2Lu2Re16Si7P
_symmetry_space_group_name_H-M   'P 1'
_cell_length_a   4.12780700
_cell_length_b   7.31106197
_cell_length_c   15.38879157
_cell_angle_alpha   90.42841006
_cell_angle_beta   90.00000000
_cell_angle_gamma   90.00000000
_symmetry_Int_Tables_number   1
_chemical_formula_structural   Nd2Lu2Re16Si7P
_chemical_formula_sum   'Nd2 Lu2 Re16 Si7 P1'
_cell_volume   464.40001527
_cell_formula_units_Z   1
loop_
 _symmetry_equiv_pos_site_id
 _symmetry_equiv_pos_as_xyz
  1  'x, y, z'
loop_
 _atom_site_type_symbol
 _atom_site_label
 _atom_site_symmetry_multiplicity
 _atom_site_fract_x
 _atom_site_fract_y
 _atom_site_fract_z
 _atom_site_occupancy
  Nd  Nd0  1  0.500000  0.076135  0.380452  1
  Nd  Nd1  1  0.500000  0.920823  0.618990  1
  Lu  Lu2  1  0.000000  0.578514  0.117404  1
  Lu  Lu3  1  0.000000  0.421491  0.882953  1
  Re  Re4  1  0.000000  0.144641  0.050130  1
  Re  Re5  1  0.000000  0.855438  0.950092  1
  Re  Re6  1  0.500000  0.640678  0.448002  1
  Re  Re7  1  0.500000  0.362780  0.551170  1
  Re  Re8  1  0.000000  0.734262  0.321819  1
  Re  Re9  1  0.000000  0.270253  0.680583  1
  Re  Re10  1  0.500000  0.236812  0.175138  1
  Re  Re11  1  0.500000  0.763522  0.824777  1
  Re  Re12  1  0.000000  0.425462  0.416764  1
  Re  Re13  1  0.000000  0.574047  0.580682  1
  Re  Re14  1  0.500000  0.928546  0.081709  1
  Re  Re15  1  0.500000  0.070956  0.918536  1
  Re  Re16  1  0.000000  0.984302  0.203443  1
  Re  Re17  1  0.000000  0.014764  0.796491  1
  Re  Re18  1  0.500000  0.488696  0.292114  1
  Re  Re19  1  0.500000  0.509893  0.708245  1
  Si  Si20  1  0.000000  0.173204  0.524759  1
  Si  Si21  1  0.500000  0.338135  0.021666  1
  Si  Si22  1  0.500000  0.661955  0.978343  1
  Si  Si23  1  0.000000  0.290024  0.269771  1
  Si  Si24  1  0.000000  0.707723  0.729821  1
  Si  Si25  1  0.500000  0.784979  0.224096  1
  Si  Si26  1  0.500000  0.214368  0.776625  1
  P  P27  1  0.000000  0.827596  0.475423  1
