# generated using pymatgen
data_Zr2Cu8Si3Ge
_symmetry_space_group_name_H-M   'P 1'
_cell_length_a   7.12797807
_cell_length_b   7.12797807
_cell_length_c   3.82048200
_cell_angle_alpha   90.00000000
_cell_angle_beta   90.00000000
_cell_angle_gamma   89.98419699
_symmetry_Int_Tables_number   1
_chemical_formula_structural   Zr2Cu8Si3Ge
_chemical_formula_sum   'Zr2 Cu8 Si3 Ge1'
_cell_volume   194.11131461
_cell_formula_units_Z   1
loop_
 _symmetry_equiv_pos_site_id
 _symmetry_equiv_pos_as_xyz
  1  'x, y, z'
loop_
 _atom_site_type_symbol
 _atom_site_label
 _atom_site_symmetry_multiplicity
 _atom_site_fract_x
 _atom_site_fract_y
 _atom_site_fract_z
 _atom_site_occupancy
  Zr  Zr0  1  0.497112  0.497112  0.000000  1
  Zr  Zr1  1  0.000533  0.000533  0.500000  1
  Cu  Cu2  1  0.591415  0.159651  0.500000  1
  Cu  Cu3  1  0.401026  0.848445  0.500000  1
  Cu  Cu4  1  0.092915  0.341033  0.000000  1
  Cu  Cu5  1  0.913932  0.655405  0.000000  1
  Cu  Cu6  1  0.159651  0.591415  0.500000  1
  Cu  Cu7  1  0.848445  0.401026  0.500000  1
  Cu  Cu8  1  0.341033  0.092915  0.000000  1
  Cu  Cu9  1  0.655405  0.913932  0.000000  1
  Si  Si10  1  0.284873  0.284873  0.500000  1
  Si  Si11  1  0.215631  0.785476  0.000000  1
  Si  Si12  1  0.785476  0.215631  0.000000  1
  Ge  Ge13  1  0.712553  0.712553  0.500000  1
