# generated using pymatgen
data_Pr2Zn21Pt
_symmetry_space_group_name_H-M   'P 1'
_cell_length_a   8.29821447
_cell_length_b   8.29242452
_cell_length_c   8.29821426
_cell_angle_alpha   100.08823662
_cell_angle_beta   99.81432015
_cell_angle_gamma   130.91652682
_symmetry_Int_Tables_number   1
_chemical_formula_structural   Pr2Zn21Pt
_chemical_formula_sum   'Pr2 Zn21 Pt1'
_cell_volume   392.37791884
_cell_formula_units_Z   1
loop_
 _symmetry_equiv_pos_site_id
 _symmetry_equiv_pos_as_xyz
  1  'x, y, z'
loop_
 _atom_site_type_symbol
 _atom_site_label
 _atom_site_symmetry_multiplicity
 _atom_site_fract_x
 _atom_site_fract_y
 _atom_site_fract_z
 _atom_site_occupancy
  Pr  Pr0  1  0.497928  0.494046  0.996118  1
  Pr  Pr1  1  0.752072  0.255954  0.503882  1
  Zn  Zn2  1  0.846178  0.430551  0.172963  1
  Zn  Zn3  1  0.125000  0.875000  0.750000  1
  Zn  Zn4  1  0.324934  0.152169  0.583656  1
  Zn  Zn5  1  0.257588  0.430551  0.584372  1
  Zn  Zn6  1  0.327972  0.741950  0.171797  1
  Zn  Zn7  1  0.992412  0.319449  0.915628  1
  Zn  Zn8  1  0.260755  0.675928  0.829053  1
  Zn  Zn9  1  0.247131  0.743320  0.496189  1
  Zn  Zn10  1  0.989245  0.074072  0.670947  1
  Zn  Zn11  1  0.002869  0.006680  0.003811  1
  Zn  Zn12  1  0.679847  0.008050  0.086022  1
  Zn  Zn13  1  0.625000  0.875000  0.750000  1
  Zn  Zn14  1  0.403822  0.319449  0.327037  1
  Zn  Zn15  1  0.922028  0.008050  0.328203  1
  Zn  Zn16  1  0.846874  0.675928  0.415172  1
  Zn  Zn17  1  0.570153  0.741950  0.413978  1
  Zn  Zn18  1  0.681487  0.597831  0.672766  1
  Zn  Zn19  1  0.403126  0.074072  0.084828  1
  Zn  Zn20  1  0.925066  0.597831  0.916344  1
  Zn  Zn21  1  0.568513  0.152169  0.827234  1
  Zn  Zn22  1  0.125000  0.875000  0.250000  1
  Pt  Pt23  1  0.125000  0.375000  0.250000  1
