# generated using pymatgen
data_CaTmPa2(Ga3Ir)6
_symmetry_space_group_name_H-M   'P 1'
_cell_length_a   7.63687900
_cell_length_b   7.63448029
_cell_length_c   9.40811400
_cell_angle_alpha   90.00000000
_cell_angle_beta   90.00000000
_cell_angle_gamma   119.97787471
_symmetry_Int_Tables_number   1
_chemical_formula_structural   CaTmPa2(Ga3Ir)6
_chemical_formula_sum   'Ca1 Tm1 Pa2 Ga18 Ir6'
_cell_volume   475.14413516
_cell_formula_units_Z   1
loop_
 _symmetry_equiv_pos_site_id
 _symmetry_equiv_pos_as_xyz
  1  'x, y, z'
loop_
 _atom_site_type_symbol
 _atom_site_label
 _atom_site_symmetry_multiplicity
 _atom_site_fract_x
 _atom_site_fract_y
 _atom_site_fract_z
 _atom_site_occupancy
  Ca  Ca0  1  0.668460  0.995916  0.750000  1
  Tm  Tm1  1  0.331999  0.004576  0.250000  1
  Pa  Pa2  1  0.998607  0.668256  0.750000  1
  Pa  Pa3  1  0.001452  0.331243  0.250000  1
  Ga  Ga4  1  0.129995  0.128133  0.750000  1
  Ga  Ga5  1  0.870260  0.871601  0.250000  1
  Ga  Ga6  1  0.997516  0.329359  0.583073  1
  Ga  Ga7  1  0.002176  0.670549  0.416603  1
  Ga  Ga8  1  0.002176  0.670549  0.083397  1
  Ga  Ga9  1  0.338923  0.001784  0.920275  1
  Ga  Ga10  1  0.997516  0.329359  0.916927  1
  Ga  Ga11  1  0.660995  0.997957  0.080045  1
  Ga  Ga12  1  0.660995  0.997957  0.419955  1
  Ga  Ga13  1  0.338923  0.001784  0.579725  1
  Ga  Ga14  1  0.334623  0.330951  0.068082  1
  Ga  Ga15  1  0.665246  0.669172  0.932305  1
  Ga  Ga16  1  0.665246  0.669172  0.567695  1
  Ga  Ga17  1  0.334623  0.330951  0.431918  1
  Ga  Ga18  1  0.340214  0.545770  0.750000  1
  Ga  Ga19  1  0.659346  0.453689  0.250000  1
  Ga  Ga20  1  0.545183  0.339549  0.750000  1
  Ga  Ga21  1  0.455107  0.661573  0.250000  1
  Ir  Ir22  1  0.676300  0.333080  0.498312  1
  Ir  Ir23  1  0.322066  0.666849  0.498496  1
  Ir  Ir24  1  0.322066  0.666849  0.001504  1
  Ir  Ir25  1  0.676300  0.333080  0.001688  1
  Ir  Ir26  1  0.001842  0.000145  0.498342  1
  Ir  Ir27  1  0.001842  0.000145  0.001658  1
