# generated using pymatgen
data_Sc2TaPt9
_symmetry_space_group_name_H-M   'P 1'
_cell_length_a   4.00599300
_cell_length_b   4.00599300
_cell_length_c   12.02582900
_cell_angle_alpha   90.00000000
_cell_angle_beta   90.00000000
_cell_angle_gamma   90.00000000
_symmetry_Int_Tables_number   1
_chemical_formula_structural   Sc2TaPt9
_chemical_formula_sum   'Sc2 Ta1 Pt9'
_cell_volume   192.99026227
_cell_formula_units_Z   1
loop_
 _symmetry_equiv_pos_site_id
 _symmetry_equiv_pos_as_xyz
  1  'x, y, z'
loop_
 _atom_site_type_symbol
 _atom_site_label
 _atom_site_symmetry_multiplicity
 _atom_site_fract_x
 _atom_site_fract_y
 _atom_site_fract_z
 _atom_site_occupancy
  Sc  Sc0  1  0.000000  0.000000  0.336819  1
  Sc  Sc1  1  0.000000  0.000000  0.663181  1
  Ta  Ta2  1  0.000000  0.000000  0.000000  1
  Pt  Pt3  1  0.500000  0.500000  0.000000  1
  Pt  Pt4  1  0.500000  0.500000  0.330630  1
  Pt  Pt5  1  0.500000  0.500000  0.669370  1
  Pt  Pt6  1  0.500000  0.000000  0.161140  1
  Pt  Pt7  1  0.500000  0.000000  0.500000  1
  Pt  Pt8  1  0.500000  0.000000  0.838860  1
  Pt  Pt9  1  0.000000  0.500000  0.161140  1
  Pt  Pt10  1  0.000000  0.500000  0.500000  1
  Pt  Pt11  1  0.000000  0.500000  0.838860  1
