# generated using pymatgen
data_PrErZn5Sn
_symmetry_space_group_name_H-M   'P 1'
_cell_length_a   8.46637826
_cell_length_b   8.46637879
_cell_length_c   9.02958500
_cell_angle_alpha   90.00000000
_cell_angle_beta   90.00000000
_cell_angle_gamma   149.76074241
_symmetry_Int_Tables_number   1
_chemical_formula_structural   PrErZn5Sn
_chemical_formula_sum   'Pr2 Er2 Zn10 Sn2'
_cell_volume   325.95618762
_cell_formula_units_Z   2
loop_
 _symmetry_equiv_pos_site_id
 _symmetry_equiv_pos_as_xyz
  1  'x, y, z'
loop_
 _atom_site_type_symbol
 _atom_site_label
 _atom_site_symmetry_multiplicity
 _atom_site_fract_x
 _atom_site_fract_y
 _atom_site_fract_z
 _atom_site_occupancy
  Pr  Pr0  1  0.000000  0.000000  0.500000  1
  Pr  Pr1  1  0.000000  0.000000  0.000000  1
  Er  Er2  1  0.205270  0.794730  0.250000  1
  Er  Er3  1  0.794730  0.205270  0.750000  1
  Zn  Zn4  1  0.812133  0.187867  0.390377  1
  Zn  Zn5  1  0.187867  0.812133  0.609623  1
  Zn  Zn6  1  0.812133  0.187867  0.109623  1
  Zn  Zn7  1  0.187867  0.812133  0.890377  1
  Zn  Zn8  1  0.658361  0.341639  0.482096  1
  Zn  Zn9  1  0.341639  0.658361  0.517904  1
  Zn  Zn10  1  0.658361  0.341639  0.017904  1
  Zn  Zn11  1  0.341639  0.658361  0.982096  1
  Zn  Zn12  1  0.393689  0.606311  0.250000  1
  Zn  Zn13  1  0.606311  0.393689  0.750000  1
  Sn  Sn14  1  0.557218  0.442782  0.250000  1
  Sn  Sn15  1  0.442782  0.557218  0.750000  1
