# generated using pymatgen
data_Tb5Y3Re(B8Os)3
_symmetry_space_group_name_H-M   'P 1'
_cell_length_a   3.67387800
_cell_length_b   9.17817707
_cell_length_c   11.56422702
_cell_angle_alpha   89.90751472
_cell_angle_beta   90.00000000
_cell_angle_gamma   90.00000000
_symmetry_Int_Tables_number   1
_chemical_formula_structural   Tb5Y3Re(B8Os)3
_chemical_formula_sum   'Tb5 Y3 Re1 B24 Os3'
_cell_volume   389.93947782
_cell_formula_units_Z   1
loop_
 _symmetry_equiv_pos_site_id
 _symmetry_equiv_pos_as_xyz
  1  'x, y, z'
loop_
 _atom_site_type_symbol
 _atom_site_label
 _atom_site_symmetry_multiplicity
 _atom_site_fract_x
 _atom_site_fract_y
 _atom_site_fract_z
 _atom_site_occupancy
  Tb  Tb0  1  0.000000  0.822764  0.085258  1
  Tb  Tb1  1  0.000000  0.179676  0.911768  1
  Tb  Tb2  1  0.000000  0.322854  0.416156  1
  Tb  Tb3  1  0.000000  0.676300  0.586947  1
  Tb  Tb4  1  0.000000  0.442951  0.128139  1
  Y  Y5  1  0.000000  0.556089  0.872424  1
  Y  Y6  1  0.000000  0.942786  0.372469  1
  Y  Y7  1  0.000000  0.056776  0.627050  1
  Re  Re8  1  0.000000  0.362765  0.678428  1
  B  B9  1  0.500000  0.053636  0.067128  1
  B  B10  1  0.500000  0.946440  0.932516  1
  B  B11  1  0.500000  0.553528  0.432349  1
  B  B12  1  0.500000  0.447238  0.567205  1
  B  B13  1  0.500000  0.247306  0.080814  1
  B  B14  1  0.500000  0.752627  0.919434  1
  B  B15  1  0.500000  0.747254  0.419086  1
  B  B16  1  0.500000  0.252458  0.580862  1
  B  B17  1  0.500000  0.289341  0.233506  1
  B  B18  1  0.500000  0.709909  0.767217  1
  B  B19  1  0.500000  0.790157  0.266440  1
  B  B20  1  0.500000  0.209320  0.733562  1
  B  B21  1  0.500000  0.130935  0.314086  1
  B  B22  1  0.500000  0.868529  0.686332  1
  B  B23  1  0.500000  0.631746  0.185875  1
  B  B24  1  0.500000  0.368658  0.813923  1
  B  B25  1  0.500000  0.483728  0.287454  1
  B  B26  1  0.500000  0.517567  0.712729  1
  B  B27  1  0.500000  0.983184  0.212166  1
  B  B28  1  0.500000  0.016808  0.787274  1
  B  B29  1  0.500000  0.106658  0.469647  1
  B  B30  1  0.500000  0.891744  0.529730  1
  B  B31  1  0.500000  0.608393  0.030235  1
  B  B32  1  0.500000  0.392349  0.970401  1
  Os  Os33  1  0.000000  0.136860  0.178410  1
  Os  Os34  1  0.000000  0.862986  0.821989  1
  Os  Os35  1  0.000000  0.637680  0.320991  1
