# generated using pymatgen
data_Pr2Nd(BN2)2
_symmetry_space_group_name_H-M   'P 1'
_cell_length_a   6.54493581
_cell_length_b   6.54493302
_cell_length_c   6.54493320
_cell_angle_alpha   148.15944873
_cell_angle_beta   122.09336747
_cell_angle_gamma   67.61551944
_symmetry_Int_Tables_number   1
_chemical_formula_structural   Pr2Nd(BN2)2
_chemical_formula_sum   'Pr2 Nd1 B2 N4'
_cell_volume   123.73331623
_cell_formula_units_Z   1
loop_
 _symmetry_equiv_pos_site_id
 _symmetry_equiv_pos_as_xyz
  1  'x, y, z'
loop_
 _atom_site_type_symbol
 _atom_site_label
 _atom_site_symmetry_multiplicity
 _atom_site_fract_x
 _atom_site_fract_y
 _atom_site_fract_z
 _atom_site_occupancy
  Pr  Pr0  1  0.701843  0.201843  0.500000  1
  Pr  Pr1  1  0.000113  0.000113  0.000000  1
  Nd  Nd2  1  0.298081  0.798081  0.500000  1
  B  B3  1  0.357188  0.500050  0.857138  1
  B  B4  1  0.642912  0.500050  0.142862  1
  N  N5  1  0.362791  0.618738  0.744053  1
  N  N6  1  0.874684  0.618738  0.255947  1
  N  N7  1  0.126741  0.381194  0.745546  1
  N  N8  1  0.635648  0.381194  0.254453  1
