# generated using pymatgen
data_Dy4CuB16Ir3
_symmetry_space_group_name_H-M   'P 1'
_cell_length_a   6.99392865
_cell_length_b   6.99392833
_cell_length_c   6.99392844
_cell_angle_alpha   111.66319383
_cell_angle_beta   112.13072122
_cell_angle_gamma   104.72199781
_symmetry_Int_Tables_number   1
_chemical_formula_structural   Dy4CuB16Ir3
_chemical_formula_sum   'Dy4 Cu1 B16 Ir3'
_cell_volume   262.00808734
_cell_formula_units_Z   1
loop_
 _symmetry_equiv_pos_site_id
 _symmetry_equiv_pos_as_xyz
  1  'x, y, z'
loop_
 _atom_site_type_symbol
 _atom_site_label
 _atom_site_symmetry_multiplicity
 _atom_site_fract_x
 _atom_site_fract_y
 _atom_site_fract_z
 _atom_site_occupancy
  Dy  Dy0  1  0.788134  0.794893  0.006759  1
  Dy  Dy1  1  0.211866  0.218626  0.006759  1
  Dy  Dy2  1  0.754994  0.251725  0.496731  1
  Dy  Dy3  1  0.245006  0.741738  0.496731  1
  Cu  Cu4  1  0.500000  0.258349  0.758349  1
  B  B5  1  0.267602  0.109029  0.376629  1
  B  B6  1  0.736388  0.893903  0.630292  1
  B  B7  1  0.263612  0.893903  0.157515  1
  B  B8  1  0.732398  0.109029  0.841427  1
  B  B9  1  0.108787  0.730119  0.838906  1
  B  B10  1  0.891533  0.267129  0.158662  1
  B  B11  1  0.108467  0.267129  0.375596  1
  B  B12  1  0.891213  0.730119  0.621331  1
  B  B13  1  0.109255  0.108983  0.522248  1
  B  B14  1  0.583821  0.584612  0.473675  1
  B  B15  1  0.110939  0.584612  0.000792  1
  B  B16  1  0.586734  0.108983  0.999728  1
  B  B17  1  0.889061  0.889853  0.473675  1
  B  B18  1  0.413266  0.412994  0.522248  1
  B  B19  1  0.890745  0.412994  0.999728  1
  B  B20  1  0.416179  0.889853  0.000792  1
  Ir  Ir21  1  0.268719  0.497345  0.766064  1
  Ir  Ir22  1  0.731281  0.497345  0.228625  1
  Ir  Ir23  1  0.500000  0.746735  0.246735  1
