# generated using pymatgen
data_NdY4Zr3(P3Pd4)4
_symmetry_space_group_name_H-M   'P 1'
_cell_length_a   13.23919600
_cell_length_b   13.23919558
_cell_length_c   4.00766700
_cell_angle_alpha   90.00000000
_cell_angle_beta   90.00000000
_cell_angle_gamma   120.00000605
_symmetry_Int_Tables_number   1
_chemical_formula_structural   NdY4Zr3(P3Pd4)4
_chemical_formula_sum   'Nd1 Y4 Zr3 P12 Pd16'
_cell_volume   608.33869734
_cell_formula_units_Z   1
loop_
 _symmetry_equiv_pos_site_id
 _symmetry_equiv_pos_as_xyz
  1  'x, y, z'
loop_
 _atom_site_type_symbol
 _atom_site_label
 _atom_site_symmetry_multiplicity
 _atom_site_fract_x
 _atom_site_fract_y
 _atom_site_fract_z
 _atom_site_occupancy
  Nd  Nd0  1  0.333333  0.666667  0.000000  1
  Y  Y1  1  0.187750  0.187987  0.500000  1
  Y  Y2  1  0.812013  0.999762  0.500000  1
  Y  Y3  1  0.000238  0.812250  0.500000  1
  Y  Y4  1  0.666667  0.333333  0.000000  1
  Zr  Zr5  1  0.554746  0.553342  0.000000  1
  Zr  Zr6  1  0.446658  0.001403  0.000000  1
  Zr  Zr7  1  0.998597  0.445254  0.000000  1
  P  P8  1  0.826933  0.826762  0.000000  1
  P  P9  1  0.173238  0.000171  0.000000  1
  P  P10  1  0.999829  0.173067  0.000000  1
  P  P11  1  0.162171  0.479142  0.500000  1
  P  P12  1  0.520858  0.683029  0.500000  1
  P  P13  1  0.316971  0.837829  0.500000  1
  P  P14  1  0.683274  0.518391  0.500000  1
  P  P15  1  0.835117  0.316726  0.500000  1
  P  P16  1  0.481609  0.164883  0.500000  1
  P  P17  1  0.357688  0.358236  0.000000  1
  P  P18  1  0.641764  0.999452  0.000000  1
  P  P19  1  0.000548  0.642312  0.000000  1
  Pd  Pd20  1  0.725584  0.724372  0.500000  1
  Pd  Pd21  1  0.275628  0.001211  0.500000  1
  Pd  Pd22  1  0.998789  0.274416  0.500000  1
  Pd  Pd23  1  0.182562  0.371064  0.000000  1
  Pd  Pd24  1  0.628936  0.811497  0.000000  1
  Pd  Pd25  1  0.188503  0.817438  0.000000  1
  Pd  Pd26  1  0.812549  0.629200  0.000000  1
  Pd  Pd27  1  0.816651  0.187451  0.000000  1
  Pd  Pd28  1  0.370800  0.183349  0.000000  1
  Pd  Pd29  1  0.357196  0.486978  0.500000  1
  Pd  Pd30  1  0.513022  0.870218  0.500000  1
  Pd  Pd31  1  0.129782  0.642804  0.500000  1
  Pd  Pd32  1  0.865794  0.510449  0.500000  1
  Pd  Pd33  1  0.644654  0.134206  0.500000  1
  Pd  Pd34  1  0.489551  0.355346  0.500000  1
  Pd  Pd35  1  0.000000  0.000000  0.000000  1
