# generated using pymatgen
data_Y2Er2Ga5Ni9
_symmetry_space_group_name_H-M   'P 1'
_cell_length_a   5.18561623
_cell_length_b   5.18561381
_cell_length_c   12.17603567
_cell_angle_alpha   77.70509571
_cell_angle_beta   77.70510320
_cell_angle_gamma   60.00001357
_symmetry_Int_Tables_number   1
_chemical_formula_structural   Y2Er2Ga5Ni9
_chemical_formula_sum   'Y2 Er2 Ga5 Ni9'
_cell_volume   274.84941138
_cell_formula_units_Z   1
loop_
 _symmetry_equiv_pos_site_id
 _symmetry_equiv_pos_as_xyz
  1  'x, y, z'
loop_
 _atom_site_type_symbol
 _atom_site_label
 _atom_site_symmetry_multiplicity
 _atom_site_fract_x
 _atom_site_fract_y
 _atom_site_fract_z
 _atom_site_occupancy
  Y  Y0  1  0.951198  0.951198  0.146408  1
  Y  Y1  1  0.048802  0.048802  0.853592  1
  Er  Er2  1  0.853959  0.853959  0.438121  1
  Er  Er3  1  0.146041  0.146041  0.561879  1
  Ga  Ga4  1  0.500000  0.500000  0.500000  1
  Ga  Ga5  1  0.722319  0.722319  0.833044  1
  Ga  Ga6  1  0.277681  0.277681  0.166956  1
  Ga  Ga7  1  0.610604  0.610604  0.168187  1
  Ga  Ga8  1  0.389396  0.389396  0.831813  1
  Ni  Ni9  1  0.000000  0.500000  0.000000  1
  Ni  Ni10  1  0.500000  0.000000  0.000000  1
  Ni  Ni11  1  0.500000  0.500000  0.000000  1
  Ni  Ni12  1  0.385904  0.385904  0.333011  1
  Ni  Ni13  1  0.895181  0.385904  0.333011  1
  Ni  Ni14  1  0.385904  0.895181  0.333011  1
  Ni  Ni15  1  0.614096  0.614096  0.666989  1
  Ni  Ni16  1  0.104819  0.614096  0.666989  1
  Ni  Ni17  1  0.614096  0.104819  0.666989  1
