# generated using pymatgen
data_Pr14Y2Cd4Ru3Pt
_symmetry_space_group_name_H-M   'P 1'
_cell_length_a   10.01323688
_cell_length_b   9.96355742
_cell_length_c   10.01323553
_cell_angle_alpha   59.77049095
_cell_angle_beta   59.85124865
_cell_angle_gamma   59.77048410
_symmetry_Int_Tables_number   1
_chemical_formula_structural   Pr14Y2Cd4Ru3Pt
_chemical_formula_sum   'Pr14 Y2 Cd4 Ru3 Pt1'
_cell_volume   703.14648019
_cell_formula_units_Z   1
loop_
 _symmetry_equiv_pos_site_id
 _symmetry_equiv_pos_as_xyz
  1  'x, y, z'
loop_
 _atom_site_type_symbol
 _atom_site_label
 _atom_site_symmetry_multiplicity
 _atom_site_fract_x
 _atom_site_fract_y
 _atom_site_fract_z
 _atom_site_occupancy
  Pr  Pr0  1  0.440308  0.438479  0.059602  1
  Pr  Pr1  1  0.064306  0.058223  0.438792  1
  Pr  Pr2  1  0.438792  0.058223  0.064306  1
  Pr  Pr3  1  0.851033  0.844606  0.851033  1
  Pr  Pr4  1  0.688901  0.317452  0.304699  1
  Pr  Pr5  1  0.059602  0.438479  0.440308  1
  Pr  Pr6  1  0.311463  0.688360  0.688593  1
  Pr  Pr7  1  0.304699  0.317452  0.688901  1
  Pr  Pr8  1  0.853845  0.843036  0.454171  1
  Pr  Pr9  1  0.688593  0.688360  0.311463  1
  Pr  Pr10  1  0.454171  0.843036  0.853845  1
  Pr  Pr11  1  0.060793  0.437893  0.060793  1
  Pr  Pr12  1  0.843399  0.459807  0.843399  1
  Pr  Pr13  1  0.441430  0.055987  0.441430  1
  Y  Y14  1  0.309409  0.689977  0.309409  1
  Y  Y15  1  0.691558  0.312387  0.691558  1
  Cd  Cd16  1  0.080916  0.759326  0.080916  1
  Cd  Cd17  1  0.077414  0.081040  0.760629  1
  Cd  Cd18  1  0.760629  0.081040  0.077414  1
  Cd  Cd19  1  0.080179  0.077788  0.080179  1
  Ru  Ru20  1  0.636625  0.642217  0.636625  1
  Ru  Ru21  1  0.637382  0.644823  0.081257  1
  Ru  Ru22  1  0.081257  0.644823  0.637382  1
  Pt  Pt23  1  0.643298  0.077189  0.643298  1
