# generated using pymatgen
data_Cs2Mg2MnSe4
_symmetry_space_group_name_H-M   'P 1'
_cell_length_a   10.42753217
_cell_length_b   10.42753129
_cell_length_c   10.42753100
_cell_angle_alpha   144.87926173
_cell_angle_beta   105.32913587
_cell_angle_gamma   85.27892819
_symmetry_Int_Tables_number   1
_chemical_formula_structural   Cs2Mg2MnSe4
_chemical_formula_sum   'Cs4 Mg4 Mn2 Se8'
_cell_volume   610.47998756
_cell_formula_units_Z   2
loop_
 _symmetry_equiv_pos_site_id
 _symmetry_equiv_pos_as_xyz
  1  'x, y, z'
loop_
 _atom_site_type_symbol
 _atom_site_label
 _atom_site_symmetry_multiplicity
 _atom_site_fract_x
 _atom_site_fract_y
 _atom_site_fract_z
 _atom_site_occupancy
  Cs  Cs0  1  0.120776  0.232378  0.357891  1
  Cs  Cs1  1  0.379224  0.737116  0.111602  1
  Cs  Cs2  1  0.625512  0.267622  0.888398  1
  Cs  Cs3  1  0.874488  0.762884  0.642109  1
  Mg  Mg4  1  0.482283  0.250000  0.232283  1
  Mg  Mg5  1  0.750000  0.250000  0.500000  1
  Mg  Mg6  1  0.250000  0.750000  0.500000  1
  Mg  Mg7  1  0.017717  0.250000  0.767717  1
  Mn  Mn8  1  0.513099  0.750000  0.763099  1
  Mn  Mn9  1  0.986901  0.750000  0.236901  1
  Se  Se10  1  0.212082  0.064626  0.584574  1
  Se  Se11  1  0.287918  0.872493  0.852544  1
  Se  Se12  1  0.019949  0.435374  0.147456  1
  Se  Se13  1  0.480051  0.627507  0.415426  1
  Se  Se14  1  0.792124  0.928559  0.407560  1
  Se  Se15  1  0.707876  0.115435  0.136435  1
  Se  Se16  1  0.978999  0.571441  0.863565  1
  Se  Se17  1  0.521001  0.384565  0.592440  1
