# generated using pymatgen
data_Dy5Lu3(TcB6)4
_symmetry_space_group_name_H-M   'P 1'
_cell_length_a   3.65806100
_cell_length_b   9.11365101
_cell_length_c   11.49756401
_cell_angle_alpha   89.99416639
_cell_angle_beta   90.00000000
_cell_angle_gamma   90.00000000
_symmetry_Int_Tables_number   1
_chemical_formula_structural   Dy5Lu3(TcB6)4
_chemical_formula_sum   'Dy5 Lu3 Tc4 B24'
_cell_volume   383.30913677
_cell_formula_units_Z   1
loop_
 _symmetry_equiv_pos_site_id
 _symmetry_equiv_pos_as_xyz
  1  'x, y, z'
loop_
 _atom_site_type_symbol
 _atom_site_label
 _atom_site_symmetry_multiplicity
 _atom_site_fract_x
 _atom_site_fract_y
 _atom_site_fract_z
 _atom_site_occupancy
  Dy  Dy0  1  0.000000  0.823619  0.085665  1
  Dy  Dy1  1  0.000000  0.176278  0.913952  1
  Dy  Dy2  1  0.000000  0.323261  0.414608  1
  Dy  Dy3  1  0.000000  0.676701  0.585923  1
  Dy  Dy4  1  0.000000  0.443154  0.130022  1
  Lu  Lu5  1  0.000000  0.557322  0.868531  1
  Lu  Lu6  1  0.000000  0.942981  0.369708  1
  Lu  Lu7  1  0.000000  0.057097  0.630632  1
  Tc  Tc8  1  0.000000  0.137922  0.180553  1
  Tc  Tc9  1  0.000000  0.860769  0.819339  1
  Tc  Tc10  1  0.000000  0.640375  0.320719  1
  Tc  Tc11  1  0.000000  0.360578  0.680070  1
  B  B12  1  0.500000  0.053056  0.067278  1
  B  B13  1  0.500000  0.946065  0.932448  1
  B  B14  1  0.500000  0.553989  0.433126  1
  B  B15  1  0.500000  0.446207  0.567474  1
  B  B16  1  0.500000  0.248691  0.081652  1
  B  B17  1  0.500000  0.749563  0.918093  1
  B  B18  1  0.500000  0.751048  0.418645  1
  B  B19  1  0.500000  0.249260  0.581673  1
  B  B20  1  0.500000  0.291422  0.235314  1
  B  B21  1  0.500000  0.707226  0.765045  1
  B  B22  1  0.500000  0.793542  0.265468  1
  B  B23  1  0.500000  0.207066  0.734738  1
  B  B24  1  0.500000  0.129480  0.315613  1
  B  B25  1  0.500000  0.870054  0.684686  1
  B  B26  1  0.500000  0.631489  0.185587  1
  B  B27  1  0.500000  0.369883  0.814927  1
  B  B28  1  0.500000  0.482631  0.288625  1
  B  B29  1  0.500000  0.518138  0.712355  1
  B  B30  1  0.500000  0.981402  0.212667  1
  B  B31  1  0.500000  0.018260  0.787494  1
  B  B32  1  0.500000  0.097856  0.472917  1
  B  B33  1  0.500000  0.902162  0.527352  1
  B  B34  1  0.500000  0.600018  0.026115  1
  B  B35  1  0.500000  0.401435  0.970988  1
