# generated using pymatgen
data_DyPa2(ZnPt)3
_symmetry_space_group_name_H-M   'P 1'
_cell_length_a   7.30805134
_cell_length_b   7.33738399
_cell_length_c   3.86261400
_cell_angle_alpha   90.00000000
_cell_angle_beta   90.00000000
_cell_angle_gamma   120.13285614
_symmetry_Int_Tables_number   1
_chemical_formula_structural   DyPa2(ZnPt)3
_chemical_formula_sum   'Dy1 Pa2 Zn3 Pt3'
_cell_volume   179.13143747
_cell_formula_units_Z   1
loop_
 _symmetry_equiv_pos_site_id
 _symmetry_equiv_pos_as_xyz
  1  'x, y, z'
loop_
 _atom_site_type_symbol
 _atom_site_label
 _atom_site_symmetry_multiplicity
 _atom_site_fract_x
 _atom_site_fract_y
 _atom_site_fract_z
 _atom_site_occupancy
  Dy  Dy0  1  0.000000  0.598168  0.500000  1
  Pa  Pa1  1  0.409319  0.407181  0.500000  1
  Pa  Pa2  1  0.590681  0.997862  0.500000  1
  Zn  Zn3  1  0.759946  0.748836  0.000000  1
  Zn  Zn4  1  0.240054  0.988890  0.000000  1
  Zn  Zn5  1  0.000000  0.260812  0.000000  1
  Pt  Pt6  1  0.649686  0.317861  0.000000  1
  Pt  Pt7  1  0.350314  0.668176  0.000000  1
  Pt  Pt8  1  0.000000  0.012213  0.500000  1
