# generated using pymatgen
data_Dy4Lu8TcOs3
_symmetry_space_group_name_H-M   'P 1'
_cell_length_a   6.20991501
_cell_length_b   7.41028064
_cell_length_c   8.83796300
_cell_angle_alpha   90.00000000
_cell_angle_beta   90.00000000
_cell_angle_gamma   90.08623069
_symmetry_Int_Tables_number   1
_chemical_formula_structural   Dy4Lu8TcOs3
_chemical_formula_sum   'Dy4 Lu8 Tc1 Os3'
_cell_volume   406.69796551
_cell_formula_units_Z   1
loop_
 _symmetry_equiv_pos_site_id
 _symmetry_equiv_pos_as_xyz
  1  'x, y, z'
loop_
 _atom_site_type_symbol
 _atom_site_label
 _atom_site_symmetry_multiplicity
 _atom_site_fract_x
 _atom_site_fract_y
 _atom_site_fract_z
 _atom_site_occupancy
  Dy  Dy0  1  0.874944  0.538955  0.250000  1
  Dy  Dy1  1  0.622833  0.037502  0.250000  1
  Dy  Dy2  1  0.126969  0.460673  0.750000  1
  Dy  Dy3  1  0.373309  0.962376  0.750000  1
  Lu  Lu4  1  0.340483  0.673038  0.062283  1
  Lu  Lu5  1  0.160261  0.174675  0.437318  1
  Lu  Lu6  1  0.661995  0.326502  0.562222  1
  Lu  Lu7  1  0.840203  0.826396  0.936888  1
  Lu  Lu8  1  0.661995  0.326502  0.937778  1
  Lu  Lu9  1  0.840203  0.826396  0.563112  1
  Lu  Lu10  1  0.340483  0.673038  0.437717  1
  Lu  Lu11  1  0.160261  0.174675  0.062682  1
  Tc  Tc12  1  0.041458  0.879596  0.250000  1
  Os  Os13  1  0.455976  0.379505  0.250000  1
  Os  Os14  1  0.954606  0.120643  0.750000  1
  Os  Os15  1  0.544023  0.619526  0.750000  1
