# generated using pymatgen
data_Hf6GaSnSb
_symmetry_space_group_name_H-M   'P 1'
_cell_length_a   7.62742500
_cell_length_b   7.62742368
_cell_length_c   3.83351500
_cell_angle_alpha   90.00000000
_cell_angle_beta   90.00000000
_cell_angle_gamma   120.00001007
_symmetry_Int_Tables_number   1
_chemical_formula_structural   Hf6GaSnSb
_chemical_formula_sum   'Hf6 Ga1 Sn1 Sb1'
_cell_volume   193.14504502
_cell_formula_units_Z   1
loop_
 _symmetry_equiv_pos_site_id
 _symmetry_equiv_pos_as_xyz
  1  'x, y, z'
loop_
 _atom_site_type_symbol
 _atom_site_label
 _atom_site_symmetry_multiplicity
 _atom_site_fract_x
 _atom_site_fract_y
 _atom_site_fract_z
 _atom_site_occupancy
  Hf  Hf0  1  0.244664  0.998272  0.500000  1
  Hf  Hf1  1  0.001728  0.246392  0.500000  1
  Hf  Hf2  1  0.753608  0.755336  0.500000  1
  Hf  Hf3  1  0.605353  0.001887  0.000000  1
  Hf  Hf4  1  0.998113  0.603466  0.000000  1
  Hf  Hf5  1  0.396534  0.394647  0.000000  1
  Ga  Ga6  1  0.000000  0.000000  0.000000  1
  Sn  Sn7  1  0.333333  0.666667  0.500000  1
  Sb  Sb8  1  0.666667  0.333333  0.500000  1
