# generated using pymatgen
data_NaSm6P12Rh17
_symmetry_space_group_name_H-M   'P 1'
_cell_length_a   3.96709500
_cell_length_b   11.28422200
_cell_length_c   12.91205700
_cell_angle_alpha   90.00000000
_cell_angle_beta   90.00000000
_cell_angle_gamma   90.00000000
_symmetry_Int_Tables_number   1
_chemical_formula_structural   NaSm6P12Rh17
_chemical_formula_sum   'Na1 Sm6 P12 Rh17'
_cell_volume   578.01572931
_cell_formula_units_Z   1
loop_
 _symmetry_equiv_pos_site_id
 _symmetry_equiv_pos_as_xyz
  1  'x, y, z'
loop_
 _atom_site_type_symbol
 _atom_site_label
 _atom_site_symmetry_multiplicity
 _atom_site_fract_x
 _atom_site_fract_y
 _atom_site_fract_z
 _atom_site_occupancy
  Na  Na0  1  0.500000  0.500000  0.155023  1
  Sm  Sm1  1  0.000000  0.500000  0.518909  1
  Sm  Sm2  1  0.500000  0.000000  0.479753  1
  Sm  Sm3  1  0.500000  0.816347  0.205538  1
  Sm  Sm4  1  0.500000  0.183653  0.205538  1
  Sm  Sm5  1  0.000000  0.683936  0.794920  1
  Sm  Sm6  1  0.000000  0.316064  0.794920  1
  P  P7  1  0.500000  0.500000  0.881546  1
  P  P8  1  0.000000  0.000000  0.119269  1
  P  P9  1  0.500000  0.500000  0.353226  1
  P  P10  1  0.000000  0.000000  0.650787  1
  P  P11  1  0.500000  0.313028  0.618291  1
  P  P12  1  0.500000  0.686972  0.618291  1
  P  P13  1  0.000000  0.187829  0.383769  1
  P  P14  1  0.000000  0.812171  0.383769  1
  P  P15  1  0.500000  0.848436  0.892001  1
  P  P16  1  0.500000  0.151564  0.892001  1
  P  P17  1  0.000000  0.660784  0.104536  1
  P  P18  1  0.000000  0.339216  0.104536  1
  Rh  Rh19  1  0.000000  0.000000  0.829731  1
  Rh  Rh20  1  0.500000  0.500000  0.702675  1
  Rh  Rh21  1  0.000000  0.000000  0.297996  1
  Rh  Rh22  1  0.000000  0.500000  0.981619  1
  Rh  Rh23  1  0.500000  0.000000  0.018198  1
  Rh  Rh24  1  0.500000  0.329788  0.991704  1
  Rh  Rh25  1  0.500000  0.670212  0.991704  1
  Rh  Rh26  1  0.000000  0.163790  0.004092  1
  Rh  Rh27  1  0.000000  0.836210  0.004092  1
  Rh  Rh28  1  0.500000  0.289037  0.434265  1
  Rh  Rh29  1  0.500000  0.710963  0.434265  1
  Rh  Rh30  1  0.000000  0.204334  0.572149  1
  Rh  Rh31  1  0.000000  0.795666  0.572149  1
  Rh  Rh32  1  0.500000  0.875595  0.710818  1
  Rh  Rh33  1  0.500000  0.124405  0.710818  1
  Rh  Rh34  1  0.000000  0.627180  0.293553  1
  Rh  Rh35  1  0.000000  0.372820  0.293553  1
