# generated using pymatgen
data_Hf3Zr16Si16Tc
_symmetry_space_group_name_H-M   'P 1'
_cell_length_a   7.10534950
_cell_length_b   7.10384108
_cell_length_c   12.96283183
_cell_angle_alpha   89.92402696
_cell_angle_beta   90.11042836
_cell_angle_gamma   89.99781654
_symmetry_Int_Tables_number   1
_chemical_formula_structural   Hf3Zr16Si16Tc
_chemical_formula_sum   'Hf3 Zr16 Si16 Tc1'
_cell_volume   654.30069306
_cell_formula_units_Z   1
loop_
 _symmetry_equiv_pos_site_id
 _symmetry_equiv_pos_as_xyz
  1  'x, y, z'
loop_
 _atom_site_type_symbol
 _atom_site_label
 _atom_site_symmetry_multiplicity
 _atom_site_fract_x
 _atom_site_fract_y
 _atom_site_fract_z
 _atom_site_occupancy
  Hf  Hf0  1  0.356480  0.503765  0.379447  1
  Hf  Hf1  1  0.854764  0.998519  0.373639  1
  Hf  Hf2  1  0.324141  0.324158  0.000306  1
  Zr  Zr3  1  0.001058  0.145864  0.128565  1
  Zr  Zr4  1  0.999414  0.855273  0.625933  1
  Zr  Zr5  1  0.644732  0.499337  0.873936  1
  Zr  Zr6  1  0.503698  0.356253  0.620051  1
  Zr  Zr7  1  0.499453  0.644697  0.126672  1
  Zr  Zr8  1  0.145608  0.001104  0.872118  1
  Zr  Zr9  1  0.997649  0.649630  0.035943  1
  Zr  Zr10  1  0.001417  0.347430  0.533136  1
  Zr  Zr11  1  0.649585  0.997748  0.964331  1
  Zr  Zr12  1  0.149748  0.502767  0.782645  1
  Zr  Zr13  1  0.849316  0.497512  0.284122  1
  Zr  Zr14  1  0.503324  0.149792  0.218011  1
  Zr  Zr15  1  0.498005  0.849701  0.715451  1
  Zr  Zr16  1  0.346667  0.001731  0.466366  1
  Zr  Zr17  1  0.823517  0.176644  0.747462  1
  Zr  Zr18  1  0.176650  0.823386  0.252813  1
  Si  Si19  1  0.043158  0.698180  0.437668  1
  Si  Si20  1  0.949431  0.301323  0.937507  1
  Si  Si21  1  0.698214  0.042298  0.560753  1
  Si  Si22  1  0.200840  0.448260  0.188217  1
  Si  Si23  1  0.796453  0.556935  0.682078  1
  Si  Si24  1  0.447983  0.200352  0.812553  1
  Si  Si25  1  0.556957  0.795846  0.318402  1
  Si  Si26  1  0.301281  0.949476  0.062810  1
  Si  Si27  1  0.853055  0.794507  0.821518  1
  Si  Si28  1  0.147797  0.206107  0.323769  1
  Si  Si29  1  0.794943  0.853287  0.179352  1
  Si  Si30  1  0.297110  0.647073  0.572484  1
  Si  Si31  1  0.703953  0.353257  0.071808  1
  Si  Si32  1  0.646727  0.296184  0.425855  1
  Si  Si33  1  0.353144  0.703760  0.928449  1
  Si  Si34  1  0.205743  0.148952  0.677020  1
  Tc  Tc35  1  0.677987  0.678891  0.498809  1
