# generated using pymatgen
data_Rb4Al5(CuAu4)3
_symmetry_space_group_name_H-M   'P 1'
_cell_length_a   5.58023315
_cell_length_b   7.11006684
_cell_length_c   13.50763951
_cell_angle_alpha   89.88491957
_cell_angle_beta   89.69733960
_cell_angle_gamma   89.84379471
_symmetry_Int_Tables_number   1
_chemical_formula_structural   Rb4Al5(CuAu4)3
_chemical_formula_sum   'Rb4 Al5 Cu3 Au12'
_cell_volume   535.91628344
_cell_formula_units_Z   1
loop_
 _symmetry_equiv_pos_site_id
 _symmetry_equiv_pos_as_xyz
  1  'x, y, z'
loop_
 _atom_site_type_symbol
 _atom_site_label
 _atom_site_symmetry_multiplicity
 _atom_site_fract_x
 _atom_site_fract_y
 _atom_site_fract_z
 _atom_site_occupancy
  Rb  Rb0  1  0.248203  0.103523  0.070677  1
  Rb  Rb1  1  0.253763  0.400815  0.575207  1
  Rb  Rb2  1  0.748133  0.896765  0.926890  1
  Rb  Rb3  1  0.750381  0.601208  0.428012  1
  Al  Al4  1  0.997826  0.898437  0.654886  1
  Al  Al5  1  0.501130  0.603165  0.154112  1
  Al  Al6  1  0.496575  0.098960  0.344427  1
  Al  Al7  1  0.003105  0.398515  0.845271  1
  Al  Al8  1  0.998406  0.102107  0.346977  1
  Cu  Cu9  1  0.500596  0.398826  0.846177  1
  Cu  Cu10  1  0.502258  0.899881  0.653429  1
  Cu  Cu11  1  0.001572  0.599568  0.153232  1
  Au  Au12  1  0.245581  0.109877  0.784751  1
  Au  Au13  1  0.249123  0.387799  0.288365  1
  Au  Au14  1  0.744992  0.889876  0.216192  1
  Au  Au15  1  0.753658  0.609888  0.715276  1
  Au  Au16  1  0.253058  0.700855  0.786791  1
  Au  Au17  1  0.244984  0.798265  0.287346  1
  Au  Au18  1  0.747865  0.299032  0.212130  1
  Au  Au19  1  0.747776  0.200464  0.712621  1
  Au  Au20  1  0.263515  0.578269  0.991473  1
  Au  Au21  1  0.242449  0.923134  0.492387  1
  Au  Au22  1  0.762288  0.422049  0.007705  1
  Au  Au23  1  0.742764  0.078723  0.505667  1
