# generated using pymatgen
data_Hf4Ti2Mn2SiP3
_symmetry_space_group_name_H-M   'P 1'
_cell_length_a   3.57136800
_cell_length_b   6.58472753
_cell_length_c   7.82692983
_cell_angle_alpha   89.95067531
_cell_angle_beta   90.00000000
_cell_angle_gamma   90.00000000
_symmetry_Int_Tables_number   1
_chemical_formula_structural   Hf4Ti2Mn2SiP3
_chemical_formula_sum   'Hf4 Ti2 Mn2 Si1 P3'
_cell_volume   184.06181115
_cell_formula_units_Z   1
loop_
 _symmetry_equiv_pos_site_id
 _symmetry_equiv_pos_as_xyz
  1  'x, y, z'
loop_
 _atom_site_type_symbol
 _atom_site_label
 _atom_site_symmetry_multiplicity
 _atom_site_fract_x
 _atom_site_fract_y
 _atom_site_fract_z
 _atom_site_occupancy
  Hf  Hf0  1  0.250000  0.534399  0.170000  1
  Hf  Hf1  1  0.750000  0.462051  0.827077  1
  Hf  Hf2  1  0.750000  0.968257  0.669192  1
  Hf  Hf3  1  0.250000  0.034717  0.330907  1
  Ti  Ti4  1  0.250000  0.631715  0.553279  1
  Ti  Ti5  1  0.250000  0.135946  0.944987  1
  Mn  Mn6  1  0.750000  0.365297  0.436883  1
  Mn  Mn7  1  0.750000  0.870478  0.065893  1
  Si  Si8  1  0.250000  0.762573  0.874450  1
  P  P9  1  0.750000  0.236312  0.147388  1
  P  P10  1  0.750000  0.735666  0.352658  1
  P  P11  1  0.250000  0.262590  0.627285  1
