# generated using pymatgen
data_Cs2Mg2CdSiAs4
_symmetry_space_group_name_H-M   'P 1'
_cell_length_a   8.35285226
_cell_length_b   8.35285149
_cell_length_c   6.16546800
_cell_angle_alpha   90.00000000
_cell_angle_beta   90.00000000
_cell_angle_gamma   136.55192968
_symmetry_Int_Tables_number   1
_chemical_formula_structural   Cs2Mg2CdSiAs4
_chemical_formula_sum   'Cs2 Mg2 Cd1 Si1 As4'
_cell_volume   295.82348287
_cell_formula_units_Z   1
loop_
 _symmetry_equiv_pos_site_id
 _symmetry_equiv_pos_as_xyz
  1  'x, y, z'
loop_
 _atom_site_type_symbol
 _atom_site_label
 _atom_site_symmetry_multiplicity
 _atom_site_fract_x
 _atom_site_fract_y
 _atom_site_fract_z
 _atom_site_occupancy
  Cs  Cs0  1  0.500000  0.000000  0.255709  1
  Cs  Cs1  1  0.000000  0.500000  0.744291  1
  Mg  Mg2  1  0.500000  0.500000  0.000000  1
  Mg  Mg3  1  0.000000  0.000000  0.500000  1
  Cd  Cd4  1  0.500000  0.500000  0.500000  1
  Si  Si5  1  0.000000  0.000000  0.000000  1
  As  As6  1  0.681612  0.877293  0.779715  1
  As  As7  1  0.122707  0.318388  0.220285  1
  As  As8  1  0.877293  0.681612  0.220285  1
  As  As9  1  0.318388  0.122707  0.779715  1
