# generated using pymatgen
data_Er4Al7Re
_symmetry_space_group_name_H-M   'P 1'
_cell_length_a   5.53143502
_cell_length_b   5.53147229
_cell_length_c   8.87756906
_cell_angle_alpha   90.01067545
_cell_angle_beta   89.98896700
_cell_angle_gamma   120.00083928
_symmetry_Int_Tables_number   1
_chemical_formula_structural   Er4Al7Re
_chemical_formula_sum   'Er4 Al7 Re1'
_cell_volume   235.23371300
_cell_formula_units_Z   1
loop_
 _symmetry_equiv_pos_site_id
 _symmetry_equiv_pos_as_xyz
  1  'x, y, z'
loop_
 _atom_site_type_symbol
 _atom_site_label
 _atom_site_symmetry_multiplicity
 _atom_site_fract_x
 _atom_site_fract_y
 _atom_site_fract_z
 _atom_site_occupancy
  Er  Er0  1  0.666674  0.333316  0.555815  1
  Er  Er1  1  0.333326  0.666684  0.444185  1
  Er  Er2  1  0.333330  0.666683  0.061984  1
  Er  Er3  1  0.666670  0.333317  0.938016  1
  Al  Al4  1  0.000000  0.000000  0.500000  1
  Al  Al5  1  0.166991  0.333983  0.756590  1
  Al  Al6  1  0.166995  0.833003  0.756593  1
  Al  Al7  1  0.666013  0.833005  0.756590  1
  Al  Al8  1  0.833009  0.666017  0.243410  1
  Al  Al9  1  0.833005  0.166997  0.243407  1
  Al  Al10  1  0.333987  0.166995  0.243410  1
  Re  Re11  1  0.000000  0.000000  0.000000  1
