# generated using pymatgen
data_Er15TmCd4(IrRu)2
_symmetry_space_group_name_H-M   'P 1'
_cell_length_a   9.54709139
_cell_length_b   9.54709241
_cell_length_c   9.58946300
_cell_angle_alpha   59.85368836
_cell_angle_beta   59.85368424
_cell_angle_gamma   59.69614782
_symmetry_Int_Tables_number   1
_chemical_formula_structural   Er15TmCd4(IrRu)2
_chemical_formula_sum   'Er15 Tm1 Cd4 Ir2 Ru2'
_cell_volume   615.25431931
_cell_formula_units_Z   1
loop_
 _symmetry_equiv_pos_site_id
 _symmetry_equiv_pos_as_xyz
  1  'x, y, z'
loop_
 _atom_site_type_symbol
 _atom_site_label
 _atom_site_symmetry_multiplicity
 _atom_site_fract_x
 _atom_site_fract_y
 _atom_site_fract_z
 _atom_site_occupancy
  Er  Er0  1  0.598211  0.598211  0.205576  1
  Er  Er1  1  0.596953  0.209143  0.596898  1
  Er  Er2  1  0.209143  0.596953  0.596898  1
  Er  Er3  1  0.061692  0.437904  0.440180  1
  Er  Er4  1  0.437848  0.061774  0.060222  1
  Er  Er5  1  0.437904  0.061692  0.440180  1
  Er  Er6  1  0.061774  0.437848  0.060222  1
  Er  Er7  1  0.438138  0.438138  0.061859  1
  Er  Er8  1  0.059484  0.059484  0.440491  1
  Er  Er9  1  0.188397  0.809920  0.813114  1
  Er  Er10  1  0.809939  0.188199  0.188552  1
  Er  Er11  1  0.809920  0.188397  0.813114  1
  Er  Er12  1  0.188199  0.809939  0.188552  1
  Er  Er13  1  0.811279  0.811279  0.188793  1
  Er  Er14  1  0.188402  0.188402  0.811532  1
  Tm  Tm15  1  0.598181  0.598181  0.597872  1
  Cd  Cd16  1  0.830563  0.830563  0.830657  1
  Cd  Cd17  1  0.830529  0.830529  0.508258  1
  Cd  Cd18  1  0.830846  0.507373  0.830864  1
  Cd  Cd19  1  0.507373  0.830846  0.830864  1
  Ir  Ir20  1  0.394153  0.826859  0.389747  1
  Ir  Ir21  1  0.826859  0.394153  0.389747  1
  Ru  Ru22  1  0.391981  0.391981  0.387602  1
  Ru  Ru23  1  0.392231  0.392231  0.828202  1
