# generated using pymatgen
data_Er2HfZr(Al8Pt3)3
_symmetry_space_group_name_H-M   'P 1'
_cell_length_a   7.49345499
_cell_length_b   7.49636384
_cell_length_c   13.01710893
_cell_angle_alpha   84.41783247
_cell_angle_beta   101.04706990
_cell_angle_gamma   119.92794829
_symmetry_Int_Tables_number   1
_chemical_formula_structural   Er2HfZr(Al8Pt3)3
_chemical_formula_sum   'Er2 Hf1 Zr1 Al24 Pt9'
_cell_volume   621.96940201
_cell_formula_units_Z   1
loop_
 _symmetry_equiv_pos_site_id
 _symmetry_equiv_pos_as_xyz
  1  'x, y, z'
loop_
 _atom_site_type_symbol
 _atom_site_label
 _atom_site_symmetry_multiplicity
 _atom_site_fract_x
 _atom_site_fract_y
 _atom_site_fract_z
 _atom_site_occupancy
  Er  Er0  1  0.061917  0.668019  0.191725  1
  Er  Er1  1  0.937937  0.331811  0.808250  1
  Hf  Hf2  1  0.267624  0.000033  0.808202  1
  Zr  Zr3  1  0.731812  0.999874  0.190675  1
  Al  Al4  1  0.812234  0.869242  0.815484  1
  Al  Al5  1  0.187976  0.130819  0.184589  1
  Al  Al6  1  0.984165  0.669064  0.941692  1
  Al  Al7  1  0.016084  0.331275  0.058068  1
  Al  Al8  1  0.398837  0.669563  0.816705  1
  Al  Al9  1  0.601190  0.330709  0.183380  1
  Al  Al10  1  0.885244  0.666771  0.673904  1
  Al  Al11  1  0.114906  0.333218  0.326377  1
  Al  Al12  1  0.597183  0.452416  0.815916  1
  Al  Al13  1  0.402485  0.547230  0.184138  1
  Al  Al14  1  0.230561  0.338038  0.672428  1
  Al  Al15  1  0.769531  0.661922  0.327852  1
  Al  Al16  1  0.852664  0.333061  0.559559  1
  Al  Al17  1  0.186749  0.999664  0.560533  1
  Al  Al18  1  0.813286  0.000335  0.439354  1
  Al  Al19  1  0.354549  0.998244  0.056694  1
  Al  Al20  1  0.645031  0.001796  0.942975  1
  Al  Al21  1  0.555283  0.993605  0.674057  1
  Al  Al22  1  0.444842  0.006455  0.326245  1
  Al  Al23  1  0.521406  0.667242  0.563131  1
  Al  Al24  1  0.478573  0.332740  0.436845  1
  Al  Al25  1  0.684423  0.670469  0.049337  1
  Al  Al26  1  0.315499  0.329260  0.950392  1
  Al  Al27  1  0.147314  0.666946  0.440454  1
  Pt  Pt28  1  0.327245  0.670960  0.000069  1
  Pt  Pt29  1  0.545061  0.323011  0.638038  1
  Pt  Pt30  1  0.454499  0.676344  0.362385  1
  Pt  Pt31  1  0.889686  0.009326  0.639518  1
  Pt  Pt32  1  0.111149  0.990631  0.360792  1
  Pt  Pt33  1  0.672752  0.329222  0.999836  1
  Pt  Pt34  1  0.203113  0.667096  0.639896  1
  Pt  Pt35  1  0.797079  0.333597  0.360564  1
  Pt  Pt36  1  0.000115  0.999991  0.999940  1
