# generated using pymatgen
data_Er6Fe15Co2P12Ru
_symmetry_space_group_name_H-M   'P 1'
_cell_length_a   3.70547100
_cell_length_b   10.44847700
_cell_length_c   12.16562900
_cell_angle_alpha   90.00000000
_cell_angle_beta   90.00000000
_cell_angle_gamma   90.00000000
_symmetry_Int_Tables_number   1
_chemical_formula_structural   Er6Fe15Co2P12Ru
_chemical_formula_sum   'Er6 Fe15 Co2 P12 Ru1'
_cell_volume   471.01092211
_cell_formula_units_Z   1
loop_
 _symmetry_equiv_pos_site_id
 _symmetry_equiv_pos_as_xyz
  1  'x, y, z'
loop_
 _atom_site_type_symbol
 _atom_site_label
 _atom_site_symmetry_multiplicity
 _atom_site_fract_x
 _atom_site_fract_y
 _atom_site_fract_z
 _atom_site_occupancy
  Er  Er0  1  0.750000  0.250000  0.472779  1
  Er  Er1  1  0.250000  0.750000  0.525705  1
  Er  Er2  1  0.250000  0.929910  0.792535  1
  Er  Er3  1  0.250000  0.570090  0.792535  1
  Er  Er4  1  0.750000  0.069621  0.206944  1
  Er  Er5  1  0.750000  0.430379  0.206944  1
  Fe  Fe6  1  0.750000  0.750000  0.153134  1
  Fe  Fe7  1  0.750000  0.250000  0.012635  1
  Fe  Fe8  1  0.250000  0.750000  0.988837  1
  Fe  Fe9  1  0.250000  0.424328  0.006646  1
  Fe  Fe10  1  0.250000  0.075672  0.006646  1
  Fe  Fe11  1  0.750000  0.578623  0.996918  1
  Fe  Fe12  1  0.750000  0.921377  0.996918  1
  Fe  Fe13  1  0.250000  0.451066  0.569023  1
  Fe  Fe14  1  0.250000  0.048934  0.569023  1
  Fe  Fe15  1  0.750000  0.549716  0.429674  1
  Fe  Fe16  1  0.750000  0.950284  0.429674  1
  Fe  Fe17  1  0.250000  0.867628  0.291471  1
  Fe  Fe18  1  0.250000  0.632372  0.291471  1
  Fe  Fe19  1  0.750000  0.130832  0.707415  1
  Fe  Fe20  1  0.750000  0.369168  0.707415  1
  Co  Co21  1  0.250000  0.250000  0.300282  1
  Co  Co22  1  0.750000  0.750000  0.700109  1
  P  P23  1  0.250000  0.250000  0.117085  1
  P  P24  1  0.750000  0.750000  0.883750  1
  P  P25  1  0.250000  0.250000  0.653640  1
  P  P26  1  0.750000  0.750000  0.341166  1
  P  P27  1  0.250000  0.443702  0.384999  1
  P  P28  1  0.250000  0.056298  0.384999  1
  P  P29  1  0.750000  0.556813  0.613770  1
  P  P30  1  0.750000  0.943187  0.613770  1
  P  P31  1  0.250000  0.898458  0.112758  1
  P  P32  1  0.250000  0.601542  0.112758  1
  P  P33  1  0.750000  0.097190  0.890149  1
  P  P34  1  0.750000  0.402810  0.890149  1
  Ru  Ru35  1  0.250000  0.250000  0.846277  1
