# generated using pymatgen
data_Tm3ThPt4
_symmetry_space_group_name_H-M   'P 1'
_cell_length_a   4.56331300
_cell_length_b   5.59260600
_cell_length_c   6.98444675
_cell_angle_alpha   89.88127954
_cell_angle_beta   90.00000000
_cell_angle_gamma   90.00000000
_symmetry_Int_Tables_number   1
_chemical_formula_structural   Tm3ThPt4
_chemical_formula_sum   'Tm3 Th1 Pt4'
_cell_volume   178.24836744
_cell_formula_units_Z   1
loop_
 _symmetry_equiv_pos_site_id
 _symmetry_equiv_pos_as_xyz
  1  'x, y, z'
loop_
 _atom_site_type_symbol
 _atom_site_label
 _atom_site_symmetry_multiplicity
 _atom_site_fract_x
 _atom_site_fract_y
 _atom_site_fract_z
 _atom_site_occupancy
  Tm  Tm0  1  0.750000  0.356278  0.813810  1
  Tm  Tm1  1  0.750000  0.142641  0.321763  1
  Tm  Tm2  1  0.250000  0.859213  0.682922  1
  Th  Th3  1  0.250000  0.641173  0.182326  1
  Pt  Pt4  1  0.250000  0.158037  0.041557  1
  Pt  Pt5  1  0.750000  0.843924  0.949398  1
  Pt  Pt6  1  0.750000  0.659528  0.462085  1
  Pt  Pt7  1  0.250000  0.339205  0.546139  1
