# generated using pymatgen
data_Nd4ErZn2Bi
_symmetry_space_group_name_H-M   'P 1'
_cell_length_a   8.78671660
_cell_length_b   8.78671725
_cell_length_c   8.78671623
_cell_angle_alpha   122.12363044
_cell_angle_beta   122.12363283
_cell_angle_gamma   86.35950206
_symmetry_Int_Tables_number   1
_chemical_formula_structural   Nd4ErZn2Bi
_chemical_formula_sum   'Nd8 Er2 Zn4 Bi2'
_cell_volume   463.27886928
_cell_formula_units_Z   2
loop_
 _symmetry_equiv_pos_site_id
 _symmetry_equiv_pos_as_xyz
  1  'x, y, z'
loop_
 _atom_site_type_symbol
 _atom_site_label
 _atom_site_symmetry_multiplicity
 _atom_site_fract_x
 _atom_site_fract_y
 _atom_site_fract_z
 _atom_site_occupancy
  Nd  Nd0  1  0.509954  0.009954  0.804385  1
  Nd  Nd1  1  0.205567  0.705567  0.195615  1
  Nd  Nd2  1  0.009954  0.205567  0.500000  1
  Nd  Nd3  1  0.705567  0.509954  0.500000  1
  Nd  Nd4  1  0.490046  0.990046  0.195615  1
  Nd  Nd5  1  0.794433  0.294433  0.804385  1
  Nd  Nd6  1  0.990046  0.794433  0.500000  1
  Nd  Nd7  1  0.294433  0.490046  0.500000  1
  Er  Er8  1  0.500000  0.500000  0.000000  1
  Er  Er9  1  0.000000  0.000000  0.000000  1
  Zn  Zn10  1  0.146959  0.646959  0.793919  1
  Zn  Zn11  1  0.853041  0.353041  0.206081  1
  Zn  Zn12  1  0.646959  0.853041  0.500000  1
  Zn  Zn13  1  0.353041  0.146959  0.500000  1
  Bi  Bi14  1  0.250000  0.250000  0.000000  1
  Bi  Bi15  1  0.750000  0.750000  0.000000  1
