# generated using pymatgen
data_Zn3Pb(IO6)2
_symmetry_space_group_name_H-M   'P 1'
_cell_length_a   4.75732800
_cell_length_b   4.75335045
_cell_length_c   9.46565500
_cell_angle_alpha   90.00000000
_cell_angle_beta   90.00000000
_cell_angle_gamma   90.23045660
_symmetry_Int_Tables_number   1
_chemical_formula_structural   Zn3Pb(IO6)2
_chemical_formula_sum   'Zn3 Pb1 I2 O12'
_cell_volume   214.04746488
_cell_formula_units_Z   1
loop_
 _symmetry_equiv_pos_site_id
 _symmetry_equiv_pos_as_xyz
  1  'x, y, z'
loop_
 _atom_site_type_symbol
 _atom_site_label
 _atom_site_symmetry_multiplicity
 _atom_site_fract_x
 _atom_site_fract_y
 _atom_site_fract_z
 _atom_site_occupancy
  Zn  Zn0  1  0.500000  0.500000  0.154302  1
  Zn  Zn1  1  0.000000  0.000000  0.673626  1
  Zn  Zn2  1  0.500000  0.500000  0.838582  1
  Pb  Pb3  1  0.000000  0.000000  0.333045  1
  I  I4  1  0.500000  0.500000  0.509662  1
  I  I5  1  0.000000  0.000000  0.990455  1
  O  O6  1  0.690484  0.690722  0.652923  1
  O  O7  1  0.309516  0.309278  0.652923  1
  O  O8  1  0.808950  0.191353  0.845488  1
  O  O9  1  0.191050  0.808647  0.845488  1
  O  O10  1  0.321814  0.321577  0.346601  1
  O  O11  1  0.678186  0.678423  0.346601  1
  O  O12  1  0.193329  0.806265  0.149005  1
  O  O13  1  0.806671  0.193735  0.149005  1
  O  O14  1  0.717655  0.717884  0.998883  1
  O  O15  1  0.282345  0.282116  0.998883  1
  O  O16  1  0.785836  0.214296  0.507265  1
  O  O17  1  0.214164  0.785704  0.507265  1
