# generated using pymatgen
data_Er4Tm12In5Co2Hg
_symmetry_space_group_name_H-M   'P 1'
_cell_length_a   10.19675800
_cell_length_b   10.19295721
_cell_length_c   6.93786300
_cell_angle_alpha   90.08203275
_cell_angle_beta   90.00000000
_cell_angle_gamma   120.01232268
_symmetry_Int_Tables_number   1
_chemical_formula_structural   Er4Tm12In5Co2Hg
_chemical_formula_sum   'Er4 Tm12 In5 Co2 Hg1'
_cell_volume   624.40177802
_cell_formula_units_Z   1
loop_
 _symmetry_equiv_pos_site_id
 _symmetry_equiv_pos_as_xyz
  1  'x, y, z'
loop_
 _atom_site_type_symbol
 _atom_site_label
 _atom_site_symmetry_multiplicity
 _atom_site_fract_x
 _atom_site_fract_y
 _atom_site_fract_z
 _atom_site_occupancy
  Er  Er0  1  0.668071  0.336143  0.179733  1
  Er  Er1  1  0.333805  0.667610  0.682132  1
  Er  Er2  1  0.998911  0.997820  0.777446  1
  Er  Er3  1  0.001473  0.002945  0.279038  1
  Tm  Tm4  1  0.534230  0.068459  0.792785  1
  Tm  Tm5  1  0.927785  0.468643  0.793332  1
  Tm  Tm6  1  0.540858  0.468643  0.793332  1
  Tm  Tm7  1  0.464377  0.928754  0.289587  1
  Tm  Tm8  1  0.072035  0.533912  0.293716  1
  Tm  Tm9  1  0.461877  0.533912  0.293716  1
  Tm  Tm10  1  0.821321  0.642641  0.483312  1
  Tm  Tm11  1  0.358638  0.179071  0.498912  1
  Tm  Tm12  1  0.820434  0.179071  0.498912  1
  Tm  Tm13  1  0.178792  0.357583  0.994931  1
  Tm  Tm14  1  0.647063  0.819399  0.001448  1
  Tm  Tm15  1  0.172336  0.819399  0.001448  1
  In  In16  1  0.326526  0.162849  0.039386  1
  In  In17  1  0.836322  0.162849  0.039386  1
  In  In18  1  0.162176  0.324351  0.541641  1
  In  In19  1  0.674022  0.837294  0.540876  1
  In  In20  1  0.163274  0.837294  0.540876  1
  Co  Co21  1  0.667068  0.334134  0.567271  1
  Co  Co22  1  0.333348  0.666699  0.066971  1
  Hg  Hg23  1  0.835261  0.670523  0.045722  1
