# generated using pymatgen
data_Rb4CePrBr10
_symmetry_space_group_name_H-M   'P 1'
_cell_length_a   8.86601990
_cell_length_b   9.45690882
_cell_length_c   14.20281295
_cell_angle_alpha   90.13301147
_cell_angle_beta   90.06686311
_cell_angle_gamma   90.07734783
_symmetry_Int_Tables_number   1
_chemical_formula_structural   Rb4CePrBr10
_chemical_formula_sum   'Rb8 Ce2 Pr2 Br20'
_cell_volume   1190.83175543
_cell_formula_units_Z   2
loop_
 _symmetry_equiv_pos_site_id
 _symmetry_equiv_pos_as_xyz
  1  'x, y, z'
loop_
 _atom_site_type_symbol
 _atom_site_label
 _atom_site_symmetry_multiplicity
 _atom_site_fract_x
 _atom_site_fract_y
 _atom_site_fract_z
 _atom_site_occupancy
  Rb  Rb0  1  0.943759  0.004216  0.827118  1
  Rb  Rb1  1  0.056241  0.995784  0.172882  1
  Rb  Rb2  1  0.444538  0.995848  0.672532  1
  Rb  Rb3  1  0.056108  0.504260  0.172978  1
  Rb  Rb4  1  0.555462  0.004152  0.327468  1
  Rb  Rb5  1  0.943892  0.495740  0.827022  1
  Rb  Rb6  1  0.555577  0.495865  0.327532  1
  Rb  Rb7  1  0.444423  0.504135  0.672468  1
  Ce  Ce8  1  0.926868  0.750151  0.503960  1
  Ce  Ce9  1  0.073132  0.249849  0.496040  1
  Pr  Pr10  1  0.425765  0.250166  0.995458  1
  Pr  Pr11  1  0.574235  0.749834  0.004542  1
  Br  Br12  1  0.117794  0.749763  0.674938  1
  Br  Br13  1  0.882206  0.250237  0.325062  1
  Br  Br14  1  0.618629  0.249829  0.825608  1
  Br  Br15  1  0.381371  0.750171  0.174392  1
  Br  Br16  1  0.838269  0.043164  0.572685  1
  Br  Br17  1  0.161731  0.956836  0.427315  1
  Br  Br18  1  0.338370  0.957424  0.927407  1
  Br  Br19  1  0.161487  0.542867  0.427468  1
  Br  Br20  1  0.661630  0.042576  0.072593  1
  Br  Br21  1  0.838513  0.457133  0.572532  1
  Br  Br22  1  0.661804  0.456850  0.072550  1
  Br  Br23  1  0.338196  0.543150  0.927450  1
  Br  Br24  1  0.588467  0.750175  0.510459  1
  Br  Br25  1  0.411533  0.249825  0.489541  1
  Br  Br26  1  0.088299  0.250319  0.989288  1
  Br  Br27  1  0.911701  0.749681  0.010712  1
  Br  Br28  1  0.655449  0.749857  0.802303  1
  Br  Br29  1  0.344551  0.250143  0.197697  1
  Br  Br30  1  0.157049  0.249809  0.697829  1
  Br  Br31  1  0.842951  0.750191  0.302171  1
