# generated using pymatgen
data_Sm2Sc3TlSn3
_symmetry_space_group_name_H-M   'P 1'
_cell_length_a   7.68915800
_cell_length_b   8.10180400
_cell_length_c   14.90441700
_cell_angle_alpha   90.00000000
_cell_angle_beta   90.00000000
_cell_angle_gamma   90.00000000
_symmetry_Int_Tables_number   1
_chemical_formula_structural   Sm2Sc3TlSn3
_chemical_formula_sum   'Sm8 Sc12 Tl4 Sn12'
_cell_volume   928.48632217
_cell_formula_units_Z   4
loop_
 _symmetry_equiv_pos_site_id
 _symmetry_equiv_pos_as_xyz
  1  'x, y, z'
loop_
 _atom_site_type_symbol
 _atom_site_label
 _atom_site_symmetry_multiplicity
 _atom_site_fract_x
 _atom_site_fract_y
 _atom_site_fract_z
 _atom_site_occupancy
  Sm  Sm0  1  0.505727  0.319033  0.907682  1
  Sm  Sm1  1  0.005727  0.180967  0.592318  1
  Sm  Sm2  1  0.494273  0.680967  0.407682  1
  Sm  Sm3  1  0.994273  0.819033  0.092318  1
  Sm  Sm4  1  0.494273  0.680967  0.092318  1
  Sm  Sm5  1  0.994273  0.819033  0.407682  1
  Sm  Sm6  1  0.505727  0.319033  0.592318  1
  Sm  Sm7  1  0.005727  0.180967  0.907682  1
  Sc  Sc8  1  0.340581  0.836346  0.874328  1
  Sc  Sc9  1  0.840581  0.663654  0.625672  1
  Sc  Sc10  1  0.659419  0.163654  0.374328  1
  Sc  Sc11  1  0.159419  0.336346  0.125672  1
  Sc  Sc12  1  0.659419  0.163654  0.125672  1
  Sc  Sc13  1  0.159419  0.336346  0.374328  1
  Sc  Sc14  1  0.340581  0.836346  0.625672  1
  Sc  Sc15  1  0.840581  0.663654  0.874328  1
  Sc  Sc16  1  0.179260  0.499435  0.750000  1
  Sc  Sc17  1  0.679260  0.000565  0.750000  1
  Sc  Sc18  1  0.820740  0.500565  0.250000  1
  Sc  Sc19  1  0.320740  0.999435  0.250000  1
  Tl  Tl20  1  0.536333  0.626166  0.750000  1
  Tl  Tl21  1  0.036333  0.873834  0.750000  1
  Tl  Tl22  1  0.463667  0.373834  0.250000  1
  Tl  Tl23  1  0.963667  0.126166  0.250000  1
  Sn  Sn24  1  0.318952  0.042033  0.042657  1
  Sn  Sn25  1  0.818952  0.457967  0.457343  1
  Sn  Sn26  1  0.681048  0.957967  0.542657  1
  Sn  Sn27  1  0.181048  0.542033  0.957343  1
  Sn  Sn28  1  0.681048  0.957967  0.957343  1
  Sn  Sn29  1  0.181048  0.542033  0.542657  1
  Sn  Sn30  1  0.318952  0.042033  0.457343  1
  Sn  Sn31  1  0.818952  0.457967  0.042657  1
  Sn  Sn32  1  0.310768  0.139759  0.750000  1
  Sn  Sn33  1  0.810768  0.360241  0.750000  1
  Sn  Sn34  1  0.689232  0.860241  0.250000  1
  Sn  Sn35  1  0.189232  0.639759  0.250000  1
