# generated using pymatgen
data_BaNi9SnGeP3
_symmetry_space_group_name_H-M   'P 1'
_cell_length_a   6.80319900
_cell_length_b   6.80319911
_cell_length_c   10.96960200
_cell_angle_alpha   90.00000000
_cell_angle_beta   90.00000000
_cell_angle_gamma   120.00000432
_symmetry_Int_Tables_number   1
_chemical_formula_structural   BaNi9SnGeP3
_chemical_formula_sum   'Ba2 Ni18 Sn2 Ge2 P6'
_cell_volume   439.69126703
_cell_formula_units_Z   2
loop_
 _symmetry_equiv_pos_site_id
 _symmetry_equiv_pos_as_xyz
  1  'x, y, z'
loop_
 _atom_site_type_symbol
 _atom_site_label
 _atom_site_symmetry_multiplicity
 _atom_site_fract_x
 _atom_site_fract_y
 _atom_site_fract_z
 _atom_site_occupancy
  Ba  Ba0  1  0.000000  0.000000  0.499587  1
  Ba  Ba1  1  0.000000  0.000000  0.999587  1
  Ni  Ni2  1  0.456101  0.912200  0.879255  1
  Ni  Ni3  1  0.925578  0.462789  0.123934  1
  Ni  Ni4  1  0.537211  0.074422  0.123934  1
  Ni  Ni5  1  0.074422  0.537211  0.623934  1
  Ni  Ni6  1  0.196703  0.393405  0.246869  1
  Ni  Ni7  1  0.803297  0.196703  0.746869  1
  Ni  Ni8  1  0.393405  0.196703  0.746869  1
  Ni  Ni9  1  0.606595  0.803297  0.246869  1
  Ni  Ni10  1  0.196703  0.803297  0.246869  1
  Ni  Ni11  1  0.803297  0.606595  0.746869  1
  Ni  Ni12  1  0.462789  0.925578  0.623934  1
  Ni  Ni13  1  0.543899  0.456101  0.379255  1
  Ni  Ni14  1  0.912200  0.456101  0.379255  1
  Ni  Ni15  1  0.087800  0.543899  0.879255  1
  Ni  Ni16  1  0.456101  0.543899  0.879255  1
  Ni  Ni17  1  0.543899  0.087800  0.379255  1
  Ni  Ni18  1  0.537211  0.462789  0.123934  1
  Ni  Ni19  1  0.462789  0.537211  0.623934  1
  Sn  Sn20  1  0.333333  0.666667  0.437915  1
  Sn  Sn21  1  0.666667  0.333333  0.937915  1
  Ge  Ge22  1  0.666667  0.333333  0.562268  1
  Ge  Ge23  1  0.333333  0.666667  0.062268  1
  P  P24  1  0.170071  0.340141  0.750019  1
  P  P25  1  0.829929  0.170071  0.250019  1
  P  P26  1  0.170071  0.829929  0.750019  1
  P  P27  1  0.829929  0.659859  0.250019  1
  P  P28  1  0.340141  0.170071  0.250019  1
  P  P29  1  0.659859  0.829929  0.750019  1
