# generated using pymatgen
data_Tb2Er4GaCoRu
_symmetry_space_group_name_H-M   'P 1'
_cell_length_a   8.28656060
_cell_length_b   8.28641126
_cell_length_c   8.28656125
_cell_angle_alpha   105.43662665
_cell_angle_beta   110.62681856
_cell_angle_gamma   112.43032433
_symmetry_Int_Tables_number   1
_chemical_formula_structural   Tb2Er4GaCoRu
_chemical_formula_sum   'Tb4 Er8 Ga2 Co2 Ru2'
_cell_volume   436.28452983
_cell_formula_units_Z   2
loop_
 _symmetry_equiv_pos_site_id
 _symmetry_equiv_pos_as_xyz
  1  'x, y, z'
loop_
 _atom_site_type_symbol
 _atom_site_label
 _atom_site_symmetry_multiplicity
 _atom_site_fract_x
 _atom_site_fract_y
 _atom_site_fract_z
 _atom_site_occupancy
  Tb  Tb0  1  0.693797  0.255024  0.948814  1
  Tb  Tb1  1  0.306203  0.744976  0.051186  1
  Tb  Tb2  1  0.693790  0.744976  0.438774  1
  Tb  Tb3  1  0.306210  0.255024  0.561226  1
  Er  Er4  1  0.815574  0.140256  0.324681  1
  Er  Er5  1  0.815559  0.490876  0.675317  1
  Er  Er6  1  0.184426  0.859744  0.675319  1
  Er  Er7  1  0.184441  0.509124  0.324683  1
  Er  Er8  1  0.600830  0.780714  0.820084  1
  Er  Er9  1  0.960629  0.780714  0.179883  1
  Er  Er10  1  0.039371  0.219286  0.820117  1
  Er  Er11  1  0.399170  0.219286  0.179916  1
  Ga  Ga12  1  0.500000  0.500000  0.000000  1
  Ga  Ga13  1  0.500000  0.000000  0.500000  1
  Co  Co14  1  0.999988  0.112837  0.112849  1
  Co  Co15  1  0.000012  0.887163  0.887151  1
  Ru  Ru16  1  0.826956  0.500000  0.326956  1
  Ru  Ru17  1  0.173044  0.500000  0.673044  1
