# generated using pymatgen
data_DyZr(Co5As3)2
_symmetry_space_group_name_H-M   'P 1'
_cell_length_a   3.75736100
_cell_length_b   12.13520518
_cell_length_c   10.63496100
_cell_angle_alpha   89.90977982
_cell_angle_beta   90.00000000
_cell_angle_gamma   90.00000000
_symmetry_Int_Tables_number   1
_chemical_formula_structural   DyZr(Co5As3)2
_chemical_formula_sum   'Dy2 Zr2 Co20 As12'
_cell_volume   484.91476733
_cell_formula_units_Z   2
loop_
 _symmetry_equiv_pos_site_id
 _symmetry_equiv_pos_as_xyz
  1  'x, y, z'
loop_
 _atom_site_type_symbol
 _atom_site_label
 _atom_site_symmetry_multiplicity
 _atom_site_fract_x
 _atom_site_fract_y
 _atom_site_fract_z
 _atom_site_occupancy
  Dy  Dy0  1  0.250000  0.797760  0.582035  1
  Dy  Dy1  1  0.750000  0.202240  0.417965  1
  Zr  Zr2  1  0.750000  0.700772  0.078837  1
  Zr  Zr3  1  0.250000  0.299228  0.921163  1
  Co  Co4  1  0.750000  0.696631  0.381637  1
  Co  Co5  1  0.250000  0.303369  0.618363  1
  Co  Co6  1  0.250000  0.801503  0.888254  1
  Co  Co7  1  0.750000  0.198497  0.111746  1
  Co  Co8  1  0.750000  0.993308  0.213260  1
  Co  Co9  1  0.250000  0.006692  0.786740  1
  Co  Co10  1  0.250000  0.508193  0.716011  1
  Co  Co11  1  0.750000  0.491807  0.283989  1
  Co  Co12  1  0.750000  0.678041  0.785506  1
  Co  Co13  1  0.250000  0.321959  0.214494  1
  Co  Co14  1  0.250000  0.820275  0.281199  1
  Co  Co15  1  0.750000  0.179725  0.718801  1
  Co  Co16  1  0.750000  0.930552  0.971413  1
  Co  Co17  1  0.250000  0.069448  0.028587  1
  Co  Co18  1  0.250000  0.568321  0.467578  1
  Co  Co19  1  0.750000  0.431679  0.532422  1
  Co  Co20  1  0.750000  0.988470  0.593216  1
  Co  Co21  1  0.250000  0.011530  0.406784  1
  Co  Co22  1  0.250000  0.513345  0.090309  1
  Co  Co23  1  0.750000  0.486654  0.909691  1
  As  As24  1  0.750000  0.613639  0.584899  1
  As  As25  1  0.250000  0.386361  0.415101  1
  As  As26  1  0.250000  0.884719  0.085291  1
  As  As27  1  0.750000  0.115281  0.914709  1
  As  As28  1  0.750000  0.890074  0.398557  1
  As  As29  1  0.250000  0.109926  0.601443  1
  As  As30  1  0.250000  0.610793  0.900958  1
  As  As31  1  0.750000  0.389207  0.099042  1
  As  As32  1  0.750000  0.870869  0.770295  1
  As  As33  1  0.250000  0.129131  0.229705  1
  As  As34  1  0.250000  0.629471  0.265199  1
  As  As35  1  0.750000  0.370529  0.734801  1
