# generated using pymatgen
data_Dy2MgNi7B2
_symmetry_space_group_name_H-M   'P 1'
_cell_length_a   4.98671400
_cell_length_b   4.98063789
_cell_length_c   14.16597700
_cell_angle_alpha   90.00000000
_cell_angle_beta   90.00000000
_cell_angle_gamma   119.96756781
_symmetry_Int_Tables_number   1
_chemical_formula_structural   Dy2MgNi7B2
_chemical_formula_sum   'Dy4 Mg2 Ni14 B4'
_cell_volume   304.80243490
_cell_formula_units_Z   2
loop_
 _symmetry_equiv_pos_site_id
 _symmetry_equiv_pos_as_xyz
  1  'x, y, z'
loop_
 _atom_site_type_symbol
 _atom_site_label
 _atom_site_symmetry_multiplicity
 _atom_site_fract_x
 _atom_site_fract_y
 _atom_site_fract_z
 _atom_site_occupancy
  Dy  Dy0  1  0.666780  0.333389  0.529611  1
  Dy  Dy1  1  0.333220  0.666611  0.029611  1
  Dy  Dy2  1  0.666635  0.333312  0.755324  1
  Dy  Dy3  1  0.333365  0.666688  0.255324  1
  Mg  Mg4  1  0.333289  0.666644  0.467865  1
  Mg  Mg5  1  0.666711  0.333356  0.967865  1
  Ni  Ni6  1  0.834672  0.669283  0.352919  1
  Ni  Ni7  1  0.330732  0.165370  0.352914  1
  Ni  Ni8  1  0.999939  0.999974  0.998850  1
  Ni  Ni9  1  0.000061  0.000026  0.498850  1
  Ni  Ni10  1  0.833748  0.166214  0.147312  1
  Ni  Ni11  1  0.667566  0.833779  0.647385  1
  Ni  Ni12  1  0.166249  0.332458  0.647305  1
  Ni  Ni13  1  0.833751  0.667542  0.147305  1
  Ni  Ni14  1  0.332434  0.166221  0.147385  1
  Ni  Ni15  1  0.669268  0.834630  0.852914  1
  Ni  Ni16  1  0.165328  0.330717  0.852919  1
  Ni  Ni17  1  0.166252  0.833786  0.647312  1
  Ni  Ni18  1  0.165346  0.834600  0.852917  1
  Ni  Ni19  1  0.834654  0.165400  0.352917  1
  B  B20  1  0.666714  0.333368  0.249883  1
  B  B21  1  0.333286  0.666632  0.749883  1
  B  B22  1  0.000023  0.000017  0.747714  1
  B  B23  1  0.999977  0.999983  0.247714  1
