# generated using pymatgen
data_NdHoB6Os
_symmetry_space_group_name_H-M   'P 1'
_cell_length_a   3.70080400
_cell_length_b   9.22959300
_cell_length_c   11.65915800
_cell_angle_alpha   90.00000000
_cell_angle_beta   90.00000000
_cell_angle_gamma   90.00000000
_symmetry_Int_Tables_number   1
_chemical_formula_structural   NdHoB6Os
_chemical_formula_sum   'Nd4 Ho4 B24 Os4'
_cell_volume   398.24086520
_cell_formula_units_Z   4
loop_
 _symmetry_equiv_pos_site_id
 _symmetry_equiv_pos_as_xyz
  1  'x, y, z'
loop_
 _atom_site_type_symbol
 _atom_site_label
 _atom_site_symmetry_multiplicity
 _atom_site_fract_x
 _atom_site_fract_y
 _atom_site_fract_z
 _atom_site_occupancy
  Nd  Nd0  1  0.000000  0.322774  0.414382  1
  Nd  Nd1  1  0.000000  0.677226  0.585618  1
  Nd  Nd2  1  0.000000  0.822774  0.085618  1
  Nd  Nd3  1  0.000000  0.177226  0.914382  1
  Ho  Ho4  1  0.000000  0.944289  0.372423  1
  Ho  Ho5  1  0.000000  0.055711  0.627577  1
  Ho  Ho6  1  0.000000  0.444289  0.127577  1
  Ho  Ho7  1  0.000000  0.555711  0.872423  1
  B  B8  1  0.500000  0.556115  0.430482  1
  B  B9  1  0.500000  0.443885  0.569518  1
  B  B10  1  0.500000  0.056115  0.069518  1
  B  B11  1  0.500000  0.943885  0.930482  1
  B  B12  1  0.500000  0.749372  0.417386  1
  B  B13  1  0.500000  0.250628  0.582614  1
  B  B14  1  0.500000  0.249372  0.082614  1
  B  B15  1  0.500000  0.750628  0.917386  1
  B  B16  1  0.500000  0.790587  0.266970  1
  B  B17  1  0.500000  0.209413  0.733030  1
  B  B18  1  0.500000  0.290587  0.233030  1
  B  B19  1  0.500000  0.709413  0.766970  1
  B  B20  1  0.500000  0.630919  0.185393  1
  B  B21  1  0.500000  0.369081  0.814607  1
  B  B22  1  0.500000  0.130919  0.314607  1
  B  B23  1  0.500000  0.869081  0.685393  1
  B  B24  1  0.500000  0.985799  0.214008  1
  B  B25  1  0.500000  0.014201  0.785992  1
  B  B26  1  0.500000  0.485799  0.285992  1
  B  B27  1  0.500000  0.514201  0.714008  1
  B  B28  1  0.500000  0.603044  0.028227  1
  B  B29  1  0.500000  0.396956  0.971773  1
  B  B30  1  0.500000  0.103044  0.471773  1
  B  B31  1  0.500000  0.896956  0.528227  1
  Os  Os32  1  0.000000  0.639176  0.319675  1
  Os  Os33  1  0.000000  0.360824  0.680325  1
  Os  Os34  1  0.000000  0.139176  0.180325  1
  Os  Os35  1  0.000000  0.860824  0.819675  1
