# generated using pymatgen
data_Sr10Mg2Zr2Fe(RuO6)5
_symmetry_space_group_name_H-M   'P 1'
_cell_length_a   8.01544041
_cell_length_b   9.71876694
_cell_length_c   9.72424500
_cell_angle_alpha   80.23438935
_cell_angle_beta   114.33660234
_cell_angle_gamma   114.35468724
_symmetry_Int_Tables_number   1
_chemical_formula_structural   Sr10Mg2Zr2Fe(RuO6)5
_chemical_formula_sum   'Sr10 Mg2 Zr2 Fe1 Ru5 O30'
_cell_volume   628.78592237
_cell_formula_units_Z   1
loop_
 _symmetry_equiv_pos_site_id
 _symmetry_equiv_pos_as_xyz
  1  'x, y, z'
loop_
 _atom_site_type_symbol
 _atom_site_label
 _atom_site_symmetry_multiplicity
 _atom_site_fract_x
 _atom_site_fract_y
 _atom_site_fract_z
 _atom_site_occupancy
  Sr  Sr0  1  0.453784  0.094392  0.313368  1
  Sr  Sr1  1  0.258575  0.503047  0.505071  1
  Sr  Sr2  1  0.049592  0.899274  0.692376  1
  Sr  Sr3  1  0.844420  0.302853  0.887584  1
  Sr  Sr4  1  0.642369  0.700472  0.103178  1
  Sr  Sr5  1  0.346055  0.302845  0.887585  1
  Sr  Sr6  1  0.161297  0.700476  0.103159  1
  Sr  Sr7  1  0.953981  0.094372  0.313384  1
  Sr  Sr8  1  0.749522  0.503035  0.505084  1
  Sr  Sr9  1  0.542088  0.899281  0.692396  1
  Mg  Mg10  1  0.600085  0.801040  0.399174  1
  Mg  Mg11  1  0.400244  0.200127  0.600357  1
  Zr  Zr12  1  0.000796  0.999714  0.001852  1
  Zr  Zr13  1  0.798992  0.399734  0.198238  1
  Fe  Fe14  1  0.200151  0.598596  0.801781  1
  Ru  Ru15  1  0.497390  0.996445  0.998326  1
  Ru  Ru16  1  0.302138  0.401984  0.202297  1
  Ru  Ru17  1  0.103534  0.800380  0.406574  1
  Ru  Ru18  1  0.900048  0.200463  0.599658  1
  Ru  Ru19  1  0.696909  0.599927  0.793989  1
  O  O20  1  0.542966  0.400537  0.198537  1
  O  O21  1  0.344192  0.799303  0.401650  1
  O  O22  1  0.144418  0.201538  0.599967  1
  O  O23  1  0.946738  0.600429  0.799948  1
  O  O24  1  0.742463  0.997814  0.999844  1
  O  O25  1  0.255308  0.997932  0.999910  1
  O  O26  1  0.056203  0.400625  0.198621  1
  O  O27  1  0.856819  0.799388  0.401687  1
  O  O28  1  0.657135  0.201594  0.599985  1
  O  O29  1  0.453664  0.600535  0.799996  1
  O  O30  1  0.853840  0.776090  0.931483  1
  O  O31  1  0.654393  0.174576  0.134073  1
  O  O32  1  0.453327  0.580047  0.326460  1
  O  O33  1  0.255269  0.980152  0.530280  1
  O  O34  1  0.057504  0.384095  0.730896  1
  O  O35  1  0.545631  0.419405  0.672006  1
  O  O36  1  0.342013  0.816980  0.867176  1
  O  O37  1  0.144480  0.225314  0.063711  1
  O  O38  1  0.945490  0.623270  0.267782  1
  O  O39  1  0.747100  0.021878  0.472412  1
  O  O40  1  0.673518  0.727716  0.619382  1
  O  O41  1  0.474532  0.126863  0.822162  1
  O  O42  1  0.274695  0.532318  0.017042  1
  O  O43  1  0.078711  0.932932  0.224493  1
  O  O44  1  0.879185  0.335343  0.423052  1
  O  O45  1  0.721767  0.467701  0.975854  1
  O  O46  1  0.523863  0.869696  0.178049  1
  O  O47  1  0.323629  0.270973  0.376244  1
  O  O48  1  0.125760  0.667776  0.583766  1
  O  O49  1  0.923418  0.068724  0.778102  1
