# generated using pymatgen
data_Dy2Ho2Al4Ru3Pt
_symmetry_space_group_name_H-M   'P 1'
_cell_length_a   4.08651300
_cell_length_b   6.99850141
_cell_length_c   8.09054101
_cell_angle_alpha   90.23552960
_cell_angle_beta   90.00000000
_cell_angle_gamma   90.00000000
_symmetry_Int_Tables_number   1
_chemical_formula_structural   Dy2Ho2Al4Ru3Pt
_chemical_formula_sum   'Dy2 Ho2 Al4 Ru3 Pt1'
_cell_volume   231.38320566
_cell_formula_units_Z   1
loop_
 _symmetry_equiv_pos_site_id
 _symmetry_equiv_pos_as_xyz
  1  'x, y, z'
loop_
 _atom_site_type_symbol
 _atom_site_label
 _atom_site_symmetry_multiplicity
 _atom_site_fract_x
 _atom_site_fract_y
 _atom_site_fract_z
 _atom_site_occupancy
  Dy  Dy0  1  0.250000  0.028820  0.675621  1
  Dy  Dy1  1  0.250000  0.539266  0.818446  1
  Ho  Ho2  1  0.750000  0.965998  0.320569  1
  Ho  Ho3  1  0.750000  0.469750  0.183316  1
  Al  Al4  1  0.250000  0.136238  0.064734  1
  Al  Al5  1  0.250000  0.637631  0.439607  1
  Al  Al6  1  0.750000  0.856178  0.940603  1
  Al  Al7  1  0.750000  0.363423  0.557401  1
  Ru  Ru8  1  0.250000  0.267604  0.376865  1
  Ru  Ru9  1  0.250000  0.769568  0.120536  1
  Ru  Ru10  1  0.750000  0.735005  0.621924  1
  Pt  Pt11  1  0.750000  0.230519  0.880379  1
