# generated using pymatgen
data_Y12Mn(Si4Ir)3
_symmetry_space_group_name_H-M   'P 1'
_cell_length_a   4.23438700
_cell_length_b   10.73092858
_cell_length_c   12.37288431
_cell_angle_alpha   89.96598464
_cell_angle_beta   90.00000000
_cell_angle_gamma   90.00000000
_symmetry_Int_Tables_number   1
_chemical_formula_structural   Y12Mn(Si4Ir)3
_chemical_formula_sum   'Y12 Mn1 Si12 Ir3'
_cell_volume   562.21020886
_cell_formula_units_Z   1
loop_
 _symmetry_equiv_pos_site_id
 _symmetry_equiv_pos_as_xyz
  1  'x, y, z'
loop_
 _atom_site_type_symbol
 _atom_site_label
 _atom_site_symmetry_multiplicity
 _atom_site_fract_x
 _atom_site_fract_y
 _atom_site_fract_z
 _atom_site_occupancy
  Y  Y0  1  0.250000  0.879863  0.021325  1
  Y  Y1  1  0.250000  0.621313  0.521549  1
  Y  Y2  1  0.750000  0.119588  0.979864  1
  Y  Y3  1  0.750000  0.379359  0.477578  1
  Y  Y4  1  0.250000  0.920641  0.603454  1
  Y  Y5  1  0.250000  0.580521  0.104667  1
  Y  Y6  1  0.750000  0.078704  0.394826  1
  Y  Y7  1  0.750000  0.420866  0.898184  1
  Y  Y8  1  0.250000  0.662427  0.801342  1
  Y  Y9  1  0.250000  0.839643  0.300580  1
  Y  Y10  1  0.750000  0.340240  0.198864  1
  Y  Y11  1  0.750000  0.159683  0.699461  1
  Mn  Mn12  1  0.250000  0.386684  0.680757  1
  Si  Si13  1  0.250000  0.009454  0.821277  1
  Si  Si14  1  0.250000  0.489866  0.322349  1
  Si  Si15  1  0.750000  0.989894  0.178167  1
  Si  Si16  1  0.750000  0.515339  0.677849  1
  Si  Si17  1  0.250000  0.246733  0.843394  1
  Si  Si18  1  0.250000  0.252122  0.340008  1
  Si  Si19  1  0.750000  0.753292  0.159278  1
  Si  Si20  1  0.750000  0.749366  0.659279  1
  Si  Si21  1  0.250000  0.196597  0.539312  1
  Si  Si22  1  0.250000  0.296897  0.044103  1
  Si  Si23  1  0.750000  0.798239  0.456499  1
  Si  Si24  1  0.750000  0.702388  0.957638  1
  Ir  Ir25  1  0.250000  0.109880  0.181220  1
  Ir  Ir26  1  0.750000  0.611041  0.318176  1
  Ir  Ir27  1  0.750000  0.889361  0.818998  1
