# generated using pymatgen
data_KNdB2(PdPt3)2
_symmetry_space_group_name_H-M   'P 1'
_cell_length_a   5.53699500
_cell_length_b   5.53699446
_cell_length_c   7.71980000
_cell_angle_alpha   90.00000000
_cell_angle_beta   90.00000000
_cell_angle_gamma   119.99999723
_symmetry_Int_Tables_number   1
_chemical_formula_structural   KNdB2(PdPt3)2
_chemical_formula_sum   'K1 Nd1 B2 Pd2 Pt6'
_cell_volume   204.96745725
_cell_formula_units_Z   1
loop_
 _symmetry_equiv_pos_site_id
 _symmetry_equiv_pos_as_xyz
  1  'x, y, z'
loop_
 _atom_site_type_symbol
 _atom_site_label
 _atom_site_symmetry_multiplicity
 _atom_site_fract_x
 _atom_site_fract_y
 _atom_site_fract_z
 _atom_site_occupancy
  K  K0  1  0.000000  0.000000  0.500000  1
  Nd  Nd1  1  0.000000  0.000000  0.000000  1
  B  B2  1  0.333333  0.666667  0.000000  1
  B  B3  1  0.666667  0.333333  0.000000  1
  Pd  Pd4  1  0.333333  0.666667  0.500000  1
  Pd  Pd5  1  0.666667  0.333333  0.500000  1
  Pt  Pt6  1  0.500000  0.000000  0.197484  1
  Pt  Pt7  1  0.500000  0.000000  0.802516  1
  Pt  Pt8  1  0.000000  0.500000  0.197484  1
  Pt  Pt9  1  0.000000  0.500000  0.802516  1
  Pt  Pt10  1  0.500000  0.500000  0.197484  1
  Pt  Pt11  1  0.500000  0.500000  0.802516  1
