# generated using pymatgen
data_Zr2CdNiPd
_symmetry_space_group_name_H-M   'P 1'
_cell_length_a   7.50867237
_cell_length_b   7.50867234
_cell_length_c   3.26715100
_cell_angle_alpha   90.00000000
_cell_angle_beta   90.00000000
_cell_angle_gamma   91.27702573
_symmetry_Int_Tables_number   1
_chemical_formula_structural   Zr2CdNiPd
_chemical_formula_sum   'Zr4 Cd2 Ni2 Pd2'
_cell_volume   184.15674687
_cell_formula_units_Z   2
loop_
 _symmetry_equiv_pos_site_id
 _symmetry_equiv_pos_as_xyz
  1  'x, y, z'
loop_
 _atom_site_type_symbol
 _atom_site_label
 _atom_site_symmetry_multiplicity
 _atom_site_fract_x
 _atom_site_fract_y
 _atom_site_fract_z
 _atom_site_occupancy
  Zr  Zr0  1  0.681735  0.181735  0.500000  1
  Zr  Zr1  1  0.318265  0.818265  0.500000  1
  Zr  Zr2  1  0.158588  0.341412  0.500000  1
  Zr  Zr3  1  0.841412  0.658588  0.500000  1
  Cd  Cd4  1  0.000000  0.000000  0.000000  1
  Cd  Cd5  1  0.500000  0.500000  0.000000  1
  Ni  Ni6  1  0.121709  0.621709  0.000000  1
  Ni  Ni7  1  0.878291  0.378291  0.000000  1
  Pd  Pd8  1  0.629106  0.870894  0.000000  1
  Pd  Pd9  1  0.370894  0.129106  0.000000  1
