# generated using pymatgen
data_Nd16Sm3TmSn16
_symmetry_space_group_name_H-M   'P 1'
_cell_length_a   8.27592800
_cell_length_b   8.42084400
_cell_length_c   15.96933000
_cell_angle_alpha   90.00000000
_cell_angle_beta   90.00000000
_cell_angle_gamma   89.99647914
_symmetry_Int_Tables_number   1
_chemical_formula_structural   Nd16Sm3TmSn16
_chemical_formula_sum   'Nd16 Sm3 Tm1 Sn16'
_cell_volume   1112.90737578
_cell_formula_units_Z   1
loop_
 _symmetry_equiv_pos_site_id
 _symmetry_equiv_pos_as_xyz
  1  'x, y, z'
loop_
 _atom_site_type_symbol
 _atom_site_label
 _atom_site_symmetry_multiplicity
 _atom_site_fract_x
 _atom_site_fract_y
 _atom_site_fract_z
 _atom_site_occupancy
  Nd  Nd0  1  0.018496  0.180749  0.401440  1
  Nd  Nd1  1  0.367211  0.837229  0.120837  1
  Nd  Nd2  1  0.131846  0.337927  0.620803  1
  Nd  Nd3  1  0.482202  0.680399  0.901296  1
  Nd  Nd4  1  0.867411  0.662722  0.120275  1
  Nd  Nd5  1  0.131846  0.337927  0.879197  1
  Nd  Nd6  1  0.482202  0.680399  0.598704  1
  Nd  Nd7  1  0.633329  0.163062  0.621046  1
  Nd  Nd8  1  0.867411  0.662722  0.379725  1
  Nd  Nd9  1  0.018496  0.180749  0.098560  1
  Nd  Nd10  1  0.981266  0.818592  0.901413  1
  Nd  Nd11  1  0.633329  0.163062  0.878954  1
  Nd  Nd12  1  0.518272  0.319066  0.098444  1
  Nd  Nd13  1  0.367211  0.837229  0.379163  1
  Nd  Nd14  1  0.981266  0.818592  0.598587  1
  Nd  Nd15  1  0.518272  0.319066  0.401556  1
  Sm  Sm16  1  0.197655  0.502377  0.250000  1
  Sm  Sm17  1  0.697439  0.997375  0.250000  1
  Sm  Sm18  1  0.302322  0.002091  0.750000  1
  Tm  Tm19  1  0.800574  0.497465  0.750000  1
  Sn  Sn20  1  0.792020  0.465452  0.544418  1
  Sn  Sn21  1  0.707966  0.964825  0.457170  1
  Sn  Sn22  1  0.676630  0.852262  0.750000  1
  Sn  Sn23  1  0.208148  0.535568  0.457086  1
  Sn  Sn24  1  0.292009  0.035328  0.956914  1
  Sn  Sn25  1  0.823595  0.355370  0.250000  1
  Sn  Sn26  1  0.792020  0.465452  0.955582  1
  Sn  Sn27  1  0.566507  0.616011  0.250000  1
  Sn  Sn28  1  0.208148  0.535568  0.042914  1
  Sn  Sn29  1  0.436374  0.384435  0.750000  1
  Sn  Sn30  1  0.175257  0.644044  0.750000  1
  Sn  Sn31  1  0.933082  0.117434  0.750000  1
  Sn  Sn32  1  0.292009  0.035328  0.543086  1
  Sn  Sn33  1  0.707966  0.964825  0.042830  1
  Sn  Sn34  1  0.324079  0.145228  0.250000  1
  Sn  Sn35  1  0.066133  0.884066  0.250000  1
