# generated using pymatgen
data_Pr2Dy5ThS12
_symmetry_space_group_name_H-M   'P 1'
_cell_length_a   3.96099600
_cell_length_b   10.50725369
_cell_length_c   10.82912600
_cell_angle_alpha   89.80050800
_cell_angle_beta   90.00000000
_cell_angle_gamma   90.00000000
_symmetry_Int_Tables_number   1
_chemical_formula_structural   Pr2Dy5ThS12
_chemical_formula_sum   'Pr2 Dy5 Th1 S12'
_cell_volume   450.69671884
_cell_formula_units_Z   1
loop_
 _symmetry_equiv_pos_site_id
 _symmetry_equiv_pos_as_xyz
  1  'x, y, z'
loop_
 _atom_site_type_symbol
 _atom_site_label
 _atom_site_symmetry_multiplicity
 _atom_site_fract_x
 _atom_site_fract_y
 _atom_site_fract_z
 _atom_site_occupancy
  Pr  Pr0  1  0.750000  0.999725  0.196123  1
  Pr  Pr1  1  0.750000  0.494280  0.692840  1
  Dy  Dy2  1  0.250000  0.504901  0.307540  1
  Dy  Dy3  1  0.250000  0.190677  0.485215  1
  Dy  Dy4  1  0.750000  0.811126  0.508352  1
  Dy  Dy5  1  0.750000  0.683169  0.012657  1
  Dy  Dy6  1  0.250000  0.315586  0.994500  1
  Th  Th7  1  0.250000  0.002560  0.805772  1
  S  S8  1  0.250000  0.290239  0.731502  1
  S  S9  1  0.750000  0.699248  0.271267  1
  S  S10  1  0.750000  0.803216  0.772465  1
  S  S11  1  0.250000  0.202200  0.228093  1
  S  S12  1  0.250000  0.946609  0.387907  1
  S  S13  1  0.750000  0.054672  0.615005  1
  S  S14  1  0.750000  0.446019  0.122127  1
  S  S15  1  0.250000  0.554268  0.885216  1
  S  S16  1  0.250000  0.867597  0.040234  1
  S  S17  1  0.750000  0.131553  0.952393  1
  S  S18  1  0.750000  0.371967  0.448960  1
  S  S19  1  0.250000  0.630390  0.541834  1
