# generated using pymatgen
data_La8Sc12Ga3Sn13
_symmetry_space_group_name_H-M   'P 1'
_cell_length_a   7.71555100
_cell_length_b   8.06677258
_cell_length_c   15.08440200
_cell_angle_alpha   90.00000000
_cell_angle_beta   90.00000000
_cell_angle_gamma   89.65815264
_symmetry_Int_Tables_number   1
_chemical_formula_structural   La8Sc12Ga3Sn13
_chemical_formula_sum   'La8 Sc12 Ga3 Sn13'
_cell_volume   938.83036453
_cell_formula_units_Z   1
loop_
 _symmetry_equiv_pos_site_id
 _symmetry_equiv_pos_as_xyz
  1  'x, y, z'
loop_
 _atom_site_type_symbol
 _atom_site_label
 _atom_site_symmetry_multiplicity
 _atom_site_fract_x
 _atom_site_fract_y
 _atom_site_fract_z
 _atom_site_occupancy
  La  La0  1  0.997395  0.171333  0.096282  1
  La  La1  1  0.003130  0.831165  0.906235  1
  La  La2  1  0.504571  0.673783  0.904040  1
  La  La3  1  0.003130  0.831165  0.593765  1
  La  La4  1  0.498264  0.329743  0.096445  1
  La  La5  1  0.997395  0.171333  0.403718  1
  La  La6  1  0.498264  0.329743  0.403555  1
  La  La7  1  0.504571  0.673783  0.595960  1
  Sc  Sc8  1  0.170991  0.489629  0.750000  1
  Sc  Sc9  1  0.819365  0.513532  0.250000  1
  Sc  Sc10  1  0.319672  0.986610  0.250000  1
  Sc  Sc11  1  0.678032  0.005991  0.750000  1
  Sc  Sc12  1  0.324782  0.163460  0.627683  1
  Sc  Sc13  1  0.664580  0.829827  0.368271  1
  Sc  Sc14  1  0.163358  0.669976  0.367786  1
  Sc  Sc15  1  0.664580  0.829827  0.131729  1
  Sc  Sc16  1  0.846577  0.329691  0.630827  1
  Sc  Sc17  1  0.324782  0.163460  0.872317  1
  Sc  Sc18  1  0.846577  0.329691  0.869173  1
  Sc  Sc19  1  0.163358  0.669976  0.132214  1
  Ga  Ga20  1  0.032168  0.130758  0.750000  1
  Ga  Ga21  1  0.965372  0.866802  0.250000  1
  Ga  Ga22  1  0.465965  0.633946  0.250000  1
  Sn  Sn23  1  0.532623  0.363176  0.750000  1
  Sn  Sn24  1  0.302898  0.867389  0.750000  1
  Sn  Sn25  1  0.695380  0.128893  0.250000  1
  Sn  Sn26  1  0.195380  0.370397  0.250000  1
  Sn  Sn27  1  0.813643  0.637914  0.750000  1
  Sn  Sn28  1  0.172517  0.457607  0.540539  1
  Sn  Sn29  1  0.829816  0.544303  0.457786  1
  Sn  Sn30  1  0.330844  0.954781  0.456320  1
  Sn  Sn31  1  0.829816  0.544303  0.042214  1
  Sn  Sn32  1  0.668423  0.046811  0.541781  1
  Sn  Sn33  1  0.172517  0.457607  0.959461  1
  Sn  Sn34  1  0.668423  0.046811  0.958219  1
  Sn  Sn35  1  0.330844  0.954781  0.043680  1
