# generated using pymatgen
data_Lu12AlFe4Sn
_symmetry_space_group_name_H-M   'P 1'
_cell_length_a   8.16850998
_cell_length_b   8.16850859
_cell_length_c   8.16850900
_cell_angle_alpha   111.00343603
_cell_angle_beta   110.88207209
_cell_angle_gamma   106.56664813
_symmetry_Int_Tables_number   1
_chemical_formula_structural   Lu12AlFe4Sn
_chemical_formula_sum   'Lu12 Al1 Fe4 Sn1'
_cell_volume   418.76799239
_cell_formula_units_Z   1
loop_
 _symmetry_equiv_pos_site_id
 _symmetry_equiv_pos_as_xyz
  1  'x, y, z'
loop_
 _atom_site_type_symbol
 _atom_site_label
 _atom_site_symmetry_multiplicity
 _atom_site_fract_x
 _atom_site_fract_y
 _atom_site_fract_z
 _atom_site_occupancy
  Lu  Lu0  1  0.440687  0.229401  0.211284  1
  Lu  Lu1  1  0.559313  0.770599  0.788716  1
  Lu  Lu2  1  0.018118  0.229401  0.788716  1
  Lu  Lu3  1  0.981882  0.770599  0.211284  1
  Lu  Lu4  1  0.186666  0.284570  0.471236  1
  Lu  Lu5  1  0.813334  0.715430  0.528764  1
  Lu  Lu6  1  0.186666  0.715430  0.902096  1
  Lu  Lu7  1  0.813334  0.284570  0.097904  1
  Lu  Lu8  1  0.311925  0.610422  0.298497  1
  Lu  Lu9  1  0.688075  0.389578  0.701503  1
  Lu  Lu10  1  0.311925  0.013428  0.701503  1
  Lu  Lu11  1  0.688075  0.986572  0.298497  1
  Al  Al12  1  0.000000  0.000000  0.000000  1
  Fe  Fe13  1  0.381636  0.000000  0.381636  1
  Fe  Fe14  1  0.618364  0.000000  0.618364  1
  Fe  Fe15  1  0.110040  0.610040  0.500000  1
  Fe  Fe16  1  0.889960  0.389960  0.500000  1
  Sn  Sn17  1  0.500000  0.500000  0.000000  1
