# generated using pymatgen
data_Ti6V4Si6HN
_symmetry_space_group_name_H-M   'P 1'
_cell_length_a   7.33050900
_cell_length_b   7.33050874
_cell_length_c   4.94476800
_cell_angle_alpha   90.00000000
_cell_angle_beta   90.00000000
_cell_angle_gamma   119.99999668
_symmetry_Int_Tables_number   1
_chemical_formula_structural   Ti6V4Si6HN
_chemical_formula_sum   'Ti6 V4 Si6 H1 N1'
_cell_volume   230.11493864
_cell_formula_units_Z   1
loop_
 _symmetry_equiv_pos_site_id
 _symmetry_equiv_pos_as_xyz
  1  'x, y, z'
loop_
 _atom_site_type_symbol
 _atom_site_label
 _atom_site_symmetry_multiplicity
 _atom_site_fract_x
 _atom_site_fract_y
 _atom_site_fract_z
 _atom_site_occupancy
  Ti  Ti0  1  0.236185  0.000000  0.755403  1
  Ti  Ti1  1  0.763815  0.000000  0.244597  1
  Ti  Ti2  1  0.000000  0.236185  0.755403  1
  Ti  Ti3  1  0.000000  0.763815  0.244597  1
  Ti  Ti4  1  0.763815  0.763815  0.755403  1
  Ti  Ti5  1  0.236185  0.236185  0.244597  1
  V  V6  1  0.333333  0.666667  0.500000  1
  V  V7  1  0.666667  0.333333  0.500000  1
  V  V8  1  0.666667  0.333333  0.000000  1
  V  V9  1  0.333333  0.666667  0.000000  1
  Si  Si10  1  0.593622  0.000000  0.742346  1
  Si  Si11  1  0.406378  0.000000  0.257654  1
  Si  Si12  1  0.000000  0.593622  0.742346  1
  Si  Si13  1  0.000000  0.406378  0.257654  1
  Si  Si14  1  0.406378  0.406378  0.742346  1
  Si  Si15  1  0.593622  0.593622  0.257654  1
  H  H16  1  0.000000  0.000000  0.500000  1
  N  N17  1  0.000000  0.000000  0.000000  1
