# generated using pymatgen
data_Tb5Nb2P12Ir17
_symmetry_space_group_name_H-M   'P 1'
_cell_length_a   12.59833700
_cell_length_b   12.79892294
_cell_length_c   4.00831400
_cell_angle_alpha   90.00000000
_cell_angle_beta   90.00000000
_cell_angle_gamma   119.48290882
_symmetry_Int_Tables_number   1
_chemical_formula_structural   Tb5Nb2P12Ir17
_chemical_formula_sum   'Tb5 Nb2 P12 Ir17'
_cell_volume   562.62422364
_cell_formula_units_Z   1
loop_
 _symmetry_equiv_pos_site_id
 _symmetry_equiv_pos_as_xyz
  1  'x, y, z'
loop_
 _atom_site_type_symbol
 _atom_site_label
 _atom_site_symmetry_multiplicity
 _atom_site_fract_x
 _atom_site_fract_y
 _atom_site_fract_z
 _atom_site_occupancy
  Tb  Tb0  1  0.330213  0.661553  0.500000  1
  Tb  Tb1  1  0.668660  0.338447  0.500000  1
  Tb  Tb2  1  0.999519  0.813292  0.000000  1
  Tb  Tb3  1  0.186227  0.186708  0.000000  1
  Tb  Tb4  1  0.814964  0.000000  0.000000  1
  Nb  Nb5  1  0.997298  0.450613  0.500000  1
  Nb  Nb6  1  0.546685  0.549387  0.500000  1
  P  P7  1  0.002718  0.641720  0.500000  1
  P  P8  1  0.360998  0.358280  0.500000  1
  P  P9  1  0.645318  0.000000  0.500000  1
  P  P10  1  0.514593  0.683134  0.000000  1
  P  P11  1  0.308649  0.823733  0.000000  1
  P  P12  1  0.163149  0.480537  0.000000  1
  P  P13  1  0.484916  0.176267  0.000000  1
  P  P14  1  0.682612  0.519463  0.000000  1
  P  P15  1  0.831459  0.316866  0.000000  1
  P  P16  1  0.000187  0.175781  0.500000  1
  P  P17  1  0.824405  0.824219  0.500000  1
  P  P18  1  0.181258  0.000000  0.500000  1
  Ir  Ir19  1  0.505777  0.864300  0.000000  1
  Ir  Ir20  1  0.127262  0.640859  0.000000  1
  Ir  Ir21  1  0.354599  0.493175  0.000000  1
  Ir  Ir22  1  0.486404  0.359141  0.000000  1
  Ir  Ir23  1  0.861426  0.506825  0.000000  1
  Ir  Ir24  1  0.641478  0.135700  0.000000  1
  Ir  Ir25  1  0.464341  0.000000  0.500000  1
  Ir  Ir26  1  0.997280  0.282202  0.000000  1
  Ir  Ir27  1  0.715077  0.717798  0.000000  1
  Ir  Ir28  1  0.292184  0.000000  0.000000  1
  Ir  Ir29  1  0.624253  0.807001  0.500000  1
  Ir  Ir30  1  0.202042  0.823992  0.500000  1
  Ir  Ir31  1  0.177307  0.368739  0.500000  1
  Ir  Ir32  1  0.378050  0.176008  0.500000  1
  Ir  Ir33  1  0.808566  0.631261  0.500000  1
  Ir  Ir34  1  0.817252  0.192999  0.500000  1
  Ir  Ir35  1  0.002873  0.000000  0.500000  1
