# generated using pymatgen
data_RbCl(OF)2
_symmetry_space_group_name_H-M   'P 1'
_cell_length_a   5.73798200
_cell_length_b   8.73199600
_cell_length_c   8.85741200
_cell_angle_alpha   90.00000000
_cell_angle_beta   90.00000000
_cell_angle_gamma   90.00000000
_symmetry_Int_Tables_number   1
_chemical_formula_structural   RbCl(OF)2
_chemical_formula_sum   'Rb4 Cl4 O8 F8'
_cell_volume   443.79208858
_cell_formula_units_Z   4
loop_
 _symmetry_equiv_pos_site_id
 _symmetry_equiv_pos_as_xyz
  1  'x, y, z'
loop_
 _atom_site_type_symbol
 _atom_site_label
 _atom_site_symmetry_multiplicity
 _atom_site_fract_x
 _atom_site_fract_y
 _atom_site_fract_z
 _atom_site_occupancy
  Rb  Rb0  1  0.250000  0.406413  0.624676  1
  Rb  Rb1  1  0.750000  0.906413  0.875324  1
  Rb  Rb2  1  0.750000  0.593587  0.375324  1
  Rb  Rb3  1  0.250000  0.093587  0.124676  1
  Cl  Cl4  1  0.750000  0.380993  0.898124  1
  Cl  Cl5  1  0.250000  0.619007  0.101876  1
  Cl  Cl6  1  0.250000  0.880993  0.601876  1
  Cl  Cl7  1  0.750000  0.119007  0.398124  1
  O  O8  1  0.960167  0.210792  0.388789  1
  O  O9  1  0.460167  0.710792  0.111211  1
  O  O10  1  0.539833  0.289208  0.888789  1
  O  O11  1  0.960167  0.289208  0.888789  1
  O  O12  1  0.539833  0.210792  0.388789  1
  O  O13  1  0.460167  0.789208  0.611211  1
  O  O14  1  0.039833  0.710792  0.111211  1
  O  O15  1  0.039833  0.789208  0.611211  1
  F  F16  1  0.750000  0.452247  0.671204  1
  F  F17  1  0.750000  0.093637  0.612608  1
  F  F18  1  0.250000  0.952247  0.828796  1
  F  F19  1  0.250000  0.547753  0.328796  1
  F  F20  1  0.750000  0.047753  0.171204  1
  F  F21  1  0.250000  0.906363  0.387392  1
  F  F22  1  0.750000  0.406363  0.112608  1
  F  F23  1  0.250000  0.593637  0.887392  1
