# generated using pymatgen
data_Sc4Si2B4Ru9Pt
_symmetry_space_group_name_H-M   'P 1'
_cell_length_a   9.33004772
_cell_length_b   9.33615374
_cell_length_c   3.01556200
_cell_angle_alpha   90.00000000
_cell_angle_beta   90.00000000
_cell_angle_gamma   89.95463295
_symmetry_Int_Tables_number   1
_chemical_formula_structural   Sc4Si2B4Ru9Pt
_chemical_formula_sum   'Sc4 Si2 B4 Ru9 Pt1'
_cell_volume   262.67575288
_cell_formula_units_Z   1
loop_
 _symmetry_equiv_pos_site_id
 _symmetry_equiv_pos_as_xyz
  1  'x, y, z'
loop_
 _atom_site_type_symbol
 _atom_site_label
 _atom_site_symmetry_multiplicity
 _atom_site_fract_x
 _atom_site_fract_y
 _atom_site_fract_z
 _atom_site_occupancy
  Sc  Sc0  1  0.170918  0.681966  0.000000  1
  Sc  Sc1  1  0.673622  0.823700  0.000000  1
  Sc  Sc2  1  0.327170  0.166493  0.000000  1
  Sc  Sc3  1  0.822285  0.326603  0.000000  1
  Si  Si4  1  0.999870  0.999246  0.000000  1
  Si  Si5  1  0.511054  0.503234  0.000000  1
  B  B6  1  0.376322  0.874436  0.000000  1
  B  B7  1  0.876873  0.627218  0.000000  1
  B  B8  1  0.113103  0.372082  0.000000  1
  B  B9  1  0.623930  0.124386  0.000000  1
  Ru  Ru10  1  0.002316  0.501056  0.500000  1
  Ru  Ru11  1  0.501307  0.997886  0.500000  1
  Ru  Ru12  1  0.714531  0.570598  0.500000  1
  Ru  Ru13  1  0.566947  0.290185  0.500000  1
  Ru  Ru14  1  0.428110  0.707725  0.500000  1
  Ru  Ru15  1  0.930931  0.791519  0.500000  1
  Ru  Ru16  1  0.789984  0.071344  0.500000  1
  Ru  Ru17  1  0.210566  0.931582  0.500000  1
  Ru  Ru18  1  0.070300  0.210299  0.500000  1
  Pt  Pt19  1  0.289861  0.428441  0.500000  1
