# generated using pymatgen
data_YLu3MoOsC4
_symmetry_space_group_name_H-M   'P 1'
_cell_length_a   5.01422700
_cell_length_b   6.53636890
_cell_length_c   9.73453659
_cell_angle_alpha   88.71207576
_cell_angle_beta   90.00000000
_cell_angle_gamma   90.00000000
_symmetry_Int_Tables_number   1
_chemical_formula_structural   YLu3MoOsC4
_chemical_formula_sum   'Y2 Lu6 Mo2 Os2 C8'
_cell_volume   318.96725267
_cell_formula_units_Z   2
loop_
 _symmetry_equiv_pos_site_id
 _symmetry_equiv_pos_as_xyz
  1  'x, y, z'
loop_
 _atom_site_type_symbol
 _atom_site_label
 _atom_site_symmetry_multiplicity
 _atom_site_fract_x
 _atom_site_fract_y
 _atom_site_fract_z
 _atom_site_occupancy
  Y  Y0  1  0.750000  0.965643  0.713668  1
  Y  Y1  1  0.250000  0.034357  0.286332  1
  Lu  Lu2  1  0.250000  0.673054  0.559655  1
  Lu  Lu3  1  0.750000  0.326946  0.440345  1
  Lu  Lu4  1  0.750000  0.830568  0.060523  1
  Lu  Lu5  1  0.250000  0.169432  0.939477  1
  Lu  Lu6  1  0.250000  0.542521  0.219464  1
  Lu  Lu7  1  0.750000  0.457479  0.780536  1
  Mo  Mo8  1  0.250000  0.710421  0.870919  1
  Mo  Mo9  1  0.750000  0.289579  0.129081  1
  Os  Os10  1  0.750000  0.781376  0.369628  1
  Os  Os11  1  0.250000  0.218624  0.630372  1
  C  C12  1  0.250000  0.443930  0.758307  1
  C  C13  1  0.750000  0.556070  0.241693  1
  C  C14  1  0.750000  0.052412  0.260558  1
  C  C15  1  0.250000  0.947588  0.739442  1
  C  C16  1  0.250000  0.826985  0.055984  1
  C  C17  1  0.750000  0.173015  0.944016  1
  C  C18  1  0.750000  0.665977  0.552433  1
  C  C19  1  0.250000  0.334023  0.447567  1
