# generated using pymatgen
data_Tb3Gd3Sc2O12
_symmetry_space_group_name_H-M   'P 1'
_cell_length_a   6.66750918
_cell_length_b   6.66750889
_cell_length_c   6.66751018
_cell_angle_alpha   92.05608869
_cell_angle_beta   92.05608399
_cell_angle_gamma   92.05607951
_symmetry_Int_Tables_number   1
_chemical_formula_structural   Tb3Gd3Sc2O12
_chemical_formula_sum   'Tb3 Gd3 Sc2 O12'
_cell_volume   295.82209654
_cell_formula_units_Z   1
loop_
 _symmetry_equiv_pos_site_id
 _symmetry_equiv_pos_as_xyz
  1  'x, y, z'
loop_
 _atom_site_type_symbol
 _atom_site_label
 _atom_site_symmetry_multiplicity
 _atom_site_fract_x
 _atom_site_fract_y
 _atom_site_fract_z
 _atom_site_occupancy
  Tb  Tb0  1  0.253304  0.068450  0.560486  1
  Tb  Tb1  1  0.068450  0.560486  0.253304  1
  Tb  Tb2  1  0.560486  0.253304  0.068450  1
  Gd  Gd3  1  0.747175  0.932438  0.439349  1
  Gd  Gd4  1  0.932438  0.439349  0.747175  1
  Gd  Gd5  1  0.439349  0.747175  0.932438  1
  Sc  Sc6  1  0.499590  0.499590  0.499590  1
  Sc  Sc7  1  0.000671  0.000671  0.000671  1
  O  O8  1  0.590916  0.460618  0.804567  1
  O  O9  1  0.460618  0.804567  0.590916  1
  O  O10  1  0.804567  0.590916  0.460618  1
  O  O11  1  0.407002  0.535360  0.195566  1
  O  O12  1  0.535360  0.195566  0.407002  1
  O  O13  1  0.195566  0.407002  0.535360  1
  O  O14  1  0.070850  0.914375  0.305319  1
  O  O15  1  0.914375  0.305319  0.070850  1
  O  O16  1  0.696208  0.933914  0.083842  1
  O  O17  1  0.083842  0.696208  0.933914  1
  O  O18  1  0.933914  0.083842  0.696208  1
  O  O19  1  0.305319  0.070850  0.914375  1
