# generated using pymatgen
data_ZnGaAg2F7
_symmetry_space_group_name_H-M   'P 1'
_cell_length_a   7.54851501
_cell_length_b   7.54851440
_cell_length_c   7.54851426
_cell_angle_alpha   121.19988819
_cell_angle_beta   117.22550780
_cell_angle_gamma   91.40279126
_symmetry_Int_Tables_number   1
_chemical_formula_structural   ZnGaAg2F7
_chemical_formula_sum   'Zn2 Ga2 Ag4 F14'
_cell_volume   307.20750338
_cell_formula_units_Z   2
loop_
 _symmetry_equiv_pos_site_id
 _symmetry_equiv_pos_as_xyz
  1  'x, y, z'
loop_
 _atom_site_type_symbol
 _atom_site_label
 _atom_site_symmetry_multiplicity
 _atom_site_fract_x
 _atom_site_fract_y
 _atom_site_fract_z
 _atom_site_occupancy
  Zn  Zn0  1  0.000000  0.000000  0.500000  1
  Zn  Zn1  1  0.000000  0.500000  0.000000  1
  Ga  Ga2  1  0.500000  0.000000  0.500000  1
  Ga  Ga3  1  0.000000  0.500000  0.500000  1
  Ag  Ag4  1  0.000000  0.000000  0.000000  1
  Ag  Ag5  1  0.500000  0.500000  0.000000  1
  Ag  Ag6  1  0.500000  0.000000  0.000000  1
  Ag  Ag7  1  0.500000  0.500000  0.500000  1
  F  F8  1  0.372801  0.090232  0.282569  1
  F  F9  1  0.692337  0.409768  0.282569  1
  F  F10  1  0.682852  0.301046  0.758122  1
  F  F11  1  0.957075  0.198954  0.381805  1
  F  F12  1  0.957075  0.575271  0.758122  1
  F  F13  1  0.682852  0.924729  0.381805  1
  F  F14  1  0.317148  0.075271  0.618195  1
  F  F15  1  0.042925  0.424729  0.241878  1
  F  F16  1  0.042925  0.801046  0.618195  1
  F  F17  1  0.317148  0.698954  0.241878  1
  F  F18  1  0.896572  0.750000  0.146572  1
  F  F19  1  0.627199  0.909768  0.717431  1
  F  F20  1  0.307663  0.590232  0.717431  1
  F  F21  1  0.103428  0.250000  0.853428  1
