# generated using pymatgen
data_Pr3Cu(Pt2O7)2
_symmetry_space_group_name_H-M   'P 1'
_cell_length_a   7.27519906
_cell_length_b   7.46245106
_cell_length_c   7.46245000
_cell_angle_alpha   60.00000471
_cell_angle_beta   59.14486935
_cell_angle_gamma   59.14486110
_symmetry_Int_Tables_number   1
_chemical_formula_structural   Pr3Cu(Pt2O7)2
_chemical_formula_sum   'Pr3 Cu1 Pt4 O14'
_cell_volume   282.72016537
_cell_formula_units_Z   1
loop_
 _symmetry_equiv_pos_site_id
 _symmetry_equiv_pos_as_xyz
  1  'x, y, z'
loop_
 _atom_site_type_symbol
 _atom_site_label
 _atom_site_symmetry_multiplicity
 _atom_site_fract_x
 _atom_site_fract_y
 _atom_site_fract_z
 _atom_site_occupancy
  Pr  Pr0  1  0.125000  0.125000  0.625000  1
  Pr  Pr1  1  0.125000  0.625000  0.125000  1
  Pr  Pr2  1  0.125000  0.125000  0.125000  1
  Cu  Cu3  1  0.625000  0.125000  0.125000  1
  Pt  Pt4  1  0.625000  0.625000  0.125000  1
  Pt  Pt5  1  0.625000  0.125000  0.625000  1
  Pt  Pt6  1  0.125000  0.625000  0.625000  1
  Pt  Pt7  1  0.625000  0.625000  0.625000  1
  O  O8  1  0.301759  0.232747  0.232747  1
  O  O9  1  0.948241  0.017253  0.017253  1
  O  O10  1  0.544055  0.952200  0.551544  1
  O  O11  1  0.283343  0.713649  0.289359  1
  O  O12  1  0.544055  0.551544  0.952200  1
  O  O13  1  0.966657  0.536351  0.536351  1
  O  O14  1  0.544055  0.952200  0.952200  1
  O  O15  1  0.966657  0.960641  0.536351  1
  O  O16  1  0.966657  0.536351  0.960641  1
  O  O17  1  0.705945  0.297800  0.297800  1
  O  O18  1  0.283343  0.713649  0.713649  1
  O  O19  1  0.705945  0.297800  0.698456  1
  O  O20  1  0.283343  0.289359  0.713649  1
  O  O21  1  0.705945  0.698456  0.297800  1
