# generated using pymatgen
data_Lu(TlCl2)3
_symmetry_space_group_name_H-M   'P 1'
_cell_length_a   7.77592824
_cell_length_b   7.77592791
_cell_length_c   7.77592800
_cell_angle_alpha   62.32898408
_cell_angle_beta   62.32898536
_cell_angle_gamma   62.32898666
_symmetry_Int_Tables_number   1
_chemical_formula_structural   Lu(TlCl2)3
_chemical_formula_sum   'Lu1 Tl3 Cl6'
_cell_volume   349.73922093
_cell_formula_units_Z   1
loop_
 _symmetry_equiv_pos_site_id
 _symmetry_equiv_pos_as_xyz
  1  'x, y, z'
loop_
 _atom_site_type_symbol
 _atom_site_label
 _atom_site_symmetry_multiplicity
 _atom_site_fract_x
 _atom_site_fract_y
 _atom_site_fract_z
 _atom_site_occupancy
  Lu  Lu0  1  0.000000  0.000000  0.000000  1
  Tl  Tl1  1  0.226086  0.226086  0.226086  1
  Tl  Tl2  1  0.500000  0.500000  0.500000  1
  Tl  Tl3  1  0.773914  0.773914  0.773914  1
  Cl  Cl4  1  0.801258  0.320081  0.123278  1
  Cl  Cl5  1  0.679919  0.876721  0.198743  1
  Cl  Cl6  1  0.123278  0.801257  0.320081  1
  Cl  Cl7  1  0.876722  0.198743  0.679919  1
  Cl  Cl8  1  0.320081  0.123279  0.801257  1
  Cl  Cl9  1  0.198742  0.679919  0.876722  1
