# generated using pymatgen
data_Ba14ScBi11
_symmetry_space_group_name_H-M   'P 1'
_cell_length_a   18.29122655
_cell_length_b   18.29122711
_cell_length_c   18.29122700
_cell_angle_alpha   117.53088405
_cell_angle_beta   117.53088497
_cell_angle_gamma   94.33263014
_symmetry_Int_Tables_number   1
_chemical_formula_structural   Ba14ScBi11
_chemical_formula_sum   'Ba56 Sc4 Bi44'
_cell_volume   4474.91995289
_cell_formula_units_Z   4
loop_
 _symmetry_equiv_pos_site_id
 _symmetry_equiv_pos_as_xyz
  1  'x, y, z'
loop_
 _atom_site_type_symbol
 _atom_site_label
 _atom_site_symmetry_multiplicity
 _atom_site_fract_x
 _atom_site_fract_y
 _atom_site_fract_z
 _atom_site_occupancy
  Ba  Ba0  1  0.498686  0.604527  0.849136  1
  Ba  Ba1  1  0.625001  0.228567  0.103568  1
  Ba  Ba2  1  0.159640  0.025544  0.779905  1
  Ba  Ba3  1  0.897862  0.376657  0.838427  1
  Ba  Ba4  1  0.124999  0.021433  0.396432  1
  Ba  Ba5  1  0.771439  0.875000  0.396439  1
  Ba  Ba6  1  0.129734  0.409641  0.634095  1
  Ba  Ba7  1  0.755394  0.649554  0.150868  1
  Ba  Ba8  1  0.711770  0.373343  0.021205  1
  Ba  Ba9  1  0.440566  0.961770  0.838424  1
  Ba  Ba10  1  0.309434  0.288230  0.661576  1
  Ba  Ba11  1  0.038230  0.876657  0.478795  1
  Ba  Ba12  1  0.494608  0.145473  0.394158  1
  Ba  Ba13  1  0.354529  0.005405  0.605846  1
  Ba  Ba14  1  0.125001  0.521433  0.896434  1
  Ba  Ba15  1  0.994606  0.600446  0.349132  1
  Ba  Ba16  1  0.940565  0.102140  0.478794  1
  Ba  Ba17  1  0.626654  0.647860  0.338425  1
  Ba  Ba18  1  0.895473  0.001314  0.150877  1
  Ba  Ba19  1  0.352142  0.690563  0.978795  1
  Ba  Ba20  1  0.123346  0.602140  0.161575  1
  Ba  Ba21  1  0.998686  0.149554  0.894160  1
  Ba  Ba22  1  0.659643  0.879733  0.134097  1
  Ba  Ba23  1  0.504363  0.870267  0.279910  1
  Ba  Ba24  1  0.852138  0.873343  0.661573  1
  Ba  Ba25  1  0.211768  0.190563  0.338422  1
  Ba  Ba26  1  0.004362  0.724456  0.634097  1
  Ba  Ba27  1  0.745638  0.525544  0.865903  1
  Ba  Ba28  1  0.255392  0.104527  0.105842  1
  Ba  Ba29  1  0.245637  0.379733  0.220090  1
  Ba  Ba30  1  0.350437  0.501314  0.105841  1
  Ba  Ba31  1  0.251314  0.645473  0.650864  1
  Ba  Ba32  1  0.751314  0.100446  0.605840  1
  Ba  Ba33  1  0.624999  0.728567  0.603566  1
  Ba  Ba34  1  0.899560  0.505405  0.650877  1
  Ba  Ba35  1  0.850440  0.744595  0.849123  1
  Ba  Ba36  1  0.620266  0.840359  0.865905  1
  Ba  Ba37  1  0.275547  0.909641  0.279907  1
  Ba  Ba38  1  0.854527  0.248686  0.349123  1
  Ba  Ba39  1  0.126654  0.788230  0.978796  1
  Ba  Ba40  1  0.775548  0.495639  0.365908  1
  Ba  Ba41  1  0.974452  0.754361  0.134092  1
  Ba  Ba42  1  0.120269  0.254361  0.779909  1
  Ba  Ba43  1  0.590360  0.224456  0.720095  1
  Ba  Ba44  1  0.623346  0.461770  0.521204  1
  Ba  Ba45  1  0.978561  0.375000  0.103561  1
  Ba  Ba46  1  0.538232  0.059437  0.161578  1
  Ba  Ba47  1  0.395471  0.244595  0.894154  1
  Ba  Ba48  1  0.399563  0.748686  0.394159  1
  Ba  Ba49  1  0.478563  0.375000  0.603563  1
  Ba  Ba50  1  0.090357  0.370267  0.365903  1
  Ba  Ba51  1  0.809435  0.147860  0.021206  1
  Ba  Ba52  1  0.271437  0.875000  0.896437  1
  Ba  Ba53  1  0.474453  0.340359  0.220093  1
  Ba  Ba54  1  0.397858  0.559437  0.521205  1
  Ba  Ba55  1  0.629731  0.995639  0.720091  1
  Sc  Sc56  1  0.249935  0.749951  0.499832  1
  Sc  Sc57  1  0.750119  0.249951  0.500016  1
  Sc  Sc58  1  0.999881  0.000049  0.999984  1
  Sc  Sc59  1  0.500065  0.500049  0.000168  1
  Bi  Bi60  1  0.868369  0.368369  0.236732  1
  Bi  Bi61  1  0.289865  0.698665  0.144624  1
  Bi  Bi62  1  0.881631  0.881631  0.263268  1
  Bi  Bi63  1  0.554046  0.145243  0.855380  1
  Bi  Bi64  1  0.948666  0.039866  0.644624  1
  Bi  Bi65  1  0.368367  0.131634  0.500000  1
  Bi  Bi66  1  0.460135  0.551335  0.355376  1
  Bi  Bi67  1  0.354761  0.945958  0.144627  1
  Bi  Bi68  1  0.056204  0.194755  0.130527  1
  Bi  Bi69  1  0.054040  0.198665  0.408800  1
  Bi  Bi70  1  0.500001  0.000001  0.499999  1
  Bi  Bi71  1  0.195954  0.104757  0.644620  1
  Bi  Bi72  1  0.805221  0.935768  0.861441  1
  Bi  Bi73  1  0.685804  0.324296  0.630498  1
  Bi  Bi74  1  0.444686  0.806190  0.630476  1
  Bi  Bi75  1  0.175673  0.814232  0.369453  1
  Bi  Bi76  1  0.564228  0.694755  0.138551  1
  Bi  Bi77  1  0.675713  0.306190  0.361505  1
  Bi  Bi78  1  0.074287  0.943810  0.138495  1
  Bi  Bi79  1  0.749997  0.749999  0.000000  1
  Bi  Bi80  1  0.556202  0.425704  0.861509  1
  Bi  Bi81  1  0.381633  0.118366  0.000000  1
  Bi  Bi82  1  0.064196  0.925704  0.869502  1
  Bi  Bi83  1  0.000003  0.500001  0.500000  1
  Bi  Bi84  1  0.305314  0.443810  0.869524  1
  Bi  Bi85  1  0.801334  0.210134  0.855376  1
  Bi  Bi86  1  0.249999  0.249999  0.000001  1
  Bi  Bi87  1  0.395239  0.304042  0.355373  1
  Bi  Bi88  1  0.301332  0.445958  0.591198  1
  Bi  Bi89  1  0.695960  0.051335  0.091200  1
  Bi  Bi90  1  0.789862  0.645243  0.591196  1
  Bi  Bi91  1  0.193798  0.824296  0.638491  1
  Bi  Bi92  1  0.960138  0.604757  0.908804  1
  Bi  Bi93  1  0.118363  0.381631  0.000000  1
  Bi  Bi94  1  0.944779  0.314232  0.638559  1
  Bi  Bi95  1  0.631637  0.868369  0.500000  1
  Bi  Bi96  1  0.693796  0.055245  0.369473  1
  Bi  Bi97  1  0.574327  0.435768  0.130547  1
  Bi  Bi98  1  0.854758  0.710134  0.408799  1
  Bi  Bi99  1  0.895242  0.539866  0.091201  1
  Bi  Bi100  1  0.448668  0.804042  0.908802  1
  Bi  Bi101  1  0.131633  0.631634  0.763266  1
  Bi  Bi102  1  0.618367  0.618366  0.736734  1
  Bi  Bi103  1  0.185772  0.555245  0.361449  1
