# generated using pymatgen
data_Ta3AlV2Ga2B
_symmetry_space_group_name_H-M   'P 1'
_cell_length_a   7.69399800
_cell_length_b   7.70277051
_cell_length_c   5.12002100
_cell_angle_alpha   90.00000000
_cell_angle_beta   90.00000000
_cell_angle_gamma   119.96232481
_symmetry_Int_Tables_number   1
_chemical_formula_structural   Ta3AlV2Ga2B
_chemical_formula_sum   'Ta6 Al2 V4 Ga4 B2'
_cell_volume   262.88520955
_cell_formula_units_Z   2
loop_
 _symmetry_equiv_pos_site_id
 _symmetry_equiv_pos_as_xyz
  1  'x, y, z'
loop_
 _atom_site_type_symbol
 _atom_site_label
 _atom_site_symmetry_multiplicity
 _atom_site_fract_x
 _atom_site_fract_y
 _atom_site_fract_z
 _atom_site_occupancy
  Ta  Ta0  1  0.242836  0.000000  0.250000  1
  Ta  Ta1  1  0.757164  0.000000  0.750000  1
  Ta  Ta2  1  0.001595  0.245031  0.250000  1
  Ta  Ta3  1  0.998405  0.754969  0.750000  1
  Ta  Ta4  1  0.756564  0.754969  0.250000  1
  Ta  Ta5  1  0.243436  0.245031  0.750000  1
  Al  Al6  1  0.591475  0.000000  0.250000  1
  Al  Al7  1  0.408525  0.000000  0.750000  1
  V  V8  1  0.332943  0.665887  0.000000  1
  V  V9  1  0.667057  0.334113  0.000000  1
  V  V10  1  0.667057  0.334113  0.500000  1
  V  V11  1  0.332943  0.665887  0.500000  1
  Ga  Ga12  1  0.000084  0.593174  0.250000  1
  Ga  Ga13  1  0.999916  0.406826  0.750000  1
  Ga  Ga14  1  0.406910  0.406826  0.250000  1
  Ga  Ga15  1  0.593090  0.593174  0.750000  1
  B  B16  1  0.000000  0.000000  0.000000  1
  B  B17  1  0.000000  0.000000  0.500000  1
