# generated using pymatgen
data_NdEr2P4Pd6Pt
_symmetry_space_group_name_H-M   'P 1'
_cell_length_a   7.93115072
_cell_length_b   7.93115061
_cell_length_c   9.46223170
_cell_angle_alpha   55.90529757
_cell_angle_beta   55.90529763
_cell_angle_gamma   29.41453179
_symmetry_Int_Tables_number   1
_chemical_formula_structural   NdEr2P4Pd6Pt
_chemical_formula_sum   'Nd1 Er2 P4 Pd6 Pt1'
_cell_volume   238.22163965
_cell_formula_units_Z   1
loop_
 _symmetry_equiv_pos_site_id
 _symmetry_equiv_pos_as_xyz
  1  'x, y, z'
loop_
 _atom_site_type_symbol
 _atom_site_label
 _atom_site_symmetry_multiplicity
 _atom_site_fract_x
 _atom_site_fract_y
 _atom_site_fract_z
 _atom_site_occupancy
  Nd  Nd0  1  0.500000  0.500000  0.500000  1
  Er  Er1  1  0.821473  0.821473  0.174272  1
  Er  Er2  1  0.178527  0.178527  0.825728  1
  P  P3  1  0.392721  0.392721  0.316160  1
  P  P4  1  0.607279  0.607279  0.683840  1
  P  P5  1  0.837534  0.837534  0.757871  1
  P  P6  1  0.162466  0.162466  0.242129  1
  Pd  Pd7  1  0.669945  0.669945  0.073576  1
  Pd  Pd8  1  0.009962  0.009962  0.211737  1
  Pd  Pd9  1  0.990038  0.990038  0.788263  1
  Pd  Pd10  1  0.195346  0.195346  0.469180  1
  Pd  Pd11  1  0.804654  0.804654  0.530820  1
  Pd  Pd12  1  0.330055  0.330055  0.926424  1
  Pt  Pt13  1  0.500000  0.500000  0.000000  1
