# generated using pymatgen
data_Th14Tc2OsPt3
_symmetry_space_group_name_H-M   'P 1'
_cell_length_a   10.09969500
_cell_length_b   10.10129765
_cell_length_c   6.32675949
_cell_angle_alpha   89.96072403
_cell_angle_beta   90.00000000
_cell_angle_gamma   119.99475504
_symmetry_Int_Tables_number   1
_chemical_formula_structural   Th14Tc2OsPt3
_chemical_formula_sum   'Th14 Tc2 Os1 Pt3'
_cell_volume   559.01080093
_cell_formula_units_Z   1
loop_
 _symmetry_equiv_pos_site_id
 _symmetry_equiv_pos_as_xyz
  1  'x, y, z'
loop_
 _atom_site_type_symbol
 _atom_site_label
 _atom_site_symmetry_multiplicity
 _atom_site_fract_x
 _atom_site_fract_y
 _atom_site_fract_z
 _atom_site_occupancy
  Th  Th0  1  0.667064  0.334126  0.574970  1
  Th  Th1  1  0.333414  0.666829  0.040726  1
  Th  Th2  1  0.877078  0.754156  0.752589  1
  Th  Th3  1  0.248466  0.122907  0.752746  1
  Th  Th4  1  0.874442  0.122907  0.752746  1
  Th  Th5  1  0.130416  0.260834  0.244126  1
  Th  Th6  1  0.739032  0.869653  0.248615  1
  Th  Th7  1  0.130620  0.869653  0.248615  1
  Th  Th8  1  0.455748  0.911497  0.545476  1
  Th  Th9  1  0.087493  0.543813  0.545186  1
  Th  Th10  1  0.456319  0.543813  0.545186  1
  Th  Th11  1  0.538404  0.076806  0.036603  1
  Th  Th12  1  0.920903  0.460985  0.034874  1
  Th  Th13  1  0.540085  0.460985  0.034874  1
  Tc  Tc14  1  0.631252  0.814481  0.800083  1
  Tc  Tc15  1  0.183230  0.814481  0.800083  1
  Os  Os16  1  0.185640  0.371278  0.806226  1
  Pt  Pt17  1  0.810566  0.621133  0.307161  1
  Pt  Pt18  1  0.379166  0.189830  0.308605  1
  Pt  Pt19  1  0.810663  0.189830  0.308605  1
