# generated using pymatgen
data_Nd2PIrPt7
_symmetry_space_group_name_H-M   'P 1'
_cell_length_a   9.14292888
_cell_length_b   9.18016128
_cell_length_c   4.30539000
_cell_angle_alpha   90.00000000
_cell_angle_beta   90.00000000
_cell_angle_gamma   145.50764052
_symmetry_Int_Tables_number   1
_chemical_formula_structural   Nd2PIrPt7
_chemical_formula_sum   'Nd2 P1 Ir1 Pt7'
_cell_volume   204.64064670
_cell_formula_units_Z   1
loop_
 _symmetry_equiv_pos_site_id
 _symmetry_equiv_pos_as_xyz
  1  'x, y, z'
loop_
 _atom_site_type_symbol
 _atom_site_label
 _atom_site_symmetry_multiplicity
 _atom_site_fract_x
 _atom_site_fract_y
 _atom_site_fract_z
 _atom_site_occupancy
  Nd  Nd0  1  0.615167  0.371578  0.500000  1
  Nd  Nd1  1  0.373692  0.619484  0.500000  1
  P  P2  1  0.227223  0.221877  0.000000  1
  Ir  Ir3  1  0.111463  0.889889  0.000000  1
  Pt  Pt4  1  0.892467  0.110502  0.000000  1
  Pt  Pt5  1  0.488735  0.988060  0.000000  1
  Pt  Pt6  1  0.983731  0.489826  0.000000  1
  Pt  Pt7  1  0.189972  0.792569  0.500000  1
  Pt  Pt8  1  0.791870  0.193723  0.500000  1
  Pt  Pt9  1  0.003289  0.001837  0.500000  1
  Pt  Pt10  1  0.635989  0.634251  0.000000  1
