# generated using pymatgen
data_SmGd(SeO4)3
_symmetry_space_group_name_H-M   'P 1'
_cell_length_a   10.16022666
_cell_length_b   10.16023648
_cell_length_c   10.16023361
_cell_angle_alpha   57.78044502
_cell_angle_beta   57.78045086
_cell_angle_gamma   57.78044502
_symmetry_Int_Tables_number   1
_chemical_formula_structural   SmGd(SeO4)3
_chemical_formula_sum   'Sm2 Gd2 Se6 O24'
_cell_volume   703.84031755
_cell_formula_units_Z   2
loop_
 _symmetry_equiv_pos_site_id
 _symmetry_equiv_pos_as_xyz
  1  'x, y, z'
loop_
 _atom_site_type_symbol
 _atom_site_label
 _atom_site_symmetry_multiplicity
 _atom_site_fract_x
 _atom_site_fract_y
 _atom_site_fract_z
 _atom_site_occupancy
  Sm  Sm0  1  0.356268  0.356268  0.356268  1
  Sm  Sm1  1  0.643732  0.643732  0.643732  1
  Gd  Gd2  1  0.144253  0.144253  0.144253  1
  Gd  Gd3  1  0.855747  0.855747  0.855747  1
  Se  Se4  1  0.035938  0.463823  0.751460  1
  Se  Se5  1  0.463823  0.751460  0.035938  1
  Se  Se6  1  0.751460  0.035938  0.463822  1
  Se  Se7  1  0.964062  0.536177  0.248540  1
  Se  Se8  1  0.248540  0.964062  0.536178  1
  Se  Se9  1  0.536177  0.248540  0.964062  1
  O  O10  1  0.226222  0.993069  0.370713  1
  O  O11  1  0.370713  0.226222  0.993069  1
  O  O12  1  0.993069  0.370713  0.226222  1
  O  O13  1  0.773778  0.006931  0.629287  1
  O  O14  1  0.629287  0.773778  0.006931  1
  O  O15  1  0.006931  0.629287  0.773778  1
  O  O16  1  0.271803  0.128388  0.508236  1
  O  O17  1  0.508236  0.271803  0.128388  1
  O  O18  1  0.128388  0.508236  0.271803  1
  O  O19  1  0.728197  0.871612  0.491764  1
  O  O20  1  0.064046  0.296042  0.917409  1
  O  O21  1  0.296043  0.917409  0.064046  1
  O  O22  1  0.917408  0.064046  0.296043  1
  O  O23  1  0.935954  0.703958  0.082591  1
  O  O24  1  0.703957  0.082591  0.935954  1
  O  O25  1  0.082592  0.935954  0.703957  1
  O  O26  1  0.203531  0.436508  0.585270  1
  O  O27  1  0.436509  0.585270  0.203531  1
  O  O28  1  0.585270  0.203531  0.436508  1
  O  O29  1  0.796469  0.563492  0.414730  1
  O  O30  1  0.563491  0.414730  0.796469  1
  O  O31  1  0.414730  0.796469  0.563492  1
  O  O32  1  0.871612  0.491764  0.728197  1
  O  O33  1  0.491764  0.728197  0.871612  1
