# generated using pymatgen
data_Zr8Nb2CuSn7
_symmetry_space_group_name_H-M   'P 1'
_cell_length_a   5.85798700
_cell_length_b   8.69411608
_cell_length_c   8.69403200
_cell_angle_alpha   120.00032804
_cell_angle_beta   90.00024405
_cell_angle_gamma   89.99952129
_symmetry_Int_Tables_number   1
_chemical_formula_structural   Zr8Nb2CuSn7
_chemical_formula_sum   'Zr8 Nb2 Cu1 Sn7'
_cell_volume   383.46370884
_cell_formula_units_Z   1
loop_
 _symmetry_equiv_pos_site_id
 _symmetry_equiv_pos_as_xyz
  1  'x, y, z'
loop_
 _atom_site_type_symbol
 _atom_site_label
 _atom_site_symmetry_multiplicity
 _atom_site_fract_x
 _atom_site_fract_y
 _atom_site_fract_z
 _atom_site_occupancy
  Zr  Zr0  1  0.000001  0.666663  0.333328  1
  Zr  Zr1  1  0.000001  0.333335  0.666672  1
  Zr  Zr2  1  0.737309  0.274249  0.000000  1
  Zr  Zr3  1  0.737325  0.725759  0.725743  1
  Zr  Zr4  1  0.737325  0.000016  0.274257  1
  Zr  Zr5  1  0.262683  0.725753  0.000000  1
  Zr  Zr6  1  0.262676  0.274239  0.274255  1
  Zr  Zr7  1  0.262676  0.999984  0.725745  1
  Nb  Nb8  1  0.500001  0.333338  0.666676  1
  Nb  Nb9  1  0.500001  0.666662  0.333324  1
  Cu  Cu10  1  0.500000  0.000001  0.000000  1
  Sn  Sn11  1  0.750250  0.614061  0.000000  1
  Sn  Sn12  1  0.750242  0.385965  0.385965  1
  Sn  Sn13  1  0.750242  0.000000  0.614035  1
  Sn  Sn14  1  0.249748  0.385940  0.000000  1
  Sn  Sn15  1  0.249760  0.614034  0.614035  1
  Sn  Sn16  1  0.249760  0.999999  0.385965  1
  Sn  Sn17  1  0.999998  0.000001  0.000000  1
