# generated using pymatgen
data_Tb7Er(Si4W3)4
_symmetry_space_group_name_H-M   'P 1'
_cell_length_a   6.79150461
_cell_length_b   6.95109621
_cell_length_c   12.91952000
_cell_angle_alpha   90.03685630
_cell_angle_beta   89.99659823
_cell_angle_gamma   90.02237734
_symmetry_Int_Tables_number   1
_chemical_formula_structural   Tb7Er(Si4W3)4
_chemical_formula_sum   'Tb7 Er1 Si16 W12'
_cell_volume   609.90971973
_cell_formula_units_Z   1
loop_
 _symmetry_equiv_pos_site_id
 _symmetry_equiv_pos_as_xyz
  1  'x, y, z'
loop_
 _atom_site_type_symbol
 _atom_site_label
 _atom_site_symmetry_multiplicity
 _atom_site_fract_x
 _atom_site_fract_y
 _atom_site_fract_z
 _atom_site_occupancy
  Tb  Tb0  1  0.495671  0.667252  0.593490  1
  Tb  Tb1  1  0.995854  0.832788  0.906563  1
  Tb  Tb2  1  0.504421  0.332751  0.093486  1
  Tb  Tb3  1  0.004006  0.167516  0.406932  1
  Tb  Tb4  1  0.504016  0.332533  0.406888  1
  Tb  Tb5  1  0.004234  0.167461  0.093501  1
  Tb  Tb6  1  0.495681  0.667271  0.906047  1
  Er  Er7  1  0.995012  0.832018  0.594000  1
  Si  Si8  1  0.661439  0.957000  0.453402  1
  Si  Si9  1  0.161163  0.543006  0.047107  1
  Si  Si10  1  0.339452  0.043208  0.952400  1
  Si  Si11  1  0.839383  0.457996  0.547414  1
  Si  Si12  1  0.337413  0.042036  0.547403  1
  Si  Si13  1  0.839078  0.456921  0.952591  1
  Si  Si14  1  0.661001  0.956880  0.047163  1
  Si  Si15  1  0.160837  0.543724  0.453324  1
  Si  Si16  1  0.463690  0.368905  0.749800  1
  Si  Si17  1  0.964059  0.129459  0.749292  1
  Si  Si18  1  0.536532  0.630740  0.250204  1
  Si  Si19  1  0.036425  0.869850  0.250150  1
  Si  Si20  1  0.697425  0.867631  0.749518  1
  Si  Si21  1  0.195705  0.632528  0.749376  1
  Si  Si22  1  0.303274  0.132236  0.250153  1
  Si  Si23  1  0.803441  0.368483  0.250346  1
  W  W24  1  0.668206  0.163012  0.625701  1
  W  W25  1  0.167362  0.336011  0.873673  1
  W  W26  1  0.332379  0.836522  0.125818  1
  W  W27  1  0.832581  0.664466  0.374683  1
  W  W28  1  0.332035  0.836454  0.374320  1
  W  W29  1  0.832599  0.664003  0.125995  1
  W  W30  1  0.668346  0.163406  0.873834  1
  W  W31  1  0.167749  0.336214  0.625755  1
  W  W32  1  0.834306  0.498527  0.749691  1
  W  W33  1  0.333944  0.000769  0.749546  1
  W  W34  1  0.165730  0.502077  0.250162  1
  W  W35  1  0.665555  0.998342  0.250266  1
