# generated using pymatgen
data_Rb2VFeSe4
_symmetry_space_group_name_H-M   'P 1'
_cell_length_a   14.52807009
_cell_length_b   12.97157720
_cell_length_c   7.66648884
_cell_angle_alpha   85.39391619
_cell_angle_beta   62.87065407
_cell_angle_gamma   31.73541626
_symmetry_Int_Tables_number   1
_chemical_formula_structural   Rb2VFeSe4
_chemical_formula_sum   'Rb4 V2 Fe2 Se8'
_cell_volume   509.93392954
_cell_formula_units_Z   2
loop_
 _symmetry_equiv_pos_site_id
 _symmetry_equiv_pos_as_xyz
  1  'x, y, z'
loop_
 _atom_site_type_symbol
 _atom_site_label
 _atom_site_symmetry_multiplicity
 _atom_site_fract_x
 _atom_site_fract_y
 _atom_site_fract_z
 _atom_site_occupancy
  Rb  Rb0  1  0.572361  0.572361  0.927639  1
  Rb  Rb1  1  0.927639  0.927639  0.572361  1
  Rb  Rb2  1  0.322361  0.322361  0.677639  1
  Rb  Rb3  1  0.677639  0.677639  0.322361  1
  V  V4  1  0.750000  0.750000  0.750000  1
  V  V5  1  0.500000  0.500000  0.500000  1
  Fe  Fe6  1  0.000000  0.000000  0.000000  1
  Fe  Fe7  1  0.250000  0.250000  0.250000  1
  Se  Se8  1  0.216536  0.889477  0.594050  1
  Se  Se9  1  0.299937  0.594050  0.889477  1
  Se  Se10  1  0.594050  0.299937  0.216536  1
  Se  Se11  1  0.889477  0.216536  0.299937  1
  Se  Se12  1  0.360523  0.033464  0.950063  1
  Se  Se13  1  0.950063  0.655950  0.360523  1
  Se  Se14  1  0.655950  0.950063  0.033464  1
  Se  Se15  1  0.033464  0.360523  0.655950  1
