# generated using pymatgen
data_Th6CoAu7
_symmetry_space_group_name_H-M   'P 1'
_cell_length_a   8.16365694
_cell_length_b   8.16365691
_cell_length_c   8.16365768
_cell_angle_alpha   113.56097866
_cell_angle_beta   113.56098139
_cell_angle_gamma   113.56095973
_symmetry_Int_Tables_number   1
_chemical_formula_structural   Th6CoAu7
_chemical_formula_sum   'Th6 Co1 Au7'
_cell_volume   341.04270728
_cell_formula_units_Z   1
loop_
 _symmetry_equiv_pos_site_id
 _symmetry_equiv_pos_as_xyz
  1  'x, y, z'
loop_
 _atom_site_type_symbol
 _atom_site_label
 _atom_site_symmetry_multiplicity
 _atom_site_fract_x
 _atom_site_fract_y
 _atom_site_fract_z
 _atom_site_occupancy
  Th  Th0  1  0.017996  0.375659  0.263434  1
  Th  Th1  1  0.375659  0.263434  0.017996  1
  Th  Th2  1  0.736566  0.982004  0.624341  1
  Th  Th3  1  0.263434  0.017996  0.375659  1
  Th  Th4  1  0.624341  0.736566  0.982004  1
  Th  Th5  1  0.982004  0.624341  0.736566  1
  Co  Co6  1  0.000000  0.000000  0.000000  1
  Au  Au7  1  0.500000  0.500000  0.500000  1
  Au  Au8  1  0.419753  0.919408  0.756244  1
  Au  Au9  1  0.919408  0.756244  0.419753  1
  Au  Au10  1  0.243756  0.580247  0.080592  1
  Au  Au11  1  0.756244  0.419753  0.919408  1
  Au  Au12  1  0.080592  0.243756  0.580247  1
  Au  Au13  1  0.580247  0.080592  0.243756  1
