# generated using pymatgen
data_Tb9Ho3ZnCo4Pb
_symmetry_space_group_name_H-M   'P 1'
_cell_length_a   8.32788480
_cell_length_b   8.32918253
_cell_length_c   8.32788423
_cell_angle_alpha   112.00174586
_cell_angle_beta   109.16330081
_cell_angle_gamma   107.27744096
_symmetry_Int_Tables_number   1
_chemical_formula_structural   Tb9Ho3ZnCo4Pb
_chemical_formula_sum   'Tb9 Ho3 Zn1 Co4 Pb1'
_cell_volume   443.94753873
_cell_formula_units_Z   1
loop_
 _symmetry_equiv_pos_site_id
 _symmetry_equiv_pos_as_xyz
  1  'x, y, z'
loop_
 _atom_site_type_symbol
 _atom_site_label
 _atom_site_symmetry_multiplicity
 _atom_site_fract_x
 _atom_site_fract_y
 _atom_site_fract_z
 _atom_site_occupancy
  Tb  Tb0  1  0.428720  0.226954  0.201248  1
  Tb  Tb1  1  0.571921  0.773034  0.799563  1
  Tb  Tb2  1  0.025706  0.226954  0.798234  1
  Tb  Tb3  1  0.973471  0.773034  0.201113  1
  Tb  Tb4  1  0.180737  0.283078  0.464596  1
  Tb  Tb5  1  0.819692  0.716632  0.535872  1
  Tb  Tb6  1  0.180760  0.716632  0.896940  1
  Tb  Tb7  1  0.818480  0.283078  0.102342  1
  Tb  Tb8  1  0.323245  0.635775  0.312531  1
  Ho  Ho9  1  0.676354  0.362993  0.686639  1
  Ho  Ho10  1  0.323494  0.010606  0.687113  1
  Ho  Ho11  1  0.676818  0.990001  0.313183  1
  Zn  Zn12  1  0.000180  0.000191  0.000012  1
  Co  Co13  1  0.347767  0.000773  0.348022  1
  Co  Co14  1  0.652749  0.000773  0.653005  1
  Co  Co15  1  0.113771  0.614083  0.500312  1
  Co  Co16  1  0.885517  0.385246  0.499729  1
  Pb  Pb17  1  0.500618  0.500164  0.999546  1
