# generated using pymatgen
data_ScU(Co3P2)2
_symmetry_space_group_name_H-M   'P 1'
_cell_length_a   3.66568400
_cell_length_b   10.42223671
_cell_length_c   12.01522193
_cell_angle_alpha   89.77794978
_cell_angle_beta   90.00000000
_cell_angle_gamma   90.00000000
_symmetry_Int_Tables_number   1
_chemical_formula_structural   ScU(Co3P2)2
_chemical_formula_sum   'Sc3 U3 Co18 P12'
_cell_volume   459.03361703
_cell_formula_units_Z   3
loop_
 _symmetry_equiv_pos_site_id
 _symmetry_equiv_pos_as_xyz
  1  'x, y, z'
loop_
 _atom_site_type_symbol
 _atom_site_label
 _atom_site_symmetry_multiplicity
 _atom_site_fract_x
 _atom_site_fract_y
 _atom_site_fract_z
 _atom_site_occupancy
  Sc  Sc0  1  0.500000  0.816476  0.206357  1
  Sc  Sc1  1  0.500000  0.183088  0.204182  1
  Sc  Sc2  1  0.000000  0.685152  0.795377  1
  U  U3  1  0.000000  0.502057  0.528672  1
  U  U4  1  0.500000  0.999394  0.467276  1
  U  U5  1  0.000000  0.321200  0.793067  1
  Co  Co6  1  0.500000  0.501070  0.159248  1
  Co  Co7  1  0.000000  0.999805  0.839530  1
  Co  Co8  1  0.500000  0.495603  0.699569  1
  Co  Co9  1  0.000000  0.999037  0.303753  1
  Co  Co10  1  0.000000  0.501524  0.987580  1
  Co  Co11  1  0.500000  0.999419  0.016839  1
  Co  Co12  1  0.500000  0.333838  0.995486  1
  Co  Co13  1  0.500000  0.669241  0.994432  1
  Co  Co14  1  0.000000  0.165412  0.007803  1
  Co  Co15  1  0.000000  0.834814  0.008129  1
  Co  Co16  1  0.500000  0.299551  0.428091  1
  Co  Co17  1  0.500000  0.699641  0.432985  1
  Co  Co18  1  0.000000  0.198081  0.565055  1
  Co  Co19  1  0.000000  0.798964  0.568158  1
  Co  Co20  1  0.500000  0.877276  0.711269  1
  Co  Co21  1  0.500000  0.120259  0.708811  1
  Co  Co22  1  0.000000  0.622220  0.289736  1
  Co  Co23  1  0.000000  0.378346  0.287958  1
  P  P24  1  0.500000  0.505023  0.882323  1
  P  P25  1  0.000000  0.999406  0.124649  1
  P  P26  1  0.500000  0.499976  0.345951  1
  P  P27  1  0.000000  0.998253  0.652121  1
  P  P28  1  0.500000  0.306103  0.611672  1
  P  P29  1  0.500000  0.690559  0.620970  1
  P  P30  1  0.000000  0.191457  0.377550  1
  P  P31  1  0.000000  0.807462  0.380636  1
  P  P32  1  0.500000  0.846417  0.892877  1
  P  P33  1  0.500000  0.152574  0.894226  1
  P  P34  1  0.000000  0.657195  0.109343  1
  P  P35  1  0.000000  0.344107  0.108320  1
