# generated using pymatgen
data_Dy17Ho(TmSn8)2
_symmetry_space_group_name_H-M   'P 1'
_cell_length_a   8.03612700
_cell_length_b   8.15789000
_cell_length_c   15.45137000
_cell_angle_alpha   90.00000000
_cell_angle_beta   90.00000000
_cell_angle_gamma   89.99796206
_symmetry_Int_Tables_number   1
_chemical_formula_structural   Dy17Ho(TmSn8)2
_chemical_formula_sum   'Dy17 Ho1 Tm2 Sn16'
_cell_volume   1012.95844334
_cell_formula_units_Z   1
loop_
 _symmetry_equiv_pos_site_id
 _symmetry_equiv_pos_as_xyz
  1  'x, y, z'
loop_
 _atom_site_type_symbol
 _atom_site_label
 _atom_site_symmetry_multiplicity
 _atom_site_fract_x
 _atom_site_fract_y
 _atom_site_fract_z
 _atom_site_occupancy
  Dy  Dy0  1  0.367619  0.837212  0.877572  1
  Dy  Dy1  1  0.867618  0.662791  0.622426  1
  Dy  Dy2  1  0.632420  0.162925  0.378073  1
  Dy  Dy3  1  0.132395  0.337095  0.121926  1
  Dy  Dy4  1  0.632420  0.162925  0.121927  1
  Dy  Dy5  1  0.132395  0.337095  0.378074  1
  Dy  Dy6  1  0.367619  0.837212  0.622428  1
  Dy  Dy7  1  0.867618  0.662791  0.877574  1
  Dy  Dy8  1  0.520757  0.320711  0.902393  1
  Dy  Dy9  1  0.020760  0.179287  0.597609  1
  Dy  Dy10  1  0.479359  0.679289  0.402745  1
  Dy  Dy11  1  0.979346  0.820699  0.097253  1
  Dy  Dy12  1  0.479359  0.679289  0.097255  1
  Dy  Dy13  1  0.979346  0.820699  0.402747  1
  Dy  Dy14  1  0.520757  0.320711  0.597607  1
  Dy  Dy15  1  0.020760  0.179287  0.902391  1
  Dy  Dy16  1  0.301106  0.002857  0.250000  1
  Ho  Ho17  1  0.801079  0.497145  0.250000  1
  Tm  Tm18  1  0.198840  0.502903  0.750000  1
  Tm  Tm19  1  0.698840  0.997093  0.750000  1
  Sn  Sn20  1  0.292880  0.036765  0.041530  1
  Sn  Sn21  1  0.792880  0.463234  0.458450  1
  Sn  Sn22  1  0.707362  0.963698  0.542499  1
  Sn  Sn23  1  0.207361  0.536304  0.957500  1
  Sn  Sn24  1  0.707362  0.963698  0.957501  1
  Sn  Sn25  1  0.207361  0.536304  0.542500  1
  Sn  Sn26  1  0.292880  0.036765  0.458470  1
  Sn  Sn27  1  0.792880  0.463234  0.041550  1
  Sn  Sn28  1  0.564483  0.618368  0.750000  1
  Sn  Sn29  1  0.064476  0.881628  0.750000  1
  Sn  Sn30  1  0.434758  0.381074  0.250000  1
  Sn  Sn31  1  0.934698  0.118966  0.250000  1
  Sn  Sn32  1  0.330066  0.148956  0.750000  1
  Sn  Sn33  1  0.830058  0.351054  0.750000  1
  Sn  Sn34  1  0.670055  0.852313  0.250000  1
  Sn  Sn35  1  0.170028  0.647622  0.250000  1
