# generated using pymatgen
data_La8Er2Ir5Ru
_symmetry_space_group_name_H-M   'P 1'
_cell_length_a   11.26519800
_cell_length_b   11.26519800
_cell_length_c   6.56914700
_cell_angle_alpha   90.00000000
_cell_angle_beta   90.00000000
_cell_angle_gamma   90.00000000
_symmetry_Int_Tables_number   1
_chemical_formula_structural   La8Er2Ir5Ru
_chemical_formula_sum   'La16 Er4 Ir10 Ru2'
_cell_volume   833.65553719
_cell_formula_units_Z   2
loop_
 _symmetry_equiv_pos_site_id
 _symmetry_equiv_pos_as_xyz
  1  'x, y, z'
loop_
 _atom_site_type_symbol
 _atom_site_label
 _atom_site_symmetry_multiplicity
 _atom_site_fract_x
 _atom_site_fract_y
 _atom_site_fract_z
 _atom_site_occupancy
  La  La0  1  0.290861  0.086073  0.386396  1
  La  La1  1  0.290861  0.913927  0.886396  1
  La  La2  1  0.709139  0.086073  0.886396  1
  La  La3  1  0.709139  0.913927  0.386396  1
  La  La4  1  0.586073  0.790861  0.886396  1
  La  La5  1  0.586073  0.209139  0.386396  1
  La  La6  1  0.413927  0.790861  0.386396  1
  La  La7  1  0.413927  0.209139  0.886396  1
  La  La8  1  0.213051  0.411540  0.617434  1
  La  La9  1  0.213051  0.588460  0.117434  1
  La  La10  1  0.786949  0.411540  0.117434  1
  La  La11  1  0.786949  0.588460  0.617434  1
  La  La12  1  0.911540  0.713051  0.117434  1
  La  La13  1  0.911540  0.286949  0.617434  1
  La  La14  1  0.088460  0.713051  0.617434  1
  La  La15  1  0.088460  0.286949  0.117434  1
  Er  Er16  1  0.000000  0.000000  0.495004  1
  Er  Er17  1  0.000000  0.000000  0.995004  1
  Er  Er18  1  0.500000  0.500000  0.995004  1
  Er  Er19  1  0.500000  0.500000  0.495004  1
  Ir  Ir20  1  0.853654  0.148375  0.247857  1
  Ir  Ir21  1  0.853654  0.851625  0.747857  1
  Ir  Ir22  1  0.146346  0.148375  0.747857  1
  Ir  Ir23  1  0.146346  0.851625  0.247857  1
  Ir  Ir24  1  0.648375  0.353654  0.747857  1
  Ir  Ir25  1  0.648375  0.646346  0.247857  1
  Ir  Ir26  1  0.351625  0.353654  0.247857  1
  Ir  Ir27  1  0.351625  0.646346  0.747857  1
  Ir  Ir28  1  0.000000  0.500000  0.885108  1
  Ir  Ir29  1  0.000000  0.500000  0.385108  1
  Ru  Ru30  1  0.500000  0.000000  0.118131  1
  Ru  Ru31  1  0.500000  0.000000  0.618131  1
