# generated using pymatgen
data_TbTmZr2(Ga3Ir)6
_symmetry_space_group_name_H-M   'P 1'
_cell_length_a   7.56303706
_cell_length_b   7.55119034
_cell_length_c   9.41759800
_cell_angle_alpha   90.00000000
_cell_angle_beta   90.00000000
_cell_angle_gamma   119.96640577
_symmetry_Int_Tables_number   1
_chemical_formula_structural   TbTmZr2(Ga3Ir)6
_chemical_formula_sum   'Tb1 Tm1 Zr2 Ga18 Ir6'
_cell_volume   465.93929985
_cell_formula_units_Z   1
loop_
 _symmetry_equiv_pos_site_id
 _symmetry_equiv_pos_as_xyz
  1  'x, y, z'
loop_
 _atom_site_type_symbol
 _atom_site_label
 _atom_site_symmetry_multiplicity
 _atom_site_fract_x
 _atom_site_fract_y
 _atom_site_fract_z
 _atom_site_occupancy
  Tb  Tb0  1  0.668826  0.995302  0.250000  1
  Tm  Tm1  1  0.330995  0.004643  0.750000  1
  Zr  Zr2  1  0.995374  0.670440  0.250000  1
  Zr  Zr3  1  0.004911  0.330021  0.750000  1
  Ga  Ga4  1  0.127233  0.127980  0.250000  1
  Ga  Ga5  1  0.873819  0.872552  0.750000  1
  Ga  Ga6  1  0.998635  0.337566  0.078161  1
  Ga  Ga7  1  0.002466  0.663133  0.919705  1
  Ga  Ga8  1  0.002466  0.663133  0.580295  1
  Ga  Ga9  1  0.330999  0.996310  0.418159  1
  Ga  Ga10  1  0.998635  0.337566  0.421839  1
  Ga  Ga11  1  0.668193  0.004083  0.584169  1
  Ga  Ga12  1  0.668193  0.004083  0.915831  1
  Ga  Ga13  1  0.330999  0.996310  0.081841  1
  Ga  Ga14  1  0.329578  0.331855  0.570922  1
  Ga  Ga15  1  0.670056  0.666997  0.431164  1
  Ga  Ga16  1  0.670056  0.666997  0.068836  1
  Ga  Ga17  1  0.329578  0.331855  0.929078  1
  Ga  Ga18  1  0.335116  0.545519  0.250000  1
  Ga  Ga19  1  0.664114  0.453183  0.750000  1
  Ga  Ga20  1  0.550345  0.340194  0.250000  1
  Ga  Ga21  1  0.449279  0.660209  0.750000  1
  Ir  Ir22  1  0.670790  0.327668  0.999206  1
  Ir  Ir23  1  0.329049  0.672326  0.000189  1
  Ir  Ir24  1  0.329049  0.672326  0.499811  1
  Ir  Ir25  1  0.670790  0.327668  0.500794  1
  Ir  Ir26  1  0.000227  0.000039  0.999618  1
  Ir  Ir27  1  0.000227  0.000039  0.500382  1
