# generated using pymatgen
data_Li12Pr9Sm3(TeO6)8
_symmetry_space_group_name_H-M   'P 1'
_cell_length_a   11.01009641
_cell_length_b   11.03137156
_cell_length_c   11.01004260
_cell_angle_alpha   109.51068589
_cell_angle_beta   109.43242842
_cell_angle_gamma   109.51012300
_symmetry_Int_Tables_number   1
_chemical_formula_structural   Li12Pr9Sm3(TeO6)8
_chemical_formula_sum   'Li12 Pr9 Sm3 Te8 O48'
_cell_volume   1028.90492394
_cell_formula_units_Z   1
loop_
 _symmetry_equiv_pos_site_id
 _symmetry_equiv_pos_as_xyz
  1  'x, y, z'
loop_
 _atom_site_type_symbol
 _atom_site_label
 _atom_site_symmetry_multiplicity
 _atom_site_fract_x
 _atom_site_fract_y
 _atom_site_fract_z
 _atom_site_occupancy
  Li  Li0  1  0.874594  0.749760  0.125211  1
  Li  Li1  1  0.250618  0.875451  0.125208  1
  Li  Li2  1  0.874039  0.124506  0.249744  1
  Li  Li3  1  0.375705  0.625239  0.249745  1
  Li  Li4  1  0.749332  0.623961  0.373706  1
  Li  Li5  1  0.624377  0.249748  0.373709  1
  Li  Li6  1  0.374976  0.750049  0.625009  1
  Li  Li7  1  0.250033  0.374960  0.625009  1
  Li  Li8  1  0.125321  0.875451  0.750412  1
  Li  Li9  1  0.625090  0.374962  0.750412  1
  Li  Li10  1  0.125876  0.250063  0.875834  1
  Li  Li11  1  0.749958  0.125772  0.875836  1
  Pr  Pr12  1  0.124618  0.374619  0.249236  1
  Pr  Pr13  1  0.250398  0.125170  0.374618  1
  Pr  Pr14  1  0.124220  0.749448  0.374618  1
  Pr  Pr15  1  0.749595  0.874773  0.624219  1
  Pr  Pr16  1  0.874625  0.249446  0.624221  1
  Pr  Pr17  1  0.375575  0.125575  0.751150  1
  Pr  Pr18  1  0.875014  0.625015  0.750028  1
  Pr  Pr19  1  0.250539  0.625388  0.875798  1
  Pr  Pr20  1  0.625259  0.750409  0.875798  1
  Sm  Sm21  1  0.749414  0.374859  0.125291  1
  Sm  Sm22  1  0.375878  0.250433  0.125291  1
  Sm  Sm23  1  0.625023  0.875022  0.250044  1
  Te  Te24  1  0.001480  0.000668  0.000150  1
  Te  Te25  1  0.500940  0.001964  0.002703  1
  Te  Te26  1  0.501764  0.500739  0.002703  1
  Te  Te27  1  0.998670  0.499482  0.000150  1
  Te  Te28  1  0.998650  0.999130  0.498701  1
  Te  Te29  1  0.499825  0.499423  0.498441  1
  Te  Te30  1  0.500051  0.999570  0.498700  1
  Te  Te31  1  0.998617  0.499019  0.498442  1
  O  O32  1  0.903939  0.329876  0.023641  1
  O  O33  1  0.119703  0.193767  0.023643  1
  O  O34  1  0.408087  0.884827  0.079633  1
  O  O35  1  0.671546  0.694805  0.079633  1
  O  O36  1  0.670220  0.977597  0.096848  1
  O  O37  1  0.426629  0.619251  0.096846  1
  O  O38  1  0.920416  0.591850  0.115776  1
  O  O39  1  0.195360  0.023927  0.115775  1
  O  O40  1  0.576402  0.196353  0.171135  1
  O  O41  1  0.594732  0.474783  0.171135  1
  O  O42  1  0.170320  0.576887  0.192789  1
  O  O43  1  0.022469  0.115902  0.192787  1
  O  O44  1  0.384248  0.476139  0.304496  1
  O  O45  1  0.920248  0.328359  0.304497  1
  O  O46  1  0.306601  0.922430  0.328707  1
  O  O47  1  0.022106  0.906276  0.328707  1
  O  O48  1  0.903805  0.573896  0.380198  1
  O  O49  1  0.476393  0.306302  0.380197  1
  O  O50  1  0.523492  0.829931  0.403798  1
  O  O51  1  0.880306  0.073868  0.403799  1
  O  O52  1  0.804743  0.828451  0.420499  1
  O  O53  1  0.615757  0.092049  0.420501  1
  O  O54  1  0.307229  0.384193  0.477375  1
  O  O55  1  0.170147  0.593183  0.477376  1
  O  O56  1  0.693270  0.615810  0.521833  1
  O  O57  1  0.828564  0.406024  0.521834  1
  O  O58  1  0.191780  0.170584  0.576727  1
  O  O59  1  0.384947  0.906143  0.576727  1
  O  O60  1  0.114922  0.922614  0.593194  1
  O  O61  1  0.478272  0.170579  0.593193  1
  O  O62  1  0.521598  0.692173  0.614800  1
  O  O63  1  0.093200  0.422627  0.614799  1
  O  O64  1  0.977649  0.093445  0.670302  1
  O  O65  1  0.692654  0.076858  0.670301  1
  O  O66  1  0.615031  0.521036  0.691548  1
  O  O67  1  0.076518  0.670512  0.691549  1
  O  O68  1  0.978002  0.884258  0.806719  1
  O  O69  1  0.828717  0.422461  0.806718  1
  O  O70  1  0.406504  0.520945  0.830504  1
  O  O71  1  0.424002  0.809559  0.830505  1
  O  O72  1  0.808338  0.979052  0.884959  1
  O  O73  1  0.076622  0.405907  0.884960  1
  O  O74  1  0.579102  0.384820  0.908732  1
  O  O75  1  0.329627  0.023910  0.908730  1
  O  O76  1  0.330938  0.307943  0.927297  1
  O  O77  1  0.596360  0.119355  0.927297  1
  O  O78  1  0.093340  0.670512  0.978419  1
  O  O79  1  0.885080  0.807908  0.978419  1
