# generated using pymatgen
data_Hf3Zr3BiSbPt
_symmetry_space_group_name_H-M   'P 1'
_cell_length_a   7.88693600
_cell_length_b   7.88693606
_cell_length_c   3.71018400
_cell_angle_alpha   90.00000000
_cell_angle_beta   90.00000000
_cell_angle_gamma   119.99999976
_symmetry_Int_Tables_number   1
_chemical_formula_structural   Hf3Zr3BiSbPt
_chemical_formula_sum   'Hf3 Zr3 Bi1 Sb1 Pt1'
_cell_volume   199.86774724
_cell_formula_units_Z   1
loop_
 _symmetry_equiv_pos_site_id
 _symmetry_equiv_pos_as_xyz
  1  'x, y, z'
loop_
 _atom_site_type_symbol
 _atom_site_label
 _atom_site_symmetry_multiplicity
 _atom_site_fract_x
 _atom_site_fract_y
 _atom_site_fract_z
 _atom_site_occupancy
  Hf  Hf0  1  0.245786  0.996485  0.500000  1
  Hf  Hf1  1  0.750699  0.754214  0.500000  1
  Hf  Hf2  1  0.003515  0.249301  0.500000  1
  Zr  Zr3  1  0.593798  0.992032  0.000000  1
  Zr  Zr4  1  0.398234  0.406202  0.000000  1
  Zr  Zr5  1  0.007968  0.601766  0.000000  1
  Bi  Bi6  1  0.666667  0.333333  0.500000  1
  Sb  Sb7  1  0.333333  0.666667  0.500000  1
  Pt  Pt8  1  0.000000  0.000000  0.000000  1
