# generated using pymatgen
data_NdY3IrRh3O14
_symmetry_space_group_name_H-M   'P 1'
_cell_length_a   7.30771927
_cell_length_b   7.30771989
_cell_length_c   7.30772006
_cell_angle_alpha   59.55943354
_cell_angle_beta   59.55942974
_cell_angle_gamma   59.55943423
_symmetry_Int_Tables_number   1
_chemical_formula_structural   NdY3IrRh3O14
_chemical_formula_sum   'Nd1 Y3 Ir1 Rh3 O14'
_cell_volume   273.18622586
_cell_formula_units_Z   1
loop_
 _symmetry_equiv_pos_site_id
 _symmetry_equiv_pos_as_xyz
  1  'x, y, z'
loop_
 _atom_site_type_symbol
 _atom_site_label
 _atom_site_symmetry_multiplicity
 _atom_site_fract_x
 _atom_site_fract_y
 _atom_site_fract_z
 _atom_site_occupancy
  Nd  Nd0  1  0.125000  0.125000  0.125000  1
  Y  Y1  1  0.625000  0.125000  0.125000  1
  Y  Y2  1  0.125000  0.625000  0.125000  1
  Y  Y3  1  0.125000  0.125000  0.625000  1
  Ir  Ir4  1  0.625000  0.625000  0.625000  1
  Rh  Rh5  1  0.125000  0.625000  0.625000  1
  Rh  Rh6  1  0.625000  0.125000  0.625000  1
  Rh  Rh7  1  0.625000  0.625000  0.125000  1
  O  O8  1  0.708840  0.708840  0.293988  1
  O  O9  1  0.288113  0.288113  0.702928  1
  O  O10  1  0.708840  0.293988  0.708840  1
  O  O11  1  0.288113  0.702928  0.288113  1
  O  O12  1  0.293988  0.708840  0.708840  1
  O  O13  1  0.702928  0.288113  0.288113  1
  O  O14  1  0.541160  0.541160  0.956012  1
  O  O15  1  0.961887  0.961887  0.547072  1
  O  O16  1  0.541160  0.956012  0.541160  1
  O  O17  1  0.961887  0.547072  0.961887  1
  O  O18  1  0.956012  0.541160  0.541160  1
  O  O19  1  0.547072  0.961887  0.961887  1
  O  O20  1  0.253579  0.253579  0.253579  1
  O  O21  1  0.996421  0.996421  0.996421  1
