# generated using pymatgen
data_Dy7Ho(AlRu)8
_symmetry_space_group_name_H-M   'P 1'
_cell_length_a   4.07997100
_cell_length_b   7.01211394
_cell_length_c   15.99498191
_cell_angle_alpha   90.03561371
_cell_angle_beta   90.00000000
_cell_angle_gamma   90.00000000
_symmetry_Int_Tables_number   1
_chemical_formula_structural   Dy7Ho(AlRu)8
_chemical_formula_sum   'Dy7 Ho1 Al8 Ru8'
_cell_volume   457.60389206
_cell_formula_units_Z   1
loop_
 _symmetry_equiv_pos_site_id
 _symmetry_equiv_pos_as_xyz
  1  'x, y, z'
loop_
 _atom_site_type_symbol
 _atom_site_label
 _atom_site_symmetry_multiplicity
 _atom_site_fract_x
 _atom_site_fract_y
 _atom_site_fract_z
 _atom_site_occupancy
  Dy  Dy0  1  0.750000  0.963967  0.219400  1
  Dy  Dy1  1  0.250000  0.161214  0.563088  1
  Dy  Dy2  1  0.750000  0.842439  0.436948  1
  Dy  Dy3  1  0.750000  0.464050  0.280793  1
  Dy  Dy4  1  0.750000  0.339448  0.062822  1
  Dy  Dy5  1  0.250000  0.656942  0.936795  1
  Dy  Dy6  1  0.250000  0.035788  0.780477  1
  Ho  Ho7  1  0.250000  0.537154  0.718765  1
  Al  Al8  1  0.750000  0.502929  0.565615  1
  Al  Al9  1  0.750000  0.363851  0.848847  1
  Al  Al10  1  0.750000  0.997857  0.934322  1
  Al  Al11  1  0.750000  0.866945  0.651084  1
  Al  Al12  1  0.250000  0.501060  0.434714  1
  Al  Al13  1  0.250000  0.997586  0.065590  1
  Al  Al14  1  0.250000  0.633785  0.151006  1
  Al  Al15  1  0.250000  0.135643  0.349023  1
  Ru  Ru16  1  0.750000  0.743905  0.812142  1
  Ru  Ru17  1  0.250000  0.232456  0.936665  1
  Ru  Ru18  1  0.750000  0.266143  0.436840  1
  Ru  Ru19  1  0.250000  0.753642  0.312174  1
  Ru  Ru20  1  0.750000  0.763414  0.063587  1
  Ru  Ru21  1  0.750000  0.249267  0.688128  1
  Ru  Ru22  1  0.250000  0.252929  0.187579  1
  Ru  Ru23  1  0.250000  0.737586  0.563599  1
