# generated using pymatgen
data_Nd3Th2Sn3C
_symmetry_space_group_name_H-M   'P 1'
_cell_length_a   9.41193500
_cell_length_b   9.34249144
_cell_length_c   6.62844400
_cell_angle_alpha   90.00000000
_cell_angle_beta   90.00000000
_cell_angle_gamma   120.24618714
_symmetry_Int_Tables_number   1
_chemical_formula_structural   Nd3Th2Sn3C
_chemical_formula_sum   'Nd6 Th4 Sn6 C2'
_cell_volume   503.50191081
_cell_formula_units_Z   2
loop_
 _symmetry_equiv_pos_site_id
 _symmetry_equiv_pos_as_xyz
  1  'x, y, z'
loop_
 _atom_site_type_symbol
 _atom_site_label
 _atom_site_symmetry_multiplicity
 _atom_site_fract_x
 _atom_site_fract_y
 _atom_site_fract_z
 _atom_site_occupancy
  Nd  Nd0  1  0.333017  0.666035  0.500000  1
  Nd  Nd1  1  0.666983  0.333965  0.500000  1
  Nd  Nd2  1  0.666983  0.333965  0.000000  1
  Nd  Nd3  1  0.333017  0.666035  0.000000  1
  Nd  Nd4  1  0.226695  0.000000  0.750000  1
  Nd  Nd5  1  0.773305  0.000000  0.250000  1
  Th  Th6  1  0.002540  0.215086  0.750000  1
  Th  Th7  1  0.997460  0.784914  0.250000  1
  Th  Th8  1  0.787454  0.784914  0.750000  1
  Th  Th9  1  0.212546  0.215086  0.250000  1
  Sn  Sn10  1  0.600240  0.000000  0.750000  1
  Sn  Sn11  1  0.399760  0.000000  0.250000  1
  Sn  Sn12  1  0.000193  0.597567  0.750000  1
  Sn  Sn13  1  0.999807  0.402433  0.250000  1
  Sn  Sn14  1  0.402625  0.402433  0.750000  1
  Sn  Sn15  1  0.597375  0.597567  0.250000  1
  C  C16  1  0.000000  0.000000  0.500000  1
  C  C17  1  0.000000  0.000000  0.000000  1
