# generated using pymatgen
data_PuP2Cl8O3
_symmetry_space_group_name_H-M   'P 1'
_cell_length_a   9.23894953
_cell_length_b   9.39666507
_cell_length_c   11.39102836
_cell_angle_alpha   70.70677845
_cell_angle_beta   70.94263358
_cell_angle_gamma   66.26651160
_symmetry_Int_Tables_number   1
_chemical_formula_structural   PuP2Cl8O3
_chemical_formula_sum   'Pu2 P4 Cl16 O6'
_cell_volume   832.72956964
_cell_formula_units_Z   2
loop_
 _symmetry_equiv_pos_site_id
 _symmetry_equiv_pos_as_xyz
  1  'x, y, z'
loop_
 _atom_site_type_symbol
 _atom_site_label
 _atom_site_symmetry_multiplicity
 _atom_site_fract_x
 _atom_site_fract_y
 _atom_site_fract_z
 _atom_site_occupancy
  Pu  Pu0  1  0.914623  0.797837  0.234798  1
  Pu  Pu1  1  0.085377  0.202163  0.765202  1
  P  P2  1  0.781633  0.215610  0.067704  1
  P  P3  1  0.229325  0.805945  0.369092  1
  P  P4  1  0.218367  0.784390  0.932296  1
  P  P5  1  0.770675  0.194055  0.630908  1
  Cl  Cl6  1  0.542312  0.271775  0.088677  1
  Cl  Cl7  1  0.778716  0.204783  0.452408  1
  Cl  Cl8  1  0.027781  0.495653  0.295982  1
  Cl  Cl9  1  0.457688  0.728225  0.911323  1
  Cl  Cl10  1  0.245156  0.196864  0.912150  1
  Cl  Cl11  1  0.289889  0.996156  0.262918  1
  Cl  Cl12  1  0.326767  0.184605  0.577241  1
  Cl  Cl13  1  0.803295  0.403068  0.098657  1
  Cl  Cl14  1  0.411014  0.616526  0.321058  1
  Cl  Cl15  1  0.196705  0.596932  0.901343  1
  Cl  Cl16  1  0.710111  0.003844  0.737082  1
  Cl  Cl17  1  0.588986  0.383474  0.678942  1
  Cl  Cl18  1  0.673233  0.815395  0.422759  1
  Cl  Cl19  1  0.754844  0.803136  0.087850  1
  Cl  Cl20  1  0.221284  0.795217  0.547592  1
  Cl  Cl21  1  0.972219  0.504347  0.704018  1
  O  O22  1  0.928794  0.186280  0.645773  1
  O  O23  1  0.838784  0.070894  0.171731  1
  O  O24  1  0.161216  0.929106  0.828269  1
  O  O25  1  0.071206  0.813720  0.354227  1
  O  O26  1  0.136189  0.797251  0.069124  1
  O  O27  1  0.863811  0.202749  0.930876  1
