# generated using pymatgen
data_Tm13Lu7(CoSb2)4
_symmetry_space_group_name_H-M   'P 1'
_cell_length_a   7.71107775
_cell_length_b   8.70317652
_cell_length_c   12.03122399
_cell_angle_alpha   90.01451724
_cell_angle_beta   89.97197268
_cell_angle_gamma   90.02245915
_symmetry_Int_Tables_number   1
_chemical_formula_structural   Tm13Lu7(CoSb2)4
_chemical_formula_sum   'Tm13 Lu7 Co4 Sb8'
_cell_volume   807.42573472
_cell_formula_units_Z   1
loop_
 _symmetry_equiv_pos_site_id
 _symmetry_equiv_pos_as_xyz
  1  'x, y, z'
loop_
 _atom_site_type_symbol
 _atom_site_label
 _atom_site_symmetry_multiplicity
 _atom_site_fract_x
 _atom_site_fract_y
 _atom_site_fract_z
 _atom_site_occupancy
  Tm  Tm0  1  0.153704  0.749880  0.203307  1
  Tm  Tm1  1  0.346100  0.750466  0.703347  1
  Tm  Tm2  1  0.846432  0.250179  0.797015  1
  Tm  Tm3  1  0.653951  0.249805  0.296542  1
  Tm  Tm4  1  0.450839  0.750153  0.997697  1
  Tm  Tm5  1  0.050238  0.750524  0.497659  1
  Tm  Tm6  1  0.549143  0.249950  0.002452  1
  Tm  Tm7  1  0.953457  0.249098  0.502188  1
  Tm  Tm8  1  0.622626  0.750889  0.308707  1
  Tm  Tm9  1  0.876333  0.749484  0.809441  1
  Tm  Tm10  1  0.375642  0.249265  0.691338  1
  Tm  Tm11  1  0.123485  0.250264  0.190768  1
  Tm  Tm12  1  0.677855  0.534954  0.564849  1
  Lu  Lu13  1  0.824924  0.535546  0.065083  1
  Lu  Lu14  1  0.674975  0.964302  0.564797  1
  Lu  Lu15  1  0.174905  0.035554  0.934990  1
  Lu  Lu16  1  0.324784  0.464233  0.434706  1
  Lu  Lu17  1  0.175087  0.464582  0.935076  1
  Lu  Lu18  1  0.324863  0.036311  0.434572  1
  Lu  Lu19  1  0.825025  0.964549  0.065126  1
  Co  Co20  1  0.434619  0.750860  0.491281  1
  Co  Co21  1  0.062768  0.750056  0.992147  1
  Co  Co22  1  0.561978  0.249461  0.507965  1
  Co  Co23  1  0.937225  0.250042  0.008037  1
  Sb  Sb24  1  0.930996  0.507304  0.327761  1
  Sb  Sb25  1  0.568202  0.992881  0.827449  1
  Sb  Sb26  1  0.067664  0.006863  0.673044  1
  Sb  Sb27  1  0.431799  0.492812  0.172495  1
  Sb  Sb28  1  0.069903  0.492497  0.673004  1
  Sb  Sb29  1  0.431328  0.007473  0.172223  1
  Sb  Sb30  1  0.931565  0.992769  0.327237  1
  Sb  Sb31  1  0.567584  0.506993  0.827698  1
