# generated using pymatgen
data_CoNi2(PdO4)2
_symmetry_space_group_name_H-M   'P 1'
_cell_length_a   5.97472231
_cell_length_b   5.97472310
_cell_length_c   5.90431065
_cell_angle_alpha   61.13013995
_cell_angle_beta   61.13013554
_cell_angle_gamma   61.14251471
_symmetry_Int_Tables_number   1
_chemical_formula_structural   CoNi2(PdO4)2
_chemical_formula_sum   'Co1 Ni2 Pd2 O8'
_cell_volume   152.83974252
_cell_formula_units_Z   1
loop_
 _symmetry_equiv_pos_site_id
 _symmetry_equiv_pos_as_xyz
  1  'x, y, z'
loop_
 _atom_site_type_symbol
 _atom_site_label
 _atom_site_symmetry_multiplicity
 _atom_site_fract_x
 _atom_site_fract_y
 _atom_site_fract_z
 _atom_site_occupancy
  Co  Co0  1  0.500000  0.500000  0.000000  1
  Ni  Ni1  1  0.000000  0.000000  0.000000  1
  Ni  Ni2  1  0.500000  0.500000  0.500000  1
  Pd  Pd3  1  0.000000  0.500000  0.000000  1
  Pd  Pd4  1  0.500000  0.000000  0.000000  1
  O  O5  1  0.288517  0.737202  0.211222  1
  O  O6  1  0.711483  0.262798  0.788778  1
  O  O7  1  0.723937  0.723937  0.799631  1
  O  O8  1  0.276063  0.276063  0.200369  1
  O  O9  1  0.751506  0.751506  0.224163  1
  O  O10  1  0.248494  0.248494  0.775837  1
  O  O11  1  0.737202  0.288517  0.211222  1
  O  O12  1  0.262798  0.711483  0.788778  1
