# generated using pymatgen
data_Tb3Tm(Zn2Cd)4
_symmetry_space_group_name_H-M   'P 1'
_cell_length_a   4.39498900
_cell_length_b   7.17053602
_cell_length_c   10.09355300
_cell_angle_alpha   90.00444269
_cell_angle_beta   90.00000000
_cell_angle_gamma   90.00000000
_symmetry_Int_Tables_number   1
_chemical_formula_structural   Tb3Tm(Zn2Cd)4
_chemical_formula_sum   'Tb3 Tm1 Zn8 Cd4'
_cell_volume   318.09253762
_cell_formula_units_Z   1
loop_
 _symmetry_equiv_pos_site_id
 _symmetry_equiv_pos_as_xyz
  1  'x, y, z'
loop_
 _atom_site_type_symbol
 _atom_site_label
 _atom_site_symmetry_multiplicity
 _atom_site_fract_x
 _atom_site_fract_y
 _atom_site_fract_z
 _atom_site_occupancy
  Tb  Tb0  1  0.250000  0.803397  0.825523  1
  Tb  Tb1  1  0.750000  0.698293  0.325664  1
  Tb  Tb2  1  0.750000  0.197017  0.173172  1
  Tm  Tm3  1  0.250000  0.303034  0.674492  1
  Zn  Zn4  1  0.250000  0.914659  0.143315  1
  Zn  Zn5  1  0.250000  0.414139  0.357038  1
  Zn  Zn6  1  0.750000  0.087488  0.855074  1
  Zn  Zn7  1  0.750000  0.582968  0.644632  1
  Zn  Zn8  1  0.250000  0.191244  0.961494  1
  Zn  Zn9  1  0.250000  0.685920  0.536267  1
  Zn  Zn10  1  0.750000  0.810638  0.035827  1
  Zn  Zn11  1  0.750000  0.310480  0.465518  1
  Cd  Cd12  1  0.250000  0.532736  0.098962  1
  Cd  Cd13  1  0.250000  0.034012  0.402311  1
  Cd  Cd14  1  0.750000  0.467303  0.901036  1
  Cd  Cd15  1  0.750000  0.966672  0.599678  1
