# generated using pymatgen
data_TbZr7(Nb3Ge4)4
_symmetry_space_group_name_H-M   'P 1'
_cell_length_a   6.88272387
_cell_length_b   7.01874527
_cell_length_c   13.41116657
_cell_angle_alpha   90.07804566
_cell_angle_beta   89.93118100
_cell_angle_gamma   90.01235536
_symmetry_Int_Tables_number   1
_chemical_formula_structural   TbZr7(Nb3Ge4)4
_chemical_formula_sum   'Tb1 Zr7 Nb12 Ge16'
_cell_volume   647.86669988
_cell_formula_units_Z   1
loop_
 _symmetry_equiv_pos_site_id
 _symmetry_equiv_pos_as_xyz
  1  'x, y, z'
loop_
 _atom_site_type_symbol
 _atom_site_label
 _atom_site_symmetry_multiplicity
 _atom_site_fract_x
 _atom_site_fract_y
 _atom_site_fract_z
 _atom_site_occupancy
  Tb  Tb0  1  0.993793  0.173127  0.091640  1
  Zr  Zr1  1  0.493065  0.326667  0.091801  1
  Zr  Zr2  1  0.990080  0.175641  0.407583  1
  Zr  Zr3  1  0.508841  0.674811  0.591375  1
  Zr  Zr4  1  0.009341  0.822448  0.905811  1
  Zr  Zr5  1  0.509133  0.676118  0.906985  1
  Zr  Zr6  1  0.009515  0.825689  0.591514  1
  Zr  Zr7  1  0.491227  0.324534  0.409115  1
  Nb  Nb8  1  0.663216  0.008996  0.749309  1
  Nb  Nb9  1  0.163146  0.492756  0.749914  1
  Nb  Nb10  1  0.337334  0.990659  0.251732  1
  Nb  Nb11  1  0.836083  0.509189  0.252356  1
  Nb  Nb12  1  0.839685  0.334472  0.624457  1
  Nb  Nb13  1  0.339549  0.165793  0.875117  1
  Nb  Nb14  1  0.160488  0.665747  0.125602  1
  Nb  Nb15  1  0.658644  0.832229  0.375952  1
  Nb  Nb16  1  0.160450  0.666288  0.376681  1
  Nb  Nb17  1  0.657461  0.831492  0.125629  1
  Nb  Nb18  1  0.837149  0.336419  0.874180  1
  Nb  Nb19  1  0.340196  0.165806  0.624732  1
  Ge  Ge20  1  0.804723  0.648800  0.748992  1
  Ge  Ge21  1  0.305498  0.852002  0.749536  1
  Ge  Ge22  1  0.197052  0.353057  0.251492  1
  Ge  Ge23  1  0.692681  0.148414  0.250690  1
  Ge  Ge24  1  0.536925  0.386477  0.749654  1
  Ge  Ge25  1  0.037250  0.114819  0.750269  1
  Ge  Ge26  1  0.461877  0.613081  0.250649  1
  Ge  Ge27  1  0.961547  0.883803  0.251396  1
  Ge  Ge28  1  0.681839  0.039568  0.539634  1
  Ge  Ge29  1  0.182644  0.463258  0.958696  1
  Ge  Ge30  1  0.324370  0.956943  0.038956  1
  Ge  Ge31  1  0.819157  0.539296  0.460662  1
  Ge  Ge32  1  0.317927  0.961603  0.460366  1
  Ge  Ge33  1  0.817952  0.542512  0.038995  1
  Ge  Ge34  1  0.679078  0.038046  0.958502  1
  Ge  Ge35  1  0.181085  0.459436  0.540022  1
