# generated using pymatgen
data_YTm2Cd3Ga2Ag
_symmetry_space_group_name_H-M   'P 1'
_cell_length_a   7.34146815
_cell_length_b   7.34146834
_cell_length_c   4.31767200
_cell_angle_alpha   90.00000000
_cell_angle_beta   90.00000000
_cell_angle_gamma   120.04225566
_symmetry_Int_Tables_number   1
_chemical_formula_structural   YTm2Cd3Ga2Ag
_chemical_formula_sum   'Y1 Tm2 Cd3 Ga2 Ag1'
_cell_volume   201.44711397
_cell_formula_units_Z   1
loop_
 _symmetry_equiv_pos_site_id
 _symmetry_equiv_pos_as_xyz
  1  'x, y, z'
loop_
 _atom_site_type_symbol
 _atom_site_label
 _atom_site_symmetry_multiplicity
 _atom_site_fract_x
 _atom_site_fract_y
 _atom_site_fract_z
 _atom_site_occupancy
  Y  Y0  1  0.420810  0.420810  0.500000  1
  Tm  Tm1  1  0.579515  0.000243  0.500000  1
  Tm  Tm2  1  0.000243  0.579515  0.500000  1
  Cd  Cd3  1  0.747963  0.747963  0.000000  1
  Cd  Cd4  1  0.252680  0.999671  0.000000  1
  Cd  Cd5  1  0.999671  0.252680  0.000000  1
  Ga  Ga6  1  0.667538  0.332947  0.000000  1
  Ga  Ga7  1  0.332947  0.667538  0.000000  1
  Ag  Ag8  1  0.998633  0.998633  0.500000  1
