# generated using pymatgen
data_Dy18Y2Ir7Rh5
_symmetry_space_group_name_H-M   'P 1'
_cell_length_a   10.86957902
_cell_length_b   10.87413079
_cell_length_c   6.38515890
_cell_angle_alpha   89.98694613
_cell_angle_beta   90.05064094
_cell_angle_gamma   89.91802300
_symmetry_Int_Tables_number   1
_chemical_formula_structural   Dy18Y2Ir7Rh5
_chemical_formula_sum   'Dy18 Y2 Ir7 Rh5'
_cell_volume   754.70696951
_cell_formula_units_Z   1
loop_
 _symmetry_equiv_pos_site_id
 _symmetry_equiv_pos_as_xyz
  1  'x, y, z'
loop_
 _atom_site_type_symbol
 _atom_site_label
 _atom_site_symmetry_multiplicity
 _atom_site_fract_x
 _atom_site_fract_y
 _atom_site_fract_z
 _atom_site_occupancy
  Dy  Dy0  1  0.708801  0.088859  0.879857  1
  Dy  Dy1  1  0.708680  0.908706  0.381192  1
  Dy  Dy2  1  0.589231  0.790378  0.881390  1
  Dy  Dy3  1  0.587618  0.209628  0.380632  1
  Dy  Dy4  1  0.410233  0.790614  0.381231  1
  Dy  Dy5  1  0.410528  0.209119  0.880923  1
  Dy  Dy6  1  0.209469  0.410816  0.618406  1
  Dy  Dy7  1  0.209281  0.589691  0.118632  1
  Dy  Dy8  1  0.790456  0.412346  0.119303  1
  Dy  Dy9  1  0.790890  0.589498  0.619285  1
  Dy  Dy10  1  0.910988  0.709622  0.118344  1
  Dy  Dy11  1  0.911368  0.291353  0.619925  1
  Dy  Dy12  1  0.089082  0.708912  0.619575  1
  Dy  Dy13  1  0.090985  0.291802  0.118939  1
  Dy  Dy14  1  0.999559  0.999863  0.500114  1
  Dy  Dy15  1  0.000046  0.000307  0.000623  1
  Dy  Dy16  1  0.499971  0.499675  0.999514  1
  Dy  Dy17  1  0.500507  0.500033  0.499940  1
  Y  Y18  1  0.289849  0.089047  0.380952  1
  Y  Y19  1  0.290241  0.910846  0.880279  1
  Ir  Ir20  1  0.845888  0.847103  0.750059  1
  Ir  Ir21  1  0.152087  0.154615  0.751047  1
  Ir  Ir22  1  0.153001  0.845487  0.251163  1
  Ir  Ir23  1  0.654794  0.345254  0.750034  1
  Ir  Ir24  1  0.654365  0.653394  0.249534  1
  Ir  Ir25  1  0.346549  0.346568  0.249923  1
  Ir  Ir26  1  0.345973  0.653039  0.749459  1
  Rh  Rh27  1  0.845518  0.154177  0.249889  1
  Rh  Rh28  1  0.502452  0.000367  0.126236  1
  Rh  Rh29  1  0.502208  0.000243  0.625255  1
  Rh  Rh30  1  0.999707  0.499464  0.874638  1
  Rh  Rh31  1  0.999677  0.499173  0.373707  1
