# generated using pymatgen
data_K2RbNbSe4
_symmetry_space_group_name_H-M   'P 1'
_cell_length_a   9.95974800
_cell_length_b   10.11927900
_cell_length_c   11.30491000
_cell_angle_alpha   90.00000000
_cell_angle_beta   90.00000000
_cell_angle_gamma   90.00000000
_symmetry_Int_Tables_number   1
_chemical_formula_structural   K2RbNbSe4
_chemical_formula_sum   'K8 Rb4 Nb4 Se16'
_cell_volume   1139.37065388
_cell_formula_units_Z   4
loop_
 _symmetry_equiv_pos_site_id
 _symmetry_equiv_pos_as_xyz
  1  'x, y, z'
loop_
 _atom_site_type_symbol
 _atom_site_label
 _atom_site_symmetry_multiplicity
 _atom_site_fract_x
 _atom_site_fract_y
 _atom_site_fract_z
 _atom_site_occupancy
  K  K0  1  0.940576  0.708282  0.451255  1
  K  K1  1  0.440576  0.791718  0.048745  1
  K  K2  1  0.559424  0.208282  0.548745  1
  K  K3  1  0.059424  0.291718  0.951255  1
  K  K4  1  0.059424  0.291718  0.548745  1
  K  K5  1  0.559424  0.208282  0.951255  1
  K  K6  1  0.440576  0.791718  0.451255  1
  K  K7  1  0.940576  0.708282  0.048745  1
  Rb  Rb8  1  0.369284  0.585117  0.750000  1
  Rb  Rb9  1  0.130716  0.085117  0.250000  1
  Rb  Rb10  1  0.630716  0.414883  0.250000  1
  Rb  Rb11  1  0.869284  0.914883  0.750000  1
  Nb  Nb12  1  0.212221  0.513811  0.250000  1
  Nb  Nb13  1  0.712221  0.986189  0.250000  1
  Nb  Nb14  1  0.287779  0.013811  0.750000  1
  Nb  Nb15  1  0.787779  0.486189  0.750000  1
  Se  Se16  1  0.332611  0.448103  0.426161  1
  Se  Se17  1  0.667389  0.551897  0.926161  1
  Se  Se18  1  0.832611  0.051897  0.073839  1
  Se  Se19  1  0.167389  0.948103  0.573839  1
  Se  Se20  1  0.010212  0.584055  0.750000  1
  Se  Se21  1  0.510212  0.915945  0.750000  1
  Se  Se22  1  0.489788  0.084055  0.250000  1
  Se  Se23  1  0.989788  0.415945  0.250000  1
  Se  Se24  1  0.810206  0.247733  0.750000  1
  Se  Se25  1  0.310206  0.252267  0.750000  1
  Se  Se26  1  0.689794  0.747733  0.250000  1
  Se  Se27  1  0.189794  0.752267  0.250000  1
  Se  Se28  1  0.667389  0.551897  0.573839  1
  Se  Se29  1  0.167389  0.948103  0.926161  1
  Se  Se30  1  0.832611  0.051897  0.426161  1
  Se  Se31  1  0.332611  0.448103  0.073839  1
