# generated using pymatgen
data_Er2MgB2IrRh4
_symmetry_space_group_name_H-M   'P 1'
_cell_length_a   9.62959100
_cell_length_b   9.62959100
_cell_length_c   3.17432000
_cell_angle_alpha   90.00000000
_cell_angle_beta   90.00000000
_cell_angle_gamma   90.00000000
_symmetry_Int_Tables_number   1
_chemical_formula_structural   Er2MgB2IrRh4
_chemical_formula_sum   'Er4 Mg2 B4 Ir2 Rh8'
_cell_volume   294.35159174
_cell_formula_units_Z   2
loop_
 _symmetry_equiv_pos_site_id
 _symmetry_equiv_pos_as_xyz
  1  'x, y, z'
loop_
 _atom_site_type_symbol
 _atom_site_label
 _atom_site_symmetry_multiplicity
 _atom_site_fract_x
 _atom_site_fract_y
 _atom_site_fract_z
 _atom_site_occupancy
  Er  Er0  1  0.676832  0.176832  0.000000  1
  Er  Er1  1  0.323168  0.823168  0.000000  1
  Er  Er2  1  0.176832  0.323168  0.000000  1
  Er  Er3  1  0.823168  0.676832  0.000000  1
  Mg  Mg4  1  0.000000  0.000000  0.000000  1
  Mg  Mg5  1  0.500000  0.500000  0.000000  1
  B  B6  1  0.122248  0.622248  0.000000  1
  B  B7  1  0.877752  0.377752  0.000000  1
  B  B8  1  0.622248  0.877752  0.000000  1
  B  B9  1  0.377752  0.122248  0.000000  1
  Ir  Ir10  1  0.500000  0.000000  0.500000  1
  Ir  Ir11  1  0.000000  0.500000  0.500000  1
  Rh  Rh12  1  0.223746  0.070612  0.500000  1
  Rh  Rh13  1  0.776254  0.929388  0.500000  1
  Rh  Rh14  1  0.070612  0.776254  0.500000  1
  Rh  Rh15  1  0.723746  0.429388  0.500000  1
  Rh  Rh16  1  0.929388  0.223746  0.500000  1
  Rh  Rh17  1  0.276254  0.570612  0.500000  1
  Rh  Rh18  1  0.570612  0.723746  0.500000  1
  Rh  Rh19  1  0.429388  0.276254  0.500000  1
