# generated using pymatgen
data_Ti5Al16Co2SiPt5
_symmetry_space_group_name_H-M   'P 1'
_cell_length_a   8.50086288
_cell_length_b   8.57050070
_cell_length_c   8.57037093
_cell_angle_alpha   59.46360352
_cell_angle_beta   60.29632814
_cell_angle_gamma   60.26735637
_symmetry_Int_Tables_number   1
_chemical_formula_structural   Ti5Al16Co2SiPt5
_chemical_formula_sum   'Ti5 Al16 Co2 Si1 Pt5'
_cell_volume   441.55479551
_cell_formula_units_Z   1
loop_
 _symmetry_equiv_pos_site_id
 _symmetry_equiv_pos_as_xyz
  1  'x, y, z'
loop_
 _atom_site_type_symbol
 _atom_site_label
 _atom_site_symmetry_multiplicity
 _atom_site_fract_x
 _atom_site_fract_y
 _atom_site_fract_z
 _atom_site_occupancy
  Ti  Ti0  1  0.705174  0.293737  0.705856  1
  Ti  Ti1  1  0.702152  0.707507  0.297847  1
  Ti  Ti2  1  0.317507  0.686649  0.682491  1
  Ti  Ti3  1  0.294147  0.704765  0.294828  1
  Ti  Ti4  1  0.293501  0.293904  0.706499  1
  Al  Al5  1  0.656676  0.109672  0.119644  1
  Al  Al6  1  0.126312  0.637110  0.113338  1
  Al  Al7  1  0.136342  0.108702  0.632951  1
  Al  Al8  1  0.118865  0.110113  0.112700  1
  Al  Al9  1  0.367051  0.877994  0.863658  1
  Al  Al10  1  0.887300  0.341679  0.881138  1
  Al  Al11  1  0.880359  0.885988  0.343325  1
  Al  Al12  1  0.886665  0.876757  0.873690  1
  Al  Al13  1  0.938056  0.341950  0.341186  1
  Al  Al14  1  0.353180  0.975224  0.333169  1
  Al  Al15  1  0.350026  0.328724  0.971924  1
  Al  Al16  1  0.386006  0.325686  0.346766  1
  Al  Al17  1  0.028080  0.650674  0.649970  1
  Al  Al18  1  0.653234  0.058456  0.613991  1
  Al  Al19  1  0.658812  0.621195  0.061944  1
  Al  Al20  1  0.666829  0.661578  0.646818  1
  Co  Co21  1  0.012035  0.989237  0.987969  1
  Co  Co22  1  0.505392  0.985896  0.494607  1
  Si  Si23  1  0.530166  0.468347  0.469827  1
  Pt  Pt24  1  0.510944  0.987781  0.988523  1
  Pt  Pt25  1  0.504403  0.495531  0.990852  1
  Pt  Pt26  1  0.011474  0.487246  0.489059  1
  Pt  Pt27  1  0.010161  0.497109  0.989835  1
  Pt  Pt28  1  0.009149  0.990787  0.495597  1
