# generated using pymatgen
data_Er4Lu12MgCo4Ag3
_symmetry_space_group_name_H-M   'P 1'
_cell_length_a   9.28220359
_cell_length_b   9.28430610
_cell_length_c   9.28411115
_cell_angle_alpha   59.96782444
_cell_angle_beta   59.93845627
_cell_angle_gamma   59.93684055
_symmetry_Int_Tables_number   1
_chemical_formula_structural   Er4Lu12MgCo4Ag3
_chemical_formula_sum   'Er4 Lu12 Mg1 Co4 Ag3'
_cell_volume   565.08062050
_cell_formula_units_Z   1
loop_
 _symmetry_equiv_pos_site_id
 _symmetry_equiv_pos_as_xyz
  1  'x, y, z'
loop_
 _atom_site_type_symbol
 _atom_site_label
 _atom_site_symmetry_multiplicity
 _atom_site_fract_x
 _atom_site_fract_y
 _atom_site_fract_z
 _atom_site_occupancy
  Er  Er0  1  0.811580  0.187835  0.812780  1
  Er  Er1  1  0.185169  0.812408  0.189932  1
  Er  Er2  1  0.811539  0.812785  0.187839  1
  Er  Er3  1  0.185133  0.189932  0.812398  1
  Lu  Lu4  1  0.596129  0.595498  0.595481  1
  Lu  Lu5  1  0.596795  0.594688  0.212983  1
  Lu  Lu6  1  0.596781  0.213012  0.594678  1
  Lu  Lu7  1  0.205175  0.598478  0.598455  1
  Lu  Lu8  1  0.061135  0.438116  0.438118  1
  Lu  Lu9  1  0.435163  0.064333  0.064276  1
  Lu  Lu10  1  0.435599  0.064030  0.436411  1
  Lu  Lu11  1  0.060671  0.438373  0.062429  1
  Lu  Lu12  1  0.435596  0.436412  0.064014  1
  Lu  Lu13  1  0.060658  0.062436  0.438388  1
  Lu  Lu14  1  0.185882  0.811319  0.811314  1
  Lu  Lu15  1  0.810503  0.188835  0.188864  1
  Mg  Mg16  1  0.532402  0.822541  0.822543  1
  Co  Co17  1  0.389942  0.391890  0.391885  1
  Co  Co18  1  0.389532  0.392472  0.826137  1
  Co  Co19  1  0.389534  0.826110  0.392477  1
  Co  Co20  1  0.826732  0.390953  0.390957  1
  Ag  Ag21  1  0.833532  0.832154  0.832143  1
  Ag  Ag22  1  0.832402  0.833163  0.502309  1
  Ag  Ag23  1  0.832423  0.502228  0.833188  1
