# generated using pymatgen
data_Dy5Ho2Er13Pb16
_symmetry_space_group_name_H-M   'P 1'
_cell_length_a   8.17041872
_cell_length_b   8.24413836
_cell_length_c   15.56516504
_cell_angle_alpha   90.01163169
_cell_angle_beta   90.01985488
_cell_angle_gamma   89.98566181
_symmetry_Int_Tables_number   1
_chemical_formula_structural   Dy5Ho2Er13Pb16
_chemical_formula_sum   'Dy5 Ho2 Er13 Pb16'
_cell_volume   1048.43924044
_cell_formula_units_Z   1
loop_
 _symmetry_equiv_pos_site_id
 _symmetry_equiv_pos_as_xyz
  1  'x, y, z'
loop_
 _atom_site_type_symbol
 _atom_site_label
 _atom_site_symmetry_multiplicity
 _atom_site_fract_x
 _atom_site_fract_y
 _atom_site_fract_z
 _atom_site_occupancy
  Dy  Dy0  1  0.963490  0.823266  0.100056  1
  Dy  Dy1  1  0.463508  0.676752  0.100010  1
  Dy  Dy2  1  0.963541  0.823197  0.399964  1
  Dy  Dy3  1  0.536461  0.323236  0.599992  1
  Dy  Dy4  1  0.036503  0.176810  0.899961  1
  Ho  Ho5  1  0.036467  0.176808  0.600091  1
  Ho  Ho6  1  0.463526  0.676768  0.399942  1
  Er  Er7  1  0.376492  0.841304  0.879069  1
  Er  Er8  1  0.876463  0.658726  0.620963  1
  Er  Er9  1  0.623533  0.158752  0.379088  1
  Er  Er10  1  0.123462  0.341173  0.120895  1
  Er  Er11  1  0.623468  0.158846  0.120800  1
  Er  Er12  1  0.123532  0.341233  0.379090  1
  Er  Er13  1  0.376493  0.841282  0.620959  1
  Er  Er14  1  0.876425  0.658663  0.879068  1
  Er  Er15  1  0.536720  0.323449  0.899876  1
  Er  Er16  1  0.208344  0.504406  0.750079  1
  Er  Er17  1  0.708192  0.995553  0.750055  1
  Er  Er18  1  0.791708  0.495498  0.249996  1
  Er  Er19  1  0.291755  0.004503  0.249976  1
  Pb  Pb20  1  0.281501  0.033197  0.042877  1
  Pb  Pb21  1  0.781522  0.466798  0.457138  1
  Pb  Pb22  1  0.718468  0.966795  0.542864  1
  Pb  Pb23  1  0.218967  0.532822  0.957072  1
  Pb  Pb24  1  0.718159  0.967051  0.957110  1
  Pb  Pb25  1  0.218425  0.533270  0.542815  1
  Pb  Pb26  1  0.281585  0.033257  0.457185  1
  Pb  Pb27  1  0.781251  0.466442  0.042586  1
  Pb  Pb28  1  0.571106  0.626928  0.750007  1
  Pb  Pb29  1  0.071157  0.872920  0.750015  1
  Pb  Pb30  1  0.428864  0.372930  0.249980  1
  Pb  Pb31  1  0.928844  0.127137  0.250029  1
  Pb  Pb32  1  0.347664  0.153785  0.750290  1
  Pb  Pb33  1  0.847296  0.346531  0.750051  1
  Pb  Pb34  1  0.652523  0.846525  0.250026  1
  Pb  Pb35  1  0.152588  0.653386  0.250022  1
