# generated using pymatgen
data_Dy8Er2(IrRu)3
_symmetry_space_group_name_H-M   'P 1'
_cell_length_a   10.83441756
_cell_length_b   10.83066000
_cell_length_c   6.39376733
_cell_angle_alpha   90.00000000
_cell_angle_beta   89.96322256
_cell_angle_gamma   90.00000000
_symmetry_Int_Tables_number   1
_chemical_formula_structural   Dy8Er2(IrRu)3
_chemical_formula_sum   'Dy16 Er4 Ir6 Ru6'
_cell_volume   750.26939395
_cell_formula_units_Z   2
loop_
 _symmetry_equiv_pos_site_id
 _symmetry_equiv_pos_as_xyz
  1  'x, y, z'
loop_
 _atom_site_type_symbol
 _atom_site_label
 _atom_site_symmetry_multiplicity
 _atom_site_fract_x
 _atom_site_fract_y
 _atom_site_fract_z
 _atom_site_occupancy
  Dy  Dy0  1  0.292544  0.086303  0.378108  1
  Dy  Dy1  1  0.292544  0.913697  0.878108  1
  Dy  Dy2  1  0.708284  0.086282  0.877681  1
  Dy  Dy3  1  0.708284  0.913718  0.377681  1
  Dy  Dy4  1  0.587350  0.792971  0.878246  1
  Dy  Dy5  1  0.587350  0.207029  0.378246  1
  Dy  Dy6  1  0.413518  0.793193  0.377612  1
  Dy  Dy7  1  0.413518  0.206807  0.877612  1
  Dy  Dy8  1  0.206818  0.413552  0.621832  1
  Dy  Dy9  1  0.206818  0.586448  0.121832  1
  Dy  Dy10  1  0.792993  0.412703  0.122261  1
  Dy  Dy11  1  0.792993  0.587297  0.622261  1
  Dy  Dy12  1  0.913503  0.707768  0.121639  1
  Dy  Dy13  1  0.913503  0.292232  0.621639  1
  Dy  Dy14  1  0.086006  0.708090  0.622652  1
  Dy  Dy15  1  0.086006  0.291910  0.122652  1
  Er  Er16  1  0.998681  0.000543  0.499851  1
  Er  Er17  1  0.998681  0.999457  0.999851  1
  Er  Er18  1  0.499936  0.500258  0.000133  1
  Er  Er19  1  0.499936  0.499742  0.500133  1
  Ir  Ir20  1  0.152862  0.152534  0.750197  1
  Ir  Ir21  1  0.152862  0.847466  0.250197  1
  Ir  Ir22  1  0.651349  0.348975  0.749749  1
  Ir  Ir23  1  0.651349  0.651025  0.249749  1
  Ir  Ir24  1  0.348429  0.347972  0.250289  1
  Ir  Ir25  1  0.348429  0.652028  0.750289  1
  Ru  Ru26  1  0.847942  0.152163  0.249784  1
  Ru  Ru27  1  0.847942  0.847837  0.749784  1
  Ru  Ru28  1  0.500103  0.000154  0.122161  1
  Ru  Ru29  1  0.500103  0.999846  0.622161  1
  Ru  Ru30  1  0.999682  0.500345  0.877806  1
  Ru  Ru31  1  0.999682  0.499655  0.377806  1
