# generated using pymatgen
data_ZrTc6PdO24
_symmetry_space_group_name_H-M   'P 1'
_cell_length_a   10.48373401
_cell_length_b   10.48373308
_cell_length_c   10.48373198
_cell_angle_alpha   49.04577320
_cell_angle_beta   49.04578560
_cell_angle_gamma   49.04578611
_symmetry_Int_Tables_number   1
_chemical_formula_structural   ZrTc6PdO24
_chemical_formula_sum   'Zr1 Tc6 Pd1 O24'
_cell_volume   603.51003181
_cell_formula_units_Z   1
loop_
 _symmetry_equiv_pos_site_id
 _symmetry_equiv_pos_as_xyz
  1  'x, y, z'
loop_
 _atom_site_type_symbol
 _atom_site_label
 _atom_site_symmetry_multiplicity
 _atom_site_fract_x
 _atom_site_fract_y
 _atom_site_fract_z
 _atom_site_occupancy
  Zr  Zr0  1  0.500000  0.500000  0.500000  1
  Tc  Tc1  1  0.579418  0.943019  0.236741  1
  Tc  Tc2  1  0.236741  0.579418  0.943019  1
  Tc  Tc3  1  0.943019  0.236741  0.579418  1
  Tc  Tc4  1  0.763259  0.420582  0.056981  1
  Tc  Tc5  1  0.056981  0.763259  0.420582  1
  Tc  Tc6  1  0.420582  0.056981  0.763259  1
  Pd  Pd7  1  0.000000  0.000000  0.000000  1
  O  O8  1  0.805323  0.875402  0.190973  1
  O  O9  1  0.190973  0.805323  0.875402  1
  O  O10  1  0.875402  0.190973  0.805323  1
  O  O11  1  0.646014  0.461767  0.257925  1
  O  O12  1  0.257925  0.646014  0.461767  1
  O  O13  1  0.461767  0.257925  0.646014  1
  O  O14  1  0.194677  0.124598  0.809027  1
  O  O15  1  0.809027  0.194677  0.124598  1
  O  O16  1  0.124598  0.809027  0.194677  1
  O  O17  1  0.353986  0.538233  0.742075  1
  O  O18  1  0.742075  0.353986  0.538233  1
  O  O19  1  0.538233  0.742075  0.353986  1
  O  O20  1  0.428434  0.064889  0.371203  1
  O  O21  1  0.371203  0.428434  0.064889  1
  O  O22  1  0.064889  0.371203  0.428434  1
  O  O23  1  0.965642  0.448976  0.921859  1
  O  O24  1  0.921859  0.965642  0.448976  1
  O  O25  1  0.448976  0.921859  0.965642  1
  O  O26  1  0.571566  0.935111  0.628797  1
  O  O27  1  0.628797  0.571566  0.935111  1
  O  O28  1  0.935111  0.628797  0.571566  1
  O  O29  1  0.034358  0.551024  0.078141  1
  O  O30  1  0.078141  0.034358  0.551024  1
  O  O31  1  0.551024  0.078141  0.034358  1
