# generated using pymatgen
data_Ho3LuGa4IrPd3
_symmetry_space_group_name_H-M   'P 1'
_cell_length_a   4.44083900
_cell_length_b   6.85328862
_cell_length_c   7.67026600
_cell_angle_alpha   89.63165788
_cell_angle_beta   90.00000000
_cell_angle_gamma   90.00000000
_symmetry_Int_Tables_number   1
_chemical_formula_structural   Ho3LuGa4IrPd3
_chemical_formula_sum   'Ho3 Lu1 Ga4 Ir1 Pd3'
_cell_volume   233.43474672
_cell_formula_units_Z   1
loop_
 _symmetry_equiv_pos_site_id
 _symmetry_equiv_pos_as_xyz
  1  'x, y, z'
loop_
 _atom_site_type_symbol
 _atom_site_label
 _atom_site_symmetry_multiplicity
 _atom_site_fract_x
 _atom_site_fract_y
 _atom_site_fract_z
 _atom_site_occupancy
  Ho  Ho0  1  0.250000  0.988779  0.305055  1
  Ho  Ho1  1  0.750000  0.024768  0.689941  1
  Ho  Ho2  1  0.750000  0.520313  0.807075  1
  Lu  Lu3  1  0.250000  0.477572  0.199941  1
  Ga  Ga4  1  0.250000  0.329886  0.569695  1
  Ga  Ga5  1  0.250000  0.828214  0.930046  1
  Ga  Ga6  1  0.750000  0.661992  0.428209  1
  Ga  Ga7  1  0.750000  0.172526  0.071968  1
  Ir  Ir8  1  0.750000  0.273618  0.392867  1
  Pd  Pd9  1  0.250000  0.224940  0.898762  1
  Pd  Pd10  1  0.250000  0.722530  0.603306  1
  Pd  Pd11  1  0.750000  0.774862  0.103134  1
