# generated using pymatgen
data_Rb2Tb(BiSe2)5
_symmetry_space_group_name_H-M   'P 1'
_cell_length_a   4.19661200
_cell_length_b   12.49961772
_cell_length_c   22.40035601
_cell_angle_alpha   90.05976748
_cell_angle_beta   90.00000000
_cell_angle_gamma   90.00000000
_symmetry_Int_Tables_number   1
_chemical_formula_structural   Rb2Tb(BiSe2)5
_chemical_formula_sum   'Rb4 Tb2 Bi10 Se20'
_cell_volume   1175.03345976
_cell_formula_units_Z   2
loop_
 _symmetry_equiv_pos_site_id
 _symmetry_equiv_pos_as_xyz
  1  'x, y, z'
loop_
 _atom_site_type_symbol
 _atom_site_label
 _atom_site_symmetry_multiplicity
 _atom_site_fract_x
 _atom_site_fract_y
 _atom_site_fract_z
 _atom_site_occupancy
  Rb  Rb0  1  0.250000  0.489263  0.210505  1
  Rb  Rb1  1  0.750000  0.510737  0.789495  1
  Rb  Rb2  1  0.750000  0.990235  0.287368  1
  Rb  Rb3  1  0.250000  0.009765  0.712632  1
  Tb  Tb4  1  0.250000  0.363561  0.023501  1
  Tb  Tb5  1  0.750000  0.636439  0.976499  1
  Bi  Bi6  1  0.750000  0.863535  0.475167  1
  Bi  Bi7  1  0.250000  0.136465  0.524833  1
  Bi  Bi8  1  0.250000  0.802096  0.125099  1
  Bi  Bi9  1  0.750000  0.197904  0.874901  1
  Bi  Bi10  1  0.750000  0.304605  0.373638  1
  Bi  Bi11  1  0.250000  0.695395  0.626362  1
  Bi  Bi12  1  0.250000  0.593268  0.424453  1
  Bi  Bi13  1  0.750000  0.406732  0.575547  1
  Bi  Bi14  1  0.750000  0.096667  0.075891  1
  Bi  Bi15  1  0.250000  0.903333  0.924109  1
  Se  Se16  1  0.250000  0.807093  0.386028  1
  Se  Se17  1  0.750000  0.192907  0.613972  1
  Se  Se18  1  0.750000  0.311713  0.109012  1
  Se  Se19  1  0.250000  0.688287  0.890988  1
  Se  Se20  1  0.250000  0.249212  0.295547  1
  Se  Se21  1  0.750000  0.750788  0.704453  1
  Se  Se22  1  0.750000  0.748585  0.203303  1
  Se  Se23  1  0.250000  0.251415  0.796697  1
  Se  Se24  1  0.250000  0.361233  0.480184  1
  Se  Se25  1  0.750000  0.638767  0.519816  1
  Se  Se26  1  0.750000  0.855596  0.018750  1
  Se  Se27  1  0.250000  0.144404  0.981250  1
  Se  Se28  1  0.250000  0.024998  0.157609  1
  Se  Se29  1  0.750000  0.975002  0.842391  1
  Se  Se30  1  0.750000  0.526619  0.340981  1
  Se  Se31  1  0.250000  0.473381  0.659019  1
  Se  Se32  1  0.250000  0.582371  0.060314  1
  Se  Se33  1  0.750000  0.417629  0.939686  1
  Se  Se34  1  0.750000  0.084234  0.436080  1
  Se  Se35  1  0.250000  0.915766  0.563920  1
