# generated using pymatgen
data_Ce2Si2(Tc5C)3
_symmetry_space_group_name_H-M   'P 1'
_cell_length_a   6.92996420
_cell_length_b   6.95391139
_cell_length_c   6.92996311
_cell_angle_alpha   82.50538613
_cell_angle_beta   82.96305095
_cell_angle_gamma   82.50539159
_symmetry_Int_Tables_number   1
_chemical_formula_structural   Ce2Si2(Tc5C)3
_chemical_formula_sum   'Ce2 Si2 Tc15 C3'
_cell_volume   326.37982623
_cell_formula_units_Z   1
loop_
 _symmetry_equiv_pos_site_id
 _symmetry_equiv_pos_as_xyz
  1  'x, y, z'
loop_
 _atom_site_type_symbol
 _atom_site_label
 _atom_site_symmetry_multiplicity
 _atom_site_fract_x
 _atom_site_fract_y
 _atom_site_fract_z
 _atom_site_occupancy
  Ce  Ce0  1  0.653666  0.655228  0.653666  1
  Ce  Ce1  1  0.346334  0.344772  0.346334  1
  Si  Si2  1  0.000000  0.000000  0.500000  1
  Si  Si3  1  0.500000  0.000000  0.000000  1
  Tc  Tc4  1  0.000000  0.500000  0.000000  1
  Tc  Tc5  1  0.277911  0.724906  0.996637  1
  Tc  Tc6  1  0.723594  0.000000  0.276406  1
  Tc  Tc7  1  0.003363  0.275094  0.722089  1
  Tc  Tc8  1  0.276406  0.000000  0.723594  1
  Tc  Tc9  1  0.996637  0.724906  0.277911  1
  Tc  Tc10  1  0.722089  0.275094  0.003363  1
  Tc  Tc11  1  0.353834  0.349472  0.854053  1
  Tc  Tc12  1  0.344020  0.861040  0.344020  1
  Tc  Tc13  1  0.854053  0.349472  0.353834  1
  Tc  Tc14  1  0.646166  0.650528  0.145947  1
  Tc  Tc15  1  0.655980  0.138960  0.655980  1
  Tc  Tc16  1  0.145947  0.650528  0.646166  1
  Tc  Tc17  1  0.900500  0.900700  0.900500  1
  Tc  Tc18  1  0.099500  0.099300  0.099500  1
  C  C19  1  0.500000  0.500000  0.000000  1
  C  C20  1  0.500000  0.000000  0.500000  1
  C  C21  1  0.000000  0.500000  0.500000  1
