# generated using pymatgen
data_TbEr4(FeB3)2
_symmetry_space_group_name_H-M   'P 1'
_cell_length_a   8.24409698
_cell_length_b   8.24409738
_cell_length_c   8.24409654
_cell_angle_alpha   38.28509523
_cell_angle_beta   38.28510511
_cell_angle_gamma   38.28509285
_symmetry_Int_Tables_number   1
_chemical_formula_structural   TbEr4(FeB3)2
_chemical_formula_sum   'Tb1 Er4 Fe2 B6'
_cell_volume   193.17453748
_cell_formula_units_Z   1
loop_
 _symmetry_equiv_pos_site_id
 _symmetry_equiv_pos_as_xyz
  1  'x, y, z'
loop_
 _atom_site_type_symbol
 _atom_site_label
 _atom_site_symmetry_multiplicity
 _atom_site_fract_x
 _atom_site_fract_y
 _atom_site_fract_z
 _atom_site_occupancy
  Tb  Tb0  1  0.000000  0.000000  0.000000  1
  Er  Er1  1  0.583069  0.583069  0.583069  1
  Er  Er2  1  0.416931  0.416931  0.416931  1
  Er  Er3  1  0.749201  0.749201  0.749201  1
  Er  Er4  1  0.250799  0.250799  0.250799  1
  Fe  Fe5  1  0.882495  0.882495  0.882495  1
  Fe  Fe6  1  0.117505  0.117505  0.117505  1
  B  B7  1  0.500000  0.832236  0.167764  1
  B  B8  1  0.167764  0.500000  0.832236  1
  B  B9  1  0.832236  0.167764  0.500000  1
  B  B10  1  0.500000  0.167764  0.832236  1
  B  B11  1  0.832236  0.500000  0.167764  1
  B  B12  1  0.167764  0.832236  0.500000  1
