# generated using pymatgen
data_DyFeMo(PRh)3
_symmetry_space_group_name_H-M   'P 1'
_cell_length_a   3.86781600
_cell_length_b   10.76589700
_cell_length_c   12.42272600
_cell_angle_alpha   90.00000000
_cell_angle_beta   90.00000000
_cell_angle_gamma   90.00000000
_symmetry_Int_Tables_number   1
_chemical_formula_structural   DyFeMo(PRh)3
_chemical_formula_sum   'Dy4 Fe4 Mo4 P12 Rh12'
_cell_volume   517.28862972
_cell_formula_units_Z   4
loop_
 _symmetry_equiv_pos_site_id
 _symmetry_equiv_pos_as_xyz
  1  'x, y, z'
loop_
 _atom_site_type_symbol
 _atom_site_label
 _atom_site_symmetry_multiplicity
 _atom_site_fract_x
 _atom_site_fract_y
 _atom_site_fract_z
 _atom_site_occupancy
  Dy  Dy0  1  0.250000  0.582802  0.709013  1
  Dy  Dy1  1  0.250000  0.917198  0.209013  1
  Dy  Dy2  1  0.750000  0.417198  0.290987  1
  Dy  Dy3  1  0.750000  0.082802  0.790987  1
  Fe  Fe4  1  0.250000  0.462686  0.936469  1
  Fe  Fe5  1  0.250000  0.037314  0.436469  1
  Fe  Fe6  1  0.750000  0.537314  0.063531  1
  Fe  Fe7  1  0.750000  0.962686  0.563531  1
  Mo  Mo8  1  0.250000  0.703901  0.988025  1
  Mo  Mo9  1  0.250000  0.796099  0.488025  1
  Mo  Mo10  1  0.750000  0.296099  0.011975  1
  Mo  Mo11  1  0.750000  0.203901  0.511975  1
  P  P12  1  0.250000  0.426152  0.106960  1
  P  P13  1  0.250000  0.073848  0.606960  1
  P  P14  1  0.750000  0.573848  0.893040  1
  P  P15  1  0.750000  0.926152  0.393040  1
  P  P16  1  0.250000  0.270444  0.871200  1
  P  P17  1  0.250000  0.229556  0.371200  1
  P  P18  1  0.750000  0.729556  0.128800  1
  P  P19  1  0.750000  0.770444  0.628800  1
  P  P20  1  0.250000  0.600761  0.391871  1
  P  P21  1  0.250000  0.899239  0.891871  1
  P  P22  1  0.750000  0.399239  0.608129  1
  P  P23  1  0.750000  0.100761  0.108129  1
  Rh  Rh24  1  0.250000  0.405476  0.485121  1
  Rh  Rh25  1  0.250000  0.094524  0.985121  1
  Rh  Rh26  1  0.750000  0.594524  0.514879  1
  Rh  Rh27  1  0.750000  0.905476  0.014879  1
  Rh  Rh28  1  0.250000  0.230739  0.179054  1
  Rh  Rh29  1  0.250000  0.269261  0.679054  1
  Rh  Rh30  1  0.750000  0.769261  0.820946  1
  Rh  Rh31  1  0.750000  0.730739  0.320946  1
  Rh  Rh32  1  0.250000  0.888643  0.701372  1
  Rh  Rh33  1  0.250000  0.611357  0.201372  1
  Rh  Rh34  1  0.750000  0.111357  0.298628  1
  Rh  Rh35  1  0.750000  0.388643  0.798628  1
