# generated using pymatgen
data_Zr3ScRe5Os3
_symmetry_space_group_name_H-M   'P 1'
_cell_length_a   5.26530292
_cell_length_b   5.26530282
_cell_length_c   8.75808795
_cell_angle_alpha   89.95356268
_cell_angle_beta   90.04644016
_cell_angle_gamma   121.02465313
_symmetry_Int_Tables_number   1
_chemical_formula_structural   Zr3ScRe5Os3
_chemical_formula_sum   'Zr3 Sc1 Re5 Os3'
_cell_volume   208.06981850
_cell_formula_units_Z   1
loop_
 _symmetry_equiv_pos_site_id
 _symmetry_equiv_pos_as_xyz
  1  'x, y, z'
loop_
 _atom_site_type_symbol
 _atom_site_label
 _atom_site_symmetry_multiplicity
 _atom_site_fract_x
 _atom_site_fract_y
 _atom_site_fract_z
 _atom_site_occupancy
  Zr  Zr0  1  0.334608  0.665392  0.430150  1
  Zr  Zr1  1  0.665996  0.334004  0.565231  1
  Zr  Zr2  1  0.666031  0.333969  0.937414  1
  Sc  Sc3  1  0.335322  0.664678  0.063673  1
  Re  Re4  1  0.170413  0.342955  0.750307  1
  Re  Re5  1  0.171765  0.828235  0.750684  1
  Re  Re6  1  0.340047  0.171669  0.249809  1
  Re  Re7  1  0.828331  0.659953  0.249809  1
  Re  Re8  1  0.657045  0.829587  0.750307  1
  Os  Os9  1  0.003035  0.996965  0.002647  1
  Os  Os10  1  0.824402  0.175598  0.250481  1
  Os  Os11  1  0.003003  0.996997  0.499487  1
