# generated using pymatgen
data_SmTh(Ni2B)12
_symmetry_space_group_name_H-M   'P 1'
_cell_length_a   6.02816778
_cell_length_b   6.02816736
_cell_length_c   11.01280535
_cell_angle_alpha   89.92470056
_cell_angle_beta   89.92470255
_cell_angle_gamma   104.66204334
_symmetry_Int_Tables_number   1
_chemical_formula_structural   SmTh(Ni2B)12
_chemical_formula_sum   'Sm1 Th1 Ni24 B12'
_cell_volume   387.15928338
_cell_formula_units_Z   1
loop_
 _symmetry_equiv_pos_site_id
 _symmetry_equiv_pos_as_xyz
  1  'x, y, z'
loop_
 _atom_site_type_symbol
 _atom_site_label
 _atom_site_symmetry_multiplicity
 _atom_site_fract_x
 _atom_site_fract_y
 _atom_site_fract_z
 _atom_site_occupancy
  Sm  Sm0  1  0.166242  0.166242  0.996959  1
  Th  Th1  1  0.831723  0.831723  0.496240  1
  Ni  Ni2  1  0.566440  0.566440  0.918485  1
  Ni  Ni3  1  0.434253  0.434253  0.419043  1
  Ni  Ni4  1  0.779321  0.779321  0.098395  1
  Ni  Ni5  1  0.218858  0.218858  0.599232  1
  Ni  Ni6  1  0.543010  0.804782  0.734322  1
  Ni  Ni7  1  0.804782  0.543010  0.734322  1
  Ni  Ni8  1  0.458099  0.196576  0.234038  1
  Ni  Ni9  1  0.196576  0.458099  0.234038  1
  Ni  Ni10  1  0.145756  0.880599  0.755658  1
  Ni  Ni11  1  0.880599  0.145756  0.755658  1
  Ni  Ni12  1  0.853416  0.120046  0.255093  1
  Ni  Ni13  1  0.120046  0.853416  0.255093  1
  Ni  Ni14  1  0.658114  0.270411  0.567610  1
  Ni  Ni15  1  0.270411  0.658114  0.567610  1
  Ni  Ni16  1  0.341994  0.729745  0.067605  1
  Ni  Ni17  1  0.729745  0.341994  0.067605  1
  Ni  Ni18  1  0.629215  0.995484  0.937477  1
  Ni  Ni19  1  0.995484  0.629215  0.937477  1
  Ni  Ni20  1  0.369595  0.004802  0.437269  1
  Ni  Ni21  1  0.004802  0.369595  0.437269  1
  Ni  Ni22  1  0.474202  0.211789  0.775914  1
  Ni  Ni23  1  0.211789  0.474202  0.775914  1
  Ni  Ni24  1  0.526997  0.788305  0.275974  1
  Ni  Ni25  1  0.788305  0.526997  0.275974  1
  B  B26  1  0.836334  0.836334  0.837104  1
  B  B27  1  0.163202  0.163202  0.334384  1
  B  B28  1  0.487619  0.487619  0.657157  1
  B  B29  1  0.512192  0.512192  0.154874  1
  B  B30  1  0.325271  0.755750  0.885602  1
  B  B31  1  0.755750  0.325271  0.885602  1
  B  B32  1  0.674731  0.244781  0.385199  1
  B  B33  1  0.244781  0.674731  0.385199  1
  B  B34  1  0.400508  0.987033  0.622627  1
  B  B35  1  0.987033  0.400508  0.622627  1
  B  B36  1  0.600031  0.012779  0.122673  1
  B  B37  1  0.012779  0.600031  0.122673  1
