# generated using pymatgen
data_Zr2V2Co10Si7
_symmetry_space_group_name_H-M   'P 1'
_cell_length_a   9.12192269
_cell_length_b   9.11578014
_cell_length_c   3.60387600
_cell_angle_alpha   90.00000000
_cell_angle_beta   90.00000000
_cell_angle_gamma   120.40231772
_symmetry_Int_Tables_number   1
_chemical_formula_structural   Zr2V2Co10Si7
_chemical_formula_sum   'Zr2 V2 Co10 Si7'
_cell_volume   258.46738433
_cell_formula_units_Z   1
loop_
 _symmetry_equiv_pos_site_id
 _symmetry_equiv_pos_as_xyz
  1  'x, y, z'
loop_
 _atom_site_type_symbol
 _atom_site_label
 _atom_site_symmetry_multiplicity
 _atom_site_fract_x
 _atom_site_fract_y
 _atom_site_fract_z
 _atom_site_occupancy
  Zr  Zr0  1  0.996357  0.997280  0.000000  1
  Zr  Zr1  1  0.334568  0.668417  0.500000  1
  V  V2  1  0.884846  0.441225  0.500000  1
  V  V3  1  0.554857  0.440574  0.500000  1
  Co  Co4  1  0.294386  0.392022  0.000000  1
  Co  Co5  1  0.098326  0.707031  0.000000  1
  Co  Co6  1  0.382583  0.175302  0.000000  1
  Co  Co7  1  0.784410  0.608876  0.000000  1
  Co  Co8  1  0.824891  0.210961  0.000000  1
  Co  Co9  1  0.232187  0.949099  0.500000  1
  Co  Co10  1  0.050542  0.283035  0.500000  1
  Co  Co11  1  0.718135  0.771569  0.500000  1
  Co  Co12  1  0.568421  0.112893  0.500000  1
  Co  Co13  1  0.611381  0.907867  0.000000  1
  Si  Si14  1  0.660116  0.321970  0.000000  1
  Si  Si15  1  0.085138  0.452169  0.000000  1
  Si  Si16  1  0.253316  0.211471  0.500000  1
  Si  Si17  1  0.784246  0.045298  0.500000  1
  Si  Si18  1  0.957757  0.742472  0.500000  1
  Si  Si19  1  0.549510  0.634521  0.000000  1
  Si  Si20  1  0.374025  0.925951  0.000000  1
