# generated using pymatgen
data_Ca20Cd3InPt8
_symmetry_space_group_name_H-M   'P 1'
_cell_length_a   7.96489900
_cell_length_b   7.96489900
_cell_length_c   14.60210500
_cell_angle_alpha   90.00000000
_cell_angle_beta   90.00000000
_cell_angle_gamma   90.00000000
_symmetry_Int_Tables_number   1
_chemical_formula_structural   Ca20Cd3InPt8
_chemical_formula_sum   'Ca20 Cd3 In1 Pt8'
_cell_volume   926.35193516
_cell_formula_units_Z   1
loop_
 _symmetry_equiv_pos_site_id
 _symmetry_equiv_pos_as_xyz
  1  'x, y, z'
loop_
 _atom_site_type_symbol
 _atom_site_label
 _atom_site_symmetry_multiplicity
 _atom_site_fract_x
 _atom_site_fract_y
 _atom_site_fract_z
 _atom_site_occupancy
  Ca  Ca0  1  0.666681  0.164738  0.118455  1
  Ca  Ca1  1  0.165582  0.665257  0.620897  1
  Ca  Ca2  1  0.333319  0.835262  0.118455  1
  Ca  Ca3  1  0.834418  0.334743  0.620897  1
  Ca  Ca4  1  0.835262  0.666681  0.118455  1
  Ca  Ca5  1  0.334743  0.165582  0.620897  1
  Ca  Ca6  1  0.164738  0.333319  0.118455  1
  Ca  Ca7  1  0.665257  0.834418  0.620897  1
  Ca  Ca8  1  0.835262  0.333319  0.881545  1
  Ca  Ca9  1  0.334743  0.834418  0.379103  1
  Ca  Ca10  1  0.164738  0.666681  0.881545  1
  Ca  Ca11  1  0.665257  0.165582  0.379103  1
  Ca  Ca12  1  0.666681  0.835262  0.881545  1
  Ca  Ca13  1  0.165582  0.334743  0.379103  1
  Ca  Ca14  1  0.333319  0.164738  0.881545  1
  Ca  Ca15  1  0.834418  0.665257  0.379103  1
  Ca  Ca16  1  0.500000  0.500000  0.752285  1
  Ca  Ca17  1  0.000000  0.000000  0.248179  1
  Ca  Ca18  1  0.000000  0.000000  0.751821  1
  Ca  Ca19  1  0.500000  0.500000  0.247715  1
  Cd  Cd20  1  0.500000  0.500000  0.500000  1
  Cd  Cd21  1  0.500000  0.500000  0.000000  1
  Cd  Cd22  1  0.000000  0.000000  0.500000  1
  In  In23  1  0.000000  0.000000  0.000000  1
  Pt  Pt24  1  0.629672  0.129888  0.750663  1
  Pt  Pt25  1  0.129888  0.629672  0.249337  1
  Pt  Pt26  1  0.870112  0.370328  0.249337  1
  Pt  Pt27  1  0.370328  0.870112  0.750663  1
  Pt  Pt28  1  0.870112  0.629672  0.750663  1
  Pt  Pt29  1  0.370328  0.129888  0.249337  1
  Pt  Pt30  1  0.129888  0.370328  0.750663  1
  Pt  Pt31  1  0.629672  0.870112  0.249337  1
