# generated using pymatgen
data_Hf2TiPt5
_symmetry_space_group_name_H-M   'P 1'
_cell_length_a   7.63116360
_cell_length_b   7.63116303
_cell_length_c   7.63116289
_cell_angle_alpha   137.16836175
_cell_angle_beta   111.39679753
_cell_angle_gamma   84.36566980
_symmetry_Int_Tables_number   1
_chemical_formula_structural   Hf2TiPt5
_chemical_formula_sum   'Hf4 Ti2 Pt10'
_cell_volume   271.04267915
_cell_formula_units_Z   2
loop_
 _symmetry_equiv_pos_site_id
 _symmetry_equiv_pos_as_xyz
  1  'x, y, z'
loop_
 _atom_site_type_symbol
 _atom_site_label
 _atom_site_symmetry_multiplicity
 _atom_site_fract_x
 _atom_site_fract_y
 _atom_site_fract_z
 _atom_site_occupancy
  Hf  Hf0  1  0.646216  0.443559  0.797343  1
  Hf  Hf1  1  0.853784  0.151126  0.297343  1
  Hf  Hf2  1  0.353784  0.556441  0.202657  1
  Hf  Hf3  1  0.146216  0.848874  0.702657  1
  Ti  Ti4  1  0.750000  0.000000  0.750000  1
  Ti  Ti5  1  0.250000  0.000000  0.250000  1
  Pt  Pt6  1  0.097693  0.299403  0.201711  1
  Pt  Pt7  1  0.402307  0.104019  0.701711  1
  Pt  Pt8  1  0.902307  0.700597  0.798289  1
  Pt  Pt9  1  0.597693  0.895981  0.298289  1
  Pt  Pt10  1  0.989718  0.239718  0.750000  1
  Pt  Pt11  1  0.510282  0.760282  0.750000  1
  Pt  Pt12  1  0.010282  0.760282  0.250000  1
  Pt  Pt13  1  0.489718  0.239718  0.250000  1
  Pt  Pt14  1  0.250000  0.500000  0.750000  1
  Pt  Pt15  1  0.750000  0.500000  0.250000  1
