# generated using pymatgen
data_Ho19Lu(Bi2Ir)4
_symmetry_space_group_name_H-M   'P 1'
_cell_length_a   7.96293750
_cell_length_b   8.98552266
_cell_length_c   12.47572047
_cell_angle_alpha   89.97794823
_cell_angle_beta   90.08254094
_cell_angle_gamma   89.96205121
_symmetry_Int_Tables_number   1
_chemical_formula_structural   Ho19Lu(Bi2Ir)4
_chemical_formula_sum   'Ho19 Lu1 Bi8 Ir4'
_cell_volume   892.65102500
_cell_formula_units_Z   1
loop_
 _symmetry_equiv_pos_site_id
 _symmetry_equiv_pos_as_xyz
  1  'x, y, z'
loop_
 _atom_site_type_symbol
 _atom_site_label
 _atom_site_symmetry_multiplicity
 _atom_site_fract_x
 _atom_site_fract_y
 _atom_site_fract_z
 _atom_site_occupancy
  Ho  Ho0  1  0.838956  0.750155  0.793834  1
  Ho  Ho1  1  0.160834  0.249954  0.205990  1
  Ho  Ho2  1  0.339576  0.249762  0.705947  1
  Ho  Ho3  1  0.660756  0.750074  0.294222  1
  Ho  Ho4  1  0.376292  0.750192  0.690959  1
  Ho  Ho5  1  0.624571  0.249583  0.309054  1
  Ho  Ho6  1  0.875596  0.249958  0.808706  1
  Ho  Ho7  1  0.124290  0.750029  0.191232  1
  Ho  Ho8  1  0.946543  0.750527  0.501760  1
  Ho  Ho9  1  0.052345  0.249617  0.498340  1
  Ho  Ho10  1  0.447480  0.249926  0.998380  1
  Ho  Ho11  1  0.552562  0.749992  0.001646  1
  Ho  Ho12  1  0.324657  0.958163  0.434124  1
  Ho  Ho13  1  0.175912  0.957940  0.933841  1
  Ho  Ho14  1  0.324154  0.541691  0.434020  1
  Ho  Ho15  1  0.824102  0.041981  0.066152  1
  Ho  Ho16  1  0.675812  0.458010  0.566124  1
  Ho  Ho17  1  0.824120  0.457975  0.066098  1
  Ho  Ho18  1  0.175944  0.542013  0.933844  1
  Lu  Lu19  1  0.673107  0.041969  0.565611  1
  Bi  Bi20  1  0.566639  0.491420  0.826711  1
  Bi  Bi21  1  0.433413  0.508507  0.173389  1
  Bi  Bi22  1  0.066640  0.508510  0.673277  1
  Bi  Bi23  1  0.433380  0.991501  0.173312  1
  Bi  Bi24  1  0.933466  0.491433  0.326716  1
  Bi  Bi25  1  0.566800  0.008621  0.826472  1
  Bi  Bi26  1  0.933753  0.008598  0.326600  1
  Bi  Bi27  1  0.065754  0.991633  0.673047  1
  Ir  Ir28  1  0.572507  0.751147  0.508978  1
  Ir  Ir29  1  0.430023  0.249136  0.491701  1
  Ir  Ir30  1  0.071588  0.249985  0.991160  1
  Ir  Ir31  1  0.928429  0.749997  0.008753  1
