# generated using pymatgen
data_Nb3Ge3MoRu2
_symmetry_space_group_name_H-M   'P 1'
_cell_length_a   7.66209984
_cell_length_b   7.66209874
_cell_length_c   7.66210018
_cell_angle_alpha   126.96241074
_cell_angle_beta   124.41697322
_cell_angle_gamma   80.41547231
_symmetry_Int_Tables_number   1
_chemical_formula_structural   Nb3Ge3MoRu2
_chemical_formula_sum   'Nb6 Ge6 Mo2 Ru4'
_cell_volume   286.06737305
_cell_formula_units_Z   2
loop_
 _symmetry_equiv_pos_site_id
 _symmetry_equiv_pos_as_xyz
  1  'x, y, z'
loop_
 _atom_site_type_symbol
 _atom_site_label
 _atom_site_symmetry_multiplicity
 _atom_site_fract_x
 _atom_site_fract_y
 _atom_site_fract_z
 _atom_site_occupancy
  Nb  Nb0  1  0.560422  0.097880  0.037459  1
  Nb  Nb1  1  0.439578  0.477037  0.537459  1
  Nb  Nb2  1  0.961953  0.490495  0.028542  1
  Nb  Nb3  1  0.038047  0.066588  0.528542  1
  Nb  Nb4  1  0.751225  0.919726  0.668501  1
  Nb  Nb5  1  0.248775  0.917275  0.168501  1
  Ge  Ge6  1  0.782517  0.553807  0.271290  1
  Ge  Ge7  1  0.217483  0.488772  0.771290  1
  Ge  Ge8  1  0.333801  0.818180  0.491507  1
  Ge  Ge9  1  0.666199  0.157705  0.484378  1
  Ge  Ge10  1  0.826673  0.818180  0.984378  1
  Ge  Ge11  1  0.173327  0.157705  0.991507  1
  Mo  Mo12  1  0.500000  0.248587  0.748587  1
  Mo  Mo13  1  0.000000  0.248587  0.248587  1
  Ru  Ru14  1  0.169271  0.748588  0.661520  1
  Ru  Ru15  1  0.830729  0.492249  0.579317  1
  Ru  Ru16  1  0.587068  0.748588  0.079317  1
  Ru  Ru17  1  0.412932  0.492249  0.161520  1
