# generated using pymatgen
data_CeLu(AlIr)2
_symmetry_space_group_name_H-M   'P 1'
_cell_length_a   6.79327300
_cell_length_b   4.28400800
_cell_length_c   7.91056500
_cell_angle_alpha   90.00000000
_cell_angle_beta   90.00000000
_cell_angle_gamma   90.00000000
_symmetry_Int_Tables_number   1
_chemical_formula_structural   CeLu(AlIr)2
_chemical_formula_sum   'Ce2 Lu2 Al4 Ir4'
_cell_volume   230.21671067
_cell_formula_units_Z   2
loop_
 _symmetry_equiv_pos_site_id
 _symmetry_equiv_pos_as_xyz
  1  'x, y, z'
loop_
 _atom_site_type_symbol
 _atom_site_label
 _atom_site_symmetry_multiplicity
 _atom_site_fract_x
 _atom_site_fract_y
 _atom_site_fract_z
 _atom_site_occupancy
  Ce  Ce0  1  0.032192  0.750000  0.822986  1
  Ce  Ce1  1  0.532192  0.750000  0.677014  1
  Lu  Lu2  1  0.964885  0.250000  0.184232  1
  Lu  Lu3  1  0.464885  0.250000  0.315768  1
  Al  Al4  1  0.863209  0.250000  0.554616  1
  Al  Al5  1  0.363209  0.250000  0.945384  1
  Al  Al6  1  0.138323  0.750000  0.432836  1
  Al  Al7  1  0.638323  0.750000  0.067164  1
  Ir  Ir8  1  0.739170  0.250000  0.877419  1
  Ir  Ir9  1  0.239170  0.250000  0.622581  1
  Ir  Ir10  1  0.262221  0.750000  0.119105  1
  Ir  Ir11  1  0.762221  0.750000  0.380895  1
