# generated using pymatgen
data_Yb5P4
_symmetry_space_group_name_H-M   'P 1'
_cell_length_a   7.46351714
_cell_length_b   7.48727500
_cell_length_c   8.26675135
_cell_angle_alpha   90.00000000
_cell_angle_beta   116.83467895
_cell_angle_gamma   90.00000000
_symmetry_Int_Tables_number   1
_chemical_formula_structural   Yb5P4
_chemical_formula_sum   'Yb10 P8'
_cell_volume   412.21073290
_cell_formula_units_Z   2
loop_
 _symmetry_equiv_pos_site_id
 _symmetry_equiv_pos_as_xyz
  1  'x, y, z'
loop_
 _atom_site_type_symbol
 _atom_site_label
 _atom_site_symmetry_multiplicity
 _atom_site_fract_x
 _atom_site_fract_y
 _atom_site_fract_z
 _atom_site_occupancy
  Yb  Yb0  1  0.183977  0.165353  0.707370  1
  Yb  Yb1  1  0.523394  0.834647  0.707370  1
  Yb  Yb2  1  0.023394  0.665353  0.707370  1
  Yb  Yb3  1  0.683977  0.334647  0.707370  1
  Yb  Yb4  1  0.816023  0.834647  0.292630  1
  Yb  Yb5  1  0.476606  0.165353  0.292630  1
  Yb  Yb6  1  0.976606  0.334647  0.292630  1
  Yb  Yb7  1  0.316023  0.665353  0.292630  1
  Yb  Yb8  1  0.500000  0.500000  0.000000  1
  Yb  Yb9  1  0.000000  0.000000  0.000000  1
  P  P10  1  0.301881  0.500000  0.603764  1
  P  P11  1  0.801881  0.000000  0.603764  1
  P  P12  1  0.698119  0.500000  0.396236  1
  P  P13  1  0.198119  0.000000  0.396236  1
  P  P14  1  0.608399  0.108378  0.000000  1
  P  P15  1  0.391601  0.891622  0.000000  1
  P  P16  1  0.891601  0.608378  0.000000  1
  P  P17  1  0.108399  0.391622  0.000000  1
