# generated using pymatgen
data_Li2NdDy(SiO4)2
_symmetry_space_group_name_H-M   'P 1'
_cell_length_a   6.31601415
_cell_length_b   5.50303108
_cell_length_c   11.08971151
_cell_angle_alpha   66.62293669
_cell_angle_beta   90.23909953
_cell_angle_gamma   90.61378950
_symmetry_Int_Tables_number   1
_chemical_formula_structural   Li2NdDy(SiO4)2
_chemical_formula_sum   'Li4 Nd2 Dy2 Si4 O16'
_cell_volume   353.78723776
_cell_formula_units_Z   2
loop_
 _symmetry_equiv_pos_site_id
 _symmetry_equiv_pos_as_xyz
  1  'x, y, z'
loop_
 _atom_site_type_symbol
 _atom_site_label
 _atom_site_symmetry_multiplicity
 _atom_site_fract_x
 _atom_site_fract_y
 _atom_site_fract_z
 _atom_site_occupancy
  Li  Li0  1  0.133530  0.919072  0.430455  1
  Li  Li1  1  0.633604  0.073112  0.073019  1
  Li  Li2  1  0.866470  0.080928  0.569545  1
  Li  Li3  1  0.366396  0.926888  0.926981  1
  Nd  Nd4  1  0.117433  0.443689  0.847112  1
  Nd  Nd5  1  0.882567  0.556311  0.152888  1
  Dy  Dy6  1  0.615812  0.556513  0.649123  1
  Dy  Dy7  1  0.384188  0.443487  0.350877  1
  Si  Si8  1  0.646203  0.904628  0.362082  1
  Si  Si9  1  0.353797  0.095372  0.637918  1
  Si  Si10  1  0.158893  0.089678  0.145677  1
  Si  Si11  1  0.841107  0.910322  0.854323  1
  O  O12  1  0.850190  0.233280  0.771301  1
  O  O13  1  0.635400  0.227367  0.282470  1
  O  O14  1  0.167293  0.181547  0.524922  1
  O  O15  1  0.829567  0.763368  0.750022  1
  O  O16  1  0.149810  0.766720  0.228699  1
  O  O17  1  0.571995  0.230242  0.552262  1
  O  O18  1  0.654533  0.762994  0.255329  1
  O  O19  1  0.428005  0.769758  0.447738  1
  O  O20  1  0.065281  0.791079  0.937049  1
  O  O21  1  0.659384  0.822770  0.969853  1
  O  O22  1  0.170433  0.236632  0.249978  1
  O  O23  1  0.934719  0.208921  0.062951  1
  O  O24  1  0.340616  0.177230  0.030147  1
  O  O25  1  0.345467  0.237006  0.744671  1
  O  O26  1  0.364600  0.772633  0.717530  1
  O  O27  1  0.832707  0.818453  0.475078  1
