# generated using pymatgen
data_Tb7Y5(OsRu)2
_symmetry_space_group_name_H-M   'P 1'
_cell_length_a   6.36555851
_cell_length_b   7.35018021
_cell_length_c   9.21681562
_cell_angle_alpha   89.92654313
_cell_angle_beta   89.95418995
_cell_angle_gamma   90.06250803
_symmetry_Int_Tables_number   1
_chemical_formula_structural   Tb7Y5(OsRu)2
_chemical_formula_sum   'Tb7 Y5 Os2 Ru2'
_cell_volume   431.23563997
_cell_formula_units_Z   1
loop_
 _symmetry_equiv_pos_site_id
 _symmetry_equiv_pos_as_xyz
  1  'x, y, z'
loop_
 _atom_site_type_symbol
 _atom_site_label
 _atom_site_symmetry_multiplicity
 _atom_site_fract_x
 _atom_site_fract_y
 _atom_site_fract_z
 _atom_site_occupancy
  Tb  Tb0  1  0.635389  0.040593  0.249997  1
  Tb  Tb1  1  0.364188  0.959288  0.749818  1
  Tb  Tb2  1  0.134110  0.457770  0.749753  1
  Tb  Tb3  1  0.866068  0.542568  0.249945  1
  Tb  Tb4  1  0.171187  0.176562  0.066284  1
  Tb  Tb5  1  0.828859  0.823646  0.933731  1
  Tb  Tb6  1  0.669433  0.324709  0.936328  1
  Y  Y7  1  0.828607  0.823841  0.565249  1
  Y  Y8  1  0.331096  0.675515  0.063632  1
  Y  Y9  1  0.171419  0.176019  0.434690  1
  Y  Y10  1  0.330606  0.674687  0.436586  1
  Y  Y11  1  0.669675  0.325119  0.562884  1
  Os  Os12  1  0.462076  0.383471  0.249575  1
  Os  Os13  1  0.538277  0.616029  0.751156  1
  Ru  Ru14  1  0.962576  0.115075  0.751383  1
  Ru  Ru15  1  0.036433  0.885107  0.248989  1
