# generated using pymatgen
data_Sm2Al20ReRuRh2
_symmetry_space_group_name_H-M   'P 1'
_cell_length_a   6.89179825
_cell_length_b   6.88417598
_cell_length_c   9.19832065
_cell_angle_alpha   90.59439384
_cell_angle_beta   90.38180997
_cell_angle_gamma   96.96176387
_symmetry_Int_Tables_number   1
_chemical_formula_structural   Sm2Al20ReRuRh2
_chemical_formula_sum   'Sm2 Al20 Re1 Ru1 Rh2'
_cell_volume   433.15373286
_cell_formula_units_Z   1
loop_
 _symmetry_equiv_pos_site_id
 _symmetry_equiv_pos_as_xyz
  1  'x, y, z'
loop_
 _atom_site_type_symbol
 _atom_site_label
 _atom_site_symmetry_multiplicity
 _atom_site_fract_x
 _atom_site_fract_y
 _atom_site_fract_z
 _atom_site_occupancy
  Sm  Sm0  1  0.874453  0.128948  0.750688  1
  Sm  Sm1  1  0.125547  0.871052  0.249312  1
  Al  Al2  1  0.620393  0.376742  0.549722  1
  Al  Al3  1  0.379607  0.623258  0.450278  1
  Al  Al4  1  0.376852  0.620119  0.049245  1
  Al  Al5  1  0.623148  0.379881  0.950755  1
  Al  Al6  1  0.225929  0.224514  0.499847  1
  Al  Al7  1  0.774071  0.775486  0.500153  1
  Al  Al8  1  0.774834  0.775275  0.000318  1
  Al  Al9  1  0.225166  0.224725  0.999682  1
  Al  Al10  1  0.843078  0.158523  0.101611  1
  Al  Al11  1  0.156922  0.841477  0.898389  1
  Al  Al12  1  0.159814  0.843547  0.602066  1
  Al  Al13  1  0.840186  0.156453  0.397934  1
  Al  Al14  1  0.857775  0.589993  0.749562  1
  Al  Al15  1  0.142225  0.410007  0.250438  1
  Al  Al16  1  0.410855  0.141553  0.749480  1
  Al  Al17  1  0.589145  0.858447  0.250520  1
  Al  Al18  1  0.221640  0.481090  0.753184  1
  Al  Al19  1  0.778360  0.518910  0.246816  1
  Al  Al20  1  0.518694  0.778294  0.746176  1
  Al  Al21  1  0.481306  0.221706  0.253824  1
  Re  Re22  1  0.000000  0.500000  0.000000  1
  Ru  Ru23  1  0.500000  0.000000  0.500000  1
  Rh  Rh24  1  0.000000  0.500000  0.500000  1
  Rh  Rh25  1  0.500000  0.000000  0.000000  1
