# generated using pymatgen
data_SrMn4(FeO6)2
_symmetry_space_group_name_H-M   'P 1'
_cell_length_a   8.15340112
_cell_length_b   8.16501821
_cell_length_c   9.68212866
_cell_angle_alpha   55.77286196
_cell_angle_beta   55.75630391
_cell_angle_gamma   65.96207943
_symmetry_Int_Tables_number   1
_chemical_formula_structural   SrMn4(FeO6)2
_chemical_formula_sum   'Sr2 Mn8 Fe4 O24'
_cell_volume   436.64479534
_cell_formula_units_Z   2
loop_
 _symmetry_equiv_pos_site_id
 _symmetry_equiv_pos_as_xyz
  1  'x, y, z'
loop_
 _atom_site_type_symbol
 _atom_site_label
 _atom_site_symmetry_multiplicity
 _atom_site_fract_x
 _atom_site_fract_y
 _atom_site_fract_z
 _atom_site_occupancy
  Sr  Sr0  1  0.726282  0.276555  0.001205  1
  Sr  Sr1  1  0.264725  0.736148  0.997416  1
  Mn  Mn2  1  0.664084  0.664665  0.179567  1
  Mn  Mn3  1  0.331733  0.996711  0.181056  1
  Mn  Mn4  1  0.144392  0.145308  0.526256  1
  Mn  Mn5  1  0.480375  0.811966  0.523220  1
  Mn  Mn6  1  0.812200  0.479037  0.524043  1
  Mn  Mn7  1  0.858341  0.855042  0.467869  1
  Mn  Mn8  1  0.188717  0.520046  0.473866  1
  Mn  Mn9  1  0.520257  0.190279  0.471462  1
  Fe  Fe10  1  0.334897  0.335584  0.820083  1
  Fe  Fe11  1  0.002598  0.669820  0.818048  1
  Fe  Fe12  1  0.672081  0.003124  0.814555  1
  Fe  Fe13  1  0.999584  0.329508  0.180196  1
  O  O14  1  0.353385  0.352275  0.599442  1
  O  O15  1  0.016572  0.683096  0.600558  1
  O  O16  1  0.685991  0.018946  0.597322  1
  O  O17  1  0.981384  0.314804  0.399980  1
  O  O18  1  0.643210  0.642965  0.399932  1
  O  O19  1  0.314702  0.980311  0.397048  1
  O  O20  1  0.339674  0.340871  0.351449  1
  O  O21  1  0.011056  0.672069  0.349096  1
  O  O22  1  0.674496  0.011198  0.346789  1
  O  O23  1  0.994005  0.329889  0.644453  1
  O  O24  1  0.662342  0.665156  0.640475  1
  O  O25  1  0.331873  0.992526  0.643331  1
  O  O26  1  0.632104  0.295703  0.728190  1
  O  O27  1  0.296887  0.631358  0.731903  1
  O  O28  1  0.962972  0.962927  0.720178  1
  O  O29  1  0.702558  0.377534  0.271283  1
  O  O30  1  0.374313  0.708016  0.271085  1
  O  O31  1  0.046448  0.035770  0.277573  1
  O  O32  1  0.953201  0.635396  0.067177  1
  O  O33  1  0.623454  0.957211  0.070836  1
  O  O34  1  0.307056  0.285286  0.066477  1
  O  O35  1  0.365951  0.028080  0.952706  1
  O  O36  1  0.032918  0.369161  0.940275  1
  O  O37  1  0.693184  0.695659  0.953599  1
