# generated using pymatgen
data_Tb9Dy(IrPt2)2
_symmetry_space_group_name_H-M   'P 1'
_cell_length_a   11.10616700
_cell_length_b   11.10616700
_cell_length_c   6.36124000
_cell_angle_alpha   90.00000000
_cell_angle_beta   90.00000000
_cell_angle_gamma   90.00000000
_symmetry_Int_Tables_number   1
_chemical_formula_structural   Tb9Dy(IrPt2)2
_chemical_formula_sum   'Tb18 Dy2 Ir4 Pt8'
_cell_volume   784.63952316
_cell_formula_units_Z   2
loop_
 _symmetry_equiv_pos_site_id
 _symmetry_equiv_pos_as_xyz
  1  'x, y, z'
loop_
 _atom_site_type_symbol
 _atom_site_label
 _atom_site_symmetry_multiplicity
 _atom_site_fract_x
 _atom_site_fract_y
 _atom_site_fract_z
 _atom_site_occupancy
  Tb  Tb0  1  0.294701  0.087809  0.375504  1
  Tb  Tb1  1  0.294701  0.912191  0.875504  1
  Tb  Tb2  1  0.705299  0.087809  0.875504  1
  Tb  Tb3  1  0.705299  0.912191  0.375504  1
  Tb  Tb4  1  0.587766  0.794576  0.875596  1
  Tb  Tb5  1  0.587766  0.205424  0.375596  1
  Tb  Tb6  1  0.412234  0.794576  0.375596  1
  Tb  Tb7  1  0.412234  0.205424  0.875596  1
  Tb  Tb8  1  0.205424  0.412234  0.624404  1
  Tb  Tb9  1  0.205424  0.587766  0.124404  1
  Tb  Tb10  1  0.794576  0.412234  0.124404  1
  Tb  Tb11  1  0.794576  0.587766  0.624404  1
  Tb  Tb12  1  0.912191  0.705299  0.124496  1
  Tb  Tb13  1  0.912191  0.294701  0.624496  1
  Tb  Tb14  1  0.087809  0.705299  0.624496  1
  Tb  Tb15  1  0.087809  0.294701  0.124496  1
  Tb  Tb16  1  0.000000  0.000000  0.500000  1
  Tb  Tb17  1  0.000000  0.000000  0.000000  1
  Dy  Dy18  1  0.500000  0.500000  0.000000  1
  Dy  Dy19  1  0.500000  0.500000  0.500000  1
  Ir  Ir20  1  0.500000  0.000000  0.121286  1
  Ir  Ir21  1  0.500000  0.000000  0.621286  1
  Ir  Ir22  1  0.000000  0.500000  0.878714  1
  Ir  Ir23  1  0.000000  0.500000  0.378714  1
  Pt  Pt24  1  0.846377  0.153623  0.250000  1
  Pt  Pt25  1  0.846377  0.846377  0.750000  1
  Pt  Pt26  1  0.153623  0.153623  0.750000  1
  Pt  Pt27  1  0.153623  0.846377  0.250000  1
  Pt  Pt28  1  0.653318  0.346682  0.750000  1
  Pt  Pt29  1  0.653318  0.653318  0.250000  1
  Pt  Pt30  1  0.346682  0.346682  0.250000  1
  Pt  Pt31  1  0.346682  0.653318  0.750000  1
