# generated using pymatgen
data_Ho3Tm3(Si3Ru2)2
_symmetry_space_group_name_H-M   'P 1'
_cell_length_a   5.70658474
_cell_length_b   5.70658392
_cell_length_c   13.71257427
_cell_angle_alpha   90.10993451
_cell_angle_beta   89.89006448
_cell_angle_gamma   137.33320073
_symmetry_Int_Tables_number   1
_chemical_formula_structural   Ho3Tm3(Si3Ru2)2
_chemical_formula_sum   'Ho3 Tm3 Si6 Ru4'
_cell_volume   302.64230263
_cell_formula_units_Z   1
loop_
 _symmetry_equiv_pos_site_id
 _symmetry_equiv_pos_as_xyz
  1  'x, y, z'
loop_
 _atom_site_type_symbol
 _atom_site_label
 _atom_site_symmetry_multiplicity
 _atom_site_fract_x
 _atom_site_fract_y
 _atom_site_fract_z
 _atom_site_occupancy
  Ho  Ho0  1  0.924672  0.075328  0.385401  1
  Ho  Ho1  1  0.643129  0.356871  0.249729  1
  Ho  Ho2  1  0.356981  0.643019  0.750177  1
  Tm  Tm3  1  0.075958  0.924042  0.614303  1
  Tm  Tm4  1  0.924036  0.075964  0.113805  1
  Tm  Tm5  1  0.075881  0.924119  0.885996  1
  Si  Si6  1  0.616754  0.383246  0.462191  1
  Si  Si7  1  0.383518  0.616482  0.538386  1
  Si  Si8  1  0.616190  0.383810  0.037833  1
  Si  Si9  1  0.383819  0.616181  0.962141  1
  Si  Si10  1  0.331840  0.668160  0.249317  1
  Si  Si11  1  0.667410  0.332590  0.750113  1
  Ru  Ru12  1  0.787037  0.212963  0.918385  1
  Ru  Ru13  1  0.212745  0.787255  0.081412  1
  Ru  Ru14  1  0.786735  0.213265  0.582050  1
  Ru  Ru15  1  0.213296  0.786704  0.418760  1
