# generated using pymatgen
data_Dy3HfAl14(Ga2Ir3)2
_symmetry_space_group_name_H-M   'P 1'
_cell_length_a   7.51144102
_cell_length_b   7.50643440
_cell_length_c   9.47886400
_cell_angle_alpha   90.00000000
_cell_angle_beta   90.00000000
_cell_angle_gamma   119.57376919
_symmetry_Int_Tables_number   1
_chemical_formula_structural   Dy3HfAl14(Ga2Ir3)2
_chemical_formula_sum   'Dy3 Hf1 Al14 Ga4 Ir6'
_cell_volume   464.82897279
_cell_formula_units_Z   1
loop_
 _symmetry_equiv_pos_site_id
 _symmetry_equiv_pos_as_xyz
  1  'x, y, z'
loop_
 _atom_site_type_symbol
 _atom_site_label
 _atom_site_symmetry_multiplicity
 _atom_site_fract_x
 _atom_site_fract_y
 _atom_site_fract_z
 _atom_site_occupancy
  Dy  Dy0  1  0.004933  0.327305  0.250000  1
  Dy  Dy1  1  0.674660  0.997162  0.750000  1
  Dy  Dy2  1  0.328755  0.006031  0.250000  1
  Hf  Hf3  1  0.998845  0.674385  0.750000  1
  Al  Al4  1  0.000149  0.338434  0.578309  1
  Al  Al5  1  0.997933  0.664695  0.430669  1
  Al  Al6  1  0.997933  0.664695  0.069331  1
  Al  Al7  1  0.332769  0.998550  0.921178  1
  Al  Al8  1  0.000149  0.338434  0.921691  1
  Al  Al9  1  0.664057  0.996625  0.073136  1
  Al  Al10  1  0.664057  0.996625  0.426864  1
  Al  Al11  1  0.332769  0.998550  0.578822  1
  Al  Al12  1  0.334437  0.334756  0.048421  1
  Al  Al13  1  0.669049  0.666533  0.936450  1
  Al  Al14  1  0.669049  0.666533  0.563550  1
  Al  Al15  1  0.334437  0.334756  0.451579  1
  Al  Al16  1  0.333828  0.550232  0.750000  1
  Al  Al17  1  0.556344  0.342472  0.750000  1
  Ga  Ga18  1  0.130982  0.129115  0.750000  1
  Ga  Ga19  1  0.870167  0.868415  0.250000  1
  Ga  Ga20  1  0.659131  0.451600  0.250000  1
  Ga  Ga21  1  0.449345  0.657206  0.250000  1
  Ir  Ir22  1  0.671557  0.328291  0.503438  1
  Ir  Ir23  1  0.327535  0.671585  0.504184  1
  Ir  Ir24  1  0.327535  0.671585  0.995816  1
  Ir  Ir25  1  0.671557  0.328291  0.996562  1
  Ir  Ir26  1  0.999018  0.998572  0.501210  1
  Ir  Ir27  1  0.999018  0.998572  0.998790  1
