# generated using pymatgen
data_EuDyCuTe3
_symmetry_space_group_name_H-M   'P 1'
_cell_length_a   11.45068500
_cell_length_b   4.36512800
_cell_length_c   14.35360900
_cell_angle_alpha   90.00000000
_cell_angle_beta   90.00000000
_cell_angle_gamma   90.00000000
_symmetry_Int_Tables_number   1
_chemical_formula_structural   EuDyCuTe3
_chemical_formula_sum   'Eu4 Dy4 Cu4 Te12'
_cell_volume   717.44656817
_cell_formula_units_Z   4
loop_
 _symmetry_equiv_pos_site_id
 _symmetry_equiv_pos_as_xyz
  1  'x, y, z'
loop_
 _atom_site_type_symbol
 _atom_site_label
 _atom_site_symmetry_multiplicity
 _atom_site_fract_x
 _atom_site_fract_y
 _atom_site_fract_z
 _atom_site_occupancy
  Eu  Eu0  1  0.273849  0.249999  0.006886  1
  Eu  Eu1  1  0.773848  0.249999  0.493115  1
  Eu  Eu2  1  0.226152  0.750000  0.506886  1
  Eu  Eu3  1  0.726151  0.750000  0.993114  1
  Dy  Dy4  1  0.018870  0.249999  0.244496  1
  Dy  Dy5  1  0.518871  0.249999  0.255504  1
  Dy  Dy6  1  0.481129  0.750000  0.744497  1
  Dy  Dy7  1  0.981130  0.750000  0.755503  1
  Cu  Cu8  1  0.261523  0.750000  0.223763  1
  Cu  Cu9  1  0.761522  0.750000  0.276237  1
  Cu  Cu10  1  0.238478  0.249999  0.723763  1
  Cu  Cu11  1  0.738478  0.249999  0.776237  1
  Te  Te12  1  0.086592  0.750000  0.103581  1
  Te  Te13  1  0.448668  0.750000  0.112187  1
  Te  Te14  1  0.765134  0.249999  0.166839  1
  Te  Te15  1  0.265134  0.249999  0.333162  1
  Te  Te16  1  0.948668  0.750000  0.387813  1
  Te  Te17  1  0.586592  0.750000  0.396420  1
  Te  Te18  1  0.413407  0.249999  0.603580  1
  Te  Te19  1  0.051333  0.249999  0.612187  1
  Te  Te20  1  0.734866  0.750000  0.666838  1
  Te  Te21  1  0.234866  0.750000  0.833162  1
  Te  Te22  1  0.551332  0.249999  0.887813  1
  Te  Te23  1  0.913408  0.249999  0.896420  1
