# generated using pymatgen
data_Ho2Er2Tm2FeBi2
_symmetry_space_group_name_H-M   'P 1'
_cell_length_a   8.26690520
_cell_length_b   8.26690313
_cell_length_c   4.16291400
_cell_angle_alpha   90.00000000
_cell_angle_beta   90.00000000
_cell_angle_gamma   120.03566629
_symmetry_Int_Tables_number   1
_chemical_formula_structural   Ho2Er2Tm2FeBi2
_chemical_formula_sum   'Ho2 Er2 Tm2 Fe1 Bi2'
_cell_volume   246.29618266
_cell_formula_units_Z   1
loop_
 _symmetry_equiv_pos_site_id
 _symmetry_equiv_pos_as_xyz
  1  'x, y, z'
loop_
 _atom_site_type_symbol
 _atom_site_label
 _atom_site_symmetry_multiplicity
 _atom_site_fract_x
 _atom_site_fract_y
 _atom_site_fract_z
 _atom_site_occupancy
  Ho  Ho0  1  0.610350  0.000145  0.000000  1
  Ho  Ho1  1  0.000145  0.610350  0.000000  1
  Er  Er2  1  0.770174  0.770174  0.500000  1
  Er  Er3  1  0.388997  0.388997  0.000000  1
  Tm  Tm4  1  0.229844  0.000254  0.500000  1
  Tm  Tm5  1  0.000254  0.229844  0.500000  1
  Fe  Fe6  1  0.000803  0.000803  0.000000  1
  Bi  Bi7  1  0.332993  0.666438  0.500000  1
  Bi  Bi8  1  0.666438  0.332993  0.500000  1
