# generated using pymatgen
data_Zr2AlIr2Rh3
_symmetry_space_group_name_H-M   'P 1'
_cell_length_a   5.58373703
_cell_length_b   5.58373663
_cell_length_c   8.19573600
_cell_angle_alpha   89.99992287
_cell_angle_beta   89.99991695
_cell_angle_gamma   97.45241556
_symmetry_Int_Tables_number   1
_chemical_formula_structural   Zr2AlIr2Rh3
_chemical_formula_sum   'Zr4 Al2 Ir4 Rh6'
_cell_volume   253.36915426
_cell_formula_units_Z   2
loop_
 _symmetry_equiv_pos_site_id
 _symmetry_equiv_pos_as_xyz
  1  'x, y, z'
loop_
 _atom_site_type_symbol
 _atom_site_label
 _atom_site_symmetry_multiplicity
 _atom_site_fract_x
 _atom_site_fract_y
 _atom_site_fract_z
 _atom_site_occupancy
  Zr  Zr0  1  0.778490  0.222074  0.500003  1
  Zr  Zr1  1  0.222075  0.778490  0.999997  1
  Zr  Zr2  1  0.222074  0.778490  0.500003  1
  Zr  Zr3  1  0.778490  0.222075  0.999997  1
  Al  Al4  1  0.499881  0.499881  0.750000  1
  Al  Al5  1  0.499326  0.499326  0.250000  1
  Ir  Ir6  1  0.717421  0.717421  0.000055  1
  Ir  Ir7  1  0.717420  0.717420  0.499945  1
  Ir  Ir8  1  0.000486  0.000486  0.250000  1
  Ir  Ir9  1  0.000425  0.000425  0.750000  1
  Rh  Rh10  1  0.282978  0.282978  0.999749  1
  Rh  Rh11  1  0.282983  0.282983  0.500251  1
  Rh  Rh12  1  0.499739  0.999225  0.749999  1
  Rh  Rh13  1  0.499823  0.999164  0.250001  1
  Rh  Rh14  1  0.999225  0.499739  0.749999  1
  Rh  Rh15  1  0.999164  0.499823  0.250001  1
