# generated using pymatgen
data_TbDyGe4(AsRh4)3
_symmetry_space_group_name_H-M   'P 1'
_cell_length_a   9.97502200
_cell_length_b   9.97502247
_cell_length_c   3.92994400
_cell_angle_alpha   90.00000000
_cell_angle_beta   90.00000000
_cell_angle_gamma   119.99999844
_symmetry_Int_Tables_number   1
_chemical_formula_structural   TbDyGe4(AsRh4)3
_chemical_formula_sum   'Tb1 Dy1 Ge4 As3 Rh12'
_cell_volume   338.64506054
_cell_formula_units_Z   1
loop_
 _symmetry_equiv_pos_site_id
 _symmetry_equiv_pos_as_xyz
  1  'x, y, z'
loop_
 _atom_site_type_symbol
 _atom_site_label
 _atom_site_symmetry_multiplicity
 _atom_site_fract_x
 _atom_site_fract_y
 _atom_site_fract_z
 _atom_site_occupancy
  Tb  Tb0  1  0.333333  0.666667  0.751277  1
  Dy  Dy1  1  0.666667  0.333333  0.249319  1
  Ge  Ge2  1  0.000000  0.000000  0.583149  1
  Ge  Ge3  1  0.882751  0.595306  0.751343  1
  Ge  Ge4  1  0.404694  0.287445  0.751343  1
  Ge  Ge5  1  0.712555  0.117249  0.751343  1
  As  As6  1  0.114774  0.403899  0.250115  1
  As  As7  1  0.596101  0.710874  0.250115  1
  As  As8  1  0.289126  0.885226  0.250115  1
  Rh  Rh9  1  0.618150  0.555477  0.752027  1
  Rh  Rh10  1  0.444523  0.062672  0.752027  1
  Rh  Rh11  1  0.937328  0.381850  0.752027  1
  Rh  Rh12  1  0.382155  0.444327  0.249795  1
  Rh  Rh13  1  0.555673  0.937828  0.249795  1
  Rh  Rh14  1  0.062172  0.617845  0.249795  1
  Rh  Rh15  1  0.121540  0.849994  0.750934  1
  Rh  Rh16  1  0.150006  0.271546  0.750934  1
  Rh  Rh17  1  0.728454  0.878460  0.750934  1
  Rh  Rh18  1  0.884719  0.143137  0.252631  1
  Rh  Rh19  1  0.856863  0.741582  0.252631  1
  Rh  Rh20  1  0.258418  0.115281  0.252631  1
