# generated using pymatgen
data_CaHo4Er3(B6Ru)4
_symmetry_space_group_name_H-M   'P 1'
_cell_length_a   3.64485900
_cell_length_b   9.12114690
_cell_length_c   11.51040800
_cell_angle_alpha   89.90491019
_cell_angle_beta   90.00000000
_cell_angle_gamma   90.00000000
_symmetry_Int_Tables_number   1
_chemical_formula_structural   CaHo4Er3(B6Ru)4
_chemical_formula_sum   'Ca1 Ho4 Er3 B24 Ru4'
_cell_volume   382.66637526
_cell_formula_units_Z   1
loop_
 _symmetry_equiv_pos_site_id
 _symmetry_equiv_pos_as_xyz
  1  'x, y, z'
loop_
 _atom_site_type_symbol
 _atom_site_label
 _atom_site_symmetry_multiplicity
 _atom_site_fract_x
 _atom_site_fract_y
 _atom_site_fract_z
 _atom_site_occupancy
  Ca  Ca0  1  0.000000  0.322696  0.413954  1
  Ho  Ho1  1  0.000000  0.675917  0.585096  1
  Ho  Ho2  1  0.000000  0.822568  0.086119  1
  Ho  Ho3  1  0.000000  0.177962  0.914583  1
  Ho  Ho4  1  0.000000  0.944037  0.371235  1
  Er  Er5  1  0.000000  0.057773  0.628380  1
  Er  Er6  1  0.000000  0.443101  0.129338  1
  Er  Er7  1  0.000000  0.556176  0.872251  1
  B  B8  1  0.500000  0.554645  0.432669  1
  B  B9  1  0.500000  0.446118  0.567975  1
  B  B10  1  0.500000  0.053393  0.066253  1
  B  B11  1  0.500000  0.945721  0.932532  1
  B  B12  1  0.500000  0.748576  0.419230  1
  B  B13  1  0.500000  0.251670  0.581673  1
  B  B14  1  0.500000  0.248089  0.080201  1
  B  B15  1  0.500000  0.751390  0.919545  1
  B  B16  1  0.500000  0.791595  0.265709  1
  B  B17  1  0.500000  0.209229  0.734626  1
  B  B18  1  0.500000  0.290258  0.233029  1
  B  B19  1  0.500000  0.708916  0.766259  1
  B  B20  1  0.500000  0.631976  0.185335  1
  B  B21  1  0.500000  0.368629  0.815608  1
  B  B22  1  0.500000  0.131013  0.313578  1
  B  B23  1  0.500000  0.868523  0.685060  1
  B  B24  1  0.500000  0.983281  0.211471  1
  B  B25  1  0.500000  0.016566  0.787311  1
  B  B26  1  0.500000  0.484146  0.287214  1
  B  B27  1  0.500000  0.516686  0.713130  1
  B  B28  1  0.500000  0.607214  0.029697  1
  B  B29  1  0.500000  0.393066  0.970844  1
  B  B30  1  0.500000  0.103658  0.471745  1
  B  B31  1  0.500000  0.894966  0.529307  1
  Ru  Ru32  1  0.000000  0.639969  0.319959  1
  Ru  Ru33  1  0.000000  0.361825  0.681155  1
  Ru  Ru34  1  0.000000  0.136770  0.176913  1
  Ru  Ru35  1  0.000000  0.861881  0.821013  1
