# generated using pymatgen
data_Ba4CuIr3
_symmetry_space_group_name_H-M   'P 1'
_cell_length_a   4.43044400
_cell_length_b   4.43044309
_cell_length_c   17.31118500
_cell_angle_alpha   90.00000000
_cell_angle_beta   90.00000000
_cell_angle_gamma   120.00000682
_symmetry_Int_Tables_number   1
_chemical_formula_structural   Ba4CuIr3
_chemical_formula_sum   'Ba4 Cu1 Ir3'
_cell_volume   294.27394611
_cell_formula_units_Z   1
loop_
 _symmetry_equiv_pos_site_id
 _symmetry_equiv_pos_as_xyz
  1  'x, y, z'
loop_
 _atom_site_type_symbol
 _atom_site_label
 _atom_site_symmetry_multiplicity
 _atom_site_fract_x
 _atom_site_fract_y
 _atom_site_fract_z
 _atom_site_occupancy
  Ba  Ba0  1  0.333333  0.666667  0.126035  1
  Ba  Ba1  1  0.666667  0.333333  0.867120  1
  Ba  Ba2  1  0.333333  0.666667  0.373965  1
  Ba  Ba3  1  0.666667  0.333333  0.632880  1
  Cu  Cu4  1  0.000000  0.000000  0.750000  1
  Ir  Ir5  1  0.000000  0.000000  0.250000  1
  Ir  Ir6  1  0.666667  0.333333  0.250000  1
  Ir  Ir7  1  0.333333  0.666667  0.750000  1
