# generated using pymatgen
data_Er2TmLu17Bi12
_symmetry_space_group_name_H-M   'P 1'
_cell_length_a   8.14094014
_cell_length_b   9.40050200
_cell_length_c   11.80188701
_cell_angle_alpha   90.00000000
_cell_angle_beta   90.02858499
_cell_angle_gamma   90.00000000
_symmetry_Int_Tables_number   1
_chemical_formula_structural   Er2TmLu17Bi12
_chemical_formula_sum   'Er2 Tm1 Lu17 Bi12'
_cell_volume   903.18560245
_cell_formula_units_Z   1
loop_
 _symmetry_equiv_pos_site_id
 _symmetry_equiv_pos_as_xyz
  1  'x, y, z'
loop_
 _atom_site_type_symbol
 _atom_site_label
 _atom_site_symmetry_multiplicity
 _atom_site_fract_x
 _atom_site_fract_y
 _atom_site_fract_z
 _atom_site_occupancy
  Er  Er0  1  0.687168  0.750000  0.782768  1
  Er  Er1  1  0.187155  0.750000  0.717179  1
  Tm  Tm2  1  0.812588  0.250000  0.282987  1
  Lu  Lu3  1  0.352663  0.750000  0.217954  1
  Lu  Lu4  1  0.852628  0.750000  0.282053  1
  Lu  Lu5  1  0.647332  0.250000  0.782189  1
  Lu  Lu6  1  0.147443  0.250000  0.717934  1
  Lu  Lu7  1  0.692143  0.567095  0.059196  1
  Lu  Lu8  1  0.191933  0.932848  0.440783  1
  Lu  Lu9  1  0.307964  0.067099  0.940996  1
  Lu  Lu10  1  0.808101  0.432885  0.559068  1
  Lu  Lu11  1  0.307964  0.432901  0.940996  1
  Lu  Lu12  1  0.808101  0.067115  0.559068  1
  Lu  Lu13  1  0.692143  0.932905  0.059196  1
  Lu  Lu14  1  0.191933  0.567152  0.440783  1
  Lu  Lu15  1  0.477699  0.250000  0.489045  1
  Lu  Lu16  1  0.977952  0.250000  0.010892  1
  Lu  Lu17  1  0.522151  0.750000  0.510539  1
  Lu  Lu18  1  0.022290  0.750000  0.989507  1
  Lu  Lu19  1  0.312453  0.250000  0.216644  1
  Bi  Bi20  1  0.402601  0.750000  0.957762  1
  Bi  Bi21  1  0.902478  0.750000  0.542232  1
  Bi  Bi22  1  0.597029  0.250000  0.042942  1
  Bi  Bi23  1  0.097730  0.250000  0.457340  1
  Bi  Bi24  1  0.564926  0.995864  0.324945  1
  Bi  Bi25  1  0.065835  0.504024  0.174923  1
  Bi  Bi26  1  0.434802  0.495381  0.674792  1
  Bi  Bi27  1  0.934617  0.004655  0.825316  1
  Bi  Bi28  1  0.434802  0.004619  0.674792  1
  Bi  Bi29  1  0.934617  0.495345  0.825316  1
  Bi  Bi30  1  0.564926  0.504136  0.324945  1
  Bi  Bi31  1  0.065835  0.995976  0.174923  1
