# generated using pymatgen
data_Lu8Si12RhAu3
_symmetry_space_group_name_H-M   'P 1'
_cell_length_a   8.13207300
_cell_length_b   8.13207342
_cell_length_c   7.94719100
_cell_angle_alpha   90.00000000
_cell_angle_beta   90.00000000
_cell_angle_gamma   120.00000236
_symmetry_Int_Tables_number   1
_chemical_formula_structural   Lu8Si12RhAu3
_chemical_formula_sum   'Lu8 Si12 Rh1 Au3'
_cell_volume   455.14191426
_cell_formula_units_Z   1
loop_
 _symmetry_equiv_pos_site_id
 _symmetry_equiv_pos_as_xyz
  1  'x, y, z'
loop_
 _atom_site_type_symbol
 _atom_site_label
 _atom_site_symmetry_multiplicity
 _atom_site_fract_x
 _atom_site_fract_y
 _atom_site_fract_z
 _atom_site_occupancy
  Lu  Lu0  1  0.004993  0.502497  0.254865  1
  Lu  Lu1  1  0.497503  0.502497  0.254865  1
  Lu  Lu2  1  0.495701  0.991402  0.745106  1
  Lu  Lu3  1  0.008598  0.504299  0.745106  1
  Lu  Lu4  1  0.495701  0.504299  0.745106  1
  Lu  Lu5  1  0.497503  0.995007  0.254865  1
  Lu  Lu6  1  0.000000  0.000000  0.748674  1
  Lu  Lu7  1  0.000000  0.000000  0.251581  1
  Si  Si8  1  0.168618  0.831382  0.498831  1
  Si  Si9  1  0.168618  0.337235  0.498831  1
  Si  Si10  1  0.662765  0.831382  0.498831  1
  Si  Si11  1  0.326774  0.163388  0.001518  1
  Si  Si12  1  0.838961  0.677923  0.501182  1
  Si  Si13  1  0.836612  0.163388  0.001518  1
  Si  Si14  1  0.836612  0.673226  0.001518  1
  Si  Si15  1  0.162755  0.325510  0.998457  1
  Si  Si16  1  0.674490  0.837245  0.998457  1
  Si  Si17  1  0.322077  0.161039  0.501182  1
  Si  Si18  1  0.838961  0.161039  0.501182  1
  Si  Si19  1  0.162755  0.837245  0.998457  1
  Rh  Rh20  1  0.333333  0.666667  0.497993  1
  Au  Au21  1  0.333333  0.666667  0.003805  1
  Au  Au22  1  0.666667  0.333333  0.996281  1
  Au  Au23  1  0.666667  0.333333  0.501792  1
