# generated using pymatgen
data_Tb5Mn2O12
_symmetry_space_group_name_H-M   'P 1'
_cell_length_a   6.84050375
_cell_length_b   6.84050519
_cell_length_c   7.28241472
_cell_angle_alpha   74.59017445
_cell_angle_beta   74.59017250
_cell_angle_gamma   50.06412134
_symmetry_Int_Tables_number   1
_chemical_formula_structural   Tb5Mn2O12
_chemical_formula_sum   'Tb5 Mn2 O12'
_cell_volume   249.79553941
_cell_formula_units_Z   1
loop_
 _symmetry_equiv_pos_site_id
 _symmetry_equiv_pos_as_xyz
  1  'x, y, z'
loop_
 _atom_site_type_symbol
 _atom_site_label
 _atom_site_symmetry_multiplicity
 _atom_site_fract_x
 _atom_site_fract_y
 _atom_site_fract_z
 _atom_site_occupancy
  Tb  Tb0  1  0.693121  0.693121  0.664043  1
  Tb  Tb1  1  0.694106  0.694106  0.143804  1
  Tb  Tb2  1  0.000000  0.000000  0.000000  1
  Tb  Tb3  1  0.305894  0.305894  0.856196  1
  Tb  Tb4  1  0.306879  0.306879  0.335957  1
  Mn  Mn5  1  0.245490  0.754510  0.500000  1
  Mn  Mn6  1  0.754510  0.245490  0.500000  1
  O  O7  1  0.402172  0.903407  0.924800  1
  O  O8  1  0.579110  0.098846  0.580906  1
  O  O9  1  0.901154  0.420890  0.419094  1
  O  O10  1  0.096593  0.597828  0.075200  1
  O  O11  1  0.999708  0.999708  0.322673  1
  O  O12  1  0.500456  0.500456  0.678055  1
  O  O13  1  0.903407  0.402172  0.924800  1
  O  O14  1  0.098846  0.579110  0.580906  1
  O  O15  1  0.420890  0.901154  0.419094  1
  O  O16  1  0.597828  0.096593  0.075200  1
  O  O17  1  0.499544  0.499544  0.321945  1
  O  O18  1  0.000292  0.000292  0.677327  1
