# generated using pymatgen
data_Hf3Zr3Nb4(GaSn3)2
_symmetry_space_group_name_H-M   'P 1'
_cell_length_a   8.56752300
_cell_length_b   8.56752139
_cell_length_c   5.73794200
_cell_angle_alpha   90.00000000
_cell_angle_beta   90.00000000
_cell_angle_gamma   120.00000234
_symmetry_Int_Tables_number   1
_chemical_formula_structural   Hf3Zr3Nb4(GaSn3)2
_chemical_formula_sum   'Hf3 Zr3 Nb4 Ga2 Sn6'
_cell_volume   364.75163900
_cell_formula_units_Z   1
loop_
 _symmetry_equiv_pos_site_id
 _symmetry_equiv_pos_as_xyz
  1  'x, y, z'
loop_
 _atom_site_type_symbol
 _atom_site_label
 _atom_site_symmetry_multiplicity
 _atom_site_fract_x
 _atom_site_fract_y
 _atom_site_fract_z
 _atom_site_occupancy
  Hf  Hf0  1  0.270905  0.270905  0.250000  1
  Hf  Hf1  1  0.729095  0.000000  0.250000  1
  Hf  Hf2  1  0.000000  0.729095  0.250000  1
  Zr  Zr3  1  0.731287  0.731287  0.750000  1
  Zr  Zr4  1  0.268713  0.000000  0.750000  1
  Zr  Zr5  1  0.000000  0.268713  0.750000  1
  Nb  Nb6  1  0.666667  0.333333  0.002269  1
  Nb  Nb7  1  0.333333  0.666667  0.002269  1
  Nb  Nb8  1  0.333333  0.666667  0.497731  1
  Nb  Nb9  1  0.666667  0.333333  0.497731  1
  Ga  Ga10  1  0.000000  0.000000  0.003462  1
  Ga  Ga11  1  0.000000  0.000000  0.496538  1
  Sn  Sn12  1  0.390630  0.390630  0.750000  1
  Sn  Sn13  1  0.609370  0.000000  0.750000  1
  Sn  Sn14  1  0.000000  0.609370  0.750000  1
  Sn  Sn15  1  0.610018  0.610018  0.250000  1
  Sn  Sn16  1  0.389982  0.000000  0.250000  1
  Sn  Sn17  1  0.000000  0.389982  0.250000  1
