# generated using pymatgen
data_Tm8GePd19Pt5
_symmetry_space_group_name_H-M   'P 1'
_cell_length_a   8.30646300
_cell_length_b   8.29945500
_cell_length_c   8.30025200
_cell_angle_alpha   90.00000000
_cell_angle_beta   90.00000000
_cell_angle_gamma   90.00000000
_symmetry_Int_Tables_number   1
_chemical_formula_structural   Tm8GePd19Pt5
_chemical_formula_sum   'Tm8 Ge1 Pd19 Pt5'
_cell_volume   572.21203444
_cell_formula_units_Z   1
loop_
 _symmetry_equiv_pos_site_id
 _symmetry_equiv_pos_as_xyz
  1  'x, y, z'
loop_
 _atom_site_type_symbol
 _atom_site_label
 _atom_site_symmetry_multiplicity
 _atom_site_fract_x
 _atom_site_fract_y
 _atom_site_fract_z
 _atom_site_occupancy
  Tm  Tm0  1  0.252239  0.252994  0.252741  1
  Tm  Tm1  1  0.746654  0.746437  0.746141  1
  Tm  Tm2  1  0.746654  0.746437  0.253859  1
  Tm  Tm3  1  0.747761  0.252994  0.747259  1
  Tm  Tm4  1  0.252239  0.252994  0.747259  1
  Tm  Tm5  1  0.253346  0.746437  0.253859  1
  Tm  Tm6  1  0.253346  0.746437  0.746141  1
  Tm  Tm7  1  0.747761  0.252994  0.252741  1
  Ge  Ge8  1  0.000000  0.003649  0.000000  1
  Pd  Pd9  1  0.259894  0.500360  0.000000  1
  Pd  Pd10  1  0.740106  0.500360  0.000000  1
  Pd  Pd11  1  0.000000  0.258963  0.500000  1
  Pd  Pd12  1  0.500000  0.258919  0.000000  1
  Pd  Pd13  1  0.000000  0.740007  0.500000  1
  Pd  Pd14  1  0.500000  0.739444  0.000000  1
  Pd  Pd15  1  0.500000  0.999933  0.259987  1
  Pd  Pd16  1  0.259511  0.999970  0.500000  1
  Pd  Pd17  1  0.500000  0.999933  0.740013  1
  Pd  Pd18  1  0.740489  0.999970  0.500000  1
  Pd  Pd19  1  0.000000  0.500498  0.259999  1
  Pd  Pd20  1  0.000000  0.500498  0.740001  1
  Pd  Pd21  1  0.500000  0.252760  0.500000  1
  Pd  Pd22  1  0.500000  0.747147  0.500000  1
  Pd  Pd23  1  0.500000  0.499662  0.253053  1
  Pd  Pd24  1  0.500000  0.499662  0.746947  1
  Pd  Pd25  1  0.000000  0.713734  0.000000  1
  Pd  Pd26  1  0.000000  0.998866  0.289614  1
  Pd  Pd27  1  0.000000  0.998866  0.710386  1
  Pt  Pt28  1  0.252540  0.499667  0.500000  1
  Pt  Pt29  1  0.747460  0.499667  0.500000  1
  Pt  Pt30  1  0.288923  0.998423  0.000000  1
  Pt  Pt31  1  0.711077  0.998423  0.000000  1
  Pt  Pt32  1  0.000000  0.292895  0.000000  1
