# generated using pymatgen
data_HoTmPaS3
_symmetry_space_group_name_H-M   'P 1'
_cell_length_a   3.85788200
_cell_length_b   3.85788216
_cell_length_c   9.72255600
_cell_angle_alpha   90.00000000
_cell_angle_beta   90.00000000
_cell_angle_gamma   119.99999864
_symmetry_Int_Tables_number   1
_chemical_formula_structural   HoTmPaS3
_chemical_formula_sum   'Ho1 Tm1 Pa1 S3'
_cell_volume   125.31671112
_cell_formula_units_Z   1
loop_
 _symmetry_equiv_pos_site_id
 _symmetry_equiv_pos_as_xyz
  1  'x, y, z'
loop_
 _atom_site_type_symbol
 _atom_site_label
 _atom_site_symmetry_multiplicity
 _atom_site_fract_x
 _atom_site_fract_y
 _atom_site_fract_z
 _atom_site_occupancy
  Ho  Ho0  1  0.666667  0.333333  0.330387  1
  Tm  Tm1  1  0.333333  0.666667  0.670513  1
  Pa  Pa2  1  0.000000  0.000000  0.999382  1
  S  S3  1  0.333333  0.666667  0.172594  1
  S  S4  1  0.666667  0.333333  0.824188  1
  S  S5  1  0.000000  0.000000  0.502938  1
