# generated using pymatgen
data_Th3MgGa2Pt3
_symmetry_space_group_name_H-M   'P 1'
_cell_length_a   7.39881833
_cell_length_b   7.39881740
_cell_length_c   4.16389900
_cell_angle_alpha   90.00000000
_cell_angle_beta   90.00000000
_cell_angle_gamma   119.85008316
_symmetry_Int_Tables_number   1
_chemical_formula_structural   Th3MgGa2Pt3
_chemical_formula_sum   'Th3 Mg1 Ga2 Pt3'
_cell_volume   197.70132648
_cell_formula_units_Z   1
loop_
 _symmetry_equiv_pos_site_id
 _symmetry_equiv_pos_as_xyz
  1  'x, y, z'
loop_
 _atom_site_type_symbol
 _atom_site_label
 _atom_site_symmetry_multiplicity
 _atom_site_fract_x
 _atom_site_fract_y
 _atom_site_fract_z
 _atom_site_occupancy
  Th  Th0  1  0.407037  0.407037  0.500000  1
  Th  Th1  1  0.583078  0.002011  0.500000  1
  Th  Th2  1  0.002011  0.583078  0.500000  1
  Mg  Mg3  1  0.764963  0.764963  0.000000  1
  Ga  Ga4  1  0.239155  0.996303  0.000000  1
  Ga  Ga5  1  0.996303  0.239155  0.000000  1
  Pt  Pt6  1  0.667902  0.335212  0.000000  1
  Pt  Pt7  1  0.335212  0.667902  0.000000  1
  Pt  Pt8  1  0.004338  0.004338  0.500000  1
