# generated using pymatgen
data_Dy6Er10Cd4RuPt3
_symmetry_space_group_name_H-M   'P 1'
_cell_length_a   9.63714150
_cell_length_b   9.63714043
_cell_length_c   9.63714013
_cell_angle_alpha   59.69301671
_cell_angle_beta   59.69302940
_cell_angle_gamma   59.69301402
_symmetry_Int_Tables_number   1
_chemical_formula_structural   Dy6Er10Cd4RuPt3
_chemical_formula_sum   'Dy6 Er10 Cd4 Ru1 Pt3'
_cell_volume   628.47863320
_cell_formula_units_Z   1
loop_
 _symmetry_equiv_pos_site_id
 _symmetry_equiv_pos_as_xyz
  1  'x, y, z'
loop_
 _atom_site_type_symbol
 _atom_site_label
 _atom_site_symmetry_multiplicity
 _atom_site_fract_x
 _atom_site_fract_y
 _atom_site_fract_z
 _atom_site_occupancy
  Dy  Dy0  1  0.935765  0.565393  0.565393  1
  Dy  Dy1  1  0.560437  0.936838  0.936838  1
  Dy  Dy2  1  0.565393  0.935765  0.565393  1
  Dy  Dy3  1  0.936838  0.560436  0.936838  1
  Dy  Dy4  1  0.565393  0.565393  0.935765  1
  Dy  Dy5  1  0.936838  0.936838  0.560436  1
  Er  Er6  1  0.351427  0.351427  0.351427  1
  Er  Er7  1  0.349810  0.349810  0.948176  1
  Er  Er8  1  0.349810  0.948176  0.349810  1
  Er  Er9  1  0.948176  0.349810  0.349810  1
  Er  Er10  1  0.815269  0.188436  0.188436  1
  Er  Er11  1  0.188674  0.810250  0.810250  1
  Er  Er12  1  0.188436  0.815269  0.188436  1
  Er  Er13  1  0.810250  0.188674  0.810250  1
  Er  Er14  1  0.188436  0.188436  0.815269  1
  Er  Er15  1  0.810250  0.810250  0.188674  1
  Cd  Cd16  1  0.580489  0.580489  0.580489  1
  Cd  Cd17  1  0.580981  0.580981  0.254552  1
  Cd  Cd18  1  0.580981  0.254552  0.580981  1
  Cd  Cd19  1  0.254552  0.580981  0.580981  1
  Ru  Ru20  1  0.143015  0.143015  0.143015  1
  Pt  Pt21  1  0.143290  0.143290  0.572202  1
  Pt  Pt22  1  0.143290  0.572202  0.143290  1
  Pt  Pt23  1  0.572202  0.143290  0.143290  1
