# generated using pymatgen
data_Dy2CuNi5(BIr)2
_symmetry_space_group_name_H-M   'P 1'
_cell_length_a   4.97429400
_cell_length_b   5.20140475
_cell_length_c   7.05055800
_cell_angle_alpha   90.00000000
_cell_angle_beta   90.00000000
_cell_angle_gamma   118.56582809
_symmetry_Int_Tables_number   1
_chemical_formula_structural   Dy2CuNi5(BIr)2
_chemical_formula_sum   'Dy2 Cu1 Ni5 B2 Ir2'
_cell_volume   160.21486428
_cell_formula_units_Z   1
loop_
 _symmetry_equiv_pos_site_id
 _symmetry_equiv_pos_as_xyz
  1  'x, y, z'
loop_
 _atom_site_type_symbol
 _atom_site_label
 _atom_site_symmetry_multiplicity
 _atom_site_fract_x
 _atom_site_fract_y
 _atom_site_fract_z
 _atom_site_occupancy
  Dy  Dy0  1  0.494241  0.988483  0.000000  1
  Dy  Dy1  1  0.500878  0.001755  0.500000  1
  Cu  Cu2  1  0.816400  0.632800  0.000000  1
  Ni  Ni3  1  0.173672  0.347344  0.000000  1
  Ni  Ni4  1  0.500918  0.503156  0.703810  1
  Ni  Ni5  1  0.002238  0.503156  0.703810  1
  Ni  Ni6  1  0.500918  0.503156  0.296190  1
  Ni  Ni7  1  0.002238  0.503156  0.296190  1
  B  B8  1  0.833382  0.666763  0.500000  1
  B  B9  1  0.169336  0.338675  0.500000  1
  Ir  Ir10  1  0.002889  0.005778  0.715549  1
  Ir  Ir11  1  0.002889  0.005778  0.284451  1
