# generated using pymatgen
data_Eu3NpN4
_symmetry_space_group_name_H-M   'P 1'
_cell_length_a   6.01648466
_cell_length_b   6.01648420
_cell_length_c   6.01648400
_cell_angle_alpha   131.61677957
_cell_angle_beta   131.61677562
_cell_angle_gamma   70.83496707
_symmetry_Int_Tables_number   1
_chemical_formula_structural   Eu3NpN4
_chemical_formula_sum   'Eu3 Np1 N4'
_cell_volume   119.21789890
_cell_formula_units_Z   1
loop_
 _symmetry_equiv_pos_site_id
 _symmetry_equiv_pos_as_xyz
  1  'x, y, z'
loop_
 _atom_site_type_symbol
 _atom_site_label
 _atom_site_symmetry_multiplicity
 _atom_site_fract_x
 _atom_site_fract_y
 _atom_site_fract_z
 _atom_site_occupancy
  Eu  Eu0  1  0.250000  0.750000  0.500000  1
  Eu  Eu1  1  0.500000  0.500000  0.000000  1
  Eu  Eu2  1  0.750000  0.250000  0.500000  1
  Np  Np3  1  0.000000  0.000000  0.000000  1
  N  N4  1  0.000000  0.500000  0.500000  1
  N  N5  1  0.210570  0.210570  0.000000  1
  N  N6  1  0.500000  0.000000  0.500000  1
  N  N7  1  0.789430  0.789430  0.000000  1
