# generated using pymatgen
data_Y5Ga2P10Ir19
_symmetry_space_group_name_H-M   'P 1'
_cell_length_a   12.83593050
_cell_length_b   12.76197577
_cell_length_c   3.99263600
_cell_angle_alpha   90.00000000
_cell_angle_beta   90.00000000
_cell_angle_gamma   120.22265907
_symmetry_Int_Tables_number   1
_chemical_formula_structural   Y5Ga2P10Ir19
_chemical_formula_sum   'Y5 Ga2 P10 Ir19'
_cell_volume   565.14102385
_cell_formula_units_Z   1
loop_
 _symmetry_equiv_pos_site_id
 _symmetry_equiv_pos_as_xyz
  1  'x, y, z'
loop_
 _atom_site_type_symbol
 _atom_site_label
 _atom_site_symmetry_multiplicity
 _atom_site_fract_x
 _atom_site_fract_y
 _atom_site_fract_z
 _atom_site_occupancy
  Y  Y0  1  0.002141  0.815466  0.500000  1
  Y  Y1  1  0.180600  0.183281  0.500000  1
  Y  Y2  1  0.816716  0.999543  0.500000  1
  Y  Y3  1  0.333601  0.665824  0.000000  1
  Y  Y4  1  0.665851  0.332905  0.000000  1
  Ga  Ga5  1  0.516666  0.679229  0.500000  1
  Ga  Ga6  1  0.322667  0.837576  0.500000  1
  P  P7  1  0.995058  0.177389  0.000000  1
  P  P8  1  0.826227  0.820131  0.000000  1
  P  P9  1  0.179005  0.001083  0.000000  1
  P  P10  1  0.170004  0.481964  0.500000  1
  P  P11  1  0.479950  0.173183  0.500000  1
  P  P12  1  0.692283  0.518288  0.500000  1
  P  P13  1  0.825056  0.309290  0.500000  1
  P  P14  1  0.003226  0.641695  0.000000  1
  P  P15  1  0.356715  0.362459  0.000000  1
  P  P16  1  0.637765  0.994123  0.000000  1
  Ir  Ir17  1  0.993469  0.282491  0.500000  1
  Ir  Ir18  1  0.727807  0.716448  0.500000  1
  Ir  Ir19  1  0.280513  0.009542  0.500000  1
  Ir  Ir20  1  0.639922  0.810993  0.000000  1
  Ir  Ir21  1  0.187465  0.820559  0.000000  1
  Ir  Ir22  1  0.170414  0.374754  0.000000  1
  Ir  Ir23  1  0.376835  0.187358  0.000000  1
  Ir  Ir24  1  0.808047  0.620867  0.000000  1
  Ir  Ir25  1  0.813402  0.190390  0.000000  1
  Ir  Ir26  1  0.532800  0.884502  0.500000  1
  Ir  Ir27  1  0.125504  0.633054  0.500000  1
  Ir  Ir28  1  0.347188  0.468171  0.500000  1
  Ir  Ir29  1  0.498241  0.365159  0.500000  1
  Ir  Ir30  1  0.867069  0.504533  0.500000  1
  Ir  Ir31  1  0.635932  0.136609  0.500000  1
  Ir  Ir32  1  0.001629  0.002823  0.000000  1
  Ir  Ir33  1  0.992771  0.456556  0.000000  1
  Ir  Ir34  1  0.538463  0.543118  0.000000  1
  Ir  Ir35  1  0.458997  0.998642  0.000000  1
