# generated using pymatgen
data_PrYBeCoSi4
_symmetry_space_group_name_H-M   'P 1'
_cell_length_a   8.51698065
_cell_length_b   8.51698005
_cell_length_c   3.98492900
_cell_angle_alpha   90.00000000
_cell_angle_beta   90.00000000
_cell_angle_gamma   152.19327339
_symmetry_Int_Tables_number   1
_chemical_formula_structural   PrYBeCoSi4
_chemical_formula_sum   'Pr1 Y1 Be1 Co1 Si4'
_cell_volume   134.84494521
_cell_formula_units_Z   1
loop_
 _symmetry_equiv_pos_site_id
 _symmetry_equiv_pos_as_xyz
  1  'x, y, z'
loop_
 _atom_site_type_symbol
 _atom_site_label
 _atom_site_symmetry_multiplicity
 _atom_site_fract_x
 _atom_site_fract_y
 _atom_site_fract_z
 _atom_site_occupancy
  Pr  Pr0  1  0.111996  0.888004  0.250000  1
  Y  Y1  1  0.897779  0.102221  0.750000  1
  Be  Be2  1  0.672878  0.327122  0.750000  1
  Co  Co3  1  0.318037  0.681963  0.250000  1
  Si  Si4  1  0.536360  0.463640  0.750000  1
  Si  Si5  1  0.453816  0.546184  0.250000  1
  Si  Si6  1  0.253597  0.746403  0.750000  1
  Si  Si7  1  0.755536  0.244464  0.250000  1
