# generated using pymatgen
data_Ac20SnBi7Rh4
_symmetry_space_group_name_H-M   'P 1'
_cell_length_a   8.77290501
_cell_length_b   9.88510570
_cell_length_c   13.60760700
_cell_angle_alpha   89.95867908
_cell_angle_beta   90.05476238
_cell_angle_gamma   90.07789367
_symmetry_Int_Tables_number   1
_chemical_formula_structural   Ac20SnBi7Rh4
_chemical_formula_sum   'Ac20 Sn1 Bi7 Rh4'
_cell_volume   1180.06462039
_cell_formula_units_Z   1
loop_
 _symmetry_equiv_pos_site_id
 _symmetry_equiv_pos_as_xyz
  1  'x, y, z'
loop_
 _atom_site_type_symbol
 _atom_site_label
 _atom_site_symmetry_multiplicity
 _atom_site_fract_x
 _atom_site_fract_y
 _atom_site_fract_z
 _atom_site_occupancy
  Ac  Ac0  1  0.347812  0.747510  0.708084  1
  Ac  Ac1  1  0.653353  0.249340  0.293678  1
  Ac  Ac2  1  0.844393  0.254273  0.794070  1
  Ac  Ac3  1  0.152209  0.749519  0.203857  1
  Ac  Ac4  1  0.870910  0.746666  0.807260  1
  Ac  Ac5  1  0.124042  0.249913  0.192544  1
  Ac  Ac6  1  0.379494  0.253122  0.694511  1
  Ac  Ac7  1  0.622807  0.749682  0.307669  1
  Ac  Ac8  1  0.677550  0.540756  0.572166  1
  Ac  Ac9  1  0.321136  0.459349  0.432415  1
  Ac  Ac10  1  0.182619  0.459528  0.931428  1
  Ac  Ac11  1  0.321123  0.041478  0.433447  1
  Ac  Ac12  1  0.820345  0.540671  0.064609  1
  Ac  Ac13  1  0.679296  0.958527  0.567936  1
  Ac  Ac14  1  0.819956  0.960600  0.067342  1
  Ac  Ac15  1  0.179005  0.039777  0.932071  1
  Ac  Ac16  1  0.054371  0.749952  0.496263  1
  Ac  Ac17  1  0.946791  0.249877  0.503393  1
  Ac  Ac18  1  0.554999  0.253080  0.002348  1
  Ac  Ac19  1  0.448442  0.747400  0.994543  1
  Sn  Sn20  1  0.570697  0.504255  0.830689  1
  Bi  Bi21  1  0.427488  0.494903  0.171350  1
  Bi  Bi22  1  0.072456  0.495174  0.670299  1
  Bi  Bi23  1  0.427105  0.004579  0.170260  1
  Bi  Bi24  1  0.927732  0.505120  0.328970  1
  Bi  Bi25  1  0.572298  0.995671  0.829363  1
  Bi  Bi26  1  0.928164  0.994320  0.329022  1
  Bi  Bi27  1  0.072320  0.005011  0.671132  1
  Rh  Rh28  1  0.075691  0.750264  0.989979  1
  Rh  Rh29  1  0.924186  0.249278  0.008296  1
  Rh  Rh30  1  0.578247  0.249685  0.508599  1
  Rh  Rh31  1  0.422966  0.750719  0.492405  1
