# generated using pymatgen
data_Yb4ReTc3B16
_symmetry_space_group_name_H-M   'P 1'
_cell_length_a   3.53870400
_cell_length_b   5.99563844
_cell_length_c   11.60594123
_cell_angle_alpha   89.98950373
_cell_angle_beta   90.00000000
_cell_angle_gamma   90.00000000
_symmetry_Int_Tables_number   1
_chemical_formula_structural   Yb4ReTc3B16
_chemical_formula_sum   'Yb4 Re1 Tc3 B16'
_cell_volume   246.24081032
_cell_formula_units_Z   1
loop_
 _symmetry_equiv_pos_site_id
 _symmetry_equiv_pos_as_xyz
  1  'x, y, z'
loop_
 _atom_site_type_symbol
 _atom_site_label
 _atom_site_symmetry_multiplicity
 _atom_site_fract_x
 _atom_site_fract_y
 _atom_site_fract_z
 _atom_site_occupancy
  Yb  Yb0  1  0.500000  0.372504  0.150722  1
  Yb  Yb1  1  0.500000  0.626811  0.849237  1
  Yb  Yb2  1  0.500000  0.126569  0.650279  1
  Yb  Yb3  1  0.500000  0.873687  0.350225  1
  Re  Re4  1  0.500000  0.870693  0.083486  1
  Tc  Tc5  1  0.500000  0.371393  0.416808  1
  Tc  Tc6  1  0.500000  0.628423  0.583359  1
  Tc  Tc7  1  0.500000  0.128984  0.916586  1
  B  B8  1  0.000000  0.115703  0.047569  1
  B  B9  1  0.000000  0.885219  0.951874  1
  B  B10  1  0.000000  0.385314  0.547403  1
  B  B11  1  0.000000  0.614531  0.452324  1
  B  B12  1  0.000000  0.134573  0.467601  1
  B  B13  1  0.000000  0.865749  0.532309  1
  B  B14  1  0.000000  0.365675  0.967455  1
  B  B15  1  0.000000  0.633497  0.031686  1
  B  B16  1  0.000000  0.025946  0.193298  1
  B  B17  1  0.000000  0.975446  0.806742  1
  B  B18  1  0.000000  0.475260  0.693005  1
  B  B19  1  0.000000  0.524262  0.307286  1
  B  B20  1  0.000000  0.216284  0.315161  1
  B  B21  1  0.000000  0.784352  0.685129  1
  B  B22  1  0.000000  0.284094  0.814764  1
  B  B23  1  0.000000  0.715034  0.185693  1
