# generated using pymatgen
data_Er23TmRu14
_symmetry_space_group_name_H-M   'P 1'
_cell_length_a   11.20983359
_cell_length_b   8.29832413
_cell_length_c   11.17423385
_cell_angle_alpha   56.55801254
_cell_angle_beta   89.79574849
_cell_angle_gamma   89.95177714
_symmetry_Int_Tables_number   1
_chemical_formula_structural   Er23TmRu14
_chemical_formula_sum   'Er23 Tm1 Ru14'
_cell_volume   867.36417742
_cell_formula_units_Z   1
loop_
 _symmetry_equiv_pos_site_id
 _symmetry_equiv_pos_as_xyz
  1  'x, y, z'
loop_
 _atom_site_type_symbol
 _atom_site_label
 _atom_site_symmetry_multiplicity
 _atom_site_fract_x
 _atom_site_fract_y
 _atom_site_fract_z
 _atom_site_occupancy
  Er  Er0  1  0.205590  0.756652  0.969301  1
  Er  Er1  1  0.844498  0.508052  0.655065  1
  Er  Er2  1  0.344566  0.491708  0.844893  1
  Er  Er3  1  0.155437  0.491929  0.344817  1
  Er  Er4  1  0.655378  0.508129  0.155306  1
  Er  Er5  1  0.006923  0.851614  0.362220  1
  Er  Er6  1  0.506854  0.148289  0.137696  1
  Er  Er7  1  0.992957  0.148137  0.637848  1
  Er  Er8  1  0.493215  0.851766  0.862300  1
  Er  Er9  1  0.794395  0.243363  0.030564  1
  Er  Er10  1  0.294461  0.756622  0.469278  1
  Er  Er11  1  0.931214  0.777309  0.090453  1
  Er  Er12  1  0.431818  0.222520  0.409812  1
  Er  Er13  1  0.068815  0.222603  0.909573  1
  Er  Er14  1  0.568727  0.777424  0.590537  1
  Er  Er15  1  0.301697  0.240742  0.674857  1
  Er  Er16  1  0.801522  0.759567  0.825084  1
  Er  Er17  1  0.698260  0.759181  0.325256  1
  Er  Er18  1  0.198481  0.240607  0.174885  1
  Er  Er19  1  0.925117  0.279835  0.293409  1
  Er  Er20  1  0.425046  0.720220  0.206683  1
  Er  Er21  1  0.074802  0.720029  0.706694  1
  Er  Er22  1  0.574936  0.279687  0.793142  1
  Tm  Tm23  1  0.705925  0.243691  0.530403  1
  Ru  Ru24  1  0.500075  0.499554  0.499993  1
  Ru  Ru25  1  0.000264  0.500048  0.999942  1
  Ru  Ru26  1  0.647442  0.924123  0.034254  1
  Ru  Ru27  1  0.147777  0.075570  0.466294  1
  Ru  Ru28  1  0.352141  0.076000  0.965902  1
  Ru  Ru29  1  0.852088  0.924702  0.533749  1
  Ru  Ru30  1  0.398300  0.485245  0.102959  1
  Ru  Ru31  1  0.898271  0.515130  0.396720  1
  Ru  Ru32  1  0.601670  0.515562  0.896273  1
  Ru  Ru33  1  0.101786  0.484436  0.603468  1
  Ru  Ru34  1  0.820682  0.099540  0.848885  1
  Ru  Ru35  1  0.320426  0.900303  0.650870  1
  Ru  Ru36  1  0.179292  0.900237  0.150927  1
  Ru  Ru37  1  0.679152  0.099872  0.349687  1
