# generated using pymatgen
data_Ca8NdSm(Sn3H)2
_symmetry_space_group_name_H-M   'P 1'
_cell_length_a   9.46632402
_cell_length_b   9.46632330
_cell_length_c   9.47211879
_cell_angle_alpha   128.91546468
_cell_angle_beta   128.91546576
_cell_angle_gamma   75.08160128
_symmetry_Int_Tables_number   1
_chemical_formula_structural   Ca8NdSm(Sn3H)2
_chemical_formula_sum   'Ca8 Nd1 Sm1 Sn6 H2'
_cell_volume   500.50573761
_cell_formula_units_Z   1
loop_
 _symmetry_equiv_pos_site_id
 _symmetry_equiv_pos_as_xyz
  1  'x, y, z'
loop_
 _atom_site_type_symbol
 _atom_site_label
 _atom_site_symmetry_multiplicity
 _atom_site_fract_x
 _atom_site_fract_y
 _atom_site_fract_z
 _atom_site_occupancy
  Ca  Ca0  1  0.501707  0.501989  0.999943  1
  Ca  Ca1  1  0.001989  0.001707  0.999943  1
  Ca  Ca2  1  0.008326  0.186701  0.500228  1
  Ca  Ca3  1  0.686701  0.508326  0.500228  1
  Ca  Ca4  1  0.489123  0.989123  0.180091  1
  Ca  Ca5  1  0.809408  0.309408  0.820284  1
  Ca  Ca6  1  0.988386  0.811943  0.499717  1
  Ca  Ca7  1  0.311943  0.488386  0.499717  1
  Nd  Nd8  1  0.519563  0.019563  0.835059  1
  Sm  Sm9  1  0.185537  0.685537  0.166432  1
  Sn  Sn10  1  0.252620  0.253909  0.000282  1
  Sn  Sn11  1  0.753909  0.752620  0.000282  1
  Sn  Sn12  1  0.871271  0.371271  0.244576  1
  Sn  Sn13  1  0.127402  0.627402  0.756963  1
  Sn  Sn14  1  0.366857  0.123485  0.499219  1
  Sn  Sn15  1  0.623485  0.866857  0.499219  1
  H  H16  1  0.254151  0.754151  0.497921  1
  H  H17  1  0.747624  0.247624  0.499898  1
