# generated using pymatgen
data_Zr10Sn3Ge2Sb3
_symmetry_space_group_name_H-M   'P 1'
_cell_length_a   8.70931300
_cell_length_b   8.70931335
_cell_length_c   5.89165600
_cell_angle_alpha   90.00000000
_cell_angle_beta   90.00000000
_cell_angle_gamma   119.99999487
_symmetry_Int_Tables_number   1
_chemical_formula_structural   Zr10Sn3Ge2Sb3
_chemical_formula_sum   'Zr10 Sn3 Ge2 Sb3'
_cell_volume   387.02217612
_cell_formula_units_Z   1
loop_
 _symmetry_equiv_pos_site_id
 _symmetry_equiv_pos_as_xyz
  1  'x, y, z'
loop_
 _atom_site_type_symbol
 _atom_site_label
 _atom_site_symmetry_multiplicity
 _atom_site_fract_x
 _atom_site_fract_y
 _atom_site_fract_z
 _atom_site_occupancy
  Zr  Zr0  1  0.666667  0.333333  0.998135  1
  Zr  Zr1  1  0.333333  0.666667  0.998135  1
  Zr  Zr2  1  0.333333  0.666667  0.501865  1
  Zr  Zr3  1  0.666667  0.333333  0.501865  1
  Zr  Zr4  1  0.733477  0.733477  0.750000  1
  Zr  Zr5  1  0.266523  0.000000  0.750000  1
  Zr  Zr6  1  0.000000  0.266523  0.750000  1
  Zr  Zr7  1  0.261390  0.261390  0.250000  1
  Zr  Zr8  1  0.738610  0.000000  0.250000  1
  Zr  Zr9  1  0.000000  0.738610  0.250000  1
  Sn  Sn10  1  0.390211  0.390211  0.750000  1
  Sn  Sn11  1  0.609789  0.000000  0.750000  1
  Sn  Sn12  1  0.000000  0.609789  0.750000  1
  Ge  Ge13  1  0.000000  0.000000  0.996498  1
  Ge  Ge14  1  0.000000  0.000000  0.503502  1
  Sb  Sb15  1  0.603879  0.603879  0.250000  1
  Sb  Sb16  1  0.396121  0.000000  0.250000  1
  Sb  Sb17  1  0.000000  0.396121  0.250000  1
