# generated using pymatgen
data_HoNpV3Ni9As7
_symmetry_space_group_name_H-M   'P 1'
_cell_length_a   9.50077400
_cell_length_b   9.50077387
_cell_length_c   3.81307300
_cell_angle_alpha   90.00000000
_cell_angle_beta   90.00000000
_cell_angle_gamma   120.00000633
_symmetry_Int_Tables_number   1
_chemical_formula_structural   HoNpV3Ni9As7
_chemical_formula_sum   'Ho1 Np1 V3 Ni9 As7'
_cell_volume   298.07372337
_cell_formula_units_Z   1
loop_
 _symmetry_equiv_pos_site_id
 _symmetry_equiv_pos_as_xyz
  1  'x, y, z'
loop_
 _atom_site_type_symbol
 _atom_site_label
 _atom_site_symmetry_multiplicity
 _atom_site_fract_x
 _atom_site_fract_y
 _atom_site_fract_z
 _atom_site_occupancy
  Ho  Ho0  1  0.000000  0.000000  0.500000  1
  Np  Np1  1  0.333333  0.666667  0.000000  1
  V  V2  1  0.768272  0.548478  0.500000  1
  V  V3  1  0.451522  0.219793  0.500000  1
  V  V4  1  0.780207  0.231728  0.500000  1
  Ni  Ni5  1  0.288097  0.386031  0.500000  1
  Ni  Ni6  1  0.613969  0.902066  0.500000  1
  Ni  Ni7  1  0.097934  0.711903  0.500000  1
  Ni  Ni8  1  0.513777  0.461008  0.000000  1
  Ni  Ni9  1  0.538992  0.052768  0.000000  1
  Ni  Ni10  1  0.947232  0.486223  0.000000  1
  Ni  Ni11  1  0.727366  0.766310  0.000000  1
  Ni  Ni12  1  0.233690  0.961056  0.000000  1
  Ni  Ni13  1  0.038944  0.272634  0.000000  1
  As  As14  1  0.960759  0.742590  0.000000  1
  As  As15  1  0.257410  0.218169  0.000000  1
  As  As16  1  0.781831  0.039241  0.000000  1
  As  As17  1  0.666667  0.333333  0.000000  1
  As  As18  1  0.554263  0.627529  0.500000  1
  As  As19  1  0.372471  0.926734  0.500000  1
  As  As20  1  0.073266  0.445737  0.500000  1
