# generated using pymatgen
data_Rb3Mn2InBr8
_symmetry_space_group_name_H-M   'P 1'
_cell_length_a   7.90935400
_cell_length_b   10.13495432
_cell_length_c   13.77606400
_cell_angle_alpha   90.21793464
_cell_angle_beta   90.00000000
_cell_angle_gamma   90.00000000
_symmetry_Int_Tables_number   1
_chemical_formula_structural   Rb3Mn2InBr8
_chemical_formula_sum   'Rb6 Mn4 In2 Br16'
_cell_volume   1104.29427135
_cell_formula_units_Z   2
loop_
 _symmetry_equiv_pos_site_id
 _symmetry_equiv_pos_as_xyz
  1  'x, y, z'
loop_
 _atom_site_type_symbol
 _atom_site_label
 _atom_site_symmetry_multiplicity
 _atom_site_fract_x
 _atom_site_fract_y
 _atom_site_fract_z
 _atom_site_occupancy
  Rb  Rb0  1  0.250000  0.615461  0.435689  1
  Rb  Rb1  1  0.250000  0.477258  0.824331  1
  Rb  Rb2  1  0.750000  0.026984  0.326065  1
  Rb  Rb3  1  0.750000  0.384539  0.564311  1
  Rb  Rb4  1  0.750000  0.522742  0.175669  1
  Rb  Rb5  1  0.250000  0.973016  0.673935  1
  Mn  Mn6  1  0.250000  0.729143  0.065405  1
  Mn  Mn7  1  0.750000  0.779615  0.571479  1
  Mn  Mn8  1  0.250000  0.220385  0.428521  1
  Mn  Mn9  1  0.750000  0.270857  0.934595  1
  In  In10  1  0.250000  0.106919  0.043400  1
  In  In11  1  0.750000  0.893081  0.956600  1
  Br  Br12  1  0.998100  0.329138  0.354208  1
  Br  Br13  1  0.250000  0.301501  0.601285  1
  Br  Br14  1  0.250000  0.810965  0.895841  1
  Br  Br15  1  0.509005  0.835059  0.137504  1
  Br  Br16  1  0.490995  0.164941  0.862496  1
  Br  Br17  1  0.009005  0.164941  0.862496  1
  Br  Br18  1  0.001900  0.670862  0.645792  1
  Br  Br19  1  0.750000  0.024090  0.583934  1
  Br  Br20  1  0.498100  0.670862  0.645792  1
  Br  Br21  1  0.750000  0.512831  0.915770  1
  Br  Br22  1  0.990995  0.835059  0.137504  1
  Br  Br23  1  0.501900  0.329138  0.354208  1
  Br  Br24  1  0.250000  0.487169  0.084230  1
  Br  Br25  1  0.250000  0.975910  0.416066  1
  Br  Br26  1  0.750000  0.698499  0.398715  1
  Br  Br27  1  0.750000  0.189035  0.104159  1
