# generated using pymatgen
data_Lu3Sc2InSb2
_symmetry_space_group_name_H-M   'P 1'
_cell_length_a   6.13378801
_cell_length_b   8.69202167
_cell_length_c   8.66790005
_cell_angle_alpha   120.09210848
_cell_angle_beta   90.00088541
_cell_angle_gamma   89.99826394
_symmetry_Int_Tables_number   1
_chemical_formula_structural   Lu3Sc2InSb2
_chemical_formula_sum   'Lu6 Sc4 In2 Sb4'
_cell_volume   399.84369432
_cell_formula_units_Z   2
loop_
 _symmetry_equiv_pos_site_id
 _symmetry_equiv_pos_as_xyz
  1  'x, y, z'
loop_
 _atom_site_type_symbol
 _atom_site_label
 _atom_site_symmetry_multiplicity
 _atom_site_fract_x
 _atom_site_fract_y
 _atom_site_fract_z
 _atom_site_occupancy
  Lu  Lu0  1  0.750002  0.240807  0.000000  1
  Lu  Lu1  1  0.750008  0.762090  0.759968  1
  Lu  Lu2  1  0.750008  0.002122  0.240032  1
  Lu  Lu3  1  0.250010  0.761258  0.000000  1
  Lu  Lu4  1  0.250001  0.236639  0.241469  1
  Lu  Lu5  1  0.250001  0.995170  0.758531  1
  Sc  Sc6  1  0.500578  0.332697  0.664154  1
  Sc  Sc7  1  0.500578  0.668543  0.335846  1
  Sc  Sc8  1  0.999424  0.668556  0.335859  1
  Sc  Sc9  1  0.999424  0.332696  0.664141  1
  In  In10  1  0.249999  0.601409  0.602179  1
  In  In11  1  0.249999  0.999230  0.397821  1
  Sb  Sb12  1  0.749989  0.604934  0.000000  1
  Sb  Sb13  1  0.749996  0.398468  0.396420  1
  Sb  Sb14  1  0.749996  0.002047  0.603580  1
  Sb  Sb15  1  0.249992  0.393336  0.000000  1
