# generated using pymatgen
data_Dy3Mg2PaNi4
_symmetry_space_group_name_H-M   'P 1'
_cell_length_a   7.46146362
_cell_length_b   7.46146344
_cell_length_c   3.57383900
_cell_angle_alpha   90.00000000
_cell_angle_beta   90.00000000
_cell_angle_gamma   92.09534366
_symmetry_Int_Tables_number   1
_chemical_formula_structural   Dy3Mg2PaNi4
_chemical_formula_sum   'Dy3 Mg2 Pa1 Ni4'
_cell_volume   198.83486797
_cell_formula_units_Z   1
loop_
 _symmetry_equiv_pos_site_id
 _symmetry_equiv_pos_as_xyz
  1  'x, y, z'
loop_
 _atom_site_type_symbol
 _atom_site_label
 _atom_site_symmetry_multiplicity
 _atom_site_fract_x
 _atom_site_fract_y
 _atom_site_fract_z
 _atom_site_occupancy
  Dy  Dy0  1  0.327952  0.827952  0.500000  1
  Dy  Dy1  1  0.169240  0.332195  0.500000  1
  Dy  Dy2  1  0.832195  0.669240  0.500000  1
  Mg  Mg3  1  0.002566  0.999494  0.000000  1
  Mg  Mg4  1  0.499494  0.502566  0.000000  1
  Pa  Pa5  1  0.667114  0.167114  0.500000  1
  Ni  Ni6  1  0.115734  0.615734  0.000000  1
  Ni  Ni7  1  0.858732  0.358732  0.000000  1
  Ni  Ni8  1  0.632043  0.894930  0.000000  1
  Ni  Ni9  1  0.394930  0.132043  0.000000  1
