# generated using pymatgen
data_Tc3S4Cl
_symmetry_space_group_name_H-M   'P 1'
_cell_length_a   11.46050400
_cell_length_b   6.43256333
_cell_length_c   11.18815946
_cell_angle_alpha   68.49969948
_cell_angle_beta   90.00000000
_cell_angle_gamma   90.00000000
_symmetry_Int_Tables_number   1
_chemical_formula_structural   Tc3S4Cl
_chemical_formula_sum   'Tc12 S16 Cl4'
_cell_volume   767.40290708
_cell_formula_units_Z   4
loop_
 _symmetry_equiv_pos_site_id
 _symmetry_equiv_pos_as_xyz
  1  'x, y, z'
loop_
 _atom_site_type_symbol
 _atom_site_label
 _atom_site_symmetry_multiplicity
 _atom_site_fract_x
 _atom_site_fract_y
 _atom_site_fract_z
 _atom_site_occupancy
  Tc  Tc0  1  0.978963  0.303830  0.939864  1
  Tc  Tc1  1  0.021037  0.696170  0.060136  1
  Tc  Tc2  1  0.355061  0.033093  0.563399  1
  Tc  Tc3  1  0.069871  0.024847  0.846285  1
  Tc  Tc4  1  0.569871  0.975153  0.653715  1
  Tc  Tc5  1  0.144939  0.033093  0.063399  1
  Tc  Tc6  1  0.644939  0.966907  0.436601  1
  Tc  Tc7  1  0.430129  0.024847  0.346285  1
  Tc  Tc8  1  0.930129  0.975153  0.153715  1
  Tc  Tc9  1  0.855061  0.966907  0.936601  1
  Tc  Tc10  1  0.521037  0.303830  0.439864  1
  Tc  Tc11  1  0.478963  0.696170  0.560136  1
  S  S12  1  0.824903  0.667741  0.138280  1
  S  S13  1  0.411574  0.729205  0.754230  1
  S  S14  1  0.553250  0.719201  0.346637  1
  S  S15  1  0.088426  0.729205  0.254230  1
  S  S16  1  0.324903  0.332259  0.361720  1
  S  S17  1  0.911574  0.270795  0.745770  1
  S  S18  1  0.714173  0.227120  0.526062  1
  S  S19  1  0.675097  0.667741  0.638280  1
  S  S20  1  0.785827  0.227120  0.026062  1
  S  S21  1  0.285827  0.772880  0.473938  1
  S  S22  1  0.588426  0.270795  0.245770  1
  S  S23  1  0.946750  0.719201  0.846637  1
  S  S24  1  0.175097  0.332259  0.861720  1
  S  S25  1  0.053250  0.280799  0.153363  1
  S  S26  1  0.446750  0.280799  0.653363  1
  S  S27  1  0.214173  0.772880  0.973938  1
  Cl  Cl28  1  0.848166  0.919695  0.369753  1
  Cl  Cl29  1  0.151834  0.080305  0.630247  1
  Cl  Cl30  1  0.348166  0.080305  0.130247  1
  Cl  Cl31  1  0.651834  0.919695  0.869753  1
