# generated using pymatgen
data_YbSc4(Sn3Os)6
_symmetry_space_group_name_H-M   'P 1'
_cell_length_a   9.76674018
_cell_length_b   9.76849105
_cell_length_c   9.76770432
_cell_angle_alpha   60.26302377
_cell_angle_beta   60.24624149
_cell_angle_gamma   60.23953354
_symmetry_Int_Tables_number   1
_chemical_formula_structural   YbSc4(Sn3Os)6
_chemical_formula_sum   'Yb1 Sc4 Sn18 Os6'
_cell_volume   662.67635670
_cell_formula_units_Z   1
loop_
 _symmetry_equiv_pos_site_id
 _symmetry_equiv_pos_as_xyz
  1  'x, y, z'
loop_
 _atom_site_type_symbol
 _atom_site_label
 _atom_site_symmetry_multiplicity
 _atom_site_fract_x
 _atom_site_fract_y
 _atom_site_fract_z
 _atom_site_occupancy
  Yb  Yb0  1  0.999417  0.999473  0.999545  1
  Sc  Sc1  1  0.376100  0.376174  0.876029  1
  Sc  Sc2  1  0.376102  0.876056  0.376147  1
  Sc  Sc3  1  0.876198  0.376080  0.376144  1
  Sc  Sc4  1  0.374293  0.374292  0.374333  1
  Sn  Sn5  1  0.592337  0.592140  0.226159  1
  Sn  Sn6  1  0.592292  0.226175  0.592161  1
  Sn  Sn7  1  0.226134  0.592224  0.592222  1
  Sn  Sn8  1  0.600664  0.600687  0.600580  1
  Sn  Sn9  1  0.735126  0.734848  0.734861  1
  Sn  Sn10  1  0.000968  0.349625  0.649734  1
  Sn  Sn11  1  0.001267  0.001340  0.648285  1
  Sn  Sn12  1  0.349466  0.001041  0.649672  1
  Sn  Sn13  1  0.001144  0.649619  0.349564  1
  Sn  Sn14  1  0.349555  0.649681  0.001047  1
  Sn  Sn15  1  0.001298  0.648305  0.001304  1
  Sn  Sn16  1  0.648169  0.001494  0.001404  1
  Sn  Sn17  1  0.649589  0.349530  0.001147  1
  Sn  Sn18  1  0.649518  0.001201  0.349526  1
  Sn  Sn19  1  0.347564  0.001179  0.001285  1
  Sn  Sn20  1  0.001306  0.001183  0.347668  1
  Sn  Sn21  1  0.001137  0.347687  0.001258  1
  Sn  Sn22  1  0.248842  0.248588  0.248474  1
  Os  Os23  1  0.261723  0.261697  0.739099  1
  Os  Os24  1  0.741158  0.256589  0.741169  1
  Os  Os25  1  0.256509  0.741168  0.741183  1
  Os  Os26  1  0.741224  0.741230  0.256516  1
  Os  Os27  1  0.261803  0.739009  0.261744  1
  Os  Os28  1  0.739107  0.261695  0.261749  1
