# generated using pymatgen
data_SrNd(Ni9P5)2
_symmetry_space_group_name_H-M   'P 1'
_cell_length_a   6.49629900
_cell_length_b   6.49629878
_cell_length_c   10.75269200
_cell_angle_alpha   90.00000000
_cell_angle_beta   90.00000000
_cell_angle_gamma   119.99999602
_symmetry_Int_Tables_number   1
_chemical_formula_structural   SrNd(Ni9P5)2
_chemical_formula_sum   'Sr1 Nd1 Ni18 P10'
_cell_volume   392.98850896
_cell_formula_units_Z   1
loop_
 _symmetry_equiv_pos_site_id
 _symmetry_equiv_pos_as_xyz
  1  'x, y, z'
loop_
 _atom_site_type_symbol
 _atom_site_label
 _atom_site_symmetry_multiplicity
 _atom_site_fract_x
 _atom_site_fract_y
 _atom_site_fract_z
 _atom_site_occupancy
  Sr  Sr0  1  0.000000  0.000000  0.500000  1
  Nd  Nd1  1  0.000000  0.000000  0.000000  1
  Ni  Ni2  1  0.536022  0.072044  0.106084  1
  Ni  Ni3  1  0.464437  0.535563  0.607682  1
  Ni  Ni4  1  0.071127  0.535563  0.607682  1
  Ni  Ni5  1  0.927956  0.463978  0.106084  1
  Ni  Ni6  1  0.536022  0.463978  0.106084  1
  Ni  Ni7  1  0.463978  0.927956  0.893916  1
  Ni  Ni8  1  0.463978  0.536022  0.893916  1
  Ni  Ni9  1  0.464437  0.928873  0.607682  1
  Ni  Ni10  1  0.072044  0.536022  0.893916  1
  Ni  Ni11  1  0.928873  0.464437  0.392318  1
  Ni  Ni12  1  0.535563  0.071127  0.392318  1
  Ni  Ni13  1  0.535563  0.464437  0.392318  1
  Ni  Ni14  1  0.202220  0.404439  0.248053  1
  Ni  Ni15  1  0.797780  0.202220  0.751947  1
  Ni  Ni16  1  0.404439  0.202220  0.751947  1
  Ni  Ni17  1  0.595561  0.797780  0.248053  1
  Ni  Ni18  1  0.202220  0.797780  0.248053  1
  Ni  Ni19  1  0.797780  0.595561  0.751947  1
  P  P20  1  0.825976  0.651951  0.248707  1
  P  P21  1  0.174024  0.825976  0.751293  1
  P  P22  1  0.651951  0.825976  0.751293  1
  P  P23  1  0.348049  0.174024  0.248707  1
  P  P24  1  0.825976  0.174024  0.248707  1
  P  P25  1  0.174024  0.348049  0.751293  1
  P  P26  1  0.333333  0.666667  0.062242  1
  P  P27  1  0.666667  0.333333  0.561441  1
  P  P28  1  0.666667  0.333333  0.937758  1
  P  P29  1  0.333333  0.666667  0.438559  1
