# generated using pymatgen
data_Pr7ZnPd2
_symmetry_space_group_name_H-M   'P 1'
_cell_length_a   3.88161900
_cell_length_b   12.46189000
_cell_length_c   12.46189000
_cell_angle_alpha   90.00000000
_cell_angle_beta   90.00000000
_cell_angle_gamma   90.00000000
_symmetry_Int_Tables_number   1
_chemical_formula_structural   Pr7ZnPd2
_chemical_formula_sum   'Pr14 Zn2 Pd4'
_cell_volume   602.81039380
_cell_formula_units_Z   2
loop_
 _symmetry_equiv_pos_site_id
 _symmetry_equiv_pos_as_xyz
  1  'x, y, z'
loop_
 _atom_site_type_symbol
 _atom_site_label
 _atom_site_symmetry_multiplicity
 _atom_site_fract_x
 _atom_site_fract_y
 _atom_site_fract_z
 _atom_site_occupancy
  Pr  Pr0  1  0.500000  0.000000  0.500000  1
  Pr  Pr1  1  0.500000  0.500000  0.000000  1
  Pr  Pr2  1  0.000000  0.318976  0.818976  1
  Pr  Pr3  1  0.000000  0.681024  0.181024  1
  Pr  Pr4  1  0.000000  0.181024  0.318976  1
  Pr  Pr5  1  0.000000  0.818976  0.681024  1
  Pr  Pr6  1  0.500000  0.556318  0.697791  1
  Pr  Pr7  1  0.500000  0.443682  0.302209  1
  Pr  Pr8  1  0.500000  0.943682  0.197791  1
  Pr  Pr9  1  0.500000  0.056318  0.802209  1
  Pr  Pr10  1  0.500000  0.697791  0.443682  1
  Pr  Pr11  1  0.500000  0.302209  0.556318  1
  Pr  Pr12  1  0.500000  0.197791  0.056318  1
  Pr  Pr13  1  0.500000  0.802209  0.943682  1
  Zn  Zn14  1  0.000000  0.500000  0.500000  1
  Zn  Zn15  1  0.000000  0.000000  0.000000  1
  Pd  Pd16  1  0.000000  0.131851  0.631851  1
  Pd  Pd17  1  0.000000  0.868149  0.368149  1
  Pd  Pd18  1  0.000000  0.368149  0.131851  1
  Pd  Pd19  1  0.000000  0.631851  0.868149  1
