# generated using pymatgen
data_TbY3(LuIn5)2
_symmetry_space_group_name_H-M   'P 1'
_cell_length_a   6.54170200
_cell_length_b   10.35476901
_cell_length_c   12.18682900
_cell_angle_alpha   90.00000000
_cell_angle_beta   90.00000000
_cell_angle_gamma   90.00406269
_symmetry_Int_Tables_number   1
_chemical_formula_structural   TbY3(LuIn5)2
_chemical_formula_sum   'Tb2 Y6 Lu4 In20'
_cell_volume   825.50914376
_cell_formula_units_Z   2
loop_
 _symmetry_equiv_pos_site_id
 _symmetry_equiv_pos_as_xyz
  1  'x, y, z'
loop_
 _atom_site_type_symbol
 _atom_site_label
 _atom_site_symmetry_multiplicity
 _atom_site_fract_x
 _atom_site_fract_y
 _atom_site_fract_z
 _atom_site_occupancy
  Tb  Tb0  1  0.887190  0.488894  0.142017  1
  Tb  Tb1  1  0.612810  0.011106  0.642017  1
  Y  Y2  1  0.112822  0.988894  0.857976  1
  Y  Y3  1  0.387178  0.511106  0.357976  1
  Y  Y4  1  0.112811  0.511109  0.857989  1
  Y  Y5  1  0.387189  0.988891  0.357989  1
  Y  Y6  1  0.887187  0.011113  0.142019  1
  Y  Y7  1  0.612813  0.488887  0.642019  1
  Lu  Lu8  1  0.352754  0.749989  0.052410  1
  Lu  Lu9  1  0.147246  0.750011  0.552410  1
  Lu  Lu10  1  0.647257  0.249999  0.947597  1
  Lu  Lu11  1  0.852743  0.250001  0.447597  1
  In  In12  1  0.610003  0.749989  0.505401  1
  In  In13  1  0.889997  0.750011  0.005401  1
  In  In14  1  0.389991  0.250004  0.494588  1
  In  In15  1  0.110009  0.249996  0.994588  1
  In  In16  1  0.650352  0.749998  0.241774  1
  In  In17  1  0.849648  0.750002  0.741774  1
  In  In18  1  0.349642  0.249998  0.758224  1
  In  In19  1  0.150358  0.250002  0.258224  1
  In  In20  1  0.117327  0.749995  0.278012  1
  In  In21  1  0.382673  0.750005  0.778012  1
  In  In22  1  0.882678  0.250008  0.721989  1
  In  In23  1  0.617322  0.249992  0.221989  1
  In  In24  1  0.871712  0.543209  0.401711  1
  In  In25  1  0.628288  0.956791  0.901711  1
  In  In26  1  0.128273  0.043203  0.598294  1
  In  In27  1  0.371727  0.456797  0.098294  1
  In  In28  1  0.128283  0.456795  0.598295  1
  In  In29  1  0.371717  0.043205  0.098295  1
  In  In30  1  0.871716  0.956793  0.401706  1
  In  In31  1  0.628284  0.543207  0.901706  1
