# generated using pymatgen
data_TbYb5CuNi13B4
_symmetry_space_group_name_H-M   'P 1'
_cell_length_a   5.01685300
_cell_length_b   5.01685312
_cell_length_c   14.10115200
_cell_angle_alpha   90.00000000
_cell_angle_beta   90.00000000
_cell_angle_gamma   120.00000577
_symmetry_Int_Tables_number   1
_chemical_formula_structural   TbYb5CuNi13B4
_chemical_formula_sum   'Tb1 Yb5 Cu1 Ni13 B4'
_cell_volume   307.36043551
_cell_formula_units_Z   1
loop_
 _symmetry_equiv_pos_site_id
 _symmetry_equiv_pos_as_xyz
  1  'x, y, z'
loop_
 _atom_site_type_symbol
 _atom_site_label
 _atom_site_symmetry_multiplicity
 _atom_site_fract_x
 _atom_site_fract_y
 _atom_site_fract_z
 _atom_site_occupancy
  Tb  Tb0  1  0.666667  0.333333  0.534078  1
  Yb  Yb1  1  0.333333  0.666667  0.462856  1
  Yb  Yb2  1  0.333333  0.666667  0.037505  1
  Yb  Yb3  1  0.666667  0.333333  0.752379  1
  Yb  Yb4  1  0.666667  0.333333  0.963805  1
  Yb  Yb5  1  0.333333  0.666667  0.250990  1
  Cu  Cu6  1  0.000000  0.000000  0.000055  1
  Ni  Ni7  1  0.165737  0.331474  0.650129  1
  Ni  Ni8  1  0.331537  0.165768  0.349636  1
  Ni  Ni9  1  0.332934  0.166467  0.150361  1
  Ni  Ni10  1  0.166473  0.833527  0.849922  1
  Ni  Ni11  1  0.834232  0.668463  0.349636  1
  Ni  Ni12  1  0.833533  0.166467  0.150361  1
  Ni  Ni13  1  0.668526  0.834263  0.650129  1
  Ni  Ni14  1  0.667054  0.833527  0.849922  1
  Ni  Ni15  1  0.165737  0.834263  0.650129  1
  Ni  Ni16  1  0.833533  0.667066  0.150361  1
  Ni  Ni17  1  0.166473  0.332946  0.849922  1
  Ni  Ni18  1  0.834232  0.165768  0.349636  1
  Ni  Ni19  1  0.000000  0.000000  0.499063  1
  B  B20  1  0.666667  0.333333  0.249564  1
  B  B21  1  0.000000  0.000000  0.750165  1
  B  B22  1  0.333333  0.666667  0.750122  1
  B  B23  1  0.000000  0.000000  0.249276  1
