# generated using pymatgen
data_Ta2ZnFe(Co2B)2
_symmetry_space_group_name_H-M   'P 1'
_cell_length_a   8.54602700
_cell_length_b   8.54602700
_cell_length_c   3.01461100
_cell_angle_alpha   90.00000000
_cell_angle_beta   90.00000000
_cell_angle_gamma   90.00000000
_symmetry_Int_Tables_number   1
_chemical_formula_structural   Ta2ZnFe(Co2B)2
_chemical_formula_sum   'Ta4 Zn2 Fe2 Co8 B4'
_cell_volume   220.17084067
_cell_formula_units_Z   2
loop_
 _symmetry_equiv_pos_site_id
 _symmetry_equiv_pos_as_xyz
  1  'x, y, z'
loop_
 _atom_site_type_symbol
 _atom_site_label
 _atom_site_symmetry_multiplicity
 _atom_site_fract_x
 _atom_site_fract_y
 _atom_site_fract_z
 _atom_site_occupancy
  Ta  Ta0  1  0.825558  0.325558  0.000000  1
  Ta  Ta1  1  0.174442  0.674442  0.000000  1
  Ta  Ta2  1  0.325558  0.174442  0.000000  1
  Ta  Ta3  1  0.674442  0.825558  0.000000  1
  Zn  Zn4  1  0.500000  0.500000  0.000000  1
  Zn  Zn5  1  0.000000  0.000000  0.000000  1
  Fe  Fe6  1  0.500000  0.000000  0.500000  1
  Fe  Fe7  1  0.000000  0.500000  0.500000  1
  Co  Co8  1  0.720685  0.571125  0.500000  1
  Co  Co9  1  0.279315  0.428875  0.500000  1
  Co  Co10  1  0.220685  0.928875  0.500000  1
  Co  Co11  1  0.779315  0.071125  0.500000  1
  Co  Co12  1  0.428875  0.720685  0.500000  1
  Co  Co13  1  0.571125  0.279315  0.500000  1
  Co  Co14  1  0.071125  0.220685  0.500000  1
  Co  Co15  1  0.928875  0.779315  0.500000  1
  B  B16  1  0.621378  0.121378  0.000000  1
  B  B17  1  0.378622  0.878622  0.000000  1
  B  B18  1  0.121378  0.378622  0.000000  1
  B  B19  1  0.878622  0.621378  0.000000  1
