# generated using pymatgen
data_HoLu7(SiI6)2
_symmetry_space_group_name_H-M   'P 1'
_cell_length_a   4.16091100
_cell_length_b   13.74942432
_cell_length_c   14.51972700
_cell_angle_alpha   90.15500531
_cell_angle_beta   90.00000000
_cell_angle_gamma   90.00000000
_symmetry_Int_Tables_number   1
_chemical_formula_structural   HoLu7(SiI6)2
_chemical_formula_sum   'Ho1 Lu7 Si2 I12'
_cell_volume   830.67244216
_cell_formula_units_Z   1
loop_
 _symmetry_equiv_pos_site_id
 _symmetry_equiv_pos_as_xyz
  1  'x, y, z'
loop_
 _atom_site_type_symbol
 _atom_site_label
 _atom_site_symmetry_multiplicity
 _atom_site_fract_x
 _atom_site_fract_y
 _atom_site_fract_z
 _atom_site_occupancy
  Ho  Ho0  1  0.500000  0.114955  0.347843  1
  Lu  Lu1  1  0.500000  0.885511  0.652006  1
  Lu  Lu2  1  0.500000  0.613923  0.151172  1
  Lu  Lu3  1  0.500000  0.386283  0.848527  1
  Lu  Lu4  1  0.000000  0.108662  0.573439  1
  Lu  Lu5  1  0.000000  0.891613  0.426194  1
  Lu  Lu6  1  0.000000  0.608085  0.926575  1
  Lu  Lu7  1  0.000000  0.392368  0.072526  1
  Si  Si8  1  0.500000  0.999244  0.501070  1
  Si  Si9  1  0.500000  0.500369  0.999645  1
  I  I10  1  0.500000  0.251032  0.161629  1
  I  I11  1  0.500000  0.750201  0.836692  1
  I  I12  1  0.500000  0.748593  0.336764  1
  I  I13  1  0.500000  0.249998  0.664891  1
  I  I14  1  0.000000  0.261912  0.419092  1
  I  I15  1  0.000000  0.741497  0.584614  1
  I  I16  1  0.000000  0.757849  0.084537  1
  I  I17  1  0.000000  0.242065  0.914690  1
  I  I18  1  0.000000  0.997057  0.238675  1
  I  I19  1  0.000000  0.998661  0.759962  1
  I  I20  1  0.000000  0.501592  0.259300  1
  I  I21  1  0.000000  0.498528  0.740160  1
