# generated using pymatgen
data_Yb2GaSiAu2
_symmetry_space_group_name_H-M   'P 1'
_cell_length_a   5.75573550
_cell_length_b   5.71923555
_cell_length_c   5.71923577
_cell_angle_alpha   133.99631050
_cell_angle_beta   102.77525608
_cell_angle_gamma   94.72216925
_symmetry_Int_Tables_number   1
_chemical_formula_structural   Yb2GaSiAu2
_chemical_formula_sum   'Yb2 Ga1 Si1 Au2'
_cell_volume   124.39238065
_cell_formula_units_Z   1
loop_
 _symmetry_equiv_pos_site_id
 _symmetry_equiv_pos_as_xyz
  1  'x, y, z'
loop_
 _atom_site_type_symbol
 _atom_site_label
 _atom_site_symmetry_multiplicity
 _atom_site_fract_x
 _atom_site_fract_y
 _atom_site_fract_z
 _atom_site_occupancy
  Yb  Yb0  1  0.292677  0.291510  0.001167  1
  Yb  Yb1  1  0.864096  0.365951  0.498145  1
  Ga  Ga2  1  0.478503  0.663148  0.815355  1
  Si  Si3  1  0.850782  0.659975  0.190807  1
  Au  Au4  1  0.255730  0.981985  0.273744  1
  Au  Au5  1  0.720012  0.999230  0.720782  1
