# generated using pymatgen
data_Li2ScNi11As7
_symmetry_space_group_name_H-M   'P 1'
_cell_length_a   3.72798300
_cell_length_b   9.37043354
_cell_length_c   9.39091349
_cell_angle_alpha   120.28932270
_cell_angle_beta   90.00000000
_cell_angle_gamma   90.00000000
_symmetry_Int_Tables_number   1
_chemical_formula_structural   Li2ScNi11As7
_chemical_formula_sum   'Li2 Sc1 Ni11 As7'
_cell_volume   283.26866585
_cell_formula_units_Z   1
loop_
 _symmetry_equiv_pos_site_id
 _symmetry_equiv_pos_as_xyz
  1  'x, y, z'
loop_
 _atom_site_type_symbol
 _atom_site_label
 _atom_site_symmetry_multiplicity
 _atom_site_fract_x
 _atom_site_fract_y
 _atom_site_fract_z
 _atom_site_occupancy
  Li  Li0  1  0.500000  0.331091  0.665867  1
  Li  Li1  1  0.500000  0.116720  0.898521  1
  Sc  Sc2  1  0.000000  0.670819  0.338278  1
  Ni  Ni3  1  0.000000  0.882099  0.721044  1
  Ni  Ni4  1  0.000000  0.283410  0.163034  1
  Ni  Ni5  1  0.000000  0.833910  0.119972  1
  Ni  Ni6  1  0.500000  0.952863  0.568201  1
  Ni  Ni7  1  0.500000  0.431424  0.385389  1
  Ni  Ni8  1  0.500000  0.615001  0.043857  1
  Ni  Ni9  1  0.000000  0.382108  0.950821  1
  Ni  Ni10  1  0.000000  0.051972  0.429701  1
  Ni  Ni11  1  0.000000  0.566843  0.618930  1
  Ni  Ni12  1  0.500000  0.094147  0.212967  1
  Ni  Ni13  1  0.500000  0.785289  0.881309  1
  As  As14  1  0.500000  0.710499  0.590295  1
  As  As15  1  0.500000  0.419962  0.126712  1
  As  As16  1  0.500000  0.878880  0.291368  1
  As  As17  1  0.000000  0.996419  0.003362  1
  As  As18  1  0.000000  0.126542  0.704436  1
  As  As19  1  0.000000  0.288975  0.415845  1
  As  As20  1  0.000000  0.581026  0.870091  1
