# generated using pymatgen
data_Dy2Er2Ga12Ir
_symmetry_space_group_name_H-M   'P 1'
_cell_length_a   7.45676690
_cell_length_b   7.43939496
_cell_length_c   7.45676672
_cell_angle_alpha   109.49329935
_cell_angle_beta   109.52158540
_cell_angle_gamma   109.49328014
_symmetry_Int_Tables_number   1
_chemical_formula_structural   Dy2Er2Ga12Ir
_chemical_formula_sum   'Dy2 Er2 Ga12 Ir1'
_cell_volume   318.06015956
_cell_formula_units_Z   1
loop_
 _symmetry_equiv_pos_site_id
 _symmetry_equiv_pos_as_xyz
  1  'x, y, z'
loop_
 _atom_site_type_symbol
 _atom_site_label
 _atom_site_symmetry_multiplicity
 _atom_site_fract_x
 _atom_site_fract_y
 _atom_site_fract_z
 _atom_site_occupancy
  Dy  Dy0  1  0.000000  0.500000  0.000000  1
  Dy  Dy1  1  0.500000  0.500000  0.500000  1
  Er  Er2  1  0.000000  0.000000  0.500000  1
  Er  Er3  1  0.500000  0.000000  0.000000  1
  Ga  Ga4  1  0.750083  0.249663  0.499580  1
  Ga  Ga5  1  0.750000  0.500000  0.250000  1
  Ga  Ga6  1  0.499580  0.249663  0.750083  1
  Ga  Ga7  1  0.250000  0.500000  0.750000  1
  Ga  Ga8  1  0.249917  0.750337  0.500420  1
  Ga  Ga9  1  0.500420  0.750337  0.249917  1
  Ga  Ga10  1  0.707679  0.708003  0.000324  1
  Ga  Ga11  1  0.292217  0.000000  0.292217  1
  Ga  Ga12  1  0.999676  0.291997  0.292321  1
  Ga  Ga13  1  0.292321  0.291997  0.999676  1
  Ga  Ga14  1  0.707783  0.000000  0.707783  1
  Ga  Ga15  1  0.000324  0.708003  0.707679  1
  Ir  Ir16  1  0.000000  0.000000  0.000000  1
