# generated using pymatgen
data_La12Pr8Si15Pt
_symmetry_space_group_name_H-M   'P 1'
_cell_length_a   7.99132155
_cell_length_b   8.00063005
_cell_length_c   15.41423068
_cell_angle_alpha   89.97069609
_cell_angle_beta   89.70622849
_cell_angle_gamma   89.99517685
_symmetry_Int_Tables_number   1
_chemical_formula_structural   La12Pr8Si15Pt
_chemical_formula_sum   'La12 Pr8 Si15 Pt1'
_cell_volume   985.50511363
_cell_formula_units_Z   1
loop_
 _symmetry_equiv_pos_site_id
 _symmetry_equiv_pos_as_xyz
  1  'x, y, z'
loop_
 _atom_site_type_symbol
 _atom_site_label
 _atom_site_symmetry_multiplicity
 _atom_site_fract_x
 _atom_site_fract_y
 _atom_site_fract_z
 _atom_site_occupancy
  La  La0  1  0.306115  0.306294  0.999174  1
  La  La1  1  0.191291  0.808379  0.249737  1
  La  La2  1  0.815083  0.187201  0.750682  1
  La  La3  1  0.692834  0.688353  0.499658  1
  La  La4  1  0.374283  0.011354  0.448267  1
  La  La5  1  0.489504  0.874346  0.698881  1
  La  La6  1  0.510799  0.123399  0.198077  1
  La  La7  1  0.876584  0.488554  0.300391  1
  La  La8  1  0.123645  0.511525  0.800670  1
  La  La9  1  0.626226  0.987729  0.948932  1
  La  La10  1  0.006276  0.376138  0.551502  1
  La  La11  1  0.988493  0.625334  0.051565  1
  Pr  Pr12  1  0.133587  0.986687  0.875826  1
  Pr  Pr13  1  0.515822  0.630426  0.125900  1
  Pr  Pr14  1  0.478931  0.365138  0.627330  1
  Pr  Pr15  1  0.628227  0.516340  0.874315  1
  Pr  Pr16  1  0.372228  0.483539  0.373285  1
  Pr  Pr17  1  0.871691  0.018846  0.375635  1
  Pr  Pr18  1  0.982990  0.127831  0.124563  1
  Pr  Pr19  1  0.020042  0.874123  0.623744  1
  Si  Si20  1  0.333281  0.697197  0.950767  1
  Si  Si21  1  0.664163  0.301944  0.451527  1
  Si  Si22  1  0.699028  0.335343  0.049498  1
  Si  Si23  1  0.303264  0.667783  0.548104  1
  Si  Si24  1  0.803201  0.832689  0.202287  1
  Si  Si25  1  0.167608  0.198580  0.298541  1
  Si  Si26  1  0.834409  0.801877  0.798796  1
  Si  Si27  1  0.288741  0.921183  0.058359  1
  Si  Si28  1  0.580255  0.788091  0.309247  1
  Si  Si29  1  0.428449  0.209174  0.812021  1
  Si  Si30  1  0.786134  0.580968  0.691094  1
  Si  Si31  1  0.212003  0.421334  0.191047  1
  Si  Si32  1  0.705353  0.076102  0.557833  1
  Si  Si33  1  0.919245  0.289286  0.942228  1
  Si  Si34  1  0.080065  0.713951  0.441794  1
  Pt  Pt35  1  0.190153  0.172960  0.698723  1
