# generated using pymatgen
data_HfVCl6
_symmetry_space_group_name_H-M   'P 1'
_cell_length_a   7.70652690
_cell_length_b   7.70652635
_cell_length_c   7.70652693
_cell_angle_alpha   48.16396898
_cell_angle_beta   48.16396790
_cell_angle_gamma   48.16397459
_symmetry_Int_Tables_number   1
_chemical_formula_structural   HfVCl6
_chemical_formula_sum   'Hf1 V1 Cl6'
_cell_volume   232.84637191
_cell_formula_units_Z   1
loop_
 _symmetry_equiv_pos_site_id
 _symmetry_equiv_pos_as_xyz
  1  'x, y, z'
loop_
 _atom_site_type_symbol
 _atom_site_label
 _atom_site_symmetry_multiplicity
 _atom_site_fract_x
 _atom_site_fract_y
 _atom_site_fract_z
 _atom_site_occupancy
  Hf  Hf0  1  0.333335  0.333335  0.333335  1
  V  V1  1  0.666666  0.666666  0.666666  1
  Cl  Cl2  1  0.712495  0.070437  0.426695  1
  Cl  Cl3  1  0.070437  0.426695  0.712495  1
  Cl  Cl4  1  0.572728  0.286907  0.930737  1
  Cl  Cl5  1  0.930737  0.572728  0.286907  1
  Cl  Cl6  1  0.286907  0.930737  0.572728  1
  Cl  Cl7  1  0.426695  0.712495  0.070437  1
