# generated using pymatgen
data_DyY7Ti11Si16Ru
_symmetry_space_group_name_H-M   'P 1'
_cell_length_a   7.03822852
_cell_length_b   7.03833672
_cell_length_c   12.91123603
_cell_angle_alpha   89.96869095
_cell_angle_beta   90.03061747
_cell_angle_gamma   89.87977601
_symmetry_Int_Tables_number   1
_chemical_formula_structural   DyY7Ti11Si16Ru
_chemical_formula_sum   'Dy1 Y7 Ti11 Si16 Ru1'
_cell_volume   639.58775585
_cell_formula_units_Z   1
loop_
 _symmetry_equiv_pos_site_id
 _symmetry_equiv_pos_as_xyz
  1  'x, y, z'
loop_
 _atom_site_type_symbol
 _atom_site_label
 _atom_site_symmetry_multiplicity
 _atom_site_fract_x
 _atom_site_fract_y
 _atom_site_fract_z
 _atom_site_occupancy
  Dy  Dy0  1  0.341598  0.001382  0.468236  1
  Y  Y1  1  0.996116  0.659688  0.032638  1
  Y  Y2  1  0.001554  0.341560  0.531736  1
  Y  Y3  1  0.659688  0.996111  0.967367  1
  Y  Y4  1  0.159145  0.503151  0.781927  1
  Y  Y5  1  0.840530  0.499675  0.284989  1
  Y  Y6  1  0.503093  0.159142  0.218092  1
  Y  Y7  1  0.499636  0.840530  0.714998  1
  Ti  Ti8  1  0.344210  0.507495  0.374489  1
  Ti  Ti9  1  0.849263  0.995755  0.375824  1
  Ti  Ti10  1  0.006364  0.151826  0.124688  1
  Ti  Ti11  1  0.995849  0.849255  0.624143  1
  Ti  Ti12  1  0.507438  0.344195  0.625468  1
  Ti  Ti13  1  0.151863  0.006353  0.875309  1
  Ti  Ti14  1  0.825039  0.172459  0.748630  1
  Ti  Ti15  1  0.172513  0.825020  0.251415  1
  Ti  Ti16  1  0.326183  0.326186  0.999992  1
  Ti  Ti17  1  0.492732  0.651377  0.127922  1
  Ti  Ti18  1  0.651377  0.492768  0.872072  1
  Si  Si19  1  0.046923  0.712978  0.435540  1
  Si  Si20  1  0.952173  0.291264  0.934375  1
  Si  Si21  1  0.712872  0.046742  0.564486  1
  Si  Si22  1  0.207958  0.453194  0.184476  1
  Si  Si23  1  0.790277  0.550069  0.682065  1
  Si  Si24  1  0.453148  0.207983  0.815559  1
  Si  Si25  1  0.549887  0.790316  0.317998  1
  Si  Si26  1  0.291237  0.952195  0.065655  1
  Si  Si27  1  0.797544  0.868789  0.185432  1
  Si  Si28  1  0.300170  0.626861  0.565573  1
  Si  Si29  1  0.703532  0.369321  0.065430  1
  Si  Si30  1  0.626647  0.300165  0.434400  1
  Si  Si31  1  0.369338  0.703511  0.934538  1
  Si  Si32  1  0.130812  0.203280  0.315850  1
  Si  Si33  1  0.203339  0.130619  0.684154  1
  Si  Si34  1  0.868792  0.797483  0.814543  1
  Ru  Ru35  1  0.671162  0.671301  0.499993  1
