# generated using pymatgen
data_Nd8AlZn(Si6Rh)2
_symmetry_space_group_name_H-M   'P 1'
_cell_length_a   8.24874000
_cell_length_b   8.24873966
_cell_length_c   8.49300700
_cell_angle_alpha   90.00000000
_cell_angle_beta   90.00000000
_cell_angle_gamma   120.00000135
_symmetry_Int_Tables_number   1
_chemical_formula_structural   Nd8AlZn(Si6Rh)2
_chemical_formula_sum   'Nd8 Al1 Zn1 Si12 Rh2'
_cell_volume   500.45763565
_cell_formula_units_Z   1
loop_
 _symmetry_equiv_pos_site_id
 _symmetry_equiv_pos_as_xyz
  1  'x, y, z'
loop_
 _atom_site_type_symbol
 _atom_site_label
 _atom_site_symmetry_multiplicity
 _atom_site_fract_x
 _atom_site_fract_y
 _atom_site_fract_z
 _atom_site_occupancy
  Nd  Nd0  1  0.000000  0.000000  0.749178  1
  Nd  Nd1  1  0.000000  0.000000  0.251044  1
  Nd  Nd2  1  0.496330  0.503670  0.749766  1
  Nd  Nd3  1  0.496330  0.992660  0.749766  1
  Nd  Nd4  1  0.007340  0.503670  0.749766  1
  Nd  Nd5  1  0.498233  0.501767  0.249912  1
  Nd  Nd6  1  0.003534  0.501767  0.249912  1
  Nd  Nd7  1  0.498233  0.996466  0.249912  1
  Al  Al8  1  0.666667  0.333333  0.996302  1
  Zn  Zn9  1  0.666667  0.333333  0.503311  1
  Si  Si10  1  0.838541  0.161459  0.999907  1
  Si  Si11  1  0.838541  0.677083  0.999907  1
  Si  Si12  1  0.322917  0.161459  0.999907  1
  Si  Si13  1  0.836915  0.163085  0.500672  1
  Si  Si14  1  0.836915  0.673829  0.500672  1
  Si  Si15  1  0.326171  0.163085  0.500672  1
  Si  Si16  1  0.169395  0.830605  0.499173  1
  Si  Si17  1  0.661211  0.830605  0.499173  1
  Si  Si18  1  0.169395  0.338789  0.499173  1
  Si  Si19  1  0.170110  0.829890  0.000353  1
  Si  Si20  1  0.659781  0.829890  0.000353  1
  Si  Si21  1  0.170110  0.340219  0.000353  1
  Rh  Rh22  1  0.333333  0.666667  0.498298  1
  Rh  Rh23  1  0.333333  0.666667  0.002518  1
