# generated using pymatgen
data_TbHo6Sn23Os6
_symmetry_space_group_name_H-M   'P 1'
_cell_length_a   9.84536900
_cell_length_b   9.84536768
_cell_length_c   10.11885200
_cell_angle_alpha   90.00000000
_cell_angle_beta   90.00000000
_cell_angle_gamma   119.99999437
_symmetry_Int_Tables_number   1
_chemical_formula_structural   TbHo6Sn23Os6
_chemical_formula_sum   'Tb1 Ho6 Sn23 Os6'
_cell_volume   849.42656237
_cell_formula_units_Z   1
loop_
 _symmetry_equiv_pos_site_id
 _symmetry_equiv_pos_as_xyz
  1  'x, y, z'
loop_
 _atom_site_type_symbol
 _atom_site_label
 _atom_site_symmetry_multiplicity
 _atom_site_fract_x
 _atom_site_fract_y
 _atom_site_fract_z
 _atom_site_occupancy
  Tb  Tb0  1  0.000000  0.000000  0.000000  1
  Ho  Ho1  1  0.514664  0.485336  0.698068  1
  Ho  Ho2  1  0.514664  0.029327  0.698068  1
  Ho  Ho3  1  0.970673  0.485336  0.698068  1
  Ho  Ho4  1  0.029327  0.514664  0.301932  1
  Ho  Ho5  1  0.485336  0.970673  0.301932  1
  Ho  Ho6  1  0.485336  0.514664  0.301932  1
  Sn  Sn7  1  0.666667  0.333333  0.175231  1
  Sn  Sn8  1  0.666667  0.333333  0.869871  1
  Sn  Sn9  1  0.333333  0.666667  0.130129  1
  Sn  Sn10  1  0.349956  0.349956  0.000000  1
  Sn  Sn11  1  0.000000  0.650044  0.000000  1
  Sn  Sn12  1  0.650044  0.000000  0.000000  1
  Sn  Sn13  1  0.650044  0.650044  0.000000  1
  Sn  Sn14  1  0.333333  0.666667  0.824769  1
  Sn  Sn15  1  0.439813  0.219907  0.463149  1
  Sn  Sn16  1  0.219907  0.780093  0.536851  1
  Sn  Sn17  1  0.219907  0.439813  0.536851  1
  Sn  Sn18  1  0.560187  0.780093  0.536851  1
  Sn  Sn19  1  0.117831  0.882169  0.275920  1
  Sn  Sn20  1  0.780093  0.560187  0.463149  1
  Sn  Sn21  1  0.780093  0.219907  0.463149  1
  Sn  Sn22  1  0.349956  0.000000  0.000000  1
  Sn  Sn23  1  0.117831  0.235663  0.275920  1
  Sn  Sn24  1  0.764337  0.882169  0.275920  1
  Sn  Sn25  1  0.235663  0.117831  0.724080  1
  Sn  Sn26  1  0.882169  0.764337  0.724080  1
  Sn  Sn27  1  0.882169  0.117831  0.724080  1
  Sn  Sn28  1  0.000000  0.000000  0.500000  1
  Sn  Sn29  1  0.000000  0.349956  0.000000  1
  Os  Os30  1  0.170457  0.829543  0.797616  1
  Os  Os31  1  0.170457  0.340913  0.797616  1
  Os  Os32  1  0.659087  0.829543  0.797616  1
  Os  Os33  1  0.340913  0.170457  0.202384  1
  Os  Os34  1  0.829543  0.659087  0.202384  1
  Os  Os35  1  0.829543  0.170457  0.202384  1
