# generated using pymatgen
data_Nd3Fe2Co6P6Ru
_symmetry_space_group_name_H-M   'P 1'
_cell_length_a   3.77448800
_cell_length_b   10.73254500
_cell_length_c   12.35264500
_cell_angle_alpha   90.00000000
_cell_angle_beta   90.00000000
_cell_angle_gamma   90.00000000
_symmetry_Int_Tables_number   1
_chemical_formula_structural   Nd3Fe2Co6P6Ru
_chemical_formula_sum   'Nd6 Fe4 Co12 P12 Ru2'
_cell_volume   500.40394814
_cell_formula_units_Z   2
loop_
 _symmetry_equiv_pos_site_id
 _symmetry_equiv_pos_as_xyz
  1  'x, y, z'
loop_
 _atom_site_type_symbol
 _atom_site_label
 _atom_site_symmetry_multiplicity
 _atom_site_fract_x
 _atom_site_fract_y
 _atom_site_fract_z
 _atom_site_occupancy
  Nd  Nd0  1  0.000000  0.500000  0.523923  1
  Nd  Nd1  1  0.500000  0.000000  0.475403  1
  Nd  Nd2  1  0.500000  0.818314  0.205074  1
  Nd  Nd3  1  0.500000  0.181686  0.205074  1
  Nd  Nd4  1  0.000000  0.681259  0.795716  1
  Nd  Nd5  1  0.000000  0.318741  0.795716  1
  Fe  Fe6  1  0.000000  0.500000  0.990254  1
  Fe  Fe7  1  0.500000  0.000000  0.010467  1
  Fe  Fe8  1  0.500000  0.330290  0.994457  1
  Fe  Fe9  1  0.500000  0.669710  0.994457  1
  Co  Co10  1  0.500000  0.500000  0.703332  1
  Co  Co11  1  0.000000  0.000000  0.296193  1
  Co  Co12  1  0.000000  0.166044  0.006947  1
  Co  Co13  1  0.000000  0.833956  0.006947  1
  Co  Co14  1  0.500000  0.296969  0.430050  1
  Co  Co15  1  0.500000  0.703031  0.430050  1
  Co  Co16  1  0.000000  0.203066  0.569843  1
  Co  Co17  1  0.000000  0.796934  0.569843  1
  Co  Co18  1  0.500000  0.881656  0.709179  1
  Co  Co19  1  0.500000  0.118344  0.709179  1
  Co  Co20  1  0.000000  0.618538  0.290207  1
  Co  Co21  1  0.000000  0.381462  0.290207  1
  P  P22  1  0.500000  0.500000  0.889888  1
  P  P23  1  0.000000  0.000000  0.112526  1
  P  P24  1  0.500000  0.500000  0.343705  1
  P  P25  1  0.000000  0.000000  0.655728  1
  P  P26  1  0.500000  0.306844  0.615125  1
  P  P27  1  0.500000  0.693156  0.615125  1
  P  P28  1  0.000000  0.193479  0.385358  1
  P  P29  1  0.000000  0.806521  0.385358  1
  P  P30  1  0.500000  0.846767  0.897816  1
  P  P31  1  0.500000  0.153233  0.897816  1
  P  P32  1  0.000000  0.654063  0.100039  1
  P  P33  1  0.000000  0.345937  0.100039  1
  Ru  Ru34  1  0.500000  0.500000  0.155494  1
  Ru  Ru35  1  0.000000  0.000000  0.843465  1
