# generated using pymatgen
data_SmEr5(RuI3)2
_symmetry_space_group_name_H-M   'P 1'
_cell_length_a   4.20852900
_cell_length_b   8.89986539
_cell_length_c   12.32097240
_cell_angle_alpha   94.17514034
_cell_angle_beta   90.00000000
_cell_angle_gamma   90.00000000
_symmetry_Int_Tables_number   1
_chemical_formula_structural   SmEr5(RuI3)2
_chemical_formula_sum   'Sm1 Er5 Ru2 I6'
_cell_volume   460.26151912
_cell_formula_units_Z   1
loop_
 _symmetry_equiv_pos_site_id
 _symmetry_equiv_pos_as_xyz
  1  'x, y, z'
loop_
 _atom_site_type_symbol
 _atom_site_label
 _atom_site_symmetry_multiplicity
 _atom_site_fract_x
 _atom_site_fract_y
 _atom_site_fract_z
 _atom_site_occupancy
  Sm  Sm0  1  0.750000  0.269200  0.603000  1
  Er  Er1  1  0.250000  0.740803  0.397167  1
  Er  Er2  1  0.750000  0.873557  0.624819  1
  Er  Er3  1  0.250000  0.125573  0.373080  1
  Er  Er4  1  0.750000  0.895725  0.187456  1
  Er  Er5  1  0.250000  0.099379  0.813770  1
  Ru  Ru6  1  0.750000  0.944077  0.407134  1
  Ru  Ru7  1  0.250000  0.054914  0.592196  1
  I  I8  1  0.750000  0.424316  0.364246  1
  I  I9  1  0.250000  0.581568  0.633608  1
  I  I10  1  0.750000  0.861616  0.890157  1
  I  I11  1  0.250000  0.133516  0.109313  1
  I  I12  1  0.750000  0.351041  0.867898  1
  I  I13  1  0.250000  0.644714  0.136157  1
