# generated using pymatgen
data_Hf8ZnIn4Fe2Cu5
_symmetry_space_group_name_H-M   'P 1'
_cell_length_a   7.22146586
_cell_length_b   7.22607658
_cell_length_c   6.74448411
_cell_angle_alpha   90.10397544
_cell_angle_beta   90.07963411
_cell_angle_gamma   90.77640054
_symmetry_Int_Tables_number   1
_chemical_formula_structural   Hf8ZnIn4Fe2Cu5
_chemical_formula_sum   'Hf8 Zn1 In4 Fe2 Cu5'
_cell_volume   351.91326205
_cell_formula_units_Z   1
loop_
 _symmetry_equiv_pos_site_id
 _symmetry_equiv_pos_as_xyz
  1  'x, y, z'
loop_
 _atom_site_type_symbol
 _atom_site_label
 _atom_site_symmetry_multiplicity
 _atom_site_fract_x
 _atom_site_fract_y
 _atom_site_fract_z
 _atom_site_occupancy
  Hf  Hf0  1  0.162253  0.157387  0.016163  1
  Hf  Hf1  1  0.842390  0.837413  0.991265  1
  Hf  Hf2  1  0.645671  0.354010  0.496588  1
  Hf  Hf3  1  0.350808  0.649688  0.500194  1
  Hf  Hf4  1  0.671229  0.328081  0.001804  1
  Hf  Hf5  1  0.325861  0.674318  0.999282  1
  Hf  Hf6  1  0.803796  0.800332  0.508040  1
  Hf  Hf7  1  0.199672  0.196389  0.484693  1
  Zn  Zn8  1  0.879748  0.126284  0.714310  1
  In  In9  1  0.504224  0.003820  0.247388  1
  In  In10  1  0.495641  0.995169  0.752618  1
  In  In11  1  0.004715  0.501072  0.246959  1
  In  In12  1  0.996765  0.499840  0.752787  1
  Fe  Fe13  1  0.376741  0.377425  0.230876  1
  Fe  Fe14  1  0.623036  0.623872  0.767799  1
  Cu  Cu15  1  0.628173  0.630219  0.210602  1
  Cu  Cu16  1  0.875020  0.120708  0.288885  1
  Cu  Cu17  1  0.369371  0.369816  0.788648  1
  Cu  Cu18  1  0.120728  0.874599  0.289660  1
  Cu  Cu19  1  0.124156  0.879558  0.711438  1
