# generated using pymatgen
data_Cs4CrTcP4
_symmetry_space_group_name_H-M   'P 1'
_cell_length_a   8.68332751
_cell_length_b   8.68332671
_cell_length_c   8.68332766
_cell_angle_alpha   139.81797046
_cell_angle_beta   125.04089692
_cell_angle_gamma   70.23522405
_symmetry_Int_Tables_number   1
_chemical_formula_structural   Cs4CrTcP4
_chemical_formula_sum   'Cs4 Cr1 Tc1 P4'
_cell_volume   339.55302440
_cell_formula_units_Z   1
loop_
 _symmetry_equiv_pos_site_id
 _symmetry_equiv_pos_as_xyz
  1  'x, y, z'
loop_
 _atom_site_type_symbol
 _atom_site_label
 _atom_site_symmetry_multiplicity
 _atom_site_fract_x
 _atom_site_fract_y
 _atom_site_fract_z
 _atom_site_occupancy
  Cs  Cs0  1  0.988208  0.152742  0.837074  1
  Cs  Cs1  1  0.011792  0.848867  0.164536  1
  Cs  Cs2  1  0.684332  0.347258  0.335464  1
  Cs  Cs3  1  0.315668  0.651133  0.662926  1
  Cr  Cr4  1  0.500000  0.750000  0.250000  1
  Tc  Tc5  1  0.500000  0.250000  0.750000  1
  P  P6  1  0.736915  0.594127  0.158704  1
  P  P7  1  0.564578  0.905873  0.642788  1
  P  P8  1  0.435422  0.078211  0.341296  1
  P  P9  1  0.263085  0.421789  0.857212  1
