# generated using pymatgen
data_YbIn2(SeO3)4
_symmetry_space_group_name_H-M   'P 1'
_cell_length_a   4.89111000
_cell_length_b   8.83538581
_cell_length_c   16.25761125
_cell_angle_alpha   70.96456393
_cell_angle_beta   90.00000000
_cell_angle_gamma   90.00000000
_symmetry_Int_Tables_number   1
_chemical_formula_structural   YbIn2(SeO3)4
_chemical_formula_sum   'Yb2 In4 Se8 O24'
_cell_volume   664.15151689
_cell_formula_units_Z   2
loop_
 _symmetry_equiv_pos_site_id
 _symmetry_equiv_pos_as_xyz
  1  'x, y, z'
loop_
 _atom_site_type_symbol
 _atom_site_label
 _atom_site_symmetry_multiplicity
 _atom_site_fract_x
 _atom_site_fract_y
 _atom_site_fract_z
 _atom_site_occupancy
  Yb  Yb0  1  0.000000  0.000000  0.000000  1
  Yb  Yb1  1  0.500000  0.000000  0.500000  1
  In  In2  1  0.529343  0.153480  0.787624  1
  In  In3  1  0.970657  0.153480  0.287624  1
  In  In4  1  0.470657  0.846520  0.212376  1
  In  In5  1  0.029343  0.846520  0.712376  1
  Se  Se6  1  0.556354  0.783885  0.880296  1
  Se  Se7  1  0.943646  0.783885  0.380296  1
  Se  Se8  1  0.443646  0.216115  0.119704  1
  Se  Se9  1  0.056354  0.216115  0.619704  1
  Se  Se10  1  0.006251  0.349618  0.866925  1
  Se  Se11  1  0.493749  0.349618  0.366925  1
  Se  Se12  1  0.993749  0.650382  0.133075  1
  Se  Se13  1  0.506251  0.650382  0.633075  1
  O  O14  1  0.768443  0.353492  0.787029  1
  O  O15  1  0.731557  0.353492  0.287029  1
  O  O16  1  0.231557  0.646508  0.212971  1
  O  O17  1  0.268443  0.646508  0.712971  1
  O  O18  1  0.820263  0.718759  0.831725  1
  O  O19  1  0.679737  0.718759  0.331725  1
  O  O20  1  0.179737  0.281241  0.168275  1
  O  O21  1  0.320263  0.281241  0.668275  1
  O  O22  1  0.205688  0.176935  0.872513  1
  O  O23  1  0.294312  0.176935  0.372513  1
  O  O24  1  0.794312  0.823065  0.127487  1
  O  O25  1  0.705688  0.823065  0.627487  1
  O  O26  1  0.687228  0.949417  0.903107  1
  O  O27  1  0.812772  0.949417  0.403107  1
  O  O28  1  0.312772  0.050583  0.096893  1
  O  O29  1  0.187228  0.050583  0.596893  1
  O  O30  1  0.361219  0.909644  0.793063  1
  O  O31  1  0.138781  0.909644  0.293063  1
  O  O32  1  0.638781  0.090356  0.206937  1
  O  O33  1  0.861219  0.090356  0.706937  1
  O  O34  1  0.839065  0.261881  0.962022  1
  O  O35  1  0.660935  0.261881  0.462022  1
  O  O36  1  0.160935  0.738119  0.037978  1
  O  O37  1  0.339065  0.738119  0.537978  1
