# generated using pymatgen
data_HfTiInRh5
_symmetry_space_group_name_H-M   'P 1'
_cell_length_a   4.09741500
_cell_length_b   5.56046086
_cell_length_c   11.03768356
_cell_angle_alpha   90.15114405
_cell_angle_beta   90.00000000
_cell_angle_gamma   90.00000000
_symmetry_Int_Tables_number   1
_chemical_formula_structural   HfTiInRh5
_chemical_formula_sum   'Hf2 Ti2 In2 Rh10'
_cell_volume   251.47636196
_cell_formula_units_Z   2
loop_
 _symmetry_equiv_pos_site_id
 _symmetry_equiv_pos_as_xyz
  1  'x, y, z'
loop_
 _atom_site_type_symbol
 _atom_site_label
 _atom_site_symmetry_multiplicity
 _atom_site_fract_x
 _atom_site_fract_y
 _atom_site_fract_z
 _atom_site_occupancy
  Hf  Hf0  1  0.500000  0.689438  0.858592  1
  Hf  Hf1  1  0.500000  0.310562  0.141408  1
  Ti  Ti2  1  0.500000  0.183305  0.639398  1
  Ti  Ti3  1  0.500000  0.816695  0.360602  1
  In  In4  1  0.000000  0.500000  0.500000  1
  In  In5  1  0.000000  0.000000  0.000000  1
  Rh  Rh6  1  0.500000  0.208499  0.874285  1
  Rh  Rh7  1  0.500000  0.791501  0.125715  1
  Rh  Rh8  1  0.500000  0.722141  0.615111  1
  Rh  Rh9  1  0.500000  0.277859  0.384889  1
  Rh  Rh10  1  0.000000  0.444439  0.746661  1
  Rh  Rh11  1  0.000000  0.555561  0.253339  1
  Rh  Rh12  1  0.000000  0.000000  0.500000  1
  Rh  Rh13  1  0.000000  0.500000  0.000000  1
  Rh  Rh14  1  0.000000  0.047163  0.255275  1
  Rh  Rh15  1  0.000000  0.952837  0.744725  1
