# generated using pymatgen
data_YBe(AlCu)2
_symmetry_space_group_name_H-M   'P 1'
_cell_length_a   5.27658000
_cell_length_b   5.08524328
_cell_length_c   4.01343100
_cell_angle_alpha   90.00000000
_cell_angle_beta   90.00000000
_cell_angle_gamma   121.25264613
_symmetry_Int_Tables_number   1
_chemical_formula_structural   YBe(AlCu)2
_chemical_formula_sum   'Y1 Be1 Al2 Cu2'
_cell_volume   92.06387229
_cell_formula_units_Z   1
loop_
 _symmetry_equiv_pos_site_id
 _symmetry_equiv_pos_as_xyz
  1  'x, y, z'
loop_
 _atom_site_type_symbol
 _atom_site_label
 _atom_site_symmetry_multiplicity
 _atom_site_fract_x
 _atom_site_fract_y
 _atom_site_fract_z
 _atom_site_occupancy
  Y  Y0  1  0.000000  0.000000  0.000000  1
  Be  Be1  1  0.499999  0.000000  0.500001  1
  Al  Al2  1  0.000000  0.500001  0.500001  1
  Al  Al3  1  0.500000  0.500001  0.500001  1
  Cu  Cu4  1  0.651327  0.302655  0.000000  1
  Cu  Cu5  1  0.348673  0.697345  0.000000  1
