# generated using pymatgen
data_Tm2FeCo2P7Ru9
_symmetry_space_group_name_H-M   'P 1'
_cell_length_a   9.27420612
_cell_length_b   9.31210187
_cell_length_c   3.82986400
_cell_angle_alpha   90.00000000
_cell_angle_beta   90.00000000
_cell_angle_gamma   120.01674269
_symmetry_Int_Tables_number   1
_chemical_formula_structural   Tm2FeCo2P7Ru9
_chemical_formula_sum   'Tm2 Fe1 Co2 P7 Ru9'
_cell_volume   286.39481518
_cell_formula_units_Z   1
loop_
 _symmetry_equiv_pos_site_id
 _symmetry_equiv_pos_as_xyz
  1  'x, y, z'
loop_
 _atom_site_type_symbol
 _atom_site_label
 _atom_site_symmetry_multiplicity
 _atom_site_fract_x
 _atom_site_fract_y
 _atom_site_fract_z
 _atom_site_occupancy
  Tm  Tm0  1  0.334224  0.665788  0.000000  1
  Tm  Tm1  1  0.000166  0.000173  0.500000  1
  Fe  Fe2  1  0.555358  0.491595  0.000000  1
  Co  Co3  1  0.936456  0.443987  0.000000  1
  Co  Co4  1  0.506999  0.063167  0.000000  1
  P  P5  1  0.969741  0.222796  0.000000  1
  P  P6  1  0.251937  0.030174  0.000000  1
  P  P7  1  0.775342  0.746003  0.000000  1
  P  P8  1  0.067062  0.616995  0.500000  1
  P  P9  1  0.550517  0.932918  0.500000  1
  P  P10  1  0.385232  0.451373  0.500000  1
  P  P11  1  0.665222  0.333324  0.000000  1
  Ru  Ru12  1  0.729900  0.971749  0.000000  1
  Ru  Ru13  1  0.241750  0.271021  0.000000  1
  Ru  Ru14  1  0.028867  0.758016  0.000000  1
  Ru  Ru15  1  0.104930  0.386952  0.500000  1
  Ru  Ru16  1  0.282082  0.895827  0.500000  1
  Ru  Ru17  1  0.614071  0.719064  0.500000  1
  Ru  Ru18  1  0.752850  0.213495  0.500000  1
  Ru  Ru19  1  0.462291  0.248208  0.500000  1
  Ru  Ru20  1  0.785004  0.537374  0.500000  1
