# generated using pymatgen
data_Dy10ZnSn6Ge
_symmetry_space_group_name_H-M   'P 1'
_cell_length_a   9.18697300
_cell_length_b   9.18697238
_cell_length_c   6.56606300
_cell_angle_alpha   90.00000000
_cell_angle_beta   90.00000000
_cell_angle_gamma   120.00000582
_symmetry_Int_Tables_number   1
_chemical_formula_structural   Dy10ZnSn6Ge
_chemical_formula_sum   'Dy10 Zn1 Sn6 Ge1'
_cell_volume   479.93287792
_cell_formula_units_Z   1
loop_
 _symmetry_equiv_pos_site_id
 _symmetry_equiv_pos_as_xyz
  1  'x, y, z'
loop_
 _atom_site_type_symbol
 _atom_site_label
 _atom_site_symmetry_multiplicity
 _atom_site_fract_x
 _atom_site_fract_y
 _atom_site_fract_z
 _atom_site_occupancy
  Dy  Dy0  1  0.666667  0.333333  0.000000  1
  Dy  Dy1  1  0.333333  0.666667  0.000000  1
  Dy  Dy2  1  0.333333  0.666667  0.500000  1
  Dy  Dy3  1  0.666667  0.333333  0.500000  1
  Dy  Dy4  1  0.739751  0.739751  0.760966  1
  Dy  Dy5  1  0.260249  0.000000  0.760966  1
  Dy  Dy6  1  0.000000  0.260249  0.760966  1
  Dy  Dy7  1  0.260249  0.260249  0.239034  1
  Dy  Dy8  1  0.739751  0.000000  0.239034  1
  Dy  Dy9  1  0.000000  0.739751  0.239034  1
  Zn  Zn10  1  0.000000  0.000000  0.500000  1
  Sn  Sn11  1  0.387965  0.387965  0.750229  1
  Sn  Sn12  1  0.612035  0.000000  0.750229  1
  Sn  Sn13  1  0.000000  0.612035  0.750229  1
  Sn  Sn14  1  0.612035  0.612035  0.249771  1
  Sn  Sn15  1  0.387965  0.000000  0.249771  1
  Sn  Sn16  1  0.000000  0.387965  0.249771  1
  Ge  Ge17  1  0.000000  0.000000  0.000000  1
