# generated using pymatgen
data_Dy19Mg(IrRh2)4
_symmetry_space_group_name_H-M   'P 1'
_cell_length_a   10.86782700
_cell_length_b   10.86782700
_cell_length_c   6.32649500
_cell_angle_alpha   90.00000000
_cell_angle_beta   90.00000000
_cell_angle_gamma   90.00000000
_symmetry_Int_Tables_number   1
_chemical_formula_structural   Dy19Mg(IrRh2)4
_chemical_formula_sum   'Dy19 Mg1 Ir4 Rh8'
_cell_volume   747.22019686
_cell_formula_units_Z   1
loop_
 _symmetry_equiv_pos_site_id
 _symmetry_equiv_pos_as_xyz
  1  'x, y, z'
loop_
 _atom_site_type_symbol
 _atom_site_label
 _atom_site_symmetry_multiplicity
 _atom_site_fract_x
 _atom_site_fract_y
 _atom_site_fract_z
 _atom_site_occupancy
  Dy  Dy0  1  0.283942  0.086041  0.379622  1
  Dy  Dy1  1  0.290527  0.910585  0.879742  1
  Dy  Dy2  1  0.709473  0.089415  0.879742  1
  Dy  Dy3  1  0.716058  0.913959  0.379622  1
  Dy  Dy4  1  0.588735  0.791101  0.881577  1
  Dy  Dy5  1  0.587232  0.208791  0.379394  1
  Dy  Dy6  1  0.412768  0.791209  0.379394  1
  Dy  Dy7  1  0.411265  0.208899  0.881577  1
  Dy  Dy8  1  0.208791  0.412768  0.620606  1
  Dy  Dy9  1  0.208899  0.588735  0.118423  1
  Dy  Dy10  1  0.791101  0.411265  0.118423  1
  Dy  Dy11  1  0.791209  0.587232  0.620606  1
  Dy  Dy12  1  0.910585  0.709473  0.120258  1
  Dy  Dy13  1  0.913959  0.283942  0.620378  1
  Dy  Dy14  1  0.086041  0.716058  0.620378  1
  Dy  Dy15  1  0.089415  0.290527  0.120258  1
  Dy  Dy16  1  0.000000  0.000000  0.000000  1
  Dy  Dy17  1  0.500000  0.500000  0.000000  1
  Dy  Dy18  1  0.500000  0.500000  0.500000  1
  Mg  Mg19  1  0.000000  0.000000  0.500000  1
  Ir  Ir20  1  0.655587  0.345108  0.748113  1
  Ir  Ir21  1  0.654892  0.655587  0.251887  1
  Ir  Ir22  1  0.345108  0.344413  0.251887  1
  Ir  Ir23  1  0.344413  0.654892  0.748113  1
  Rh  Rh24  1  0.847001  0.153837  0.247539  1
  Rh  Rh25  1  0.846163  0.847001  0.752461  1
  Rh  Rh26  1  0.153837  0.152999  0.752461  1
  Rh  Rh27  1  0.152999  0.846163  0.247539  1
  Rh  Rh28  1  0.500000  0.000000  0.124983  1
  Rh  Rh29  1  0.500000  0.000000  0.621376  1
  Rh  Rh30  1  0.000000  0.500000  0.875017  1
  Rh  Rh31  1  0.000000  0.500000  0.378624  1
