# generated using pymatgen
data_Sr3(PrSi2)2
_symmetry_space_group_name_H-M   'P 1'
_cell_length_a   8.18130100
_cell_length_b   8.18130100
_cell_length_c   15.52618300
_cell_angle_alpha   90.00000000
_cell_angle_beta   90.00000000
_cell_angle_gamma   90.00000000
_symmetry_Int_Tables_number   1
_chemical_formula_structural   Sr3(PrSi2)2
_chemical_formula_sum   'Sr12 Pr8 Si16'
_cell_volume   1039.22465852
_cell_formula_units_Z   4
loop_
 _symmetry_equiv_pos_site_id
 _symmetry_equiv_pos_as_xyz
  1  'x, y, z'
loop_
 _atom_site_type_symbol
 _atom_site_label
 _atom_site_symmetry_multiplicity
 _atom_site_fract_x
 _atom_site_fract_y
 _atom_site_fract_z
 _atom_site_occupancy
  Sr  Sr0  1  0.309684  0.309684  0.000000  1
  Sr  Sr1  1  0.190316  0.809684  0.250000  1
  Sr  Sr2  1  0.809684  0.190316  0.750000  1
  Sr  Sr3  1  0.690316  0.690316  0.500000  1
  Sr  Sr4  1  0.371046  0.013582  0.453317  1
  Sr  Sr5  1  0.486418  0.871046  0.703317  1
  Sr  Sr6  1  0.513582  0.128954  0.203317  1
  Sr  Sr7  1  0.871046  0.486418  0.296683  1
  Sr  Sr8  1  0.128954  0.513582  0.796683  1
  Sr  Sr9  1  0.628954  0.986418  0.953317  1
  Sr  Sr10  1  0.013582  0.371046  0.546683  1
  Sr  Sr11  1  0.986418  0.628954  0.046683  1
  Pr  Pr12  1  0.127995  0.987639  0.874962  1
  Pr  Pr13  1  0.512361  0.627995  0.124962  1
  Pr  Pr14  1  0.487639  0.372005  0.624962  1
  Pr  Pr15  1  0.627995  0.512361  0.875038  1
  Pr  Pr16  1  0.372005  0.487639  0.375038  1
  Pr  Pr17  1  0.872005  0.012361  0.374962  1
  Pr  Pr18  1  0.987639  0.127995  0.125038  1
  Pr  Pr19  1  0.012361  0.872005  0.625038  1
  Si  Si20  1  0.208760  0.153595  0.697298  1
  Si  Si21  1  0.346405  0.708760  0.947298  1
  Si  Si22  1  0.653595  0.291240  0.447298  1
  Si  Si23  1  0.708760  0.346405  0.052702  1
  Si  Si24  1  0.291240  0.653595  0.552702  1
  Si  Si25  1  0.791240  0.846405  0.197298  1
  Si  Si26  1  0.153595  0.208760  0.302702  1
  Si  Si27  1  0.846405  0.791240  0.802702  1
  Si  Si28  1  0.275681  0.913283  0.054832  1
  Si  Si29  1  0.586717  0.775681  0.304832  1
  Si  Si30  1  0.413283  0.224319  0.804832  1
  Si  Si31  1  0.775681  0.586717  0.695168  1
  Si  Si32  1  0.224319  0.413283  0.195168  1
  Si  Si33  1  0.724319  0.086717  0.554832  1
  Si  Si34  1  0.913283  0.275681  0.945168  1
  Si  Si35  1  0.086717  0.724319  0.445168  1
