# generated using pymatgen
data_Tb4Al18(AgOs)3
_symmetry_space_group_name_H-M   'P 1'
_cell_length_a   7.58976824
_cell_length_b   7.58976817
_cell_length_c   9.51931600
_cell_angle_alpha   90.06734537
_cell_angle_beta   90.06733027
_cell_angle_gamma   119.12601015
_symmetry_Int_Tables_number   1
_chemical_formula_structural   Tb4Al18(AgOs)3
_chemical_formula_sum   'Tb4 Al18 Ag3 Os3'
_cell_volume   479.01602389
_cell_formula_units_Z   1
loop_
 _symmetry_equiv_pos_site_id
 _symmetry_equiv_pos_as_xyz
  1  'x, y, z'
loop_
 _atom_site_type_symbol
 _atom_site_label
 _atom_site_symmetry_multiplicity
 _atom_site_fract_x
 _atom_site_fract_y
 _atom_site_fract_z
 _atom_site_occupancy
  Tb  Tb0  1  0.996803  0.669989  0.247880  1
  Tb  Tb1  1  0.006299  0.331803  0.751035  1
  Tb  Tb2  1  0.668197  0.993701  0.248965  1
  Tb  Tb3  1  0.330011  0.003197  0.752120  1
  Al  Al4  1  0.122402  0.124608  0.248301  1
  Al  Al5  1  0.875392  0.877598  0.751699  1
  Al  Al6  1  0.989101  0.322504  0.074585  1
  Al  Al7  1  0.988475  0.662642  0.923810  1
  Al  Al8  1  0.995285  0.674386  0.582391  1
  Al  Al9  1  0.325614  0.004715  0.417609  1
  Al  Al10  1  0.002331  0.325840  0.420022  1
  Al  Al11  1  0.674160  0.997669  0.579978  1
  Al  Al12  1  0.677496  0.010899  0.925415  1
  Al  Al13  1  0.337358  0.011525  0.076190  1
  Al  Al14  1  0.325440  0.325871  0.561327  1
  Al  Al15  1  0.674129  0.674560  0.438673  1
  Al  Al16  1  0.677402  0.667828  0.048321  1
  Al  Al17  1  0.332172  0.322598  0.951679  1
  Al  Al18  1  0.341661  0.542013  0.248646  1
  Al  Al19  1  0.655484  0.451197  0.758377  1
  Al  Al20  1  0.548803  0.344516  0.241623  1
  Al  Al21  1  0.457987  0.658339  0.751354  1
  Ag  Ag22  1  0.326282  0.673718  0.000000  1
  Ag  Ag23  1  0.325453  0.674547  0.500000  1
  Ag  Ag24  1  0.672838  0.327162  0.500000  1
  Os  Os25  1  0.671791  0.328209  0.000000  1
  Os  Os26  1  0.001763  0.998237  0.000000  1
  Os  Os27  1  0.999871  0.000129  0.500000  1
