# generated using pymatgen
data_Li6Mn5NbPt12
_symmetry_space_group_name_H-M   'P 1'
_cell_length_a   4.13763600
_cell_length_b   6.70500000
_cell_length_c   12.47184801
_cell_angle_alpha   90.00000000
_cell_angle_beta   89.99556537
_cell_angle_gamma   90.00000000
_symmetry_Int_Tables_number   1
_chemical_formula_structural   Li6Mn5NbPt12
_chemical_formula_sum   'Li6 Mn5 Nb1 Pt12'
_cell_volume   346.00460004
_cell_formula_units_Z   1
loop_
 _symmetry_equiv_pos_site_id
 _symmetry_equiv_pos_as_xyz
  1  'x, y, z'
loop_
 _atom_site_type_symbol
 _atom_site_label
 _atom_site_symmetry_multiplicity
 _atom_site_fract_x
 _atom_site_fract_y
 _atom_site_fract_z
 _atom_site_occupancy
  Li  Li0  1  0.000000  0.500000  0.000000  1
  Li  Li1  1  0.499907  0.000000  0.171686  1
  Li  Li2  1  0.999960  0.500000  0.337638  1
  Li  Li3  1  0.500000  0.000000  0.500000  1
  Li  Li4  1  0.000041  0.500000  0.662363  1
  Li  Li5  1  0.500094  0.000000  0.828314  1
  Mn  Mn6  1  0.499941  0.500000  0.170851  1
  Mn  Mn7  1  0.999947  0.000000  0.334179  1
  Mn  Mn8  1  0.500000  0.500000  0.500000  1
  Mn  Mn9  1  0.000054  0.000000  0.665821  1
  Mn  Mn10  1  0.500060  0.500000  0.829149  1
  Nb  Nb11  1  0.000000  0.000000  0.000000  1
  Pt  Pt12  1  0.500000  0.254304  0.000000  1
  Pt  Pt13  1  0.500000  0.745698  0.000000  1
  Pt  Pt14  1  0.999955  0.251171  0.167246  1
  Pt  Pt15  1  0.999955  0.748829  0.167246  1
  Pt  Pt16  1  0.499954  0.249591  0.334237  1
  Pt  Pt17  1  0.499954  0.750409  0.334237  1
  Pt  Pt18  1  0.000000  0.247870  0.500000  1
  Pt  Pt19  1  0.000000  0.752130  0.500000  1
  Pt  Pt20  1  0.500047  0.249591  0.665764  1
  Pt  Pt21  1  0.500047  0.750409  0.665764  1
  Pt  Pt22  1  0.000044  0.251171  0.832754  1
  Pt  Pt23  1  0.000044  0.748829  0.832754  1
