# generated using pymatgen
data_Er3Th5(P3Ir4)4
_symmetry_space_group_name_H-M   'P 1'
_cell_length_a   13.09277200
_cell_length_b   13.09277323
_cell_length_c   4.07276000
_cell_angle_alpha   90.00000000
_cell_angle_beta   90.00000000
_cell_angle_gamma   120.00000195
_symmetry_Int_Tables_number   1
_chemical_formula_structural   Er3Th5(P3Ir4)4
_chemical_formula_sum   'Er3 Th5 P12 Ir16'
_cell_volume   604.62025590
_cell_formula_units_Z   1
loop_
 _symmetry_equiv_pos_site_id
 _symmetry_equiv_pos_as_xyz
  1  'x, y, z'
loop_
 _atom_site_type_symbol
 _atom_site_label
 _atom_site_symmetry_multiplicity
 _atom_site_fract_x
 _atom_site_fract_y
 _atom_site_fract_z
 _atom_site_occupancy
  Er  Er0  1  0.000000  0.445140  0.500000  1
  Er  Er1  1  0.554860  0.554860  0.500000  1
  Er  Er2  1  0.445140  0.000000  0.500000  1
  Th  Th3  1  0.333333  0.666667  0.500000  1
  Th  Th4  1  0.666667  0.333333  0.500000  1
  Th  Th5  1  0.000000  0.816725  0.000000  1
  Th  Th6  1  0.183275  0.183275  0.000000  1
  Th  Th7  1  0.816725  0.000000  0.000000  1
  P  P8  1  0.000000  0.649046  0.500000  1
  P  P9  1  0.350954  0.350954  0.500000  1
  P  P10  1  0.649046  0.000000  0.500000  1
  P  P11  1  0.520000  0.687049  0.000000  1
  P  P12  1  0.312951  0.832951  0.000000  1
  P  P13  1  0.167049  0.480000  0.000000  1
  P  P14  1  0.480000  0.167049  0.000000  1
  P  P15  1  0.687049  0.520000  0.000000  1
  P  P16  1  0.832951  0.312951  0.000000  1
  P  P17  1  0.000000  0.177690  0.500000  1
  P  P18  1  0.822310  0.822310  0.500000  1
  P  P19  1  0.177690  0.000000  0.500000  1
  Ir  Ir20  1  0.509526  0.863757  0.000000  1
  Ir  Ir21  1  0.136243  0.645770  0.000000  1
  Ir  Ir22  1  0.354230  0.490474  0.000000  1
  Ir  Ir23  1  0.490474  0.354230  0.000000  1
  Ir  Ir24  1  0.863757  0.509526  0.000000  1
  Ir  Ir25  1  0.645770  0.136243  0.000000  1
  Ir  Ir26  1  0.000000  0.278119  0.000000  1
  Ir  Ir27  1  0.721881  0.721881  0.000000  1
  Ir  Ir28  1  0.278119  0.000000  0.000000  1
  Ir  Ir29  1  0.629765  0.808701  0.500000  1
  Ir  Ir30  1  0.191299  0.821065  0.500000  1
  Ir  Ir31  1  0.178935  0.370235  0.500000  1
  Ir  Ir32  1  0.370235  0.178935  0.500000  1
  Ir  Ir33  1  0.808701  0.629765  0.500000  1
  Ir  Ir34  1  0.821065  0.191299  0.500000  1
  Ir  Ir35  1  0.000000  0.000000  0.500000  1
