# generated using pymatgen
data_Tm3Lu3U2(ReB6)4
_symmetry_space_group_name_H-M   'P 1'
_cell_length_a   3.64927200
_cell_length_b   9.07877607
_cell_length_c   11.43526575
_cell_angle_alpha   90.35449796
_cell_angle_beta   90.00000000
_cell_angle_gamma   90.00000000
_symmetry_Int_Tables_number   1
_chemical_formula_structural   Tm3Lu3U2(ReB6)4
_chemical_formula_sum   'Tm3 Lu3 U2 Re4 B24'
_cell_volume   378.85366077
_cell_formula_units_Z   1
loop_
 _symmetry_equiv_pos_site_id
 _symmetry_equiv_pos_as_xyz
  1  'x, y, z'
loop_
 _atom_site_type_symbol
 _atom_site_label
 _atom_site_symmetry_multiplicity
 _atom_site_fract_x
 _atom_site_fract_y
 _atom_site_fract_z
 _atom_site_occupancy
  Tm  Tm0  1  0.000000  0.822570  0.085683  1
  Tm  Tm1  1  0.000000  0.177706  0.914232  1
  Tm  Tm2  1  0.000000  0.945047  0.372893  1
  Lu  Lu3  1  0.000000  0.055055  0.627467  1
  Lu  Lu4  1  0.000000  0.443749  0.126322  1
  Lu  Lu5  1  0.000000  0.556314  0.873425  1
  U  U6  1  0.000000  0.322439  0.414023  1
  U  U7  1  0.000000  0.677534  0.586379  1
  Re  Re8  1  0.000000  0.635171  0.324604  1
  Re  Re9  1  0.000000  0.364112  0.675453  1
  Re  Re10  1  0.000000  0.141422  0.182041  1
  Re  Re11  1  0.000000  0.859019  0.817829  1
  B  B12  1  0.500000  0.552492  0.433991  1
  B  B13  1  0.500000  0.446975  0.566054  1
  B  B14  1  0.500000  0.053437  0.066707  1
  B  B15  1  0.500000  0.946768  0.932995  1
  B  B16  1  0.500000  0.749079  0.420370  1
  B  B17  1  0.500000  0.250440  0.579776  1
  B  B18  1  0.500000  0.249551  0.079846  1
  B  B19  1  0.500000  0.750641  0.920024  1
  B  B20  1  0.500000  0.792137  0.265084  1
  B  B21  1  0.500000  0.207382  0.734778  1
  B  B22  1  0.500000  0.293869  0.234750  1
  B  B23  1  0.500000  0.706371  0.765303  1
  B  B24  1  0.500000  0.630455  0.184525  1
  B  B25  1  0.500000  0.369289  0.815370  1
  B  B26  1  0.500000  0.133004  0.315509  1
  B  B27  1  0.500000  0.867554  0.684485  1
  B  B28  1  0.500000  0.981411  0.212235  1
  B  B29  1  0.500000  0.018837  0.787378  1
  B  B30  1  0.500000  0.481102  0.286628  1
  B  B31  1  0.500000  0.518578  0.713406  1
  B  B32  1  0.500000  0.602484  0.028689  1
  B  B33  1  0.500000  0.397581  0.971120  1
  B  B34  1  0.500000  0.108901  0.470463  1
  B  B35  1  0.500000  0.891526  0.530166  1
