# generated using pymatgen
data_Hf2Mg4TaNb5N12
_symmetry_space_group_name_H-M   'P 1'
_cell_length_a   5.30612036
_cell_length_b   5.30271037
_cell_length_c   10.59238000
_cell_angle_alpha   90.00000000
_cell_angle_beta   90.00000000
_cell_angle_gamma   119.97874710
_symmetry_Int_Tables_number   1
_chemical_formula_structural   Hf2Mg4TaNb5N12
_chemical_formula_sum   'Hf2 Mg4 Ta1 Nb5 N12'
_cell_volume   258.16190484
_cell_formula_units_Z   1
loop_
 _symmetry_equiv_pos_site_id
 _symmetry_equiv_pos_as_xyz
  1  'x, y, z'
loop_
 _atom_site_type_symbol
 _atom_site_label
 _atom_site_symmetry_multiplicity
 _atom_site_fract_x
 _atom_site_fract_y
 _atom_site_fract_z
 _atom_site_occupancy
  Hf  Hf0  1  0.000000  0.000865  0.499881  1
  Hf  Hf1  1  0.000000  0.000865  0.000119  1
  Mg  Mg2  1  0.333756  0.666690  0.000154  1
  Mg  Mg3  1  0.333756  0.666690  0.499846  1
  Mg  Mg4  1  0.666244  0.332932  0.499846  1
  Mg  Mg5  1  0.666244  0.332932  0.000154  1
  Ta  Ta6  1  0.000000  0.659353  0.750000  1
  Nb  Nb7  1  0.000000  0.340069  0.250000  1
  Nb  Nb8  1  0.659652  0.999627  0.750000  1
  Nb  Nb9  1  0.340348  0.339975  0.750000  1
  Nb  Nb10  1  0.660231  0.660061  0.250000  1
  Nb  Nb11  1  0.339769  0.999831  0.250000  1
  N  N12  1  0.671943  0.667889  0.623997  1
  N  N13  1  0.671943  0.667889  0.876003  1
  N  N14  1  0.332000  0.331998  0.123129  1
  N  N15  1  0.332000  0.331998  0.376871  1
  N  N16  1  0.328057  0.995945  0.876003  1
  N  N17  1  0.328057  0.995945  0.623997  1
  N  N18  1  0.000000  0.668489  0.376682  1
  N  N19  1  0.000000  0.668489  0.123318  1
  N  N20  1  0.668000  0.999999  0.123129  1
  N  N21  1  0.668000  0.999999  0.376871  1
  N  N22  1  0.000000  0.335736  0.876284  1
  N  N23  1  0.000000  0.335736  0.623716  1
