# generated using pymatgen
data_LaNdY6(CdPd)2
_symmetry_space_group_name_H-M   'P 1'
_cell_length_a   9.84769971
_cell_length_b   9.84769995
_cell_length_c   9.84361700
_cell_angle_alpha   60.01371086
_cell_angle_beta   60.01371005
_cell_angle_gamma   60.00773904
_symmetry_Int_Tables_number   1
_chemical_formula_structural   LaNdY6(CdPd)2
_chemical_formula_sum   'La2 Nd2 Y12 Cd4 Pd4'
_cell_volume   675.18795855
_cell_formula_units_Z   2
loop_
 _symmetry_equiv_pos_site_id
 _symmetry_equiv_pos_as_xyz
  1  'x, y, z'
loop_
 _atom_site_type_symbol
 _atom_site_label
 _atom_site_symmetry_multiplicity
 _atom_site_fract_x
 _atom_site_fract_y
 _atom_site_fract_z
 _atom_site_occupancy
  La  La0  1  0.356087  0.934401  0.354756  1
  La  La1  1  0.934401  0.356087  0.354756  1
  Nd  Nd2  1  0.355181  0.355181  0.353438  1
  Nd  Nd3  1  0.355181  0.355181  0.936200  1
  Y  Y4  1  0.812529  0.187640  0.187394  1
  Y  Y5  1  0.187640  0.812529  0.812437  1
  Y  Y6  1  0.187640  0.812529  0.187394  1
  Y  Y7  1  0.812529  0.187640  0.812437  1
  Y  Y8  1  0.188337  0.188337  0.811663  1
  Y  Y9  1  0.813208  0.813208  0.186792  1
  Y  Y10  1  0.934229  0.567183  0.566504  1
  Y  Y11  1  0.567183  0.934229  0.932085  1
  Y  Y12  1  0.567183  0.934229  0.566504  1
  Y  Y13  1  0.934229  0.567183  0.932085  1
  Y  Y14  1  0.567274  0.567274  0.932726  1
  Y  Y15  1  0.934006  0.934006  0.565994  1
  Cd  Cd16  1  0.582864  0.582864  0.585210  1
  Cd  Cd17  1  0.582864  0.582864  0.249063  1
  Cd  Cd18  1  0.581863  0.249489  0.584324  1
  Cd  Cd19  1  0.249489  0.581863  0.584324  1
  Pd  Pd20  1  0.141699  0.141699  0.145501  1
  Pd  Pd21  1  0.141699  0.141699  0.571098  1
  Pd  Pd22  1  0.140717  0.571968  0.143656  1
  Pd  Pd23  1  0.571968  0.140717  0.143656  1
