# generated using pymatgen
data_Tb4Sc4B24MoIr3
_symmetry_space_group_name_H-M   'P 1'
_cell_length_a   3.56926500
_cell_length_b   9.03091504
_cell_length_c   11.43584561
_cell_angle_alpha   90.13235544
_cell_angle_beta   90.00000000
_cell_angle_gamma   90.00000000
_symmetry_Int_Tables_number   1
_chemical_formula_structural   Tb4Sc4B24MoIr3
_chemical_formula_sum   'Tb4 Sc4 B24 Mo1 Ir3'
_cell_volume   368.61896434
_cell_formula_units_Z   1
loop_
 _symmetry_equiv_pos_site_id
 _symmetry_equiv_pos_as_xyz
  1  'x, y, z'
loop_
 _atom_site_type_symbol
 _atom_site_label
 _atom_site_symmetry_multiplicity
 _atom_site_fract_x
 _atom_site_fract_y
 _atom_site_fract_z
 _atom_site_occupancy
  Tb  Tb0  1  0.500000  0.318179  0.411718  1
  Tb  Tb1  1  0.500000  0.679960  0.585294  1
  Tb  Tb2  1  0.500000  0.179890  0.916344  1
  Tb  Tb3  1  0.500000  0.821736  0.086623  1
  Sc  Sc4  1  0.500000  0.443706  0.123883  1
  Sc  Sc5  1  0.500000  0.555127  0.875773  1
  Sc  Sc6  1  0.500000  0.054629  0.625023  1
  Sc  Sc7  1  0.500000  0.947867  0.374689  1
  B  B8  1  0.000000  0.099480  0.474793  1
  B  B9  1  0.000000  0.899909  0.527619  1
  B  B10  1  0.000000  0.401722  0.971827  1
  B  B11  1  0.000000  0.600350  0.026279  1
  B  B12  1  0.000000  0.129655  0.318806  1
  B  B13  1  0.000000  0.869848  0.681357  1
  B  B14  1  0.000000  0.370803  0.818589  1
  B  B15  1  0.000000  0.629304  0.182294  1
  B  B16  1  0.000000  0.053162  0.065075  1
  B  B17  1  0.000000  0.944799  0.932698  1
  B  B18  1  0.000000  0.444453  0.566565  1
  B  B19  1  0.000000  0.555005  0.433151  1
  B  B20  1  0.000000  0.482563  0.285543  1
  B  B21  1  0.000000  0.517768  0.715149  1
  B  B22  1  0.000000  0.017632  0.784704  1
  B  B23  1  0.000000  0.979122  0.215669  1
  B  B24  1  0.000000  0.255596  0.079909  1
  B  B25  1  0.000000  0.745982  0.919291  1
  B  B26  1  0.000000  0.245597  0.580590  1
  B  B27  1  0.000000  0.754391  0.419344  1
  B  B28  1  0.000000  0.297594  0.235380  1
  B  B29  1  0.000000  0.704780  0.764929  1
  B  B30  1  0.000000  0.205666  0.735267  1
  B  B31  1  0.000000  0.794298  0.266269  1
  Mo  Mo32  1  0.500000  0.140161  0.181222  1
  Ir  Ir33  1  0.500000  0.858625  0.818032  1
  Ir  Ir34  1  0.500000  0.359511  0.681217  1
  Ir  Ir35  1  0.500000  0.641131  0.319084  1
