# generated using pymatgen
data_ErTm2In3NiRh2
_symmetry_space_group_name_H-M   'P 1'
_cell_length_a   7.57046900
_cell_length_b   7.57252661
_cell_length_c   3.71379700
_cell_angle_alpha   90.00000000
_cell_angle_beta   90.00000000
_cell_angle_gamma   119.99101634
_symmetry_Int_Tables_number   1
_chemical_formula_structural   ErTm2In3NiRh2
_chemical_formula_sum   'Er1 Tm2 In3 Ni1 Rh2'
_cell_volume   184.39608405
_cell_formula_units_Z   1
loop_
 _symmetry_equiv_pos_site_id
 _symmetry_equiv_pos_as_xyz
  1  'x, y, z'
loop_
 _atom_site_type_symbol
 _atom_site_label
 _atom_site_symmetry_multiplicity
 _atom_site_fract_x
 _atom_site_fract_y
 _atom_site_fract_z
 _atom_site_occupancy
  Er  Er0  1  0.591218  0.000000  0.500000  1
  Tm  Tm1  1  0.000029  0.591237  0.500000  1
  Tm  Tm2  1  0.408792  0.408763  0.500000  1
  In  In3  1  0.252900  0.000000  0.000000  1
  In  In4  1  0.746951  0.746799  0.000000  1
  In  In5  1  0.000152  0.253201  0.000000  1
  Ni  Ni6  1  0.000107  0.000000  0.500000  1
  Rh  Rh7  1  0.333108  0.666368  0.000000  1
  Rh  Rh8  1  0.666741  0.333632  0.000000  1
