# generated using pymatgen
data_Y6Er(TmSi2)3
_symmetry_space_group_name_H-M   'P 1'
_cell_length_a   8.42118800
_cell_length_b   8.42118649
_cell_length_c   6.30615000
_cell_angle_alpha   90.00000000
_cell_angle_beta   90.00000000
_cell_angle_gamma   120.00000591
_symmetry_Int_Tables_number   1
_chemical_formula_structural   Y6Er(TmSi2)3
_chemical_formula_sum   'Y6 Er1 Tm3 Si6'
_cell_volume   387.29469733
_cell_formula_units_Z   1
loop_
 _symmetry_equiv_pos_site_id
 _symmetry_equiv_pos_as_xyz
  1  'x, y, z'
loop_
 _atom_site_type_symbol
 _atom_site_label
 _atom_site_symmetry_multiplicity
 _atom_site_fract_x
 _atom_site_fract_y
 _atom_site_fract_z
 _atom_site_occupancy
  Y  Y0  1  0.755756  0.755789  0.249961  1
  Y  Y1  1  0.244211  0.999968  0.249961  1
  Y  Y2  1  0.000032  0.244244  0.249961  1
  Y  Y3  1  0.244211  0.244244  0.750039  1
  Y  Y4  1  0.755756  0.999968  0.750039  1
  Y  Y5  1  0.000032  0.755789  0.750039  1
  Er  Er6  1  0.666667  0.333333  0.500000  1
  Tm  Tm7  1  0.333333  0.666667  0.500000  1
  Tm  Tm8  1  0.333333  0.666667  0.000000  1
  Tm  Tm9  1  0.666667  0.333333  0.000000  1
  Si  Si10  1  0.395035  0.395143  0.249906  1
  Si  Si11  1  0.604857  0.999893  0.249906  1
  Si  Si12  1  0.000107  0.604965  0.249906  1
  Si  Si13  1  0.604857  0.604965  0.750094  1
  Si  Si14  1  0.395035  0.999893  0.750094  1
  Si  Si15  1  0.000107  0.395143  0.750094  1
