# generated using pymatgen
data_Tb7SmHf12Si15Sn
_symmetry_space_group_name_H-M   'P 1'
_cell_length_a   7.31996414
_cell_length_b   7.35079866
_cell_length_c   13.47233251
_cell_angle_alpha   89.72282603
_cell_angle_beta   89.97627388
_cell_angle_gamma   89.86438128
_symmetry_Int_Tables_number   1
_chemical_formula_structural   Tb7SmHf12Si15Sn
_chemical_formula_sum   'Tb7 Sm1 Hf12 Si15 Sn1'
_cell_volume   724.90307209
_cell_formula_units_Z   1
loop_
 _symmetry_equiv_pos_site_id
 _symmetry_equiv_pos_as_xyz
  1  'x, y, z'
loop_
 _atom_site_type_symbol
 _atom_site_label
 _atom_site_symmetry_multiplicity
 _atom_site_fract_x
 _atom_site_fract_y
 _atom_site_fract_z
 _atom_site_occupancy
  Tb  Tb0  1  0.004945  0.655965  0.716199  1
  Tb  Tb1  1  0.149063  0.505028  0.470700  1
  Tb  Tb2  1  0.505778  0.842424  0.032636  1
  Tb  Tb3  1  0.844532  0.504177  0.963768  1
  Tb  Tb4  1  0.497864  0.153593  0.539143  1
  Tb  Tb5  1  0.343913  0.995629  0.784994  1
  Tb  Tb6  1  0.661789  0.997635  0.283629  1
  Sm  Sm7  1  0.987755  0.343802  0.212707  1
  Hf  Hf8  1  0.174463  0.174791  0.998950  1
  Hf  Hf9  1  0.825320  0.826804  0.501334  1
  Hf  Hf10  1  0.326575  0.681468  0.247990  1
  Hf  Hf11  1  0.675027  0.324888  0.750324  1
  Hf  Hf12  1  0.142875  0.987655  0.374180  1
  Hf  Hf13  1  0.851780  0.003744  0.873562  1
  Hf  Hf14  1  0.503629  0.650171  0.624755  1
  Hf  Hf15  1  0.351016  0.495173  0.875522  1
  Hf  Hf16  1  0.495946  0.351404  0.118268  1
  Hf  Hf17  1  0.660237  0.515731  0.380006  1
  Hf  Hf18  1  0.994512  0.149469  0.626887  1
  Hf  Hf19  1  0.002903  0.848662  0.123829  1
  Si  Si20  1  0.637048  0.704761  0.816689  1
  Si  Si21  1  0.204721  0.864652  0.567957  1
  Si  Si22  1  0.137715  0.794688  0.932446  1
  Si  Si23  1  0.794530  0.135278  0.064167  1
  Si  Si24  1  0.862201  0.204064  0.434150  1
  Si  Si25  1  0.295402  0.363184  0.683857  1
  Si  Si26  1  0.701764  0.637684  0.182819  1
  Si  Si27  1  0.294885  0.041556  0.180727  1
  Si  Si28  1  0.706011  0.949574  0.686508  1
  Si  Si29  1  0.450162  0.796825  0.435783  1
  Si  Si30  1  0.205498  0.550093  0.063678  1
  Si  Si31  1  0.548930  0.203940  0.933798  1
  Si  Si32  1  0.793058  0.450536  0.566878  1
  Si  Si33  1  0.049427  0.294370  0.814536  1
  Si  Si34  1  0.952370  0.704312  0.313401  1
  Sn  Sn35  1  0.366358  0.296269  0.323224  1
