# generated using pymatgen
data_HoZnCdAg3
_symmetry_space_group_name_H-M   'P 1'
_cell_length_a   5.59817049
_cell_length_b   5.43401213
_cell_length_c   5.59817000
_cell_angle_alpha   58.99554880
_cell_angle_beta   60.00000289
_cell_angle_gamma   58.99554425
_symmetry_Int_Tables_number   1
_chemical_formula_structural   HoZnCdAg3
_chemical_formula_sum   'Ho1 Zn1 Cd1 Ag3'
_cell_volume   118.55902200
_cell_formula_units_Z   1
loop_
 _symmetry_equiv_pos_site_id
 _symmetry_equiv_pos_as_xyz
  1  'x, y, z'
loop_
 _atom_site_type_symbol
 _atom_site_label
 _atom_site_symmetry_multiplicity
 _atom_site_fract_x
 _atom_site_fract_y
 _atom_site_fract_z
 _atom_site_occupancy
  Ho  Ho0  1  0.750590  0.748231  0.750590  1
  Zn  Zn1  1  0.374207  0.877380  0.374207  1
  Cd  Cd2  1  0.001715  0.994853  0.001715  1
  Ag  Ag3  1  0.373990  0.376512  0.373990  1
  Ag  Ag4  1  0.875507  0.376512  0.373990  1
  Ag  Ag5  1  0.373990  0.376512  0.875507  1
