# generated using pymatgen
data_DyEr7(ZnRh)2
_symmetry_space_group_name_H-M   'P 1'
_cell_length_a   9.43484499
_cell_length_b   9.41387780
_cell_length_c   9.39743218
_cell_angle_alpha   59.85839543
_cell_angle_beta   59.86821285
_cell_angle_gamma   59.92629359
_symmetry_Int_Tables_number   1
_chemical_formula_structural   DyEr7(ZnRh)2
_chemical_formula_sum   'Dy2 Er14 Zn4 Rh4'
_cell_volume   588.64790948
_cell_formula_units_Z   2
loop_
 _symmetry_equiv_pos_site_id
 _symmetry_equiv_pos_as_xyz
  1  'x, y, z'
loop_
 _atom_site_type_symbol
 _atom_site_label
 _atom_site_symmetry_multiplicity
 _atom_site_fract_x
 _atom_site_fract_y
 _atom_site_fract_z
 _atom_site_occupancy
  Dy  Dy0  1  0.935660  0.935182  0.564498  1
  Dy  Dy1  1  0.564661  0.935182  0.564498  1
  Er  Er2  1  0.565271  0.563146  0.936275  1
  Er  Er3  1  0.146188  0.563315  0.144312  1
  Er  Er4  1  0.690692  0.309631  0.308986  1
  Er  Er5  1  0.936552  0.562774  0.564123  1
  Er  Er6  1  0.935308  0.563146  0.936275  1
  Er  Er7  1  0.690184  0.691109  0.309366  1
  Er  Er8  1  0.564165  0.935038  0.936633  1
  Er  Er9  1  0.146904  0.146024  0.145359  1
  Er  Er10  1  0.309341  0.691109  0.309366  1
  Er  Er11  1  0.561713  0.146024  0.145359  1
  Er  Er12  1  0.308872  0.309920  0.691204  1
  Er  Er13  1  0.309495  0.690369  0.690642  1
  Er  Er14  1  0.146148  0.145180  0.562524  1
  Er  Er15  1  0.690006  0.309920  0.691204  1
  Zn  Zn16  1  0.920130  0.921046  0.922283  1
  Zn  Zn17  1  0.236539  0.921046  0.922283  1
  Zn  Zn18  1  0.921243  0.921569  0.235945  1
  Zn  Zn19  1  0.920068  0.238408  0.921454  1
  Rh  Rh20  1  0.356263  0.355909  0.931564  1
  Rh  Rh21  1  0.356157  0.356755  0.355475  1
  Rh  Rh22  1  0.931610  0.356755  0.355475  1
  Rh  Rh23  1  0.356830  0.931442  0.354898  1
