# generated using pymatgen
data_CsLiSnF6
_symmetry_space_group_name_H-M   'P 1'
_cell_length_a   11.18994000
_cell_length_b   5.95261472
_cell_length_c   9.64285241
_cell_angle_alpha   89.00503416
_cell_angle_beta   90.00000000
_cell_angle_gamma   90.00000000
_symmetry_Int_Tables_number   1
_chemical_formula_structural   CsLiSnF6
_chemical_formula_sum   'Cs4 Li4 Sn4 F24'
_cell_volume   642.20778450
_cell_formula_units_Z   4
loop_
 _symmetry_equiv_pos_site_id
 _symmetry_equiv_pos_as_xyz
  1  'x, y, z'
loop_
 _atom_site_type_symbol
 _atom_site_label
 _atom_site_symmetry_multiplicity
 _atom_site_fract_x
 _atom_site_fract_y
 _atom_site_fract_z
 _atom_site_occupancy
  Cs  Cs0  1  0.686789  0.298740  0.505639  1
  Cs  Cs1  1  0.813211  0.298740  0.005639  1
  Cs  Cs2  1  0.313211  0.701260  0.494361  1
  Cs  Cs3  1  0.186789  0.701260  0.994361  1
  Li  Li4  1  0.903526  0.749967  0.675357  1
  Li  Li5  1  0.096474  0.250033  0.324643  1
  Li  Li6  1  0.403526  0.250033  0.824643  1
  Li  Li7  1  0.596474  0.749967  0.175357  1
  Sn  Sn8  1  0.912972  0.777885  0.279046  1
  Sn  Sn9  1  0.412972  0.222115  0.220954  1
  Sn  Sn10  1  0.087028  0.222115  0.720954  1
  Sn  Sn11  1  0.587028  0.777885  0.779046  1
  F  F12  1  0.248359  0.358162  0.248025  1
  F  F13  1  0.004087  0.517925  0.749499  1
  F  F14  1  0.072897  0.931219  0.302326  1
  F  F15  1  0.751641  0.641838  0.751975  1
  F  F16  1  0.495913  0.517925  0.249499  1
  F  F17  1  0.601476  0.703433  0.981688  1
  F  F18  1  0.927103  0.068781  0.697674  1
  F  F19  1  0.572897  0.068781  0.197674  1
  F  F20  1  0.839352  0.077870  0.301462  1
  F  F21  1  0.898524  0.703433  0.481688  1
  F  F22  1  0.160648  0.922130  0.698538  1
  F  F23  1  0.420688  0.183243  0.426319  1
  F  F24  1  0.579312  0.816757  0.573681  1
  F  F25  1  0.504087  0.482075  0.750501  1
  F  F26  1  0.251641  0.358162  0.748025  1
  F  F27  1  0.748359  0.641838  0.251975  1
  F  F28  1  0.339352  0.922130  0.198538  1
  F  F29  1  0.995913  0.482075  0.250501  1
  F  F30  1  0.398524  0.296567  0.018312  1
  F  F31  1  0.660648  0.077870  0.801462  1
  F  F32  1  0.101476  0.296567  0.518312  1
  F  F33  1  0.079312  0.183243  0.926319  1
  F  F34  1  0.920688  0.816757  0.073681  1
  F  F35  1  0.427103  0.931219  0.802326  1
