# generated using pymatgen
data_Er2CoRuI2
_symmetry_space_group_name_H-M   'P 1'
_cell_length_a   4.08606800
_cell_length_b   4.08606777
_cell_length_c   12.37297600
_cell_angle_alpha   90.00000000
_cell_angle_beta   90.00000000
_cell_angle_gamma   119.99998568
_symmetry_Int_Tables_number   1
_chemical_formula_structural   Er2CoRuI2
_chemical_formula_sum   'Er2 Co1 Ru1 I2'
_cell_volume   178.90233956
_cell_formula_units_Z   1
loop_
 _symmetry_equiv_pos_site_id
 _symmetry_equiv_pos_as_xyz
  1  'x, y, z'
loop_
 _atom_site_type_symbol
 _atom_site_label
 _atom_site_symmetry_multiplicity
 _atom_site_fract_x
 _atom_site_fract_y
 _atom_site_fract_z
 _atom_site_occupancy
  Er  Er0  1  0.000000  0.000000  0.149215  1
  Er  Er1  1  0.000000  0.000000  0.851896  1
  Co  Co2  1  0.333333  0.666666  0.995262  1
  Ru  Ru3  1  0.666667  0.333334  0.003526  1
  I  I4  1  0.333333  0.666666  0.318816  1
  I  I5  1  0.666667  0.333334  0.681286  1
