# generated using pymatgen
data_Pr2Nd2Sm2OsBr10
_symmetry_space_group_name_H-M   'P 1'
_cell_length_a   7.65568801
_cell_length_b   9.63414610
_cell_length_c   9.49387828
_cell_angle_alpha   107.93366191
_cell_angle_beta   95.84651800
_cell_angle_gamma   106.15373504
_symmetry_Int_Tables_number   1
_chemical_formula_structural   Pr2Nd2Sm2OsBr10
_chemical_formula_sum   'Pr2 Nd2 Sm2 Os1 Br10'
_cell_volume   626.28771948
_cell_formula_units_Z   1
loop_
 _symmetry_equiv_pos_site_id
 _symmetry_equiv_pos_as_xyz
  1  'x, y, z'
loop_
 _atom_site_type_symbol
 _atom_site_label
 _atom_site_symmetry_multiplicity
 _atom_site_fract_x
 _atom_site_fract_y
 _atom_site_fract_z
 _atom_site_occupancy
  Pr  Pr0  1  0.624719  0.548019  0.261161  1
  Pr  Pr1  1  0.375281  0.451981  0.738839  1
  Nd  Nd2  1  0.530625  0.195618  0.403455  1
  Nd  Nd3  1  0.469375  0.804382  0.596545  1
  Sm  Sm4  1  0.134073  0.359269  0.316868  1
  Sm  Sm5  1  0.865927  0.640731  0.683132  1
  Os  Os6  1  0.500000  0.500000  0.500000  1
  Br  Br7  1  0.147623  0.049627  0.229086  1
  Br  Br8  1  0.852377  0.950373  0.770914  1
  Br  Br9  1  0.247596  0.415112  0.050859  1
  Br  Br10  1  0.752404  0.584888  0.949141  1
  Br  Br11  1  0.714709  0.245183  0.154124  1
  Br  Br12  1  0.285291  0.754817  0.845876  1
  Br  Br13  1  0.046434  0.671568  0.417794  1
  Br  Br14  1  0.953566  0.328432  0.582206  1
  Br  Br15  1  0.412875  0.130961  0.671846  1
  Br  Br16  1  0.587125  0.869039  0.328154  1
