# generated using pymatgen
data_Ho2ThAlGa2Ni3
_symmetry_space_group_name_H-M   'P 1'
_cell_length_a   7.14496903
_cell_length_b   6.99924265
_cell_length_c   3.82828200
_cell_angle_alpha   90.00000000
_cell_angle_beta   90.00000000
_cell_angle_gamma   120.46151213
_symmetry_Int_Tables_number   1
_chemical_formula_structural   Ho2ThAlGa2Ni3
_chemical_formula_sum   'Ho2 Th1 Al1 Ga2 Ni3'
_cell_volume   165.02411876
_cell_formula_units_Z   1
loop_
 _symmetry_equiv_pos_site_id
 _symmetry_equiv_pos_as_xyz
  1  'x, y, z'
loop_
 _atom_site_type_symbol
 _atom_site_label
 _atom_site_symmetry_multiplicity
 _atom_site_fract_x
 _atom_site_fract_y
 _atom_site_fract_z
 _atom_site_occupancy
  Ho  Ho0  1  0.998759  0.410137  0.500000  1
  Ho  Ho1  1  0.582614  0.585708  0.500000  1
  Th  Th2  1  0.421505  0.001637  0.500000  1
  Al  Al3  1  0.989818  0.752807  0.000000  1
  Ga  Ga4  1  0.242181  0.251499  0.000000  1
  Ga  Ga5  1  0.769285  0.997325  0.000000  1
  Ni  Ni6  1  0.326288  0.674460  0.000000  1
  Ni  Ni7  1  0.662771  0.330515  0.000000  1
  Ni  Ni8  1  0.006779  0.995912  0.500000  1
