# generated using pymatgen
data_LaDy2Y(Mo2O7)2
_symmetry_space_group_name_H-M   'P 1'
_cell_length_a   7.46278756
_cell_length_b   7.49173296
_cell_length_c   7.46278738
_cell_angle_alpha   59.24936190
_cell_angle_beta   58.97403186
_cell_angle_gamma   59.24936069
_symmetry_Int_Tables_number   1
_chemical_formula_structural   LaDy2Y(Mo2O7)2
_chemical_formula_sum   'La1 Dy2 Y1 Mo4 O14'
_cell_volume   289.36359224
_cell_formula_units_Z   1
loop_
 _symmetry_equiv_pos_site_id
 _symmetry_equiv_pos_as_xyz
  1  'x, y, z'
loop_
 _atom_site_type_symbol
 _atom_site_label
 _atom_site_symmetry_multiplicity
 _atom_site_fract_x
 _atom_site_fract_y
 _atom_site_fract_z
 _atom_site_occupancy
  La  La0  1  0.125000  0.125000  0.125000  1
  Dy  Dy1  1  0.625000  0.125000  0.125000  1
  Dy  Dy2  1  0.125000  0.125000  0.625000  1
  Y  Y3  1  0.125000  0.625000  0.125000  1
  Mo  Mo4  1  0.125000  0.625000  0.625000  1
  Mo  Mo5  1  0.625000  0.125000  0.625000  1
  Mo  Mo6  1  0.625000  0.625000  0.125000  1
  Mo  Mo7  1  0.625000  0.625000  0.625000  1
  O  O8  1  0.708253  0.717453  0.288307  1
  O  O9  1  0.288433  0.291077  0.702937  1
  O  O10  1  0.717110  0.280098  0.717110  1
  O  O11  1  0.288292  0.699707  0.288292  1
  O  O12  1  0.288307  0.717453  0.708253  1
  O  O13  1  0.702937  0.291077  0.288433  1
  O  O14  1  0.541747  0.532547  0.961693  1
  O  O15  1  0.961567  0.958923  0.547063  1
  O  O16  1  0.532890  0.969902  0.532890  1
  O  O17  1  0.961708  0.550293  0.961708  1
  O  O18  1  0.961693  0.532547  0.541747  1
  O  O19  1  0.547063  0.958923  0.961567  1
  O  O20  1  0.251614  0.254711  0.251614  1
  O  O21  1  0.998386  0.995289  0.998386  1
