# generated using pymatgen
data_Tm6Al7Au16
_symmetry_space_group_name_H-M   'P 1'
_cell_length_a   9.23989679
_cell_length_b   9.23989685
_cell_length_c   9.23989600
_cell_angle_alpha   59.99999589
_cell_angle_beta   59.99999567
_cell_angle_gamma   59.99999940
_symmetry_Int_Tables_number   1
_chemical_formula_structural   Tm6Al7Au16
_chemical_formula_sum   'Tm6 Al7 Au16'
_cell_volume   557.81000386
_cell_formula_units_Z   1
loop_
 _symmetry_equiv_pos_site_id
 _symmetry_equiv_pos_as_xyz
  1  'x, y, z'
loop_
 _atom_site_type_symbol
 _atom_site_label
 _atom_site_symmetry_multiplicity
 _atom_site_fract_x
 _atom_site_fract_y
 _atom_site_fract_z
 _atom_site_occupancy
  Tm  Tm0  1  0.714650  0.285350  0.285350  1
  Tm  Tm1  1  0.285350  0.714650  0.714650  1
  Tm  Tm2  1  0.285350  0.714650  0.285350  1
  Tm  Tm3  1  0.285350  0.285350  0.714650  1
  Tm  Tm4  1  0.714650  0.285350  0.714650  1
  Tm  Tm5  1  0.714650  0.714650  0.285350  1
  Al  Al6  1  0.500000  0.000000  0.000000  1
  Al  Al7  1  0.000000  0.500000  0.500000  1
  Al  Al8  1  0.000000  0.500000  0.000000  1
  Al  Al9  1  0.000000  0.000000  0.500000  1
  Al  Al10  1  0.500000  0.000000  0.500000  1
  Al  Al11  1  0.500000  0.500000  0.000000  1
  Al  Al12  1  0.000000  0.000000  0.000000  1
  Au  Au13  1  0.342668  0.342668  0.342668  1
  Au  Au14  1  0.342668  0.342668  0.971996  1
  Au  Au15  1  0.971996  0.342668  0.342668  1
  Au  Au16  1  0.342668  0.971996  0.342668  1
  Au  Au17  1  0.657332  0.657332  0.657332  1
  Au  Au18  1  0.657332  0.657332  0.028004  1
  Au  Au19  1  0.657332  0.028004  0.657332  1
  Au  Au20  1  0.028004  0.657332  0.657332  1
  Au  Au21  1  0.118206  0.118206  0.118206  1
  Au  Au22  1  0.118206  0.118206  0.645380  1
  Au  Au23  1  0.645380  0.118206  0.118206  1
  Au  Au24  1  0.118206  0.645380  0.118206  1
  Au  Au25  1  0.881794  0.881794  0.881794  1
  Au  Au26  1  0.881794  0.881794  0.354620  1
  Au  Au27  1  0.881794  0.354620  0.881794  1
  Au  Au28  1  0.354620  0.881794  0.881794  1
