# generated using pymatgen
data_Yb19Mg(IrAu2)4
_symmetry_space_group_name_H-M   'P 1'
_cell_length_a   11.23241700
_cell_length_b   11.23241700
_cell_length_c   6.28411100
_cell_angle_alpha   90.00000000
_cell_angle_beta   90.00000000
_cell_angle_gamma   90.00000000
_symmetry_Int_Tables_number   1
_chemical_formula_structural   Yb19Mg(IrAu2)4
_chemical_formula_sum   'Yb19 Mg1 Ir4 Au8'
_cell_volume   792.84863696
_cell_formula_units_Z   1
loop_
 _symmetry_equiv_pos_site_id
 _symmetry_equiv_pos_as_xyz
  1  'x, y, z'
loop_
 _atom_site_type_symbol
 _atom_site_label
 _atom_site_symmetry_multiplicity
 _atom_site_fract_x
 _atom_site_fract_y
 _atom_site_fract_z
 _atom_site_occupancy
  Yb  Yb0  1  0.295746  0.080858  0.354659  1
  Yb  Yb1  1  0.298495  0.916945  0.854262  1
  Yb  Yb2  1  0.701505  0.083055  0.854262  1
  Yb  Yb3  1  0.704254  0.919142  0.354659  1
  Yb  Yb4  1  0.584517  0.799090  0.853476  1
  Yb  Yb5  1  0.581351  0.201132  0.352705  1
  Yb  Yb6  1  0.418649  0.798868  0.352705  1
  Yb  Yb7  1  0.415483  0.200910  0.853476  1
  Yb  Yb8  1  0.201132  0.418649  0.647295  1
  Yb  Yb9  1  0.200910  0.584517  0.146524  1
  Yb  Yb10  1  0.799090  0.415483  0.146524  1
  Yb  Yb11  1  0.798868  0.581351  0.647295  1
  Yb  Yb12  1  0.916945  0.701505  0.145738  1
  Yb  Yb13  1  0.919142  0.295746  0.645341  1
  Yb  Yb14  1  0.080858  0.704254  0.645341  1
  Yb  Yb15  1  0.083055  0.298495  0.145738  1
  Yb  Yb16  1  0.000000  0.000000  0.000000  1
  Yb  Yb17  1  0.500000  0.500000  0.000000  1
  Yb  Yb18  1  0.500000  0.500000  0.500000  1
  Mg  Mg19  1  0.000000  0.000000  0.500000  1
  Ir  Ir20  1  0.500000  0.000000  0.103255  1
  Ir  Ir21  1  0.500000  0.000000  0.603171  1
  Ir  Ir22  1  0.000000  0.500000  0.896745  1
  Ir  Ir23  1  0.000000  0.500000  0.396829  1
  Au  Au24  1  0.848234  0.150214  0.258653  1
  Au  Au25  1  0.849786  0.848234  0.741347  1
  Au  Au26  1  0.150214  0.151766  0.741347  1
  Au  Au27  1  0.151766  0.849786  0.258653  1
  Au  Au28  1  0.654372  0.344875  0.749256  1
  Au  Au29  1  0.655125  0.654372  0.250744  1
  Au  Au30  1  0.344875  0.345628  0.250744  1
  Au  Au31  1  0.345628  0.655125  0.749256  1
