# generated using pymatgen
data_Ac10TlGa5
_symmetry_space_group_name_H-M   'P 1'
_cell_length_a   9.99155974
_cell_length_b   9.99156060
_cell_length_c   9.99156130
_cell_angle_alpha   130.68419793
_cell_angle_beta   130.68419450
_cell_angle_gamma   72.31531094
_symmetry_Int_Tables_number   1
_chemical_formula_structural   Ac10TlGa5
_chemical_formula_sum   'Ac10 Tl1 Ga5'
_cell_volume   560.70482304
_cell_formula_units_Z   1
loop_
 _symmetry_equiv_pos_site_id
 _symmetry_equiv_pos_as_xyz
  1  'x, y, z'
loop_
 _atom_site_type_symbol
 _atom_site_label
 _atom_site_symmetry_multiplicity
 _atom_site_fract_x
 _atom_site_fract_y
 _atom_site_fract_z
 _atom_site_occupancy
  Ac  Ac0  1  0.470293  0.470293  0.000000  1
  Ac  Ac1  1  0.029707  0.029707  0.000000  1
  Ac  Ac2  1  0.542609  0.017957  0.846785  1
  Ac  Ac3  1  0.171171  0.695823  0.153215  1
  Ac  Ac4  1  0.017957  0.171171  0.475347  1
  Ac  Ac5  1  0.695823  0.542609  0.524653  1
  Ac  Ac6  1  0.482043  0.957391  0.153215  1
  Ac  Ac7  1  0.804177  0.328829  0.846785  1
  Ac  Ac8  1  0.957391  0.804177  0.475347  1
  Ac  Ac9  1  0.328829  0.482043  0.524653  1
  Tl  Tl10  1  0.250000  0.250000  0.000000  1
  Ga  Ga11  1  0.750000  0.750000  0.000000  1
  Ga  Ga12  1  0.884197  0.384197  0.268393  1
  Ga  Ga13  1  0.115803  0.615803  0.731607  1
  Ga  Ga14  1  0.384197  0.115803  0.500000  1
  Ga  Ga15  1  0.615803  0.884197  0.500000  1
