# generated using pymatgen
data_Eu4In4Pd3Pt
_symmetry_space_group_name_H-M   'P 1'
_cell_length_a   4.50693000
_cell_length_b   7.58551168
_cell_length_c   8.62142887
_cell_angle_alpha   89.53662760
_cell_angle_beta   90.00000000
_cell_angle_gamma   90.00000000
_symmetry_Int_Tables_number   1
_chemical_formula_structural   Eu4In4Pd3Pt
_chemical_formula_sum   'Eu4 In4 Pd3 Pt1'
_cell_volume   294.73434115
_cell_formula_units_Z   1
loop_
 _symmetry_equiv_pos_site_id
 _symmetry_equiv_pos_as_xyz
  1  'x, y, z'
loop_
 _atom_site_type_symbol
 _atom_site_label
 _atom_site_symmetry_multiplicity
 _atom_site_fract_x
 _atom_site_fract_y
 _atom_site_fract_z
 _atom_site_occupancy
  Eu  Eu0  1  0.750000  0.465863  0.823039  1
  Eu  Eu1  1  0.250000  0.035105  0.317758  1
  Eu  Eu2  1  0.750000  0.966977  0.678919  1
  Eu  Eu3  1  0.250000  0.528225  0.178559  1
  In  In4  1  0.250000  0.646523  0.563680  1
  In  In5  1  0.250000  0.146071  0.935554  1
  In  In6  1  0.750000  0.354051  0.436796  1
  In  In7  1  0.750000  0.853806  0.064197  1
  Pd  Pd8  1  0.250000  0.770967  0.876299  1
  Pd  Pd9  1  0.250000  0.270324  0.623295  1
  Pd  Pd10  1  0.750000  0.729596  0.377133  1
  Pt  Pt11  1  0.750000  0.232492  0.124771  1
