# generated using pymatgen
data_Ni3MoP3Ru2
_symmetry_space_group_name_H-M   'P 1'
_cell_length_a   5.81198980
_cell_length_b   5.81174052
_cell_length_c   3.69116800
_cell_angle_alpha   90.00000000
_cell_angle_beta   90.00000000
_cell_angle_gamma   119.77053475
_symmetry_Int_Tables_number   1
_chemical_formula_structural   Ni3MoP3Ru2
_chemical_formula_sum   'Ni3 Mo1 P3 Ru2'
_cell_volume   108.22436873
_cell_formula_units_Z   1
loop_
 _symmetry_equiv_pos_site_id
 _symmetry_equiv_pos_as_xyz
  1  'x, y, z'
loop_
 _atom_site_type_symbol
 _atom_site_label
 _atom_site_symmetry_multiplicity
 _atom_site_fract_x
 _atom_site_fract_y
 _atom_site_fract_z
 _atom_site_occupancy
  Ni  Ni0  1  0.253173  0.000860  0.000000  1
  Ni  Ni1  1  0.000855  0.253196  0.000000  1
  Ni  Ni2  1  0.744666  0.744668  0.000000  1
  Mo  Mo3  1  0.415290  0.415298  0.499999  1
  P  P4  1  0.000122  0.000135  0.499999  1
  P  P5  1  0.329201  0.668302  0.000000  1
  P  P6  1  0.668290  0.329208  0.000000  1
  Ru  Ru7  1  0.592581  0.995742  0.499999  1
  Ru  Ru8  1  0.995727  0.592593  0.499999  1
