# generated using pymatgen
data_Er9LuHg3Bi2Au
_symmetry_space_group_name_H-M   'P 1'
_cell_length_a   8.71446471
_cell_length_b   8.71446392
_cell_length_c   8.73866282
_cell_angle_alpha   123.93818489
_cell_angle_beta   123.94734137
_cell_angle_gamma   83.11771236
_symmetry_Int_Tables_number   1
_chemical_formula_structural   Er9LuHg3Bi2Au
_chemical_formula_sum   'Er9 Lu1 Hg3 Bi2 Au1'
_cell_volume   438.60811259
_cell_formula_units_Z   1
loop_
 _symmetry_equiv_pos_site_id
 _symmetry_equiv_pos_as_xyz
  1  'x, y, z'
loop_
 _atom_site_type_symbol
 _atom_site_label
 _atom_site_symmetry_multiplicity
 _atom_site_fract_x
 _atom_site_fract_y
 _atom_site_fract_z
 _atom_site_occupancy
  Er  Er0  1  0.004127  0.001794  0.005921  1
  Er  Er1  1  0.501856  0.009209  0.800132  1
  Er  Er2  1  0.202349  0.708391  0.199884  1
  Er  Er3  1  0.015559  0.198660  0.500732  1
  Er  Er4  1  0.702020  0.507085  0.499440  1
  Er  Er5  1  0.491491  0.997533  0.199884  1
  Er  Er6  1  0.790925  0.298278  0.800132  1
  Er  Er7  1  0.992355  0.797420  0.499440  1
  Er  Er8  1  0.302071  0.485173  0.500732  1
  Lu  Lu9  1  0.498067  0.495724  0.993792  1
  Hg  Hg10  1  0.141505  0.640887  0.782392  1
  Hg  Hg11  1  0.858406  0.359099  0.217505  1
  Hg  Hg12  1  0.640401  0.858981  0.499383  1
  Bi  Bi13  1  0.248730  0.252196  0.999988  1
  Bi  Bi14  1  0.747792  0.751258  0.999988  1
  Au  Au15  1  0.362346  0.138311  0.500657  1
