# generated using pymatgen
data_Tb2Ho3Co16(P4Os)3
_symmetry_space_group_name_H-M   'P 1'
_cell_length_a   12.02917900
_cell_length_b   12.02917960
_cell_length_c   3.72350300
_cell_angle_alpha   90.00000000
_cell_angle_beta   90.00000000
_cell_angle_gamma   120.00000111
_symmetry_Int_Tables_number   1
_chemical_formula_structural   Tb2Ho3Co16(P4Os)3
_chemical_formula_sum   'Tb2 Ho3 Co16 P12 Os3'
_cell_volume   466.61031085
_cell_formula_units_Z   1
loop_
 _symmetry_equiv_pos_site_id
 _symmetry_equiv_pos_as_xyz
  1  'x, y, z'
loop_
 _atom_site_type_symbol
 _atom_site_label
 _atom_site_symmetry_multiplicity
 _atom_site_fract_x
 _atom_site_fract_y
 _atom_site_fract_z
 _atom_site_occupancy
  Tb  Tb0  1  0.666667  0.333333  0.000000  1
  Tb  Tb1  1  0.333333  0.666667  0.000000  1
  Ho  Ho2  1  0.815164  0.815164  0.500000  1
  Ho  Ho3  1  0.184836  0.000000  0.500000  1
  Ho  Ho4  1  0.000000  0.184836  0.500000  1
  Co  Co5  1  0.874871  0.359197  0.500000  1
  Co  Co6  1  0.640803  0.515674  0.500000  1
  Co  Co7  1  0.484326  0.125129  0.500000  1
  Co  Co8  1  0.359197  0.874871  0.500000  1
  Co  Co9  1  0.515674  0.640803  0.500000  1
  Co  Co10  1  0.125129  0.484326  0.500000  1
  Co  Co11  1  0.803935  0.179734  0.000000  1
  Co  Co12  1  0.820266  0.624201  0.000000  1
  Co  Co13  1  0.375799  0.196065  0.000000  1
  Co  Co14  1  0.179734  0.803935  0.000000  1
  Co  Co15  1  0.624201  0.820266  0.000000  1
  Co  Co16  1  0.196065  0.375799  0.000000  1
  Co  Co17  1  0.282806  0.282806  0.500000  1
  Co  Co18  1  0.717194  0.000000  0.500000  1
  Co  Co19  1  0.000000  0.717194  0.500000  1
  Co  Co20  1  0.000000  0.000000  0.000000  1
  P  P21  1  0.687758  0.165891  0.500000  1
  P  P22  1  0.834109  0.521867  0.500000  1
  P  P23  1  0.478133  0.312242  0.500000  1
  P  P24  1  0.165891  0.687758  0.500000  1
  P  P25  1  0.521867  0.834109  0.500000  1
  P  P26  1  0.312242  0.478133  0.500000  1
  P  P27  1  0.179014  0.179014  0.000000  1
  P  P28  1  0.820986  0.000000  0.000000  1
  P  P29  1  0.000000  0.820986  0.000000  1
  P  P30  1  0.637665  0.637665  0.000000  1
  P  P31  1  0.362335  0.000000  0.000000  1
  P  P32  1  0.000000  0.362335  0.000000  1
  Os  Os33  1  0.446096  0.446096  0.000000  1
  Os  Os34  1  0.553904  0.000000  0.000000  1
  Os  Os35  1  0.000000  0.553904  0.000000  1
