# generated using pymatgen
data_La8Nd8Cd4Ir3Pd
_symmetry_space_group_name_H-M   'P 1'
_cell_length_a   10.03203533
_cell_length_b   10.03203556
_cell_length_c   10.06303700
_cell_angle_alpha   60.13538360
_cell_angle_beta   60.13536920
_cell_angle_gamma   60.51996642
_symmetry_Int_Tables_number   1
_chemical_formula_structural   La8Nd8Cd4Ir3Pd
_chemical_formula_sum   'La8 Nd8 Cd4 Ir3 Pd1'
_cell_volume   720.38133293
_cell_formula_units_Z   1
loop_
 _symmetry_equiv_pos_site_id
 _symmetry_equiv_pos_as_xyz
  1  'x, y, z'
loop_
 _atom_site_type_symbol
 _atom_site_label
 _atom_site_symmetry_multiplicity
 _atom_site_fract_x
 _atom_site_fract_y
 _atom_site_fract_z
 _atom_site_occupancy
  La  La0  1  0.345424  0.345424  0.348508  1
  La  La1  1  0.352006  0.352006  0.950371  1
  La  La2  1  0.353972  0.951557  0.350984  1
  La  La3  1  0.951557  0.353972  0.350984  1
  La  La4  1  0.804068  0.190083  0.190843  1
  La  La5  1  0.188801  0.810191  0.810160  1
  La  La6  1  0.190083  0.804068  0.190843  1
  La  La7  1  0.810191  0.188801  0.810160  1
  Nd  Nd8  1  0.192972  0.192972  0.802986  1
  Nd  Nd9  1  0.806874  0.806874  0.192164  1
  Nd  Nd10  1  0.937554  0.564361  0.565142  1
  Nd  Nd11  1  0.564666  0.936139  0.936154  1
  Nd  Nd12  1  0.564361  0.937554  0.565142  1
  Nd  Nd13  1  0.936139  0.564666  0.936154  1
  Nd  Nd14  1  0.563568  0.563568  0.939061  1
  Nd  Nd15  1  0.937153  0.937153  0.564392  1
  Cd  Cd16  1  0.581554  0.581554  0.579301  1
  Cd  Cd17  1  0.581069  0.581069  0.257904  1
  Cd  Cd18  1  0.579376  0.257854  0.580986  1
  Cd  Cd19  1  0.257854  0.579376  0.580986  1
  Ir  Ir20  1  0.139560  0.139560  0.574752  1
  Ir  Ir21  1  0.144182  0.575332  0.139469  1
  Ir  Ir22  1  0.575332  0.144182  0.139469  1
  Pd  Pd23  1  0.141678  0.141678  0.143081  1
