# generated using pymatgen
data_LuTh4(SiB4)2
_symmetry_space_group_name_H-M   'P 1'
_cell_length_a   7.40607200
_cell_length_b   7.40607200
_cell_length_c   8.31053100
_cell_angle_alpha   90.00000000
_cell_angle_beta   90.00000000
_cell_angle_gamma   90.00000000
_symmetry_Int_Tables_number   1
_chemical_formula_structural   LuTh4(SiB4)2
_chemical_formula_sum   'Lu2 Th8 Si4 B16'
_cell_volume   455.83181482
_cell_formula_units_Z   2
loop_
 _symmetry_equiv_pos_site_id
 _symmetry_equiv_pos_as_xyz
  1  'x, y, z'
loop_
 _atom_site_type_symbol
 _atom_site_label
 _atom_site_symmetry_multiplicity
 _atom_site_fract_x
 _atom_site_fract_y
 _atom_site_fract_z
 _atom_site_occupancy
  Lu  Lu0  1  0.000000  0.000000  0.500000  1
  Lu  Lu1  1  0.500000  0.500000  0.500000  1
  Th  Th2  1  0.681179  0.181179  0.230011  1
  Th  Th3  1  0.318821  0.818821  0.769989  1
  Th  Th4  1  0.318821  0.818821  0.230011  1
  Th  Th5  1  0.818821  0.681179  0.230011  1
  Th  Th6  1  0.818821  0.681179  0.769989  1
  Th  Th7  1  0.681179  0.181179  0.769989  1
  Th  Th8  1  0.181179  0.318821  0.769989  1
  Th  Th9  1  0.181179  0.318821  0.230011  1
  Si  Si10  1  0.118855  0.618855  0.500000  1
  Si  Si11  1  0.881145  0.381145  0.500000  1
  Si  Si12  1  0.381145  0.118855  0.500000  1
  Si  Si13  1  0.618855  0.881145  0.500000  1
  B  B14  1  0.170716  0.038760  0.000000  1
  B  B15  1  0.829284  0.961240  0.000000  1
  B  B16  1  0.961240  0.170716  0.000000  1
  B  B17  1  0.329284  0.538760  0.000000  1
  B  B18  1  0.038760  0.829284  0.000000  1
  B  B19  1  0.670716  0.461240  0.000000  1
  B  B20  1  0.538760  0.670716  0.000000  1
  B  B21  1  0.461240  0.329284  0.000000  1
  B  B22  1  0.094061  0.594061  0.000000  1
  B  B23  1  0.905939  0.405939  0.000000  1
  B  B24  1  0.405939  0.094061  0.000000  1
  B  B25  1  0.594061  0.905939  0.000000  1
  B  B26  1  0.000000  0.000000  0.161971  1
  B  B27  1  0.000000  0.000000  0.838029  1
  B  B28  1  0.500000  0.500000  0.838029  1
  B  B29  1  0.500000  0.500000  0.161971  1
