# generated using pymatgen
data_Dy5Zr3As3P9Ir16
_symmetry_space_group_name_H-M   'P 1'
_cell_length_a   13.05807000
_cell_length_b   13.05807057
_cell_length_c   3.98172100
_cell_angle_alpha   90.00000000
_cell_angle_beta   90.00000000
_cell_angle_gamma   119.99999856
_symmetry_Int_Tables_number   1
_chemical_formula_structural   Dy5Zr3As3P9Ir16
_chemical_formula_sum   'Dy5 Zr3 As3 P9 Ir16'
_cell_volume   587.97582114
_cell_formula_units_Z   1
loop_
 _symmetry_equiv_pos_site_id
 _symmetry_equiv_pos_as_xyz
  1  'x, y, z'
loop_
 _atom_site_type_symbol
 _atom_site_label
 _atom_site_symmetry_multiplicity
 _atom_site_fract_x
 _atom_site_fract_y
 _atom_site_fract_z
 _atom_site_occupancy
  Dy  Dy0  1  0.333333  0.666667  0.500000  1
  Dy  Dy1  1  0.666667  0.333333  0.500000  1
  Dy  Dy2  1  0.000000  0.818043  0.000000  1
  Dy  Dy3  1  0.181957  0.181957  0.000000  1
  Dy  Dy4  1  0.818043  0.000000  0.000000  1
  Zr  Zr5  1  0.000000  0.446684  0.500000  1
  Zr  Zr6  1  0.553316  0.553316  0.500000  1
  Zr  Zr7  1  0.446684  0.000000  0.500000  1
  As  As8  1  0.000000  0.649357  0.500000  1
  As  As9  1  0.350643  0.350643  0.500000  1
  As  As10  1  0.649357  0.000000  0.500000  1
  P  P11  1  0.517454  0.686944  0.000000  1
  P  P12  1  0.313056  0.830511  0.000000  1
  P  P13  1  0.169489  0.482546  0.000000  1
  P  P14  1  0.482546  0.169489  0.000000  1
  P  P15  1  0.686944  0.517454  0.000000  1
  P  P16  1  0.830511  0.313056  0.000000  1
  P  P17  1  0.000000  0.176690  0.500000  1
  P  P18  1  0.823310  0.823310  0.500000  1
  P  P19  1  0.176690  0.000000  0.500000  1
  Ir  Ir20  1  0.502809  0.859338  0.000000  1
  Ir  Ir21  1  0.140662  0.643472  0.000000  1
  Ir  Ir22  1  0.356528  0.497191  0.000000  1
  Ir  Ir23  1  0.497191  0.356528  0.000000  1
  Ir  Ir24  1  0.859338  0.502809  0.000000  1
  Ir  Ir25  1  0.643472  0.140662  0.000000  1
  Ir  Ir26  1  0.000000  0.275674  0.000000  1
  Ir  Ir27  1  0.724326  0.724326  0.000000  1
  Ir  Ir28  1  0.275674  0.000000  0.000000  1
  Ir  Ir29  1  0.625484  0.799597  0.500000  1
  Ir  Ir30  1  0.200403  0.825887  0.500000  1
  Ir  Ir31  1  0.174113  0.374516  0.500000  1
  Ir  Ir32  1  0.374516  0.174113  0.500000  1
  Ir  Ir33  1  0.799597  0.625484  0.500000  1
  Ir  Ir34  1  0.825887  0.200403  0.500000  1
  Ir  Ir35  1  0.000000  0.000000  0.500000  1
