# generated using pymatgen
data_SrNdSi4OsPt3
_symmetry_space_group_name_H-M   'P 1'
_cell_length_a   4.21649800
_cell_length_b   4.21908100
_cell_length_c   10.14312600
_cell_angle_alpha   90.00000000
_cell_angle_beta   90.00000000
_cell_angle_gamma   90.00000000
_symmetry_Int_Tables_number   1
_chemical_formula_structural   SrNdSi4OsPt3
_chemical_formula_sum   'Sr1 Nd1 Si4 Os1 Pt3'
_cell_volume   180.44364126
_cell_formula_units_Z   1
loop_
 _symmetry_equiv_pos_site_id
 _symmetry_equiv_pos_as_xyz
  1  'x, y, z'
loop_
 _atom_site_type_symbol
 _atom_site_label
 _atom_site_symmetry_multiplicity
 _atom_site_fract_x
 _atom_site_fract_y
 _atom_site_fract_z
 _atom_site_occupancy
  Sr  Sr0  1  0.000000  0.500000  0.253682  1
  Nd  Nd1  1  0.500000  0.000000  0.744284  1
  Si  Si2  1  0.000000  0.000000  0.503158  1
  Si  Si3  1  0.500000  0.500000  0.502922  1
  Si  Si4  1  0.000000  0.500000  0.871254  1
  Si  Si5  1  0.500000  0.000000  0.124298  1
  Os  Os6  1  0.000000  0.000000  0.996491  1
  Pt  Pt7  1  0.500000  0.500000  0.997168  1
  Pt  Pt8  1  0.000000  0.500000  0.628302  1
  Pt  Pt9  1  0.500000  0.000000  0.378440  1
