# generated using pymatgen
data_Er3Tm5(Si4Ru3)4
_symmetry_space_group_name_H-M   'P 1'
_cell_length_a   10.18525189
_cell_length_b   10.18528550
_cell_length_c   13.72424905
_cell_angle_alpha   53.11145717
_cell_angle_beta   53.10469934
_cell_angle_gamma   30.82978638
_symmetry_Int_Tables_number   1
_chemical_formula_structural   Er3Tm5(Si4Ru3)4
_chemical_formula_sum   'Er3 Tm5 Si16 Ru12'
_cell_volume   570.92246660
_cell_formula_units_Z   1
loop_
 _symmetry_equiv_pos_site_id
 _symmetry_equiv_pos_as_xyz
  1  'x, y, z'
loop_
 _atom_site_type_symbol
 _atom_site_label
 _atom_site_symmetry_multiplicity
 _atom_site_fract_x
 _atom_site_fract_y
 _atom_site_fract_z
 _atom_site_occupancy
  Er  Er0  1  0.710322  0.961696  0.859993  1
  Er  Er1  1  0.962381  0.709561  0.360145  1
  Er  Er2  1  0.289845  0.038129  0.139905  1
  Tm  Tm3  1  0.299795  0.558337  0.643290  1
  Tm  Tm4  1  0.440933  0.701616  0.856224  1
  Tm  Tm5  1  0.700789  0.441567  0.356321  1
  Tm  Tm6  1  0.558606  0.298776  0.143658  1
  Tm  Tm7  1  0.037426  0.290432  0.640258  1
  Si  Si8  1  0.869909  0.129728  0.250219  1
  Si  Si9  1  0.130063  0.870407  0.749724  1
  Si  Si10  1  0.381548  0.618581  0.249806  1
  Si  Si11  1  0.618963  0.381204  0.750020  1
  Si  Si12  1  0.978293  0.249118  0.894875  1
  Si  Si13  1  0.751671  0.020789  0.605540  1
  Si  Si14  1  0.021130  0.751304  0.105205  1
  Si  Si15  1  0.248506  0.979220  0.394395  1
  Si  Si16  1  0.573913  0.082762  0.068759  1
  Si  Si17  1  0.917613  0.425905  0.431087  1
  Si  Si18  1  0.425953  0.917274  0.931197  1
  Si  Si19  1  0.082219  0.573958  0.569246  1
  Si  Si20  1  0.384189  0.137842  0.400289  1
  Si  Si21  1  0.861343  0.616085  0.100257  1
  Si  Si22  1  0.615261  0.862239  0.600253  1
  Si  Si23  1  0.139038  0.383614  0.899451  1
  Ru  Ru24  1  0.641440  0.835512  0.282918  1
  Ru  Ru25  1  0.164467  0.358538  0.216968  1
  Ru  Ru26  1  0.749532  0.496033  0.067353  1
  Ru  Ru27  1  0.835081  0.641683  0.783092  1
  Ru  Ru28  1  0.897725  0.139963  0.587348  1
  Ru  Ru29  1  0.860365  0.102756  0.912240  1
  Ru  Ru30  1  0.102894  0.859731  0.412581  1
  Ru  Ru31  1  0.139700  0.897335  0.087612  1
  Ru  Ru32  1  0.250777  0.503385  0.932474  1
  Ru  Ru33  1  0.497870  0.748518  0.567393  1
  Ru  Ru34  1  0.502028  0.251832  0.432826  1
  Ru  Ru35  1  0.358412  0.164568  0.717078  1
