# generated using pymatgen
data_BaCu2P2O9
_symmetry_space_group_name_H-M   'P 1'
_cell_length_a   5.08523719
_cell_length_b   5.08523769
_cell_length_c   8.52583297
_cell_angle_alpha   85.06400905
_cell_angle_beta   85.06401000
_cell_angle_gamma   63.65889570
_symmetry_Int_Tables_number   1
_chemical_formula_structural   BaCu2P2O9
_chemical_formula_sum   'Ba1 Cu2 P2 O9'
_cell_volume   196.56687297
_cell_formula_units_Z   1
loop_
 _symmetry_equiv_pos_site_id
 _symmetry_equiv_pos_as_xyz
  1  'x, y, z'
loop_
 _atom_site_type_symbol
 _atom_site_label
 _atom_site_symmetry_multiplicity
 _atom_site_fract_x
 _atom_site_fract_y
 _atom_site_fract_z
 _atom_site_occupancy
  Ba  Ba0  1  0.940977  0.059023  0.000000  1
  Cu  Cu1  1  0.203770  0.505830  0.611025  1
  Cu  Cu2  1  0.494170  0.796230  0.388975  1
  P  P3  1  0.241326  0.432203  0.262491  1
  P  P4  1  0.567797  0.758674  0.737509  1
  O  O5  1  0.532585  0.467415  0.500000  1
  O  O6  1  0.053226  0.481431  0.423016  1
  O  O7  1  0.518569  0.946774  0.576984  1
  O  O8  1  0.356373  0.675013  0.223065  1
  O  O9  1  0.324987  0.643627  0.776935  1
  O  O10  1  0.033609  0.481992  0.132145  1
  O  O11  1  0.518008  0.966391  0.867855  1
  O  O12  1  0.880316  0.493711  0.739727  1
  O  O13  1  0.506289  0.119684  0.260273  1
