# generated using pymatgen
data_Nd2Th3Bi3S
_symmetry_space_group_name_H-M   'P 1'
_cell_length_a   9.55934500
_cell_length_b   9.59737553
_cell_length_c   6.71395600
_cell_angle_alpha   90.00000000
_cell_angle_beta   90.00000000
_cell_angle_gamma   120.13168593
_symmetry_Int_Tables_number   1
_chemical_formula_structural   Nd2Th3Bi3S
_chemical_formula_sum   'Nd4 Th6 Bi6 S2'
_cell_volume   532.73585440
_cell_formula_units_Z   2
loop_
 _symmetry_equiv_pos_site_id
 _symmetry_equiv_pos_as_xyz
  1  'x, y, z'
loop_
 _atom_site_type_symbol
 _atom_site_label
 _atom_site_symmetry_multiplicity
 _atom_site_fract_x
 _atom_site_fract_y
 _atom_site_fract_z
 _atom_site_occupancy
  Nd  Nd0  1  0.000000  0.252107  0.750000  1
  Nd  Nd1  1  0.251367  0.250588  0.250000  1
  Nd  Nd2  1  0.748633  0.999220  0.250000  1
  Nd  Nd3  1  0.000000  0.744399  0.250000  1
  Th  Th4  1  0.664674  0.334646  0.998646  1
  Th  Th5  1  0.335326  0.669974  0.998646  1
  Th  Th6  1  0.335326  0.669974  0.501354  1
  Th  Th7  1  0.664674  0.334646  0.501354  1
  Th  Th8  1  0.749429  0.749071  0.750000  1
  Th  Th9  1  0.250571  0.999642  0.750000  1
  Bi  Bi10  1  0.389953  0.392506  0.750000  1
  Bi  Bi11  1  0.610047  0.002552  0.750000  1
  Bi  Bi12  1  0.000000  0.606839  0.750000  1
  Bi  Bi13  1  0.608409  0.609102  0.250000  1
  Bi  Bi14  1  0.391591  0.000693  0.250000  1
  Bi  Bi15  1  0.000000  0.391134  0.250000  1
  S  S16  1  0.000000  0.996453  0.997854  1
  S  S17  1  0.000000  0.996453  0.502146  1
