# generated using pymatgen
data_Sc12Al2Fe3
_symmetry_space_group_name_H-M   'P 1'
_cell_length_a   7.71324328
_cell_length_b   7.71324269
_cell_length_c   7.71324383
_cell_angle_alpha   108.84889848
_cell_angle_beta   108.84890131
_cell_angle_gamma   110.72315753
_symmetry_Int_Tables_number   1
_chemical_formula_structural   Sc12Al2Fe3
_chemical_formula_sum   'Sc12 Al2 Fe3'
_cell_volume   353.12892658
_cell_formula_units_Z   1
loop_
 _symmetry_equiv_pos_site_id
 _symmetry_equiv_pos_as_xyz
  1  'x, y, z'
loop_
 _atom_site_type_symbol
 _atom_site_label
 _atom_site_symmetry_multiplicity
 _atom_site_fract_x
 _atom_site_fract_y
 _atom_site_fract_z
 _atom_site_occupancy
  Sc  Sc0  1  0.305096  0.305096  0.610191  1
  Sc  Sc1  1  0.694904  0.694904  0.389809  1
  Sc  Sc2  1  0.694904  0.305096  0.000000  1
  Sc  Sc3  1  0.305096  0.694904  0.000000  1
  Sc  Sc4  1  0.191127  0.431022  0.239895  1
  Sc  Sc5  1  0.808873  0.568978  0.760105  1
  Sc  Sc6  1  0.191127  0.951231  0.760105  1
  Sc  Sc7  1  0.951231  0.191127  0.760105  1
  Sc  Sc8  1  0.808873  0.048769  0.239895  1
  Sc  Sc9  1  0.048769  0.808873  0.239895  1
  Sc  Sc10  1  0.431022  0.191127  0.239895  1
  Sc  Sc11  1  0.568978  0.808873  0.760105  1
  Al  Al12  1  0.000000  0.500000  0.500000  1
  Al  Al13  1  0.500000  0.000000  0.500000  1
  Fe  Fe14  1  0.376955  0.376955  0.000000  1
  Fe  Fe15  1  0.623045  0.623045  0.000000  1
  Fe  Fe16  1  0.000000  0.000000  0.000000  1
