# generated using pymatgen
data_TbTh7(Nb3Si4)4
_symmetry_space_group_name_H-M   'P 1'
_cell_length_a   7.02462704
_cell_length_b   7.23777480
_cell_length_c   13.58460922
_cell_angle_alpha   90.07227011
_cell_angle_beta   89.89348271
_cell_angle_gamma   90.04306257
_symmetry_Int_Tables_number   1
_chemical_formula_structural   TbTh7(Nb3Si4)4
_chemical_formula_sum   'Tb1 Th7 Nb12 Si16'
_cell_volume   690.67584731
_cell_formula_units_Z   1
loop_
 _symmetry_equiv_pos_site_id
 _symmetry_equiv_pos_as_xyz
  1  'x, y, z'
loop_
 _atom_site_type_symbol
 _atom_site_label
 _atom_site_symmetry_multiplicity
 _atom_site_fract_x
 _atom_site_fract_y
 _atom_site_fract_z
 _atom_site_occupancy
  Tb  Tb0  1  0.000212  0.829212  0.596698  1
  Th  Th1  1  0.501594  0.669182  0.595357  1
  Th  Th2  1  0.000922  0.830400  0.903795  1
  Th  Th3  1  0.500224  0.330364  0.095837  1
  Th  Th4  1  0.998529  0.170449  0.405480  1
  Th  Th5  1  0.498315  0.330396  0.406064  1
  Th  Th6  1  0.000187  0.169762  0.095865  1
  Th  Th7  1  0.500913  0.670055  0.902664  1
  Nb  Nb8  1  0.662149  0.173053  0.624106  1
  Nb  Nb9  1  0.162882  0.327289  0.873998  1
  Nb  Nb10  1  0.337206  0.827852  0.125141  1
  Nb  Nb11  1  0.835203  0.672953  0.375624  1
  Nb  Nb12  1  0.336250  0.827921  0.375454  1
  Nb  Nb13  1  0.836566  0.671967  0.125202  1
  Nb  Nb14  1  0.665786  0.170740  0.874205  1
  Nb  Nb15  1  0.164338  0.327725  0.624474  1
  Nb  Nb16  1  0.836262  0.490623  0.750437  1
  Nb  Nb17  1  0.337545  0.006038  0.748915  1
  Nb  Nb18  1  0.162894  0.507925  0.250517  1
  Nb  Nb19  1  0.662928  0.993132  0.250848  1
  Si  Si20  1  0.660238  0.957257  0.457589  1
  Si  Si21  1  0.160164  0.543255  0.043419  1
  Si  Si22  1  0.341115  0.043693  0.955499  1
  Si  Si23  1  0.843693  0.461864  0.545110  1
  Si  Si24  1  0.334954  0.039029  0.544804  1
  Si  Si25  1  0.839969  0.456400  0.956035  1
  Si  Si26  1  0.659971  0.956519  0.043610  1
  Si  Si27  1  0.157254  0.546163  0.458078  1
  Si  Si28  1  0.459217  0.367422  0.749632  1
  Si  Si29  1  0.960720  0.128874  0.747566  1
  Si  Si30  1  0.540357  0.631581  0.250664  1
  Si  Si31  1  0.040431  0.868800  0.250634  1
  Si  Si32  1  0.703592  0.884751  0.747224  1
  Si  Si33  1  0.197077  0.616856  0.747720  1
  Si  Si34  1  0.300108  0.114816  0.250730  1
  Si  Si35  1  0.800237  0.385681  0.251005  1
