# generated using pymatgen
data_TbTa5Fe2(BRu2)4
_symmetry_space_group_name_H-M   'P 1'
_cell_length_a   9.35704316
_cell_length_b   9.35704370
_cell_length_c   3.06198300
_cell_angle_alpha   90.00000000
_cell_angle_beta   90.00000000
_cell_angle_gamma   90.28767962
_symmetry_Int_Tables_number   1
_chemical_formula_structural   TbTa5Fe2(BRu2)4
_chemical_formula_sum   'Tb1 Ta5 Fe2 B4 Ru8'
_cell_volume   268.08628169
_cell_formula_units_Z   1
loop_
 _symmetry_equiv_pos_site_id
 _symmetry_equiv_pos_as_xyz
  1  'x, y, z'
loop_
 _atom_site_type_symbol
 _atom_site_label
 _atom_site_symmetry_multiplicity
 _atom_site_fract_x
 _atom_site_fract_y
 _atom_site_fract_z
 _atom_site_occupancy
  Tb  Tb0  1  0.824878  0.675122  0.000000  1
  Ta  Ta1  1  0.171710  0.328290  0.000000  1
  Ta  Ta2  1  0.326631  0.829960  0.000000  1
  Ta  Ta3  1  0.670040  0.173369  0.000000  1
  Ta  Ta4  1  0.501900  0.500061  0.000000  1
  Ta  Ta5  1  0.999939  0.998100  0.000000  1
  Fe  Fe6  1  0.495329  0.004671  0.500000  1
  Fe  Fe7  1  0.011386  0.488614  0.500000  1
  B  B8  1  0.608515  0.891485  0.000000  1
  B  B9  1  0.386641  0.113359  0.000000  1
  B  B10  1  0.117437  0.609228  0.000000  1
  B  B11  1  0.890772  0.382563  0.000000  1
  Ru  Ru12  1  0.554026  0.729678  0.500000  1
  Ru  Ru13  1  0.429560  0.278929  0.500000  1
  Ru  Ru14  1  0.080323  0.777502  0.500000  1
  Ru  Ru15  1  0.935805  0.218782  0.500000  1
  Ru  Ru16  1  0.281218  0.564195  0.500000  1
  Ru  Ru17  1  0.722498  0.419677  0.500000  1
  Ru  Ru18  1  0.221071  0.070440  0.500000  1
  Ru  Ru19  1  0.770322  0.945974  0.500000  1
