# generated using pymatgen
data_Gd3Tm2Ru3
_symmetry_space_group_name_H-M   'P 1'
_cell_length_a   8.16307500
_cell_length_b   8.16307584
_cell_length_c   6.37562100
_cell_angle_alpha   90.00000000
_cell_angle_beta   90.00000000
_cell_angle_gamma   120.00000066
_symmetry_Int_Tables_number   1
_chemical_formula_structural   Gd3Tm2Ru3
_chemical_formula_sum   'Gd6 Tm4 Ru6'
_cell_volume   367.92622041
_cell_formula_units_Z   2
loop_
 _symmetry_equiv_pos_site_id
 _symmetry_equiv_pos_as_xyz
  1  'x, y, z'
loop_
 _atom_site_type_symbol
 _atom_site_label
 _atom_site_symmetry_multiplicity
 _atom_site_fract_x
 _atom_site_fract_y
 _atom_site_fract_z
 _atom_site_occupancy
  Gd  Gd0  1  0.742918  0.742918  0.250000  1
  Gd  Gd1  1  0.257082  0.000000  0.250000  1
  Gd  Gd2  1  0.000000  0.257082  0.250000  1
  Gd  Gd3  1  0.257082  0.257082  0.750000  1
  Gd  Gd4  1  0.742918  0.000000  0.750000  1
  Gd  Gd5  1  0.000000  0.742918  0.750000  1
  Tm  Tm6  1  0.666667  0.333333  0.500000  1
  Tm  Tm7  1  0.333333  0.666667  0.500000  1
  Tm  Tm8  1  0.333333  0.666667  0.000000  1
  Tm  Tm9  1  0.666667  0.333333  0.000000  1
  Ru  Ru10  1  0.397520  0.397520  0.250000  1
  Ru  Ru11  1  0.602480  0.000000  0.250000  1
  Ru  Ru12  1  0.000000  0.602480  0.250000  1
  Ru  Ru13  1  0.602480  0.602480  0.750000  1
  Ru  Ru14  1  0.397520  0.000000  0.750000  1
  Ru  Ru15  1  0.000000  0.397520  0.750000  1
