# generated using pymatgen
data_Ba3NdOs6O19
_symmetry_space_group_name_H-M   'P 1'
_cell_length_a   8.08051938
_cell_length_b   8.23219836
_cell_length_c   8.08051937
_cell_angle_alpha   109.85190425
_cell_angle_beta   109.08785275
_cell_angle_gamma   109.85192584
_symmetry_Int_Tables_number   1
_chemical_formula_structural   Ba3NdOs6O19
_chemical_formula_sum   'Ba3 Nd1 Os6 O19'
_cell_volume   411.82288353
_cell_formula_units_Z   1
loop_
 _symmetry_equiv_pos_site_id
 _symmetry_equiv_pos_as_xyz
  1  'x, y, z'
loop_
 _atom_site_type_symbol
 _atom_site_label
 _atom_site_symmetry_multiplicity
 _atom_site_fract_x
 _atom_site_fract_y
 _atom_site_fract_z
 _atom_site_occupancy
  Ba  Ba0  1  0.003735  0.005301  0.323995  1
  Ba  Ba1  1  0.676005  0.681306  0.679740  1
  Ba  Ba2  1  0.320260  0.001566  0.996265  1
  Nd  Nd3  1  0.000000  0.293106  0.000000  1
  Os  Os4  1  0.498624  0.362868  0.860536  1
  Os  Os5  1  0.497151  0.634278  0.136730  1
  Os  Os6  1  0.361912  0.864244  0.501376  1
  Os  Os7  1  0.639580  0.137128  0.502849  1
  Os  Os8  1  0.863270  0.497548  0.360420  1
  Os  Os9  1  0.139464  0.502332  0.638088  1
  O  O10  1  0.000000  0.033042  0.000000  1
  O  O11  1  0.707648  0.344093  0.059167  1
  O  O12  1  0.648826  0.351692  0.714181  1
  O  O13  1  0.285819  0.637511  0.934645  1
  O  O14  1  0.652387  0.291190  0.362435  1
  O  O15  1  0.352647  0.726097  0.656195  1
  O  O16  1  0.940833  0.284926  0.648482  1
  O  O17  1  0.065355  0.702866  0.351174  1
  O  O18  1  0.995955  0.657108  0.663987  1
  O  O19  1  0.668032  0.661153  0.004045  1
  O  O20  1  0.710048  0.638803  0.347613  1
  O  O21  1  0.343805  0.069902  0.696452  1
  O  O22  1  0.669226  0.011578  0.675338  1
  O  O23  1  0.006112  0.342352  0.330774  1
  O  O24  1  0.637565  0.928755  0.289952  1
  O  O25  1  0.351518  0.636444  0.292352  1
  O  O26  1  0.303548  0.373450  0.647353  1
  O  O27  1  0.336013  0.993121  0.331968  1
  O  O28  1  0.324662  0.336240  0.993888  1
