# generated using pymatgen
data_Rb12Li3Si16Ag
_symmetry_space_group_name_H-M   'P 1'
_cell_length_a   7.91455321
_cell_length_b   9.95547826
_cell_length_c   12.88508329
_cell_angle_alpha   90.25304537
_cell_angle_beta   89.80188873
_cell_angle_gamma   89.93930367
_symmetry_Int_Tables_number   1
_chemical_formula_structural   Rb12Li3Si16Ag
_chemical_formula_sum   'Rb12 Li3 Si16 Ag1'
_cell_volume   1015.23990442
_cell_formula_units_Z   1
loop_
 _symmetry_equiv_pos_site_id
 _symmetry_equiv_pos_as_xyz
  1  'x, y, z'
loop_
 _atom_site_type_symbol
 _atom_site_label
 _atom_site_symmetry_multiplicity
 _atom_site_fract_x
 _atom_site_fract_y
 _atom_site_fract_z
 _atom_site_occupancy
  Rb  Rb0  1  0.655069  0.250030  0.400253  1
  Rb  Rb1  1  0.156201  0.251551  0.100507  1
  Rb  Rb2  1  0.344931  0.749970  0.599747  1
  Rb  Rb3  1  0.843799  0.748449  0.899493  1
  Rb  Rb4  1  0.654092  0.446181  0.695115  1
  Rb  Rb5  1  0.153877  0.055323  0.805343  1
  Rb  Rb6  1  0.345960  0.944652  0.306615  1
  Rb  Rb7  1  0.843793  0.554781  0.193939  1
  Rb  Rb8  1  0.345908  0.553819  0.304885  1
  Rb  Rb9  1  0.846123  0.944677  0.194657  1
  Rb  Rb10  1  0.654040  0.055348  0.693385  1
  Rb  Rb11  1  0.156207  0.445219  0.806061  1
  Li  Li12  1  0.000000  0.000000  0.500000  1
  Li  Li13  1  0.500000  0.000000  0.000000  1
  Li  Li14  1  0.000000  0.500000  0.500000  1
  Si  Si15  1  0.359795  0.755133  0.902021  1
  Si  Si16  1  0.862769  0.750484  0.595610  1
  Si  Si17  1  0.640205  0.244867  0.097979  1
  Si  Si18  1  0.137231  0.249516  0.404390  1
  Si  Si19  1  0.722491  0.630186  0.453736  1
  Si  Si20  1  0.223402  0.867756  0.048023  1
  Si  Si21  1  0.277530  0.130529  0.546204  1
  Si  Si22  1  0.781373  0.371501  0.957135  1
  Si  Si23  1  0.013286  0.250595  0.579530  1
  Si  Si24  1  0.510801  0.249867  0.922619  1
  Si  Si25  1  0.986714  0.749405  0.420470  1
  Si  Si26  1  0.489199  0.750133  0.077381  1
  Si  Si27  1  0.218627  0.628499  0.042865  1
  Si  Si28  1  0.722470  0.869471  0.453796  1
  Si  Si29  1  0.776598  0.132244  0.951977  1
  Si  Si30  1  0.277509  0.369814  0.546264  1
  Ag  Ag31  1  0.500000  0.500000  0.000000  1
