# generated using pymatgen
data_Y4ErIn2Bi
_symmetry_space_group_name_H-M   'P 1'
_cell_length_a   9.06647070
_cell_length_b   9.05844044
_cell_length_c   6.62314976
_cell_angle_alpha   90.05485349
_cell_angle_beta   89.97259857
_cell_angle_gamma   119.97070159
_symmetry_Int_Tables_number   1
_chemical_formula_structural   Y4ErIn2Bi
_chemical_formula_sum   'Y8 Er2 In4 Bi2'
_cell_volume   471.21037543
_cell_formula_units_Z   2
loop_
 _symmetry_equiv_pos_site_id
 _symmetry_equiv_pos_as_xyz
  1  'x, y, z'
loop_
 _atom_site_type_symbol
 _atom_site_label
 _atom_site_symmetry_multiplicity
 _atom_site_fract_x
 _atom_site_fract_y
 _atom_site_fract_z
 _atom_site_occupancy
  Y  Y0  1  0.670491  0.337746  0.006246  1
  Y  Y1  1  0.329509  0.667256  0.006246  1
  Y  Y2  1  0.768063  0.759825  0.749493  1
  Y  Y3  1  0.231937  0.991761  0.749493  1
  Y  Y4  1  0.000000  0.241702  0.749475  1
  Y  Y5  1  0.238371  0.238794  0.250583  1
  Y  Y6  1  0.761629  0.000423  0.250583  1
  Y  Y7  1  0.000000  0.760468  0.250962  1
  Er  Er8  1  0.329477  0.667511  0.493338  1
  Er  Er9  1  0.670523  0.338032  0.493338  1
  In  In10  1  0.000000  0.596860  0.748075  1
  In  In11  1  0.603495  0.605965  0.251551  1
  In  In12  1  0.396505  0.002470  0.251551  1
  In  In13  1  0.000000  0.397011  0.252309  1
  Bi  Bi14  1  0.395505  0.394840  0.748378  1
  Bi  Bi15  1  0.604495  0.999335  0.748378  1
