# generated using pymatgen
data_Os2N2F3
_symmetry_space_group_name_H-M   'P 1'
_cell_length_a   4.87128783
_cell_length_b   5.50797375
_cell_length_c   6.71353600
_cell_angle_alpha   103.17165959
_cell_angle_beta   111.27201087
_cell_angle_gamma   89.99999924
_symmetry_Int_Tables_number   1
_chemical_formula_structural   Os2N2F3
_chemical_formula_sum   'Os4 N4 F6'
_cell_volume   162.76199347
_cell_formula_units_Z   2
loop_
 _symmetry_equiv_pos_site_id
 _symmetry_equiv_pos_as_xyz
  1  'x, y, z'
loop_
 _atom_site_type_symbol
 _atom_site_label
 _atom_site_symmetry_multiplicity
 _atom_site_fract_x
 _atom_site_fract_y
 _atom_site_fract_z
 _atom_site_occupancy
  Os  Os0  1  0.394720  0.822158  0.322851  1
  Os  Os1  1  0.071869  0.677842  0.677149  1
  Os  Os2  1  0.605280  0.177842  0.677149  1
  Os  Os3  1  0.928131  0.322158  0.322851  1
  N  N4  1  0.742042  0.856652  0.591566  1
  N  N5  1  0.150476  0.643348  0.408434  1
  N  N6  1  0.257958  0.143348  0.408434  1
  N  N7  1  0.849524  0.356652  0.591566  1
  F  F8  1  0.526517  0.480418  0.195973  1
  F  F9  1  0.330545  0.019582  0.804027  1
  F  F10  1  0.473483  0.519582  0.804027  1
  F  F11  1  0.669455  0.980418  0.195973  1
  F  F12  1  0.084551  0.750000  0.000000  1
  F  F13  1  0.915449  0.250000  0.000000  1
