# generated using pymatgen
data_ScMn2(ZnPt2)3
_symmetry_space_group_name_H-M   'P 1'
_cell_length_a   4.08172400
_cell_length_b   7.29668700
_cell_length_c   12.27513200
_cell_angle_alpha   90.00000000
_cell_angle_beta   90.00020555
_cell_angle_gamma   90.00000000
_symmetry_Int_Tables_number   1
_chemical_formula_structural   ScMn2(ZnPt2)3
_chemical_formula_sum   'Sc2 Mn4 Zn6 Pt12'
_cell_volume   365.59102292
_cell_formula_units_Z   2
loop_
 _symmetry_equiv_pos_site_id
 _symmetry_equiv_pos_as_xyz
  1  'x, y, z'
loop_
 _atom_site_type_symbol
 _atom_site_label
 _atom_site_symmetry_multiplicity
 _atom_site_fract_x
 _atom_site_fract_y
 _atom_site_fract_z
 _atom_site_occupancy
  Sc  Sc0  1  0.000015  0.500000  0.664611  1
  Sc  Sc1  1  0.499973  0.000000  0.835403  1
  Mn  Mn2  1  0.000001  0.500000  0.003145  1
  Mn  Mn3  1  0.500009  0.000000  0.167281  1
  Mn  Mn4  1  0.000006  0.500000  0.332674  1
  Mn  Mn5  1  0.500005  0.000000  0.496953  1
  Zn  Zn6  1  0.999998  0.000000  0.008321  1
  Zn  Zn7  1  0.500009  0.500000  0.169849  1
  Zn  Zn8  1  0.000007  0.000000  0.330134  1
  Zn  Zn9  1  0.500001  0.500000  0.491655  1
  Zn  Zn10  1  0.999991  0.000000  0.661855  1
  Zn  Zn11  1  0.499989  0.500000  0.838152  1
  Pt  Pt12  1  0.500000  0.253013  0.002958  1
  Pt  Pt13  1  0.500000  0.746987  0.002958  1
  Pt  Pt14  1  0.000006  0.252182  0.167495  1
  Pt  Pt15  1  0.000006  0.747818  0.167495  1
  Pt  Pt16  1  0.500004  0.247801  0.332514  1
  Pt  Pt17  1  0.500004  0.752199  0.332514  1
  Pt  Pt18  1  0.000001  0.247011  0.497009  1
  Pt  Pt19  1  0.000001  0.752989  0.497009  1
  Pt  Pt20  1  0.499993  0.246870  0.663460  1
  Pt  Pt21  1  0.499993  0.753130  0.663460  1
  Pt  Pt22  1  0.999992  0.253174  0.836548  1
  Pt  Pt23  1  0.999992  0.746826  0.836548  1
