# generated using pymatgen
data_LaNd6Dy5(Si2Ni)4
_symmetry_space_group_name_H-M   'P 1'
_cell_length_a   4.20696500
_cell_length_b   11.67373434
_cell_length_c   11.41742820
_cell_angle_alpha   89.70607547
_cell_angle_beta   90.00000000
_cell_angle_gamma   90.00000000
_symmetry_Int_Tables_number   1
_chemical_formula_structural   LaNd6Dy5(Si2Ni)4
_chemical_formula_sum   'La1 Nd6 Dy5 Si8 Ni4'
_cell_volume   560.71384448
_cell_formula_units_Z   1
loop_
 _symmetry_equiv_pos_site_id
 _symmetry_equiv_pos_as_xyz
  1  'x, y, z'
loop_
 _atom_site_type_symbol
 _atom_site_label
 _atom_site_symmetry_multiplicity
 _atom_site_fract_x
 _atom_site_fract_y
 _atom_site_fract_z
 _atom_site_occupancy
  La  La0  1  0.250000  0.059267  0.884138  1
  Nd  Nd1  1  0.250000  0.440021  0.383609  1
  Nd  Nd2  1  0.750000  0.938987  0.115402  1
  Nd  Nd3  1  0.750000  0.561230  0.615112  1
  Nd  Nd4  1  0.250000  0.121833  0.563457  1
  Nd  Nd5  1  0.250000  0.382018  0.060515  1
  Nd  Nd6  1  0.750000  0.877102  0.437798  1
  Dy  Dy7  1  0.750000  0.623719  0.937781  1
  Dy  Dy8  1  0.250000  0.799215  0.711490  1
  Dy  Dy9  1  0.250000  0.691789  0.208751  1
  Dy  Dy10  1  0.750000  0.194011  0.290207  1
  Dy  Dy11  1  0.750000  0.314877  0.791942  1
  Si  Si12  1  0.250000  0.804188  0.970289  1
  Si  Si13  1  0.250000  0.688409  0.466719  1
  Si  Si14  1  0.750000  0.192143  0.032583  1
  Si  Si15  1  0.750000  0.311669  0.533239  1
  Si  Si16  1  0.250000  0.493823  0.803536  1
  Si  Si17  1  0.250000  0.017830  0.302357  1
  Si  Si18  1  0.750000  0.516346  0.195640  1
  Si  Si19  1  0.750000  0.974949  0.694913  1
  Ni  Ni20  1  0.250000  0.363873  0.636328  1
  Ni  Ni21  1  0.250000  0.139634  0.132604  1
  Ni  Ni22  1  0.750000  0.638520  0.364679  1
  Ni  Ni23  1  0.750000  0.854548  0.866907  1
