# generated using pymatgen
data_Er4Lu4Re3B24Rh
_symmetry_space_group_name_H-M   'P 1'
_cell_length_a   3.63213300
_cell_length_b   9.08108620
_cell_length_c   11.45532183
_cell_angle_alpha   90.13393468
_cell_angle_beta   90.00000000
_cell_angle_gamma   90.00000000
_symmetry_Int_Tables_number   1
_chemical_formula_structural   Er4Lu4Re3B24Rh
_chemical_formula_sum   'Er4 Lu4 Re3 B24 Rh1'
_cell_volume   377.83801360
_cell_formula_units_Z   1
loop_
 _symmetry_equiv_pos_site_id
 _symmetry_equiv_pos_as_xyz
  1  'x, y, z'
loop_
 _atom_site_type_symbol
 _atom_site_label
 _atom_site_symmetry_multiplicity
 _atom_site_fract_x
 _atom_site_fract_y
 _atom_site_fract_z
 _atom_site_occupancy
  Er  Er0  1  0.000000  0.317833  0.415706  1
  Er  Er1  1  0.000000  0.678721  0.590906  1
  Er  Er2  1  0.000000  0.826238  0.081463  1
  Er  Er3  1  0.000000  0.177745  0.912903  1
  Lu  Lu4  1  0.000000  0.944133  0.370566  1
  Lu  Lu5  1  0.000000  0.055598  0.628908  1
  Lu  Lu6  1  0.000000  0.441504  0.128450  1
  Lu  Lu7  1  0.000000  0.556306  0.871612  1
  Re  Re8  1  0.000000  0.361954  0.678321  1
  Re  Re9  1  0.000000  0.138841  0.180545  1
  Re  Re10  1  0.000000  0.860952  0.820362  1
  B  B11  1  0.500000  0.554433  0.433794  1
  B  B12  1  0.500000  0.446461  0.566298  1
  B  B13  1  0.500000  0.053530  0.066515  1
  B  B14  1  0.500000  0.946753  0.932912  1
  B  B15  1  0.500000  0.750632  0.420226  1
  B  B16  1  0.500000  0.248896  0.580810  1
  B  B17  1  0.500000  0.250849  0.081104  1
  B  B18  1  0.500000  0.749893  0.919043  1
  B  B19  1  0.500000  0.792209  0.264616  1
  B  B20  1  0.500000  0.207252  0.734620  1
  B  B21  1  0.500000  0.293131  0.235703  1
  B  B22  1  0.500000  0.707047  0.765328  1
  B  B23  1  0.500000  0.631292  0.183158  1
  B  B24  1  0.500000  0.369870  0.815195  1
  B  B25  1  0.500000  0.130399  0.315920  1
  B  B26  1  0.500000  0.869034  0.684382  1
  B  B27  1  0.500000  0.981991  0.212553  1
  B  B28  1  0.500000  0.018067  0.786661  1
  B  B29  1  0.500000  0.482728  0.287484  1
  B  B30  1  0.500000  0.518794  0.712740  1
  B  B31  1  0.500000  0.601674  0.028608  1
  B  B32  1  0.500000  0.399442  0.972762  1
  B  B33  1  0.500000  0.099736  0.471944  1
  B  B34  1  0.500000  0.897295  0.527460  1
  Rh  Rh35  1  0.000000  0.638768  0.320422  1
