# generated using pymatgen
data_LaTb8Eu3Se16
_symmetry_space_group_name_H-M   'P 1'
_cell_length_a   12.51522473
_cell_length_b   4.13862800
_cell_length_c   14.96398863
_cell_angle_alpha   90.00000000
_cell_angle_beta   90.34141508
_cell_angle_gamma   90.00000000
_symmetry_Int_Tables_number   1
_chemical_formula_structural   LaTb8Eu3Se16
_chemical_formula_sum   'La1 Tb8 Eu3 Se16'
_cell_volume   775.05889196
_cell_formula_units_Z   1
loop_
 _symmetry_equiv_pos_site_id
 _symmetry_equiv_pos_as_xyz
  1  'x, y, z'
loop_
 _atom_site_type_symbol
 _atom_site_label
 _atom_site_symmetry_multiplicity
 _atom_site_fract_x
 _atom_site_fract_y
 _atom_site_fract_z
 _atom_site_occupancy
  La  La0  1  0.743765  0.750000  0.165963  1
  Tb  Tb1  1  0.418096  0.250000  0.097762  1
  Tb  Tb2  1  0.071937  0.750000  0.109846  1
  Tb  Tb3  1  0.571858  0.750000  0.391784  1
  Tb  Tb4  1  0.918801  0.250000  0.402276  1
  Tb  Tb5  1  0.080702  0.750000  0.598971  1
  Tb  Tb6  1  0.429062  0.250000  0.609374  1
  Tb  Tb7  1  0.929941  0.250000  0.889705  1
  Tb  Tb8  1  0.581644  0.750000  0.901099  1
  Eu  Eu9  1  0.244178  0.750000  0.339451  1
  Eu  Eu10  1  0.754766  0.250000  0.663023  1
  Eu  Eu11  1  0.255745  0.250000  0.835343  1
  Se  Se12  1  0.636810  0.250000  0.031045  1
  Se  Se13  1  0.910275  0.250000  0.081247  1
  Se  Se14  1  0.209552  0.250000  0.182676  1
  Se  Se15  1  0.486832  0.750000  0.213019  1
  Se  Se16  1  0.969557  0.750000  0.281059  1
  Se  Se17  1  0.708466  0.250000  0.317940  1
  Se  Se18  1  0.412709  0.250000  0.418037  1
  Se  Se19  1  0.134943  0.250000  0.469718  1
  Se  Se20  1  0.862942  0.750000  0.528556  1
  Se  Se21  1  0.588054  0.750000  0.581741  1
  Se  Se22  1  0.290920  0.750000  0.679808  1
  Se  Se23  1  0.022359  0.250000  0.716035  1
  Se  Se24  1  0.521957  0.250000  0.784166  1
  Se  Se25  1  0.790837  0.750000  0.819802  1
  Se  Se26  1  0.088182  0.750000  0.920500  1
  Se  Se27  1  0.365107  0.750000  0.970054  1
