# generated using pymatgen
data_Er7Th(TcB6)4
_symmetry_space_group_name_H-M   'P 1'
_cell_length_a   3.68964100
_cell_length_b   9.14715441
_cell_length_c   11.53695401
_cell_angle_alpha   90.03440485
_cell_angle_beta   90.00000000
_cell_angle_gamma   90.00000000
_symmetry_Int_Tables_number   1
_chemical_formula_structural   Er7Th(TcB6)4
_chemical_formula_sum   'Er7 Th1 Tc4 B24'
_cell_volume   389.36885055
_cell_formula_units_Z   1
loop_
 _symmetry_equiv_pos_site_id
 _symmetry_equiv_pos_as_xyz
  1  'x, y, z'
loop_
 _atom_site_type_symbol
 _atom_site_label
 _atom_site_symmetry_multiplicity
 _atom_site_fract_x
 _atom_site_fract_y
 _atom_site_fract_z
 _atom_site_occupancy
  Er  Er0  1  0.000000  0.677680  0.587361  1
  Er  Er1  1  0.000000  0.823566  0.084811  1
  Er  Er2  1  0.000000  0.175696  0.914185  1
  Er  Er3  1  0.000000  0.941434  0.368727  1
  Er  Er4  1  0.000000  0.056150  0.632176  1
  Er  Er5  1  0.000000  0.443348  0.128670  1
  Er  Er6  1  0.000000  0.557841  0.870175  1
  Th  Th7  1  0.000000  0.322691  0.414213  1
  Tc  Tc8  1  0.000000  0.639972  0.319703  1
  Tc  Tc9  1  0.000000  0.361384  0.681077  1
  Tc  Tc10  1  0.000000  0.138470  0.178137  1
  Tc  Tc11  1  0.000000  0.860960  0.820902  1
  B  B12  1  0.500000  0.556245  0.432562  1
  B  B13  1  0.500000  0.447361  0.569813  1
  B  B14  1  0.500000  0.052885  0.065998  1
  B  B15  1  0.500000  0.946525  0.933071  1
  B  B16  1  0.500000  0.750466  0.418569  1
  B  B17  1  0.500000  0.250395  0.585245  1
  B  B18  1  0.500000  0.248985  0.079754  1
  B  B19  1  0.500000  0.750651  0.918730  1
  B  B20  1  0.500000  0.792394  0.264576  1
  B  B21  1  0.500000  0.207803  0.736629  1
  B  B22  1  0.500000  0.290510  0.231981  1
  B  B23  1  0.500000  0.707842  0.765367  1
  B  B24  1  0.500000  0.632033  0.183978  1
  B  B25  1  0.500000  0.369651  0.815782  1
  B  B26  1  0.500000  0.128822  0.312333  1
  B  B27  1  0.500000  0.868930  0.685761  1
  B  B28  1  0.500000  0.981519  0.210632  1
  B  B29  1  0.500000  0.017469  0.788804  1
  B  B30  1  0.500000  0.485502  0.286081  1
  B  B31  1  0.500000  0.518614  0.713467  1
  B  B32  1  0.500000  0.601289  0.027548  1
  B  B33  1  0.500000  0.399542  0.971624  1
  B  B34  1  0.500000  0.096431  0.473229  1
  B  B35  1  0.500000  0.898941  0.528329  1
