# generated using pymatgen
data_YHo11(BBr3)4
_symmetry_space_group_name_H-M   'P 1'
_cell_length_a   9.70305769
_cell_length_b   9.70292622
_cell_length_c   9.70279300
_cell_angle_alpha   109.46205946
_cell_angle_beta   109.47473702
_cell_angle_gamma   109.47547346
_symmetry_Int_Tables_number   1
_chemical_formula_structural   YHo11(BBr3)4
_chemical_formula_sum   'Y1 Ho11 B4 Br12'
_cell_volume   703.22398132
_cell_formula_units_Z   1
loop_
 _symmetry_equiv_pos_site_id
 _symmetry_equiv_pos_as_xyz
  1  'x, y, z'
loop_
 _atom_site_type_symbol
 _atom_site_label
 _atom_site_symmetry_multiplicity
 _atom_site_fract_x
 _atom_site_fract_y
 _atom_site_fract_z
 _atom_site_occupancy
  Y  Y0  1  0.460143  0.480016  0.230054  1
  Ho  Ho1  1  0.749988  0.229532  0.270425  1
  Ho  Ho2  1  0.750004  0.020481  0.479586  1
  Ho  Ho3  1  0.229565  0.459082  0.479520  1
  Ho  Ho4  1  0.270439  0.750011  0.229537  1
  Ho  Ho5  1  0.040513  0.270246  0.020243  1
  Ho  Ho6  1  0.020367  0.040810  0.270493  1
  Ho  Ho7  1  0.479527  0.750102  0.020425  1
  Ho  Ho8  1  0.479535  0.229433  0.459098  1
  Ho  Ho9  1  0.020350  0.479543  0.749857  1
  Ho  Ho10  1  0.270435  0.020449  0.040898  1
  Ho  Ho11  1  0.229563  0.270479  0.750050  1
  B  B12  1  0.249302  0.249240  0.250034  1
  B  B13  1  0.499948  0.999969  0.249972  1
  B  B14  1  0.000045  0.250025  0.500022  1
  B  B15  1  0.249306  0.500070  0.999274  1
  Br  Br16  1  0.249964  0.758031  0.741885  1
  Br  Br17  1  0.516369  0.508175  0.758171  1
  Br  Br18  1  0.983669  0.741846  0.991839  1
  Br  Br19  1  0.742131  0.250072  0.758029  1
  Br  Br20  1  0.991897  0.983835  0.741841  1
  Br  Br21  1  0.249943  0.991950  0.508090  1
  Br  Br22  1  0.758367  0.516003  0.508367  1
  Br  Br23  1  0.508105  0.249573  0.991505  1
  Br  Br24  1  0.758394  0.742322  0.249996  1
  Br  Br25  1  0.742133  0.992031  0.984059  1
  Br  Br26  1  0.991853  0.508098  0.250080  1
  Br  Br27  1  0.508144  0.758578  0.516650  1
