# generated using pymatgen
data_Sr2La5Y3Si8O3
_symmetry_space_group_name_H-M   'P 1'
_cell_length_a   10.82309100
_cell_length_b   10.79290724
_cell_length_c   4.59458200
_cell_angle_alpha   90.00000000
_cell_angle_beta   90.00000000
_cell_angle_gamma   120.09255802
_symmetry_Int_Tables_number   1
_chemical_formula_structural   Sr2La5Y3Si8O3
_chemical_formula_sum   'Sr2 La5 Y3 Si8 O3'
_cell_volume   464.36617854
_cell_formula_units_Z   1
loop_
 _symmetry_equiv_pos_site_id
 _symmetry_equiv_pos_as_xyz
  1  'x, y, z'
loop_
 _atom_site_type_symbol
 _atom_site_label
 _atom_site_symmetry_multiplicity
 _atom_site_fract_x
 _atom_site_fract_y
 _atom_site_fract_z
 _atom_site_occupancy
  Sr  Sr0  1  0.212461  0.788228  0.000000  1
  Sr  Sr1  1  0.575769  0.788228  0.000000  1
  La  La2  1  0.788220  0.576443  0.000000  1
  La  La3  1  0.999757  0.999513  0.000000  1
  La  La4  1  0.211093  0.422184  0.000000  1
  La  La5  1  0.424140  0.212542  0.000000  1
  La  La6  1  0.788400  0.212542  0.000000  1
  Y  Y7  1  0.001175  0.500777  0.500000  1
  Y  Y8  1  0.499601  0.500777  0.500000  1
  Y  Y9  1  0.498507  0.997013  0.500000  1
  Si  Si10  1  0.998993  0.779363  0.500000  1
  Si  Si11  1  0.001171  0.223980  0.500000  1
  Si  Si12  1  0.222809  0.223980  0.500000  1
  Si  Si13  1  0.782782  0.003290  0.500000  1
  Si  Si14  1  0.329964  0.659929  0.500000  1
  Si  Si15  1  0.220508  0.003290  0.500000  1
  Si  Si16  1  0.666749  0.333498  0.500000  1
  Si  Si17  1  0.780370  0.779363  0.500000  1
  O  O18  1  0.990502  0.490402  0.000000  1
  O  O19  1  0.499900  0.490402  0.000000  1
  O  O20  1  0.507129  0.014257  0.000000  1
