# generated using pymatgen
data_Ho2Tm6Sc11Si16Os
_symmetry_space_group_name_H-M   'P 1'
_cell_length_a   6.96593157
_cell_length_b   7.31605946
_cell_length_c   13.80019430
_cell_angle_alpha   90.06153654
_cell_angle_beta   90.02396123
_cell_angle_gamma   90.16529898
_symmetry_Int_Tables_number   1
_chemical_formula_structural   Ho2Tm6Sc11Si16Os
_chemical_formula_sum   'Ho2 Tm6 Sc11 Si16 Os1'
_cell_volume   703.29824664
_cell_formula_units_Z   1
loop_
 _symmetry_equiv_pos_site_id
 _symmetry_equiv_pos_as_xyz
  1  'x, y, z'
loop_
 _atom_site_type_symbol
 _atom_site_label
 _atom_site_symmetry_multiplicity
 _atom_site_fract_x
 _atom_site_fract_y
 _atom_site_fract_z
 _atom_site_occupancy
  Ho  Ho0  1  0.011663  0.178869  0.092190  1
  Ho  Ho1  1  0.993711  0.818895  0.901526  1
  Tm  Tm2  1  0.490525  0.673240  0.903222  1
  Tm  Tm3  1  0.993731  0.818279  0.598728  1
  Tm  Tm4  1  0.510701  0.323066  0.093885  1
  Tm  Tm5  1  0.011611  0.178989  0.407699  1
  Tm  Tm6  1  0.510788  0.322876  0.406187  1
  Tm  Tm7  1  0.490454  0.673283  0.596697  1
  Sc  Sc8  1  0.841539  0.495946  0.250096  1
  Sc  Sc9  1  0.342174  0.004173  0.250080  1
  Sc  Sc10  1  0.656546  0.994194  0.749923  1
  Sc  Sc11  1  0.325726  0.176074  0.627553  1
  Sc  Sc12  1  0.671798  0.824748  0.374386  1
  Sc  Sc13  1  0.172377  0.673847  0.377042  1
  Sc  Sc14  1  0.671758  0.824635  0.125719  1
  Sc  Sc15  1  0.824769  0.331628  0.628793  1
  Sc  Sc16  1  0.325817  0.176128  0.872298  1
  Sc  Sc17  1  0.824652  0.331831  0.871156  1
  Sc  Sc18  1  0.172514  0.673559  0.123080  1
  Si  Si19  1  0.027563  0.115303  0.749819  1
  Si  Si20  1  0.973023  0.887979  0.250132  1
  Si  Si21  1  0.469281  0.612902  0.250020  1
  Si  Si22  1  0.513372  0.397745  0.749945  1
  Si  Si23  1  0.285911  0.855431  0.749734  1
  Si  Si24  1  0.716865  0.131752  0.250251  1
  Si  Si25  1  0.215387  0.369235  0.250238  1
  Si  Si26  1  0.795904  0.632122  0.749701  1
  Si  Si27  1  0.158158  0.466498  0.549134  1
  Si  Si28  1  0.841501  0.535933  0.464087  1
  Si  Si29  1  0.343926  0.965056  0.463319  1
  Si  Si30  1  0.841155  0.535937  0.035961  1
  Si  Si31  1  0.660607  0.034194  0.539778  1
  Si  Si32  1  0.158476  0.466178  0.950823  1
  Si  Si33  1  0.659668  0.034423  0.960267  1
  Si  Si34  1  0.344911  0.964822  0.036667  1
  Os  Os35  1  0.151437  0.500236  0.749865  1
