# generated using pymatgen
data_Er12GaNi4Sn
_symmetry_space_group_name_H-M   'P 1'
_cell_length_a   8.25736554
_cell_length_b   8.25736537
_cell_length_c   8.25736641
_cell_angle_alpha   112.70791623
_cell_angle_beta   110.02054662
_cell_angle_gamma   105.76005472
_symmetry_Int_Tables_number   1
_chemical_formula_structural   Er12GaNi4Sn
_chemical_formula_sum   'Er12 Ga1 Ni4 Sn1'
_cell_volume   431.80647869
_cell_formula_units_Z   1
loop_
 _symmetry_equiv_pos_site_id
 _symmetry_equiv_pos_as_xyz
  1  'x, y, z'
loop_
 _atom_site_type_symbol
 _atom_site_label
 _atom_site_symmetry_multiplicity
 _atom_site_fract_x
 _atom_site_fract_y
 _atom_site_fract_z
 _atom_site_occupancy
  Er  Er0  1  0.324217  0.132013  0.807796  1
  Er  Er1  1  0.675783  0.483581  0.807796  1
  Er  Er2  1  0.427901  0.729346  0.698555  1
  Er  Er3  1  0.572099  0.270654  0.301445  1
  Er  Er4  1  0.969208  0.270654  0.698555  1
  Er  Er5  1  0.030792  0.729346  0.301445  1
  Er  Er6  1  0.324217  0.516419  0.192204  1
  Er  Er7  1  0.675783  0.867987  0.192204  1
  Er  Er8  1  0.180428  0.787740  0.968167  1
  Er  Er9  1  0.819572  0.787740  0.607312  1
  Er  Er10  1  0.180428  0.212260  0.392688  1
  Er  Er11  1  0.819572  0.212260  0.031833  1
  Ga  Ga12  1  0.000000  0.500000  0.500000  1
  Ni  Ni13  1  0.876582  0.876582  0.000000  1
  Ni  Ni14  1  0.123418  0.123418  0.000000  1
  Ni  Ni15  1  0.650537  0.500000  0.150537  1
  Ni  Ni16  1  0.349463  0.500000  0.849463  1
  Sn  Sn17  1  0.500000  0.000000  0.500000  1
