# generated using pymatgen
data_CaPrTaRh3
_symmetry_space_group_name_H-M   'P 1'
_cell_length_a   5.26080488
_cell_length_b   5.26080551
_cell_length_c   5.26080523
_cell_angle_alpha   66.82542548
_cell_angle_beta   66.82542325
_cell_angle_gamma   66.82542309
_symmetry_Int_Tables_number   1
_chemical_formula_structural   CaPrTaRh3
_chemical_formula_sum   'Ca1 Pr1 Ta1 Rh3'
_cell_volume   118.04120941
_cell_formula_units_Z   1
loop_
 _symmetry_equiv_pos_site_id
 _symmetry_equiv_pos_as_xyz
  1  'x, y, z'
loop_
 _atom_site_type_symbol
 _atom_site_label
 _atom_site_symmetry_multiplicity
 _atom_site_fract_x
 _atom_site_fract_y
 _atom_site_fract_z
 _atom_site_occupancy
  Ca  Ca0  1  0.628188  0.628188  0.628188  1
  Pr  Pr1  1  0.374297  0.374297  0.374297  1
  Ta  Ta2  1  0.999796  0.999796  0.999796  1
  Rh  Rh3  1  0.998695  0.998695  0.500329  1
  Rh  Rh4  1  0.500329  0.998695  0.998695  1
  Rh  Rh5  1  0.998695  0.500329  0.998695  1
