# generated using pymatgen
data_Hf18Re7MoPt2
_symmetry_space_group_name_H-M   'P 1'
_cell_length_a   8.70574100
_cell_length_b   8.70574223
_cell_length_c   8.53395000
_cell_angle_alpha   90.00000000
_cell_angle_beta   90.00000000
_cell_angle_gamma   119.99999911
_symmetry_Int_Tables_number   1
_chemical_formula_structural   Hf18Re7MoPt2
_chemical_formula_sum   'Hf18 Re7 Mo1 Pt2'
_cell_volume   560.13444001
_cell_formula_units_Z   1
loop_
 _symmetry_equiv_pos_site_id
 _symmetry_equiv_pos_as_xyz
  1  'x, y, z'
loop_
 _atom_site_type_symbol
 _atom_site_label
 _atom_site_symmetry_multiplicity
 _atom_site_fract_x
 _atom_site_fract_y
 _atom_site_fract_z
 _atom_site_occupancy
  Hf  Hf0  1  0.194857  0.805143  0.447171  1
  Hf  Hf1  1  0.194857  0.389711  0.447171  1
  Hf  Hf2  1  0.610289  0.805143  0.447171  1
  Hf  Hf3  1  0.805143  0.194857  0.552829  1
  Hf  Hf4  1  0.805143  0.610289  0.552829  1
  Hf  Hf5  1  0.389711  0.194857  0.552829  1
  Hf  Hf6  1  0.805946  0.194054  0.947246  1
  Hf  Hf7  1  0.805946  0.611894  0.947246  1
  Hf  Hf8  1  0.388106  0.194054  0.947246  1
  Hf  Hf9  1  0.194054  0.805946  0.052754  1
  Hf  Hf10  1  0.194054  0.388106  0.052754  1
  Hf  Hf11  1  0.611894  0.805946  0.052754  1
  Hf  Hf12  1  0.541905  0.458095  0.250014  1
  Hf  Hf13  1  0.541905  0.083812  0.250014  1
  Hf  Hf14  1  0.916188  0.458095  0.250014  1
  Hf  Hf15  1  0.458095  0.541905  0.749986  1
  Hf  Hf16  1  0.458095  0.916188  0.749986  1
  Hf  Hf17  1  0.083812  0.541905  0.749986  1
  Re  Re18  1  0.889831  0.110169  0.250262  1
  Re  Re19  1  0.889831  0.779661  0.250262  1
  Re  Re20  1  0.220339  0.110169  0.250262  1
  Re  Re21  1  0.110169  0.889831  0.749738  1
  Re  Re22  1  0.110169  0.220339  0.749738  1
  Re  Re23  1  0.779661  0.889831  0.749738  1
  Re  Re24  1  0.000000  0.000000  0.000000  1
  Mo  Mo25  1  0.000000  0.000000  0.500000  1
  Pt  Pt26  1  0.333333  0.666667  0.249552  1
  Pt  Pt27  1  0.666667  0.333333  0.750448  1
