# generated using pymatgen
data_Cd5BiO8
_symmetry_space_group_name_H-M   'P 1'
_cell_length_a   6.62420445
_cell_length_b   11.94983819
_cell_length_c   6.64809344
_cell_angle_alpha   73.88203485
_cell_angle_beta   59.93293159
_cell_angle_gamma   73.80686920
_symmetry_Int_Tables_number   1
_chemical_formula_structural   Cd5BiO8
_chemical_formula_sum   'Cd10 Bi2 O16'
_cell_volume   431.30765824
_cell_formula_units_Z   2
loop_
 _symmetry_equiv_pos_site_id
 _symmetry_equiv_pos_as_xyz
  1  'x, y, z'
loop_
 _atom_site_type_symbol
 _atom_site_label
 _atom_site_symmetry_multiplicity
 _atom_site_fract_x
 _atom_site_fract_y
 _atom_site_fract_z
 _atom_site_occupancy
  Cd  Cd0  1  0.499679  0.999968  0.500254  1
  Cd  Cd1  1  0.500031  0.999999  0.000061  1
  Cd  Cd2  1  0.500136  0.499982  0.999944  1
  Cd  Cd3  1  0.000165  0.499997  0.999896  1
  Cd  Cd4  1  0.000111  0.500022  0.499919  1
  Cd  Cd5  1  0.999837  0.000029  0.499881  1
  Cd  Cd6  1  0.434211  0.704641  0.430824  1
  Cd  Cd7  1  0.934051  0.204642  0.930924  1
  Cd  Cd8  1  0.065831  0.795361  0.069146  1
  Cd  Cd9  1  0.565936  0.295359  0.569108  1
  Bi  Bi10  1  0.250001  0.250005  0.250023  1
  Bi  Bi11  1  0.750036  0.749998  0.749990  1
  O  O12  1  0.369110  0.899110  0.366457  1
  O  O13  1  0.869415  0.399111  0.866312  1
  O  O14  1  0.130866  0.600892  0.133499  1
  O  O15  1  0.630542  0.100886  0.633666  1
  O  O16  1  0.590911  0.133516  0.138009  1
  O  O17  1  0.091024  0.633562  0.637798  1
  O  O18  1  0.138649  0.133062  0.589300  1
  O  O19  1  0.638983  0.633037  0.089218  1
  O  O20  1  0.138620  0.133259  0.139063  1
  O  O21  1  0.638708  0.633230  0.639043  1
  O  O22  1  0.361447  0.366760  0.360885  1
  O  O23  1  0.861393  0.866784  0.860871  1
  O  O24  1  0.361256  0.366924  0.910753  1
  O  O25  1  0.860962  0.866952  0.410770  1
  O  O26  1  0.909077  0.366483  0.362103  1
  O  O27  1  0.409011  0.866428  0.862278  1
