# generated using pymatgen
data_Tb7Dy3OsRu3
_symmetry_space_group_name_H-M   'P 1'
_cell_length_a   8.52571658
_cell_length_b   8.52937604
_cell_length_c   7.28970898
_cell_angle_alpha   83.34603138
_cell_angle_beta   83.40557781
_cell_angle_gamma   44.09150547
_symmetry_Int_Tables_number   1
_chemical_formula_structural   Tb7Dy3OsRu3
_chemical_formula_sum   'Tb7 Dy3 Os1 Ru3'
_cell_volume   365.97928190
_cell_formula_units_Z   1
loop_
 _symmetry_equiv_pos_site_id
 _symmetry_equiv_pos_as_xyz
  1  'x, y, z'
loop_
 _atom_site_type_symbol
 _atom_site_label
 _atom_site_symmetry_multiplicity
 _atom_site_fract_x
 _atom_site_fract_y
 _atom_site_fract_z
 _atom_site_occupancy
  Tb  Tb0  1  0.206321  0.977548  0.584944  1
  Tb  Tb1  1  0.020387  0.793766  0.916091  1
  Tb  Tb2  1  0.207028  0.358690  0.314361  1
  Tb  Tb3  1  0.639824  0.793933  0.186153  1
  Tb  Tb4  1  0.795155  0.640284  0.684786  1
  Tb  Tb5  1  0.359327  0.207378  0.813629  1
  Tb  Tb6  1  0.978988  0.206409  0.085130  1
  Dy  Dy7  1  0.792744  0.021670  0.415102  1
  Dy  Dy8  1  0.575791  0.423696  0.749317  1
  Dy  Dy9  1  0.423060  0.576591  0.250599  1
  Os  Os10  1  0.176835  0.603855  0.574678  1
  Ru  Ru11  1  0.396172  0.824838  0.925585  1
  Ru  Ru12  1  0.824475  0.395743  0.424828  1
  Ru  Ru13  1  0.603892  0.175598  0.074799  1
