# generated using pymatgen
data_Sr5PrCd2(CoO6)2
_symmetry_space_group_name_H-M   'P 1'
_cell_length_a   6.70028824
_cell_length_b   6.74691882
_cell_length_c   6.73403985
_cell_angle_alpha   90.31951397
_cell_angle_beta   91.05777643
_cell_angle_gamma   90.42944315
_symmetry_Int_Tables_number   1
_chemical_formula_structural   Sr5PrCd2(CoO6)2
_chemical_formula_sum   'Sr5 Pr1 Cd2 Co2 O12'
_cell_volume   304.35563277
_cell_formula_units_Z   1
loop_
 _symmetry_equiv_pos_site_id
 _symmetry_equiv_pos_as_xyz
  1  'x, y, z'
loop_
 _atom_site_type_symbol
 _atom_site_label
 _atom_site_symmetry_multiplicity
 _atom_site_fract_x
 _atom_site_fract_y
 _atom_site_fract_z
 _atom_site_occupancy
  Sr  Sr0  1  0.255570  0.615132  0.883368  1
  Sr  Sr1  1  0.613443  0.881869  0.254314  1
  Sr  Sr2  1  0.744751  0.387463  0.116955  1
  Sr  Sr3  1  0.385756  0.113439  0.746622  1
  Sr  Sr4  1  0.118515  0.746727  0.385186  1
  Pr  Pr5  1  0.882908  0.254032  0.612629  1
  Cd  Cd6  1  0.749198  0.748344  0.747105  1
  Cd  Cd7  1  0.253169  0.252026  0.251036  1
  Co  Co8  1  0.998511  0.003645  0.999535  1
  Co  Co9  1  0.500851  0.496244  0.501453  1
  O  O10  1  0.212634  0.411965  0.557027  1
  O  O11  1  0.416029  0.550635  0.221368  1
  O  O12  1  0.560774  0.217421  0.425385  1
  O  O13  1  0.923022  0.734437  0.051273  1
  O  O14  1  0.729128  0.057972  0.917719  1
  O  O15  1  0.045870  0.932299  0.721455  1
  O  O16  1  0.782400  0.571054  0.449170  1
  O  O17  1  0.591952  0.438951  0.775377  1
  O  O18  1  0.447369  0.773904  0.582868  1
  O  O19  1  0.068627  0.275448  0.941284  1
  O  O20  1  0.271358  0.952838  0.076058  1
  O  O21  1  0.948165  0.084159  0.282812  1
