# generated using pymatgen
data_Y2Ho3Cr3(Co4P3)4
_symmetry_space_group_name_H-M   'P 1'
_cell_length_a   11.97427400
_cell_length_b   11.97427495
_cell_length_c   3.66335800
_cell_angle_alpha   90.00000000
_cell_angle_beta   90.00000000
_cell_angle_gamma   120.00000289
_symmetry_Int_Tables_number   1
_chemical_formula_structural   Y2Ho3Cr3(Co4P3)4
_chemical_formula_sum   'Y2 Ho3 Cr3 Co16 P12'
_cell_volume   454.89210445
_cell_formula_units_Z   1
loop_
 _symmetry_equiv_pos_site_id
 _symmetry_equiv_pos_as_xyz
  1  'x, y, z'
loop_
 _atom_site_type_symbol
 _atom_site_label
 _atom_site_symmetry_multiplicity
 _atom_site_fract_x
 _atom_site_fract_y
 _atom_site_fract_z
 _atom_site_occupancy
  Y  Y0  1  0.666667  0.333333  0.000000  1
  Y  Y1  1  0.333333  0.666667  0.000000  1
  Ho  Ho2  1  0.812779  0.812779  0.500000  1
  Ho  Ho3  1  0.187221  0.000000  0.500000  1
  Ho  Ho4  1  0.000000  0.187221  0.500000  1
  Cr  Cr5  1  0.445482  0.445482  0.000000  1
  Cr  Cr6  1  0.554518  0.000000  0.000000  1
  Cr  Cr7  1  0.000000  0.554518  0.000000  1
  Co  Co8  1  0.874305  0.356126  0.500000  1
  Co  Co9  1  0.643874  0.518180  0.500000  1
  Co  Co10  1  0.481820  0.125695  0.500000  1
  Co  Co11  1  0.356126  0.874305  0.500000  1
  Co  Co12  1  0.518180  0.643874  0.500000  1
  Co  Co13  1  0.125695  0.481820  0.500000  1
  Co  Co14  1  0.800110  0.176826  0.000000  1
  Co  Co15  1  0.823174  0.623282  0.000000  1
  Co  Co16  1  0.376718  0.199890  0.000000  1
  Co  Co17  1  0.176826  0.800110  0.000000  1
  Co  Co18  1  0.623282  0.823174  0.000000  1
  Co  Co19  1  0.199890  0.376718  0.000000  1
  Co  Co20  1  0.282272  0.282272  0.500000  1
  Co  Co21  1  0.717728  0.000000  0.500000  1
  Co  Co22  1  0.000000  0.717728  0.500000  1
  Co  Co23  1  0.000000  0.000000  0.000000  1
  P  P24  1  0.682802  0.162429  0.500000  1
  P  P25  1  0.837571  0.520373  0.500000  1
  P  P26  1  0.479627  0.317198  0.500000  1
  P  P27  1  0.162429  0.682802  0.500000  1
  P  P28  1  0.520373  0.837571  0.500000  1
  P  P29  1  0.317198  0.479627  0.500000  1
  P  P30  1  0.179122  0.179122  0.000000  1
  P  P31  1  0.820878  0.000000  0.000000  1
  P  P32  1  0.000000  0.820878  0.000000  1
  P  P33  1  0.633177  0.633177  0.000000  1
  P  P34  1  0.366823  0.000000  0.000000  1
  P  P35  1  0.000000  0.366823  0.000000  1
