# generated using pymatgen
data_AlFeBr6
_symmetry_space_group_name_H-M   'P 1'
_cell_length_a   7.56175300
_cell_length_b   7.96212959
_cell_length_c   11.30945094
_cell_angle_alpha   82.00025118
_cell_angle_beta   90.00000000
_cell_angle_gamma   90.00000000
_symmetry_Int_Tables_number   1
_chemical_formula_structural   AlFeBr6
_chemical_formula_sum   'Al2 Fe2 Br12'
_cell_volume   674.28933840
_cell_formula_units_Z   2
loop_
 _symmetry_equiv_pos_site_id
 _symmetry_equiv_pos_as_xyz
  1  'x, y, z'
loop_
 _atom_site_type_symbol
 _atom_site_label
 _atom_site_symmetry_multiplicity
 _atom_site_fract_x
 _atom_site_fract_y
 _atom_site_fract_z
 _atom_site_occupancy
  Al  Al0  1  0.913438  0.811521  0.550711  1
  Al  Al1  1  0.413438  0.188479  0.949289  1
  Fe  Fe2  1  0.086855  0.189463  0.449810  1
  Fe  Fe3  1  0.586855  0.810537  0.050190  1
  Br  Br4  1  0.922502  0.393348  0.337085  1
  Br  Br5  1  0.422502  0.606652  0.162915  1
  Br  Br6  1  0.078396  0.610547  0.661430  1
  Br  Br7  1  0.578396  0.389453  0.838570  1
  Br  Br8  1  0.375432  0.248837  0.485867  1
  Br  Br9  1  0.875432  0.751163  0.014133  1
  Br  Br10  1  0.627502  0.754671  0.513134  1
  Br  Br11  1  0.127502  0.245329  0.986866  1
  Br  Br12  1  0.063751  0.917102  0.364943  1
  Br  Br13  1  0.563751  0.082898  0.135057  1
  Br  Br14  1  0.932124  0.074647  0.637530  1
  Br  Br15  1  0.432124  0.925353  0.862470  1
