# generated using pymatgen
data_Er4AlGa(B2Rh5)2
_symmetry_space_group_name_H-M   'P 1'
_cell_length_a   9.46944400
_cell_length_b   9.46944400
_cell_length_c   3.18945200
_cell_angle_alpha   90.00000000
_cell_angle_beta   90.00000000
_cell_angle_gamma   90.00000000
_symmetry_Int_Tables_number   1
_chemical_formula_structural   Er4AlGa(B2Rh5)2
_chemical_formula_sum   'Er4 Al1 Ga1 B4 Rh10'
_cell_volume   285.99933988
_cell_formula_units_Z   1
loop_
 _symmetry_equiv_pos_site_id
 _symmetry_equiv_pos_as_xyz
  1  'x, y, z'
loop_
 _atom_site_type_symbol
 _atom_site_label
 _atom_site_symmetry_multiplicity
 _atom_site_fract_x
 _atom_site_fract_y
 _atom_site_fract_z
 _atom_site_occupancy
  Er  Er0  1  0.825284  0.325134  0.000000  1
  Er  Er1  1  0.325134  0.174716  0.000000  1
  Er  Er2  1  0.674866  0.825284  0.000000  1
  Er  Er3  1  0.174716  0.674866  0.000000  1
  Al  Al4  1  0.500000  0.500000  0.000000  1
  Ga  Ga5  1  0.000000  0.000000  0.000000  1
  B  B6  1  0.622805  0.122237  0.000000  1
  B  B7  1  0.122237  0.377195  0.000000  1
  B  B8  1  0.877763  0.622805  0.000000  1
  B  B9  1  0.377195  0.877763  0.000000  1
  Rh  Rh10  1  0.070736  0.218954  0.500000  1
  Rh  Rh11  1  0.218954  0.929264  0.500000  1
  Rh  Rh12  1  0.781046  0.070736  0.500000  1
  Rh  Rh13  1  0.929264  0.781046  0.500000  1
  Rh  Rh14  1  0.429637  0.718155  0.500000  1
  Rh  Rh15  1  0.570363  0.281845  0.500000  1
  Rh  Rh16  1  0.718155  0.570363  0.500000  1
  Rh  Rh17  1  0.281845  0.429637  0.500000  1
  Rh  Rh18  1  0.500000  0.000000  0.500000  1
  Rh  Rh19  1  0.000000  0.500000  0.500000  1
