# generated using pymatgen
data_RbLiS2O7
_symmetry_space_group_name_H-M   'P 1'
_cell_length_a   5.46525110
_cell_length_b   7.84904792
_cell_length_c   7.88060179
_cell_angle_alpha   101.71802086
_cell_angle_beta   92.32684253
_cell_angle_gamma   94.70825334
_symmetry_Int_Tables_number   1
_chemical_formula_structural   RbLiS2O7
_chemical_formula_sum   'Rb2 Li2 S4 O14'
_cell_volume   329.32335464
_cell_formula_units_Z   2
loop_
 _symmetry_equiv_pos_site_id
 _symmetry_equiv_pos_as_xyz
  1  'x, y, z'
loop_
 _atom_site_type_symbol
 _atom_site_label
 _atom_site_symmetry_multiplicity
 _atom_site_fract_x
 _atom_site_fract_y
 _atom_site_fract_z
 _atom_site_occupancy
  Rb  Rb0  1  0.205290  0.785656  0.426215  1
  Rb  Rb1  1  0.794710  0.214344  0.573785  1
  Li  Li2  1  0.203384  0.598623  0.887632  1
  Li  Li3  1  0.796616  0.401377  0.112368  1
  S  S4  1  0.710481  0.715961  0.717873  1
  S  S5  1  0.695323  0.786617  0.092114  1
  S  S6  1  0.304677  0.213383  0.907886  1
  S  S7  1  0.289519  0.284039  0.282127  1
  O  O8  1  0.737672  0.855805  0.908306  1
  O  O9  1  0.564023  0.279013  0.916479  1
  O  O10  1  0.863806  0.649044  0.090446  1
  O  O11  1  0.523758  0.389426  0.286970  1
  O  O12  1  0.262328  0.144195  0.091694  1
  O  O13  1  0.435977  0.720987  0.083521  1
  O  O14  1  0.136194  0.350956  0.909554  1
  O  O15  1  0.476242  0.610574  0.713030  1
  O  O16  1  0.074654  0.384624  0.286203  1
  O  O17  1  0.283168  0.165994  0.402607  1
  O  O18  1  0.236032  0.056325  0.778449  1
  O  O19  1  0.716832  0.834006  0.597393  1
  O  O20  1  0.925346  0.615376  0.713797  1
  O  O21  1  0.763968  0.943675  0.221551  1
