# generated using pymatgen
data_Li4TbSm3(Si2Pb)2
_symmetry_space_group_name_H-M   'P 1'
_cell_length_a   9.75476984
_cell_length_b   9.75477060
_cell_length_c   6.85390600
_cell_angle_alpha   90.00000000
_cell_angle_beta   90.00000000
_cell_angle_gamma   153.57605494
_symmetry_Int_Tables_number   1
_chemical_formula_structural   Li4TbSm3(Si2Pb)2
_chemical_formula_sum   'Li4 Tb1 Sm3 Si4 Pb2'
_cell_volume   290.22945799
_cell_formula_units_Z   1
loop_
 _symmetry_equiv_pos_site_id
 _symmetry_equiv_pos_as_xyz
  1  'x, y, z'
loop_
 _atom_site_type_symbol
 _atom_site_label
 _atom_site_symmetry_multiplicity
 _atom_site_fract_x
 _atom_site_fract_y
 _atom_site_fract_z
 _atom_site_occupancy
  Li  Li0  1  0.816881  0.183119  0.553307  1
  Li  Li1  1  0.182982  0.817018  0.446411  1
  Li  Li2  1  0.182982  0.817018  0.053589  1
  Li  Li3  1  0.816881  0.183119  0.946693  1
  Tb  Tb4  1  0.547086  0.452914  0.250000  1
  Sm  Sm5  1  0.452809  0.547191  0.750000  1
  Sm  Sm6  1  0.352694  0.647306  0.250000  1
  Sm  Sm7  1  0.647303  0.352697  0.750000  1
  Si  Si8  1  0.943497  0.056503  0.074679  1
  Si  Si9  1  0.056961  0.943039  0.926965  1
  Si  Si10  1  0.056961  0.943039  0.573035  1
  Si  Si11  1  0.943497  0.056503  0.425321  1
  Pb  Pb12  1  0.718391  0.281609  0.250000  1
  Pb  Pb13  1  0.281076  0.718924  0.750000  1
