# generated using pymatgen
data_Tb3DyEr2(Si3Ru)8
_symmetry_space_group_name_H-M   'P 1'
_cell_length_a   10.12732142
_cell_length_b   10.12732106
_cell_length_c   8.15347509
_cell_angle_alpha   90.01596092
_cell_angle_beta   89.98403875
_cell_angle_gamma   132.57668574
_symmetry_Int_Tables_number   1
_chemical_formula_structural   Tb3DyEr2(Si3Ru)8
_chemical_formula_sum   'Tb3 Dy1 Er2 Si24 Ru8'
_cell_volume   615.78546684
_cell_formula_units_Z   1
loop_
 _symmetry_equiv_pos_site_id
 _symmetry_equiv_pos_as_xyz
  1  'x, y, z'
loop_
 _atom_site_type_symbol
 _atom_site_label
 _atom_site_symmetry_multiplicity
 _atom_site_fract_x
 _atom_site_fract_y
 _atom_site_fract_z
 _atom_site_occupancy
  Tb  Tb0  1  0.002371  0.502371  0.750000  1
  Tb  Tb1  1  0.502540  0.002540  0.750000  1
  Tb  Tb2  1  0.997533  0.497533  0.250000  1
  Dy  Dy3  1  0.497489  0.997489  0.250000  1
  Er  Er4  1  0.500001  0.499983  0.500009  1
  Er  Er5  1  0.999983  0.000001  0.999991  1
  Si  Si6  1  0.387956  0.154383  0.004932  1
  Si  Si7  1  0.654383  0.887956  0.495068  1
  Si  Si8  1  0.111933  0.345040  0.504779  1
  Si  Si9  1  0.845040  0.611933  0.995221  1
  Si  Si10  1  0.612082  0.845694  0.994905  1
  Si  Si11  1  0.345694  0.112082  0.505095  1
  Si  Si12  1  0.888062  0.654945  0.495094  1
  Si  Si13  1  0.154945  0.388062  0.004906  1
  Si  Si14  1  0.612495  0.378143  0.228616  1
  Si  Si15  1  0.878143  0.112495  0.271384  1
  Si  Si16  1  0.886904  0.121057  0.728656  1
  Si  Si17  1  0.621057  0.386904  0.771344  1
  Si  Si18  1  0.387751  0.621882  0.771490  1
  Si  Si19  1  0.121882  0.887751  0.728510  1
  Si  Si20  1  0.704854  0.294519  0.000062  1
  Si  Si21  1  0.794519  0.204854  0.499938  1
  Si  Si22  1  0.295127  0.705484  0.000147  1
  Si  Si23  1  0.205484  0.795127  0.499853  1
  Si  Si24  1  0.167713  0.167636  0.333290  1
  Si  Si25  1  0.667636  0.667713  0.166710  1
  Si  Si26  1  0.332340  0.332314  0.833313  1
  Si  Si27  1  0.832314  0.832340  0.666687  1
  Si  Si28  1  0.378727  0.613003  0.228843  1
  Si  Si29  1  0.113003  0.878727  0.271157  1
  Ru  Ru30  1  0.626071  0.626032  0.872789  1
  Ru  Ru31  1  0.126032  0.126071  0.627211  1
  Ru  Ru32  1  0.873928  0.873984  0.372744  1
  Ru  Ru33  1  0.373984  0.373928  0.127256  1
  Ru  Ru34  1  0.330457  0.668142  0.500293  1
  Ru  Ru35  1  0.168142  0.830457  0.999707  1
  Ru  Ru36  1  0.669558  0.331865  0.499871  1
  Ru  Ru37  1  0.831865  0.169558  0.000129  1
