# generated using pymatgen
data_Sc2Zn8RuPt
_symmetry_space_group_name_H-M   'P 1'
_cell_length_a   5.01849700
_cell_length_b   5.01849598
_cell_length_c   8.21946900
_cell_angle_alpha   90.00000000
_cell_angle_beta   90.00000000
_cell_angle_gamma   120.00000014
_symmetry_Int_Tables_number   1
_chemical_formula_structural   Sc2Zn8RuPt
_chemical_formula_sum   'Sc2 Zn8 Ru1 Pt1'
_cell_volume   179.27578889
_cell_formula_units_Z   1
loop_
 _symmetry_equiv_pos_site_id
 _symmetry_equiv_pos_as_xyz
  1  'x, y, z'
loop_
 _atom_site_type_symbol
 _atom_site_label
 _atom_site_symmetry_multiplicity
 _atom_site_fract_x
 _atom_site_fract_y
 _atom_site_fract_z
 _atom_site_occupancy
  Sc  Sc0  1  0.666667  0.333333  0.430209  1
  Sc  Sc1  1  0.333333  0.666667  0.939545  1
  Zn  Zn2  1  0.000000  0.000000  0.998463  1
  Zn  Zn3  1  0.000000  0.000000  0.501655  1
  Zn  Zn4  1  0.170128  0.340254  0.245544  1
  Zn  Zn5  1  0.828548  0.171452  0.751732  1
  Zn  Zn6  1  0.342902  0.171452  0.751732  1
  Zn  Zn7  1  0.659746  0.829872  0.245544  1
  Zn  Zn8  1  0.170128  0.829872  0.245544  1
  Zn  Zn9  1  0.828548  0.657098  0.751732  1
  Ru  Ru10  1  0.666667  0.333333  0.069465  1
  Pt  Pt11  1  0.333333  0.666667  0.568838  1
