# generated using pymatgen
data_Ac4YbSi4
_symmetry_space_group_name_H-M   'P 1'
_cell_length_a   8.05941200
_cell_length_b   8.36443700
_cell_length_c   16.03369600
_cell_angle_alpha   90.00000000
_cell_angle_beta   90.00000000
_cell_angle_gamma   90.00000000
_symmetry_Int_Tables_number   1
_chemical_formula_structural   Ac4YbSi4
_chemical_formula_sum   'Ac16 Yb4 Si16'
_cell_volume   1080.87063261
_cell_formula_units_Z   4
loop_
 _symmetry_equiv_pos_site_id
 _symmetry_equiv_pos_as_xyz
  1  'x, y, z'
loop_
 _atom_site_type_symbol
 _atom_site_label
 _atom_site_symmetry_multiplicity
 _atom_site_fract_x
 _atom_site_fract_y
 _atom_site_fract_z
 _atom_site_occupancy
  Ac  Ac0  1  0.311457  0.184204  0.122946  1
  Ac  Ac1  1  0.811457  0.315796  0.377054  1
  Ac  Ac2  1  0.188543  0.684204  0.877054  1
  Ac  Ac3  1  0.688543  0.815796  0.622946  1
  Ac  Ac4  1  0.311457  0.184204  0.377054  1
  Ac  Ac5  1  0.811457  0.315796  0.122946  1
  Ac  Ac6  1  0.188543  0.684204  0.622946  1
  Ac  Ac7  1  0.688543  0.815796  0.877054  1
  Ac  Ac8  1  0.960118  0.810693  0.397978  1
  Ac  Ac9  1  0.460118  0.689307  0.102022  1
  Ac  Ac10  1  0.539882  0.310693  0.602022  1
  Ac  Ac11  1  0.039882  0.189307  0.897978  1
  Ac  Ac12  1  0.039882  0.189307  0.602022  1
  Ac  Ac13  1  0.539882  0.310693  0.897978  1
  Ac  Ac14  1  0.460118  0.689307  0.397978  1
  Ac  Ac15  1  0.960118  0.810693  0.102022  1
  Yb  Yb16  1  0.358682  0.019643  0.750000  1
  Yb  Yb17  1  0.858682  0.480357  0.750000  1
  Yb  Yb18  1  0.141318  0.519643  0.250000  1
  Yb  Yb19  1  0.641318  0.980357  0.250000  1
  Si  Si20  1  0.867688  0.524417  0.537373  1
  Si  Si21  1  0.367688  0.975583  0.962627  1
  Si  Si22  1  0.632312  0.024417  0.462627  1
  Si  Si23  1  0.132312  0.475583  0.037373  1
  Si  Si24  1  0.132312  0.475583  0.462627  1
  Si  Si25  1  0.632312  0.024417  0.037373  1
  Si  Si26  1  0.367688  0.975583  0.537373  1
  Si  Si27  1  0.867688  0.524417  0.962627  1
  Si  Si28  1  0.981398  0.916177  0.750000  1
  Si  Si29  1  0.481398  0.583823  0.750000  1
  Si  Si30  1  0.518602  0.416177  0.250000  1
  Si  Si31  1  0.018602  0.083823  0.250000  1
  Si  Si32  1  0.250948  0.380578  0.750000  1
  Si  Si33  1  0.750948  0.119422  0.750000  1
  Si  Si34  1  0.249052  0.880578  0.250000  1
  Si  Si35  1  0.749052  0.619422  0.250000  1
