# generated using pymatgen
data_Ho3Lu9(OsRu)2
_symmetry_space_group_name_H-M   'P 1'
_cell_length_a   6.19052599
_cell_length_b   7.32053122
_cell_length_c   8.86288000
_cell_angle_alpha   90.00000000
_cell_angle_beta   90.00000000
_cell_angle_gamma   90.09062017
_symmetry_Int_Tables_number   1
_chemical_formula_structural   Ho3Lu9(OsRu)2
_chemical_formula_sum   'Ho3 Lu9 Os2 Ru2'
_cell_volume   401.64695119
_cell_formula_units_Z   1
loop_
 _symmetry_equiv_pos_site_id
 _symmetry_equiv_pos_as_xyz
  1  'x, y, z'
loop_
 _atom_site_type_symbol
 _atom_site_label
 _atom_site_symmetry_multiplicity
 _atom_site_fract_x
 _atom_site_fract_y
 _atom_site_fract_z
 _atom_site_occupancy
  Ho  Ho0  1  0.627696  0.038450  0.250000  1
  Ho  Ho1  1  0.129468  0.458138  0.750000  1
  Ho  Ho2  1  0.371745  0.959950  0.750000  1
  Lu  Lu3  1  0.332548  0.674844  0.064348  1
  Lu  Lu4  1  0.165108  0.176005  0.435862  1
  Lu  Lu5  1  0.663941  0.327390  0.561375  1
  Lu  Lu6  1  0.837553  0.824178  0.938316  1
  Lu  Lu7  1  0.663941  0.327390  0.938625  1
  Lu  Lu8  1  0.837553  0.824178  0.561684  1
  Lu  Lu9  1  0.332548  0.674844  0.435652  1
  Lu  Lu10  1  0.165108  0.176005  0.064138  1
  Lu  Lu11  1  0.872461  0.538898  0.250000  1
  Os  Os12  1  0.040698  0.881650  0.250000  1
  Os  Os13  1  0.461232  0.383917  0.250000  1
  Ru  Ru14  1  0.957256  0.116748  0.750000  1
  Ru  Ru15  1  0.541143  0.617415  0.750000  1
