# generated using pymatgen
data_Er12InCo2Ni3
_symmetry_space_group_name_H-M   'P 1'
_cell_length_a   8.20519494
_cell_length_b   8.20519408
_cell_length_c   8.20519504
_cell_angle_alpha   109.82504225
_cell_angle_beta   111.01471702
_cell_angle_gamma   107.59237372
_symmetry_Int_Tables_number   1
_chemical_formula_structural   Er12InCo2Ni3
_chemical_formula_sum   'Er12 In1 Co2 Ni3'
_cell_volume   424.86148153
_cell_formula_units_Z   1
loop_
 _symmetry_equiv_pos_site_id
 _symmetry_equiv_pos_as_xyz
  1  'x, y, z'
loop_
 _atom_site_type_symbol
 _atom_site_label
 _atom_site_symmetry_multiplicity
 _atom_site_fract_x
 _atom_site_fract_y
 _atom_site_fract_z
 _atom_site_occupancy
  Er  Er0  1  0.291625  0.184381  0.476006  1
  Er  Er1  1  0.708375  0.815619  0.523994  1
  Er  Er2  1  0.291625  0.815619  0.107244  1
  Er  Er3  1  0.708375  0.184381  0.892756  1
  Er  Er4  1  0.622615  0.316936  0.305678  1
  Er  Er5  1  0.377385  0.683064  0.694322  1
  Er  Er6  1  0.011260  0.316936  0.694322  1
  Er  Er7  1  0.988740  0.683064  0.305678  1
  Er  Er8  1  0.215702  0.408605  0.192902  1
  Er  Er9  1  0.784298  0.591395  0.807098  1
  Er  Er10  1  0.215702  0.022801  0.807098  1
  Er  Er11  1  0.784298  0.977199  0.192902  1
  In  In12  1  0.500000  0.500000  0.000000  1
  Co  Co13  1  0.384545  0.884545  0.500000  1
  Co  Co14  1  0.615455  0.115455  0.500000  1
  Ni  Ni15  1  0.000000  0.365189  0.365189  1
  Ni  Ni16  1  0.000000  0.634811  0.634811  1
  Ni  Ni17  1  0.000000  0.000000  0.000000  1
