# generated using pymatgen
data_Ho4Tm8InCo5
_symmetry_space_group_name_H-M   'P 1'
_cell_length_a   8.18618397
_cell_length_b   8.18624983
_cell_length_c   8.18618306
_cell_angle_alpha   111.06936757
_cell_angle_beta   110.75605235
_cell_angle_gamma   106.62502888
_symmetry_Int_Tables_number   1
_chemical_formula_structural   Ho4Tm8InCo5
_chemical_formula_sum   'Ho4 Tm8 In1 Co5'
_cell_volume   421.52657351
_cell_formula_units_Z   1
loop_
 _symmetry_equiv_pos_site_id
 _symmetry_equiv_pos_as_xyz
  1  'x, y, z'
loop_
 _atom_site_type_symbol
 _atom_site_label
 _atom_site_symmetry_multiplicity
 _atom_site_fract_x
 _atom_site_fract_y
 _atom_site_fract_z
 _atom_site_occupancy
  Ho  Ho0  1  0.287809  0.186402  0.474205  1
  Ho  Ho1  1  0.712191  0.813598  0.525795  1
  Ho  Ho2  1  0.287803  0.813598  0.101407  1
  Ho  Ho3  1  0.712197  0.186402  0.898593  1
  Tm  Tm4  1  0.619995  0.314225  0.305764  1
  Tm  Tm5  1  0.380005  0.685775  0.694236  1
  Tm  Tm6  1  0.008461  0.314225  0.694229  1
  Tm  Tm7  1  0.991539  0.685775  0.305771  1
  Tm  Tm8  1  0.212830  0.404589  0.191760  1
  Tm  Tm9  1  0.787170  0.595411  0.808240  1
  Tm  Tm10  1  0.212832  0.021075  0.808243  1
  Tm  Tm11  1  0.787168  0.978925  0.191757  1
  In  In12  1  0.500000  0.500000  0.000000  1
  Co  Co13  1  0.999999  0.377282  0.377282  1
  Co  Co14  1  0.000001  0.622718  0.622718  1
  Co  Co15  1  0.387304  0.887309  0.500004  1
  Co  Co16  1  0.612696  0.112691  0.499996  1
  Co  Co17  1  0.000000  0.000000  0.000000  1
