# generated using pymatgen
data_Y5Ho7Co5Sn
_symmetry_space_group_name_H-M   'P 1'
_cell_length_a   8.30622912
_cell_length_b   8.30622786
_cell_length_c   8.30324179
_cell_angle_alpha   107.15345337
_cell_angle_beta   110.67151218
_cell_angle_gamma   110.62753603
_symmetry_Int_Tables_number   1
_chemical_formula_structural   Y5Ho7Co5Sn
_chemical_formula_sum   'Y5 Ho7 Co5 Sn1'
_cell_volume   440.37701167
_cell_formula_units_Z   1
loop_
 _symmetry_equiv_pos_site_id
 _symmetry_equiv_pos_as_xyz
  1  'x, y, z'
loop_
 _atom_site_type_symbol
 _atom_site_label
 _atom_site_symmetry_multiplicity
 _atom_site_fract_x
 _atom_site_fract_y
 _atom_site_fract_z
 _atom_site_occupancy
  Y  Y0  1  0.807888  0.208332  0.016220  1
  Y  Y1  1  0.478898  0.292109  0.187562  1
  Y  Y2  1  0.105166  0.292647  0.811922  1
  Y  Y3  1  0.895454  0.708664  0.187562  1
  Y  Y4  1  0.519275  0.706757  0.811922  1
  Ho  Ho5  1  0.308066  0.621037  0.313829  1
  Ho  Ho6  1  0.306867  0.993856  0.686585  1
  Ho  Ho7  1  0.692731  0.379718  0.686585  1
  Ho  Ho8  1  0.692793  0.005763  0.313829  1
  Ho  Ho9  1  0.193149  0.207355  0.400504  1
  Ho  Ho10  1  0.807662  0.793305  0.600968  1
  Ho  Ho11  1  0.192816  0.792328  0.985143  1
  Co  Co12  1  0.500009  0.611997  0.112006  1
  Co  Co13  1  0.499630  0.387885  0.887515  1
  Co  Co14  1  0.377980  0.000090  0.378070  1
  Co  Co15  1  0.619740  0.999308  0.619048  1
  Co  Co16  1  0.001927  0.998883  0.000810  1
  Sn  Sn17  1  0.999952  0.499964  0.499917  1
