# generated using pymatgen
data_Eu7Ni3
_symmetry_space_group_name_H-M   'P 1'
_cell_length_a   6.46982900
_cell_length_b   10.11806528
_cell_length_c   10.11806553
_cell_angle_alpha   119.81901834
_cell_angle_beta   90.00000000
_cell_angle_gamma   90.00000000
_symmetry_Int_Tables_number   1
_chemical_formula_structural   Eu7Ni3
_chemical_formula_sum   'Eu14 Ni6'
_cell_volume   574.65545356
_cell_formula_units_Z   2
loop_
 _symmetry_equiv_pos_site_id
 _symmetry_equiv_pos_as_xyz
  1  'x, y, z'
loop_
 _atom_site_type_symbol
 _atom_site_label
 _atom_site_symmetry_multiplicity
 _atom_site_fract_x
 _atom_site_fract_y
 _atom_site_fract_z
 _atom_site_occupancy
  Eu  Eu0  1  0.469871  0.333379  0.666621  1
  Eu  Eu1  1  0.969871  0.666621  0.333379  1
  Eu  Eu2  1  0.249776  0.125008  0.874992  1
  Eu  Eu3  1  0.249554  0.750008  0.874991  1
  Eu  Eu4  1  0.249554  0.125009  0.249992  1
  Eu  Eu5  1  0.749776  0.874992  0.125008  1
  Eu  Eu6  1  0.749554  0.249992  0.125009  1
  Eu  Eu7  1  0.749554  0.874991  0.750008  1
  Eu  Eu8  1  0.445597  0.540968  0.459032  1
  Eu  Eu9  1  0.445773  0.918050  0.458976  1
  Eu  Eu10  1  0.445773  0.541024  0.081950  1
  Eu  Eu11  1  0.945597  0.459032  0.540968  1
  Eu  Eu12  1  0.945773  0.081950  0.541024  1
  Eu  Eu13  1  0.945773  0.458976  0.918050  1
  Ni  Ni14  1  0.178955  0.810347  0.189653  1
  Ni  Ni15  1  0.179075  0.379076  0.188518  1
  Ni  Ni16  1  0.179075  0.811482  0.620924  1
  Ni  Ni17  1  0.678955  0.189653  0.810347  1
  Ni  Ni18  1  0.679075  0.620924  0.811482  1
  Ni  Ni19  1  0.679075  0.188518  0.379076  1
