# generated using pymatgen
data_LaNd(SeO3)3
_symmetry_space_group_name_H-M   'P 1'
_cell_length_a   7.22310087
_cell_length_b   8.16991141
_cell_length_c   9.45281715
_cell_angle_alpha   69.55534130
_cell_angle_beta   76.25295831
_cell_angle_gamma   64.50927495
_symmetry_Int_Tables_number   1
_chemical_formula_structural   LaNd(SeO3)3
_chemical_formula_sum   'La2 Nd2 Se6 O18'
_cell_volume   469.29080118
_cell_formula_units_Z   2
loop_
 _symmetry_equiv_pos_site_id
 _symmetry_equiv_pos_as_xyz
  1  'x, y, z'
loop_
 _atom_site_type_symbol
 _atom_site_label
 _atom_site_symmetry_multiplicity
 _atom_site_fract_x
 _atom_site_fract_y
 _atom_site_fract_z
 _atom_site_occupancy
  La  La0  1  0.630372  0.347835  0.325433  1
  La  La1  1  0.369628  0.652165  0.674567  1
  Nd  Nd2  1  0.231353  0.308816  0.126217  1
  Nd  Nd3  1  0.768647  0.691184  0.873783  1
  Se  Se4  1  0.452155  0.175132  0.748554  1
  Se  Se5  1  0.191761  0.760995  0.032245  1
  Se  Se6  1  0.862989  0.780635  0.496317  1
  Se  Se7  1  0.808239  0.239005  0.967755  1
  Se  Se8  1  0.547845  0.824868  0.251446  1
  Se  Se9  1  0.137011  0.219365  0.503683  1
  O  O10  1  0.670982  0.020342  0.835020  1
  O  O11  1  0.329018  0.979658  0.164980  1
  O  O12  1  0.638147  0.791243  0.620273  1
  O  O13  1  0.361853  0.208757  0.379727  1
  O  O14  1  0.391685  0.777445  0.894221  1
  O  O15  1  0.327199  0.331210  0.858652  1
  O  O16  1  0.902977  0.346239  0.052701  1
  O  O17  1  0.534096  0.331806  0.595927  1
  O  O18  1  0.703797  0.437843  0.824140  1
  O  O19  1  0.097023  0.653761  0.947299  1
  O  O20  1  0.169714  0.990972  0.582353  1
  O  O21  1  0.023161  0.688537  0.643081  1
  O  O22  1  0.608315  0.222555  0.105779  1
  O  O23  1  0.672801  0.668790  0.141348  1
  O  O24  1  0.465904  0.668194  0.404073  1
  O  O25  1  0.296203  0.562157  0.175860  1
  O  O26  1  0.830286  0.009028  0.417647  1
  O  O27  1  0.976839  0.311463  0.356919  1
