# generated using pymatgen
data_Ho2ErGa6Co4Ni5
_symmetry_space_group_name_H-M   'P 1'
_cell_length_a   8.68299400
_cell_length_b   8.71371589
_cell_length_c   4.06725400
_cell_angle_alpha   90.00000000
_cell_angle_beta   90.00000000
_cell_angle_gamma   120.21433210
_symmetry_Int_Tables_number   1
_chemical_formula_structural   Ho2ErGa6Co4Ni5
_chemical_formula_sum   'Ho2 Er1 Ga6 Co4 Ni5'
_cell_volume   265.92722223
_cell_formula_units_Z   1
loop_
 _symmetry_equiv_pos_site_id
 _symmetry_equiv_pos_as_xyz
  1  'x, y, z'
loop_
 _atom_site_type_symbol
 _atom_site_label
 _atom_site_symmetry_multiplicity
 _atom_site_fract_x
 _atom_site_fract_y
 _atom_site_fract_z
 _atom_site_occupancy
  Ho  Ho0  1  0.667503  0.334512  0.500000  1
  Ho  Ho1  1  0.331218  0.669410  0.500000  1
  Er  Er2  1  0.002180  0.000292  0.000000  1
  Ga  Ga3  1  0.490318  0.487152  0.000000  1
  Ga  Ga4  1  0.510489  0.000756  0.000000  1
  Ga  Ga5  1  0.996237  0.509311  0.000000  1
  Ga  Ga6  1  0.726492  0.726613  0.500000  1
  Ga  Ga7  1  0.273558  0.999142  0.500000  1
  Ga  Ga8  1  0.000533  0.271328  0.500000  1
  Co  Co9  1  0.823661  0.188713  0.000000  1
  Co  Co10  1  0.812712  0.637440  0.000000  1
  Co  Co11  1  0.366169  0.175899  0.000000  1
  Co  Co12  1  0.187802  0.821163  0.000000  1
  Ni  Ni13  1  0.630663  0.809220  0.000000  1
  Ni  Ni14  1  0.178914  0.371891  0.000000  1
  Ni  Ni15  1  0.296966  0.294661  0.500000  1
  Ni  Ni16  1  0.705478  0.000776  0.500000  1
  Ni  Ni17  1  0.999105  0.701722  0.500000  1
