# generated using pymatgen
data_Ba3MgU2O9
_symmetry_space_group_name_H-M   'P 1'
_cell_length_a   6.08274200
_cell_length_b   6.08274192
_cell_length_c   7.50177000
_cell_angle_alpha   90.00000000
_cell_angle_beta   90.00000000
_cell_angle_gamma   120.00000046
_symmetry_Int_Tables_number   1
_chemical_formula_structural   Ba3MgU2O9
_chemical_formula_sum   'Ba3 Mg1 U2 O9'
_cell_volume   240.37713851
_cell_formula_units_Z   1
loop_
 _symmetry_equiv_pos_site_id
 _symmetry_equiv_pos_as_xyz
  1  'x, y, z'
loop_
 _atom_site_type_symbol
 _atom_site_label
 _atom_site_symmetry_multiplicity
 _atom_site_fract_x
 _atom_site_fract_y
 _atom_site_fract_z
 _atom_site_occupancy
  Ba  Ba0  1  0.000000  0.000000  0.000000  1
  Ba  Ba1  1  0.333333  0.666667  0.653095  1
  Ba  Ba2  1  0.666667  0.333333  0.346905  1
  Mg  Mg3  1  0.000000  0.000000  0.500000  1
  U  U4  1  0.333333  0.666667  0.177483  1
  U  U5  1  0.666667  0.333333  0.822517  1
  O  O6  1  0.832316  0.167684  0.666058  1
  O  O7  1  0.832316  0.664632  0.666058  1
  O  O8  1  0.335368  0.167684  0.666058  1
  O  O9  1  0.664632  0.832316  0.333942  1
  O  O10  1  0.167684  0.335368  0.333942  1
  O  O11  1  0.167684  0.832316  0.333942  1
  O  O12  1  0.500000  0.000000  0.000000  1
  O  O13  1  0.000000  0.500000  0.000000  1
  O  O14  1  0.500000  0.500000  0.000000  1
