# generated using pymatgen
data_Ca4AlSnPd4
_symmetry_space_group_name_H-M   'P 1'
_cell_length_a   5.80415529
_cell_length_b   5.80415578
_cell_length_c   8.07357911
_cell_angle_alpha   78.47887334
_cell_angle_beta   78.47887284
_cell_angle_gamma   60.03910120
_symmetry_Int_Tables_number   1
_chemical_formula_structural   Ca4AlSnPd4
_chemical_formula_sum   'Ca4 Al1 Sn1 Pd4'
_cell_volume   229.28341028
_cell_formula_units_Z   1
loop_
 _symmetry_equiv_pos_site_id
 _symmetry_equiv_pos_as_xyz
  1  'x, y, z'
loop_
 _atom_site_type_symbol
 _atom_site_label
 _atom_site_symmetry_multiplicity
 _atom_site_fract_x
 _atom_site_fract_y
 _atom_site_fract_z
 _atom_site_occupancy
  Ca  Ca0  1  0.784370  0.515437  0.349194  1
  Ca  Ca1  1  0.484563  0.215630  0.150806  1
  Ca  Ca2  1  0.213851  0.485388  0.649584  1
  Ca  Ca3  1  0.514612  0.786149  0.850416  1
  Al  Al4  1  0.879934  0.120066  0.750000  1
  Sn  Sn5  1  0.146362  0.853638  0.250000  1
  Pd  Pd6  1  0.996056  0.739623  0.989405  1
  Pd  Pd7  1  0.260377  0.003944  0.510595  1
  Pd  Pd8  1  0.986743  0.266869  0.985836  1
  Pd  Pd9  1  0.733131  0.013257  0.514164  1
