# generated using pymatgen
data_La2Al2ZnSiPt2
_symmetry_space_group_name_H-M   'P 1'
_cell_length_a   9.26756072
_cell_length_b   9.26755953
_cell_length_c   4.20074200
_cell_angle_alpha   90.00000000
_cell_angle_beta   90.00000000
_cell_angle_gamma   152.25692067
_symmetry_Int_Tables_number   1
_chemical_formula_structural   La2Al2ZnSiPt2
_chemical_formula_sum   'La2 Al2 Zn1 Si1 Pt2'
_cell_volume   167.95140001
_cell_formula_units_Z   1
loop_
 _symmetry_equiv_pos_site_id
 _symmetry_equiv_pos_as_xyz
  1  'x, y, z'
loop_
 _atom_site_type_symbol
 _atom_site_label
 _atom_site_symmetry_multiplicity
 _atom_site_fract_x
 _atom_site_fract_y
 _atom_site_fract_z
 _atom_site_occupancy
  La  La0  1  0.102821  0.897179  0.250000  1
  La  La1  1  0.898221  0.101779  0.750000  1
  Al  Al2  1  0.754369  0.245631  0.250000  1
  Al  Al3  1  0.246895  0.753105  0.750000  1
  Zn  Zn4  1  0.533275  0.466725  0.750000  1
  Si  Si5  1  0.461866  0.538134  0.250000  1
  Pt  Pt6  1  0.675753  0.324247  0.750000  1
  Pt  Pt7  1  0.326800  0.673200  0.250000  1
