# generated using pymatgen
data_Tb6Al24FeCoRu6
_symmetry_space_group_name_H-M   'P 1'
_cell_length_a   8.77147400
_cell_length_b   8.77147373
_cell_length_c   9.54022400
_cell_angle_alpha   90.00000000
_cell_angle_beta   90.00000000
_cell_angle_gamma   120.00000102
_symmetry_Int_Tables_number   1
_chemical_formula_structural   Tb6Al24FeCoRu6
_chemical_formula_sum   'Tb6 Al24 Fe1 Co1 Ru6'
_cell_volume   635.67385065
_cell_formula_units_Z   1
loop_
 _symmetry_equiv_pos_site_id
 _symmetry_equiv_pos_as_xyz
  1  'x, y, z'
loop_
 _atom_site_type_symbol
 _atom_site_label
 _atom_site_symmetry_multiplicity
 _atom_site_fract_x
 _atom_site_fract_y
 _atom_site_fract_z
 _atom_site_occupancy
  Tb  Tb0  1  0.386685  0.193343  0.250017  1
  Tb  Tb1  1  0.806657  0.193343  0.250017  1
  Tb  Tb2  1  0.806657  0.613315  0.250017  1
  Tb  Tb3  1  0.613315  0.806657  0.749983  1
  Tb  Tb4  1  0.193343  0.806657  0.749983  1
  Tb  Tb5  1  0.193343  0.386685  0.749983  1
  Al  Al6  1  0.438439  0.876878  0.250004  1
  Al  Al7  1  0.123122  0.561561  0.250004  1
  Al  Al8  1  0.438439  0.561561  0.250004  1
  Al  Al9  1  0.561561  0.123122  0.749996  1
  Al  Al10  1  0.876878  0.438439  0.749996  1
  Al  Al11  1  0.561561  0.438439  0.749996  1
  Al  Al12  1  0.159257  0.840743  0.424011  1
  Al  Al13  1  0.159257  0.318517  0.424011  1
  Al  Al14  1  0.681483  0.840743  0.424011  1
  Al  Al15  1  0.840743  0.159257  0.575989  1
  Al  Al16  1  0.840743  0.681483  0.575989  1
  Al  Al17  1  0.318517  0.159257  0.575989  1
  Al  Al18  1  0.840076  0.159924  0.923772  1
  Al  Al19  1  0.840076  0.680150  0.923772  1
  Al  Al20  1  0.319850  0.159924  0.923772  1
  Al  Al21  1  0.159924  0.840076  0.076228  1
  Al  Al22  1  0.159924  0.319850  0.076228  1
  Al  Al23  1  0.680150  0.840076  0.076228  1
  Al  Al24  1  0.333333  0.666667  0.514490  1
  Al  Al25  1  0.666667  0.333333  0.485510  1
  Al  Al26  1  0.666667  0.333333  0.014325  1
  Al  Al27  1  0.333333  0.666667  0.985675  1
  Al  Al28  1  0.000000  0.000000  0.250043  1
  Al  Al29  1  0.000000  0.000000  0.749957  1
  Fe  Fe30  1  0.000000  0.000000  0.500000  1
  Co  Co31  1  0.000000  0.000000  0.000000  1
  Ru  Ru32  1  0.500000  0.000000  0.500000  1
  Ru  Ru33  1  0.000000  0.500000  0.500000  1
  Ru  Ru34  1  0.500000  0.500000  0.500000  1
  Ru  Ru35  1  0.500000  0.000000  0.000000  1
  Ru  Ru36  1  0.000000  0.500000  0.000000  1
  Ru  Ru37  1  0.500000  0.500000  0.000000  1
