# generated using pymatgen
data_Y5Tm3(Ni4As3)4
_symmetry_space_group_name_H-M   'P 1'
_cell_length_a   12.85148900
_cell_length_b   12.85148843
_cell_length_c   3.94850100
_cell_angle_alpha   90.00000000
_cell_angle_beta   90.00000000
_cell_angle_gamma   120.00000405
_symmetry_Int_Tables_number   1
_chemical_formula_structural   Y5Tm3(Ni4As3)4
_chemical_formula_sum   'Y5 Tm3 Ni16 As12'
_cell_volume   564.76756201
_cell_formula_units_Z   1
loop_
 _symmetry_equiv_pos_site_id
 _symmetry_equiv_pos_as_xyz
  1  'x, y, z'
loop_
 _atom_site_type_symbol
 _atom_site_label
 _atom_site_symmetry_multiplicity
 _atom_site_fract_x
 _atom_site_fract_y
 _atom_site_fract_z
 _atom_site_occupancy
  Y  Y0  1  0.181998  0.181998  0.500000  1
  Y  Y1  1  0.818002  0.000000  0.500000  1
  Y  Y2  1  0.000000  0.818002  0.500000  1
  Y  Y3  1  0.333333  0.666667  0.000000  1
  Y  Y4  1  0.666667  0.333333  0.000000  1
  Tm  Tm5  1  0.565206  0.565206  0.000000  1
  Tm  Tm6  1  0.434794  0.000000  0.000000  1
  Tm  Tm7  1  0.000000  0.434794  0.000000  1
  Ni  Ni8  1  0.724807  0.724807  0.500000  1
  Ni  Ni9  1  0.275193  0.000000  0.500000  1
  Ni  Ni10  1  0.000000  0.275193  0.500000  1
  Ni  Ni11  1  0.186168  0.377394  0.000000  1
  Ni  Ni12  1  0.622606  0.808775  0.000000  1
  Ni  Ni13  1  0.191225  0.813832  0.000000  1
  Ni  Ni14  1  0.808775  0.622606  0.000000  1
  Ni  Ni15  1  0.813832  0.191225  0.000000  1
  Ni  Ni16  1  0.377394  0.186168  0.000000  1
  Ni  Ni17  1  0.362017  0.481122  0.500000  1
  Ni  Ni18  1  0.518878  0.880896  0.500000  1
  Ni  Ni19  1  0.119104  0.637983  0.500000  1
  Ni  Ni20  1  0.880896  0.518878  0.500000  1
  Ni  Ni21  1  0.637983  0.119104  0.500000  1
  Ni  Ni22  1  0.481122  0.362017  0.500000  1
  Ni  Ni23  1  0.000000  0.000000  0.000000  1
  As  As24  1  0.822096  0.822096  0.000000  1
  As  As25  1  0.177904  0.000000  0.000000  1
  As  As26  1  0.000000  0.177904  0.000000  1
  As  As27  1  0.175164  0.478074  0.500000  1
  As  As28  1  0.521926  0.697090  0.500000  1
  As  As29  1  0.302910  0.824836  0.500000  1
  As  As30  1  0.697090  0.521926  0.500000  1
  As  As31  1  0.824836  0.302910  0.500000  1
  As  As32  1  0.478074  0.175164  0.500000  1
  As  As33  1  0.351960  0.351960  0.000000  1
  As  As34  1  0.648040  0.000000  0.000000  1
  As  As35  1  0.000000  0.648040  0.000000  1
