# generated using pymatgen
data_Li3V2Co3Ni6P7
_symmetry_space_group_name_H-M   'P 1'
_cell_length_a   9.01212701
_cell_length_b   8.98407004
_cell_length_c   3.54791100
_cell_angle_alpha   90.00000000
_cell_angle_beta   90.00000000
_cell_angle_gamma   119.81709194
_symmetry_Int_Tables_number   1
_chemical_formula_structural   Li3V2Co3Ni6P7
_chemical_formula_sum   'Li3 V2 Co3 Ni6 P7'
_cell_volume   249.23055450
_cell_formula_units_Z   1
loop_
 _symmetry_equiv_pos_site_id
 _symmetry_equiv_pos_as_xyz
  1  'x, y, z'
loop_
 _atom_site_type_symbol
 _atom_site_label
 _atom_site_symmetry_multiplicity
 _atom_site_fract_x
 _atom_site_fract_y
 _atom_site_fract_z
 _atom_site_occupancy
  Li  Li0  1  0.221766  0.098802  0.500000  1
  Li  Li1  1  0.335729  0.667452  0.000000  1
  Li  Li2  1  0.665984  0.332183  0.500000  1
  V  V3  1  0.869541  0.776298  0.500000  1
  V  V4  1  0.905283  0.121916  0.500000  1
  Co  Co5  1  0.713173  0.877461  0.000000  1
  Co  Co6  1  0.564183  0.954371  0.500000  1
  Co  Co7  1  0.392468  0.434810  0.500000  1
  Ni  Ni8  1  0.165225  0.281432  0.000000  1
  Ni  Ni9  1  0.120698  0.840648  0.000000  1
  Ni  Ni10  1  0.626899  0.569696  0.000000  1
  Ni  Ni11  1  0.937026  0.372083  0.000000  1
  Ni  Ni12  1  0.432398  0.061159  0.000000  1
  Ni  Ni13  1  0.053663  0.612190  0.500000  1
  P  P14  1  0.577994  0.712883  0.500000  1
  P  P15  1  0.130249  0.414070  0.500000  1
  P  P16  1  0.294427  0.874082  0.500000  1
  P  P17  1  0.990567  0.995854  0.000000  1
  P  P18  1  0.878531  0.583214  0.000000  1
  P  P19  1  0.700588  0.117216  0.000000  1
  P  P20  1  0.423608  0.302180  0.000000  1
