# generated using pymatgen
data_Tm4Mn8Co12SiP11
_symmetry_space_group_name_H-M   'P 1'
_cell_length_a   3.60212500
_cell_length_b   10.33553037
_cell_length_c   11.99124095
_cell_angle_alpha   90.09277476
_cell_angle_beta   90.00000000
_cell_angle_gamma   90.00000000
_symmetry_Int_Tables_number   1
_chemical_formula_structural   Tm4Mn8Co12SiP11
_chemical_formula_sum   'Tm4 Mn8 Co12 Si1 P11'
_cell_volume   446.43178445
_cell_formula_units_Z   1
loop_
 _symmetry_equiv_pos_site_id
 _symmetry_equiv_pos_as_xyz
  1  'x, y, z'
loop_
 _atom_site_type_symbol
 _atom_site_label
 _atom_site_symmetry_multiplicity
 _atom_site_fract_x
 _atom_site_fract_y
 _atom_site_fract_z
 _atom_site_occupancy
  Tm  Tm0  1  0.250000  0.582881  0.707822  1
  Tm  Tm1  1  0.250000  0.916362  0.209523  1
  Tm  Tm2  1  0.750000  0.417164  0.292156  1
  Tm  Tm3  1  0.750000  0.083921  0.791449  1
  Mn  Mn4  1  0.250000  0.714259  0.991137  1
  Mn  Mn5  1  0.250000  0.785799  0.490640  1
  Mn  Mn6  1  0.750000  0.285795  0.009611  1
  Mn  Mn7  1  0.750000  0.214110  0.509649  1
  Mn  Mn8  1  0.250000  0.407075  0.491246  1
  Mn  Mn9  1  0.250000  0.092995  0.991751  1
  Mn  Mn10  1  0.750000  0.593185  0.508743  1
  Mn  Mn11  1  0.750000  0.907319  0.009055  1
  Co  Co12  1  0.250000  0.215420  0.179526  1
  Co  Co13  1  0.250000  0.277784  0.676922  1
  Co  Co14  1  0.750000  0.778817  0.822370  1
  Co  Co15  1  0.750000  0.722183  0.323768  1
  Co  Co16  1  0.250000  0.883409  0.696087  1
  Co  Co17  1  0.250000  0.619696  0.196761  1
  Co  Co18  1  0.750000  0.115486  0.305582  1
  Co  Co19  1  0.750000  0.382289  0.802626  1
  Co  Co20  1  0.250000  0.467654  0.928829  1
  Co  Co21  1  0.250000  0.034199  0.434276  1
  Co  Co22  1  0.750000  0.538364  0.063954  1
  Co  Co23  1  0.750000  0.965734  0.567100  1
  Si  Si24  1  0.250000  0.416557  0.110298  1
  P  P25  1  0.250000  0.081103  0.612523  1
  P  P26  1  0.750000  0.581074  0.886304  1
  P  P27  1  0.750000  0.918670  0.388624  1
  P  P28  1  0.250000  0.268868  0.868114  1
  P  P29  1  0.250000  0.231782  0.367780  1
  P  P30  1  0.750000  0.731948  0.133141  1
  P  P31  1  0.750000  0.768169  0.632403  1
  P  P32  1  0.250000  0.598268  0.382569  1
  P  P33  1  0.250000  0.902212  0.882915  1
  P  P34  1  0.750000  0.401477  0.616683  1
  P  P35  1  0.750000  0.097974  0.118063  1
