# generated using pymatgen
data_Tb9Sm8Tm3Pb16
_symmetry_space_group_name_H-M   'P 1'
_cell_length_a   8.23217400
_cell_length_b   8.34817819
_cell_length_c   15.78354900
_cell_angle_alpha   90.00000000
_cell_angle_beta   90.00000000
_cell_angle_gamma   89.98781084
_symmetry_Int_Tables_number   1
_chemical_formula_structural   Tb9Sm8Tm3Pb16
_chemical_formula_sum   'Tb9 Sm8 Tm3 Pb16'
_cell_volume   1084.70315846
_cell_formula_units_Z   1
loop_
 _symmetry_equiv_pos_site_id
 _symmetry_equiv_pos_as_xyz
  1  'x, y, z'
loop_
 _atom_site_type_symbol
 _atom_site_label
 _atom_site_symmetry_multiplicity
 _atom_site_fract_x
 _atom_site_fract_y
 _atom_site_fract_z
 _atom_site_occupancy
  Tb  Tb0  1  0.628487  0.157966  0.621231  1
  Tb  Tb1  1  0.129557  0.341356  0.878692  1
  Tb  Tb2  1  0.370932  0.841934  0.121542  1
  Tb  Tb3  1  0.871101  0.657946  0.377981  1
  Tb  Tb4  1  0.370932  0.841934  0.378458  1
  Tb  Tb5  1  0.871101  0.657946  0.122019  1
  Tb  Tb6  1  0.628487  0.157966  0.878769  1
  Tb  Tb7  1  0.129557  0.341356  0.621308  1
  Tb  Tb8  1  0.795824  0.495764  0.750000  1
  Sm  Sm9  1  0.471799  0.678157  0.597900  1
  Sm  Sm10  1  0.972519  0.823159  0.902125  1
  Sm  Sm11  1  0.527967  0.322474  0.098395  1
  Sm  Sm12  1  0.027950  0.177495  0.402045  1
  Sm  Sm13  1  0.527967  0.322474  0.401605  1
  Sm  Sm14  1  0.027950  0.177495  0.097955  1
  Sm  Sm15  1  0.471799  0.678157  0.902100  1
  Sm  Sm16  1  0.972519  0.823159  0.597875  1
  Tm  Tm17  1  0.295129  0.005168  0.750000  1
  Tm  Tm18  1  0.204482  0.504948  0.250000  1
  Tm  Tm19  1  0.704437  0.994998  0.250000  1
  Pb  Pb20  1  0.712181  0.962564  0.456055  1
  Pb  Pb21  1  0.212090  0.536789  0.043964  1
  Pb  Pb22  1  0.287950  0.036854  0.956359  1
  Pb  Pb23  1  0.787992  0.462773  0.542854  1
  Pb  Pb24  1  0.287950  0.036854  0.543641  1
  Pb  Pb25  1  0.787992  0.462773  0.957146  1
  Pb  Pb26  1  0.712181  0.962564  0.043945  1
  Pb  Pb27  1  0.212090  0.536789  0.456036  1
  Pb  Pb28  1  0.431721  0.373342  0.750000  1
  Pb  Pb29  1  0.933471  0.124711  0.750000  1
  Pb  Pb30  1  0.566153  0.625836  0.250000  1
  Pb  Pb31  1  0.066689  0.874473  0.250000  1
  Pb  Pb32  1  0.659307  0.848556  0.750000  1
  Pb  Pb33  1  0.160130  0.654238  0.750000  1
  Pb  Pb34  1  0.340499  0.153819  0.250000  1
  Pb  Pb35  1  0.841109  0.345212  0.250000  1
