# generated using pymatgen
data_Ho9Er(SiBi)4
_symmetry_space_group_name_H-M   'P 1'
_cell_length_a   8.61501254
_cell_length_b   8.61501193
_cell_length_c   7.88333600
_cell_angle_alpha   90.00049778
_cell_angle_beta   90.00049301
_cell_angle_gamma   125.66646189
_symmetry_Int_Tables_number   1
_chemical_formula_structural   Ho9Er(SiBi)4
_chemical_formula_sum   'Ho9 Er1 Si4 Bi4'
_cell_volume   475.34080164
_cell_formula_units_Z   1
loop_
 _symmetry_equiv_pos_site_id
 _symmetry_equiv_pos_as_xyz
  1  'x, y, z'
loop_
 _atom_site_type_symbol
 _atom_site_label
 _atom_site_symmetry_multiplicity
 _atom_site_fract_x
 _atom_site_fract_y
 _atom_site_fract_z
 _atom_site_occupancy
  Ho  Ho0  1  0.043403  0.286661  0.335160  1
  Ho  Ho1  1  0.956597  0.713339  0.664840  1
  Ho  Ho2  1  0.456424  0.213151  0.835294  1
  Ho  Ho3  1  0.786849  0.543576  0.164706  1
  Ho  Ho4  1  0.543576  0.786849  0.164706  1
  Ho  Ho5  1  0.213151  0.456424  0.835294  1
  Ho  Ho6  1  0.713339  0.956597  0.664840  1
  Ho  Ho7  1  0.286661  0.043403  0.335160  1
  Ho  Ho8  1  0.500000  0.500000  0.500000  1
  Er  Er9  1  0.000000  0.000000  0.000000  1
  Si  Si10  1  0.365858  0.365858  0.132624  1
  Si  Si11  1  0.634142  0.634142  0.867376  1
  Si  Si12  1  0.133859  0.133859  0.632947  1
  Si  Si13  1  0.866141  0.866141  0.367053  1
  Bi  Bi14  1  0.792479  0.207521  0.000000  1
  Bi  Bi15  1  0.207521  0.792479  0.000000  1
  Bi  Bi16  1  0.707713  0.292287  0.500000  1
  Bi  Bi17  1  0.292287  0.707713  0.500000  1
