# generated using pymatgen
data_Ac6Cu3Ni3P17
_symmetry_space_group_name_H-M   'P 1'
_cell_length_a   9.05264721
_cell_length_b   9.05918781
_cell_length_c   9.05264757
_cell_angle_alpha   109.14530229
_cell_angle_beta   109.61617909
_cell_angle_gamma   109.62349871
_symmetry_Int_Tables_number   1
_chemical_formula_structural   Ac6Cu3Ni3P17
_chemical_formula_sum   'Ac6 Cu3 Ni3 P17'
_cell_volume   571.69550061
_cell_formula_units_Z   1
loop_
 _symmetry_equiv_pos_site_id
 _symmetry_equiv_pos_as_xyz
  1  'x, y, z'
loop_
 _atom_site_type_symbol
 _atom_site_label
 _atom_site_symmetry_multiplicity
 _atom_site_fract_x
 _atom_site_fract_y
 _atom_site_fract_z
 _atom_site_occupancy
  Ac  Ac0  1  0.707760  0.000000  0.707760  1
  Ac  Ac1  1  0.292168  0.292952  0.999681  1
  Ac  Ac2  1  0.706729  0.707048  0.999216  1
  Ac  Ac3  1  0.001276  0.291830  0.292749  1
  Ac  Ac4  1  0.000919  0.708170  0.709446  1
  Ac  Ac5  1  0.293280  0.000000  0.293280  1
  Cu  Cu6  1  0.748986  0.500000  0.248986  1
  Cu  Cu7  1  0.251513  0.750450  0.500844  1
  Cu  Cu8  1  0.750394  0.249550  0.501063  1
  Ni  Ni9  1  0.498001  0.251317  0.750396  1
  Ni  Ni10  1  0.499079  0.748683  0.246683  1
  Ni  Ni11  1  0.253200  0.500000  0.753200  1
  P  P12  1  0.000315  0.000000  0.000315  1
  P  P13  1  0.568447  0.567961  0.567042  1
  P  P14  1  0.999081  0.432039  0.000487  1
  P  P15  1  0.430456  0.995529  0.997337  1
  P  P16  1  0.001807  0.004471  0.434927  1
  P  P17  1  0.369905  0.370919  0.604133  1
  P  P18  1  0.008161  0.237139  0.634237  1
  P  P19  1  0.233707  0.006269  0.632177  1
  P  P20  1  0.764107  0.397034  0.772867  1
  P  P21  1  0.397098  0.762861  0.771022  1
  P  P22  1  0.599013  0.371483  0.371793  1
  P  P23  1  0.000310  0.628517  0.227530  1
  P  P24  1  0.766052  0.774631  0.397912  1
  P  P25  1  0.623281  0.225369  0.991421  1
  P  P26  1  0.233213  0.629081  0.998986  1
  P  P27  1  0.375833  0.602966  0.367073  1
  P  P28  1  0.625909  0.993731  0.227438  1
