# generated using pymatgen
data_Tb3Ho2TlBi2
_symmetry_space_group_name_H-M   'P 1'
_cell_length_a   9.11223300
_cell_length_b   9.11223075
_cell_length_c   6.51528600
_cell_angle_alpha   90.00000000
_cell_angle_beta   90.00000000
_cell_angle_gamma   119.76802573
_symmetry_Int_Tables_number   1
_chemical_formula_structural   Tb3Ho2TlBi2
_chemical_formula_sum   'Tb6 Ho4 Tl2 Bi4'
_cell_volume   469.59566346
_cell_formula_units_Z   2
loop_
 _symmetry_equiv_pos_site_id
 _symmetry_equiv_pos_as_xyz
  1  'x, y, z'
loop_
 _atom_site_type_symbol
 _atom_site_label
 _atom_site_symmetry_multiplicity
 _atom_site_fract_x
 _atom_site_fract_y
 _atom_site_fract_z
 _atom_site_occupancy
  Tb  Tb0  1  0.760772  0.760772  0.750000  1
  Tb  Tb1  1  0.236279  0.998248  0.750000  1
  Tb  Tb2  1  0.998248  0.236279  0.750000  1
  Tb  Tb3  1  0.235739  0.235739  0.250000  1
  Tb  Tb4  1  0.764501  0.008015  0.250000  1
  Tb  Tb5  1  0.008015  0.764501  0.250000  1
  Ho  Ho6  1  0.668901  0.329161  0.003458  1
  Ho  Ho7  1  0.329161  0.668901  0.003458  1
  Ho  Ho8  1  0.329161  0.668901  0.496542  1
  Ho  Ho9  1  0.668901  0.329161  0.496542  1
  Tl  Tl10  1  0.395975  0.001758  0.250000  1
  Tl  Tl11  1  0.001758  0.395975  0.250000  1
  Bi  Bi12  1  0.393974  0.393974  0.750000  1
  Bi  Bi13  1  0.603155  0.997090  0.750000  1
  Bi  Bi14  1  0.997090  0.603155  0.750000  1
  Bi  Bi15  1  0.608372  0.608372  0.250000  1
