# generated using pymatgen
data_Sc6Zn16Au7S
_symmetry_space_group_name_H-M   'P 1'
_cell_length_a   8.87772746
_cell_length_b   8.88457340
_cell_length_c   8.88461202
_cell_angle_alpha   60.00008117
_cell_angle_beta   59.97674866
_cell_angle_gamma   59.97636968
_symmetry_Int_Tables_number   1
_chemical_formula_structural   Sc6Zn16Au7S
_chemical_formula_sum   'Sc6 Zn16 Au7 S1'
_cell_volume   495.34542757
_cell_formula_units_Z   1
loop_
 _symmetry_equiv_pos_site_id
 _symmetry_equiv_pos_as_xyz
  1  'x, y, z'
loop_
 _atom_site_type_symbol
 _atom_site_label
 _atom_site_symmetry_multiplicity
 _atom_site_fract_x
 _atom_site_fract_y
 _atom_site_fract_z
 _atom_site_occupancy
  Sc  Sc0  1  0.707833  0.292547  0.292549  1
  Sc  Sc1  1  0.291473  0.705813  0.705813  1
  Sc  Sc2  1  0.291474  0.705819  0.296892  1
  Sc  Sc3  1  0.707838  0.292540  0.707079  1
  Sc  Sc4  1  0.291474  0.296895  0.705815  1
  Sc  Sc5  1  0.707829  0.707074  0.292548  1
  Zn  Zn6  1  0.364046  0.878651  0.878644  1
  Zn  Zn7  1  0.498421  0.998654  0.998653  1
  Zn  Zn8  1  0.999465  0.499810  0.499811  1
  Zn  Zn9  1  0.999465  0.499813  0.000912  1
  Zn  Zn10  1  0.498422  0.998654  0.504269  1
  Zn  Zn11  1  0.999465  0.000913  0.499812  1
  Zn  Zn12  1  0.498423  0.504269  0.998655  1
  Zn  Zn13  1  0.334468  0.334386  0.334388  1
  Zn  Zn14  1  0.664746  0.666361  0.666361  1
  Zn  Zn15  1  0.334474  0.334385  0.996752  1
  Zn  Zn16  1  0.334473  0.996760  0.334382  1
  Zn  Zn17  1  0.664743  0.666370  0.002524  1
  Zn  Zn18  1  0.664740  0.002533  0.666367  1
  Zn  Zn19  1  0.997334  0.334225  0.334224  1
  Zn  Zn20  1  0.001994  0.666000  0.666001  1
  Zn  Zn21  1  0.001689  0.999435  0.999442  1
  Au  Au22  1  0.125455  0.118469  0.118471  1
  Au  Au23  1  0.877781  0.878565  0.878563  1
  Au  Au24  1  0.125458  0.118460  0.637618  1
  Au  Au25  1  0.125461  0.637611  0.118462  1
  Au  Au26  1  0.877773  0.878570  0.365093  1
  Au  Au27  1  0.877773  0.365088  0.878572  1
  Au  Au28  1  0.633568  0.122144  0.122147  1
  S  S29  1  0.502441  0.499187  0.499186  1
