# generated using pymatgen
data_Tb3Tm(ZrPt)4
_symmetry_space_group_name_H-M   'P 1'
_cell_length_a   4.69581500
_cell_length_b   7.15317695
_cell_length_c   8.24539635
_cell_angle_alpha   89.94101651
_cell_angle_beta   90.00000000
_cell_angle_gamma   90.00000000
_symmetry_Int_Tables_number   1
_chemical_formula_structural   Tb3Tm(ZrPt)4
_chemical_formula_sum   'Tb3 Tm1 Zr4 Pt4'
_cell_volume   276.96268058
_cell_formula_units_Z   1
loop_
 _symmetry_equiv_pos_site_id
 _symmetry_equiv_pos_as_xyz
  1  'x, y, z'
loop_
 _atom_site_type_symbol
 _atom_site_label
 _atom_site_symmetry_multiplicity
 _atom_site_fract_x
 _atom_site_fract_y
 _atom_site_fract_z
 _atom_site_occupancy
  Tb  Tb0  1  0.250000  0.485381  0.177851  1
  Tb  Tb1  1  0.750000  0.014947  0.679443  1
  Tb  Tb2  1  0.250000  0.985256  0.321394  1
  Tm  Tm3  1  0.750000  0.516114  0.821643  1
  Zr  Zr4  1  0.750000  0.647923  0.420480  1
  Zr  Zr5  1  0.250000  0.351938  0.582030  1
  Zr  Zr6  1  0.750000  0.149297  0.079403  1
  Zr  Zr7  1  0.250000  0.850790  0.919303  1
  Pt  Pt8  1  0.750000  0.272650  0.407385  1
  Pt  Pt9  1  0.250000  0.725766  0.594064  1
  Pt  Pt10  1  0.750000  0.771559  0.090346  1
  Pt  Pt11  1  0.250000  0.228384  0.906658  1
