# generated using pymatgen
data_Er7Lu(ScBi3)2
_symmetry_space_group_name_H-M   'P 1'
_cell_length_a   8.06893239
_cell_length_b   9.36907901
_cell_length_c   11.86495294
_cell_angle_alpha   89.99753556
_cell_angle_beta   89.89529680
_cell_angle_gamma   90.00429792
_symmetry_Int_Tables_number   1
_chemical_formula_structural   Er7Lu(ScBi3)2
_chemical_formula_sum   'Er14 Lu2 Sc4 Bi12'
_cell_volume   896.97072883
_cell_formula_units_Z   2
loop_
 _symmetry_equiv_pos_site_id
 _symmetry_equiv_pos_as_xyz
  1  'x, y, z'
loop_
 _atom_site_type_symbol
 _atom_site_label
 _atom_site_symmetry_multiplicity
 _atom_site_fract_x
 _atom_site_fract_y
 _atom_site_fract_z
 _atom_site_occupancy
  Er  Er0  1  0.355628  0.250333  0.283969  1
  Er  Er1  1  0.644372  0.749667  0.716031  1
  Er  Er2  1  0.145530  0.749592  0.783525  1
  Er  Er3  1  0.854470  0.250408  0.216475  1
  Er  Er4  1  0.185562  0.249985  0.781043  1
  Er  Er5  1  0.814438  0.750015  0.218957  1
  Er  Er6  1  0.314291  0.749709  0.281360  1
  Er  Er7  1  0.685709  0.250291  0.718640  1
  Er  Er8  1  0.195013  0.066008  0.058672  1
  Er  Er9  1  0.804987  0.933992  0.941328  1
  Er  Er10  1  0.305239  0.934145  0.558392  1
  Er  Er11  1  0.804672  0.565809  0.941373  1
  Er  Er12  1  0.694761  0.065855  0.441608  1
  Er  Er13  1  0.195328  0.434191  0.058627  1
  Lu  Lu14  1  0.696317  0.432265  0.441378  1
  Lu  Lu15  1  0.303683  0.567735  0.558622  1
  Sc  Sc16  1  0.023675  0.249903  0.512850  1
  Sc  Sc17  1  0.976325  0.750097  0.487150  1
  Sc  Sc18  1  0.475732  0.750770  0.013172  1
  Sc  Sc19  1  0.524268  0.249230  0.986828  1
  Bi  Bi20  1  0.400954  0.252619  0.543244  1
  Bi  Bi21  1  0.599046  0.747381  0.456756  1
  Bi  Bi22  1  0.098726  0.750045  0.042827  1
  Bi  Bi23  1  0.901274  0.249955  0.957173  1
  Bi  Bi24  1  0.065982  0.004147  0.330773  1
  Bi  Bi25  1  0.934018  0.995853  0.669227  1
  Bi  Bi26  1  0.434192  0.995972  0.830123  1
  Bi  Bi27  1  0.934560  0.504262  0.668952  1
  Bi  Bi28  1  0.565808  0.004028  0.169877  1
  Bi  Bi29  1  0.065440  0.495738  0.331048  1
  Bi  Bi30  1  0.565827  0.495997  0.169855  1
  Bi  Bi31  1  0.434173  0.504003  0.830145  1
