# generated using pymatgen
data_Hf5Sn2BiB
_symmetry_space_group_name_H-M   'P 1'
_cell_length_a   8.55095241
_cell_length_b   8.53026088
_cell_length_c   5.77856600
_cell_angle_alpha   90.00000000
_cell_angle_beta   90.00000000
_cell_angle_gamma   119.91998968
_symmetry_Int_Tables_number   1
_chemical_formula_structural   Hf5Sn2BiB
_chemical_formula_sum   'Hf10 Sn4 Bi2 B2'
_cell_volume   365.32306489
_cell_formula_units_Z   2
loop_
 _symmetry_equiv_pos_site_id
 _symmetry_equiv_pos_as_xyz
  1  'x, y, z'
loop_
 _atom_site_type_symbol
 _atom_site_label
 _atom_site_symmetry_multiplicity
 _atom_site_fract_x
 _atom_site_fract_y
 _atom_site_fract_z
 _atom_site_occupancy
  Hf  Hf0  1  0.669738  0.335558  0.003619  1
  Hf  Hf1  1  0.330262  0.665821  0.003619  1
  Hf  Hf2  1  0.330262  0.665821  0.496381  1
  Hf  Hf3  1  0.669738  0.335558  0.496381  1
  Hf  Hf4  1  0.778193  0.773069  0.750000  1
  Hf  Hf5  1  0.221807  0.994876  0.750000  1
  Hf  Hf6  1  0.000000  0.228764  0.750000  1
  Hf  Hf7  1  0.226438  0.226815  0.250000  1
  Hf  Hf8  1  0.773562  0.000376  0.250000  1
  Hf  Hf9  1  0.000000  0.771058  0.250000  1
  Sn  Sn10  1  0.000000  0.597782  0.750000  1
  Sn  Sn11  1  0.601628  0.602685  0.250000  1
  Sn  Sn12  1  0.398372  0.001057  0.250000  1
  Sn  Sn13  1  0.000000  0.399589  0.250000  1
  Bi  Bi14  1  0.401652  0.400776  0.750000  1
  Bi  Bi15  1  0.598348  0.999124  0.750000  1
  B  B16  1  0.000000  0.000634  0.000200  1
  B  B17  1  0.000000  0.000634  0.499800  1
