# generated using pymatgen
data_NaGd(SO4)2
_symmetry_space_group_name_H-M   'P 1'
_cell_length_a   5.20033500
_cell_length_b   5.20030083
_cell_length_c   8.05295800
_cell_angle_alpha   90.00122437
_cell_angle_beta   89.99770293
_cell_angle_gamma   120.00103848
_symmetry_Int_Tables_number   1
_chemical_formula_structural   NaGd(SO4)2
_chemical_formula_sum   'Na1 Gd1 S2 O8'
_cell_volume   188.59983568
_cell_formula_units_Z   1
loop_
 _symmetry_equiv_pos_site_id
 _symmetry_equiv_pos_as_xyz
  1  'x, y, z'
loop_
 _atom_site_type_symbol
 _atom_site_label
 _atom_site_symmetry_multiplicity
 _atom_site_fract_x
 _atom_site_fract_y
 _atom_site_fract_z
 _atom_site_occupancy
  Na  Na0  1  0.000000  0.000000  0.000000  1
  Gd  Gd1  1  0.000000  0.000000  0.500000  1
  S  S2  1  0.333340  0.666674  0.250253  1
  S  S3  1  0.666660  0.333325  0.749747  1
  O  O4  1  0.333339  0.666673  0.069722  1
  O  O5  1  0.280365  0.374640  0.317129  1
  O  O6  1  0.094303  0.719646  0.317127  1
  O  O7  1  0.625389  0.905721  0.317123  1
  O  O8  1  0.374609  0.094279  0.682877  1
  O  O9  1  0.905697  0.280354  0.682873  1
  O  O10  1  0.719635  0.625360  0.682871  1
  O  O11  1  0.666661  0.333326  0.930278  1
