# generated using pymatgen
data_Ba2NaSrBi6
_symmetry_space_group_name_H-M   'P 1'
_cell_length_a   6.98349252
_cell_length_b   7.03670802
_cell_length_c   15.14986700
_cell_angle_alpha   90.00000000
_cell_angle_beta   90.00000000
_cell_angle_gamma   87.23012889
_symmetry_Int_Tables_number   1
_chemical_formula_structural   Ba2NaSrBi6
_chemical_formula_sum   'Ba4 Na2 Sr2 Bi12'
_cell_volume   743.60676905
_cell_formula_units_Z   2
loop_
 _symmetry_equiv_pos_site_id
 _symmetry_equiv_pos_as_xyz
  1  'x, y, z'
loop_
 _atom_site_type_symbol
 _atom_site_label
 _atom_site_symmetry_multiplicity
 _atom_site_fract_x
 _atom_site_fract_y
 _atom_site_fract_z
 _atom_site_occupancy
  Ba  Ba0  1  0.528491  0.511871  0.234268  1
  Ba  Ba1  1  0.471509  0.488129  0.765732  1
  Ba  Ba2  1  0.971509  0.988129  0.234268  1
  Ba  Ba3  1  0.028491  0.011871  0.765732  1
  Na  Na4  1  0.750000  0.750000  0.003296  1
  Na  Na5  1  0.250000  0.250000  0.996704  1
  Sr  Sr6  1  0.750000  0.250000  0.502211  1
  Sr  Sr7  1  0.250000  0.750000  0.497789  1
  Bi  Bi8  1  0.750000  0.750000  0.438927  1
  Bi  Bi9  1  0.250000  0.250000  0.561073  1
  Bi  Bi10  1  0.750000  0.250000  0.025571  1
  Bi  Bi11  1  0.250000  0.750000  0.974429  1
  Bi  Bi12  1  0.027357  0.504578  0.144337  1
  Bi  Bi13  1  0.972643  0.495422  0.855663  1
  Bi  Bi14  1  0.066892  0.433009  0.349148  1
  Bi  Bi15  1  0.433108  0.066991  0.349148  1
  Bi  Bi16  1  0.933108  0.566991  0.650852  1
  Bi  Bi17  1  0.566892  0.933009  0.650852  1
  Bi  Bi18  1  0.472643  0.995422  0.144337  1
  Bi  Bi19  1  0.527357  0.004578  0.855663  1
