# generated using pymatgen
data_SrLa(TaSe2)6
_symmetry_space_group_name_H-M   'P 1'
_cell_length_a   6.09638100
_cell_length_b   6.09638141
_cell_length_c   15.36716600
_cell_angle_alpha   90.00000000
_cell_angle_beta   90.00000000
_cell_angle_gamma   120.00000321
_symmetry_Int_Tables_number   1
_chemical_formula_structural   SrLa(TaSe2)6
_chemical_formula_sum   'Sr1 La1 Ta6 Se12'
_cell_volume   494.61653553
_cell_formula_units_Z   1
loop_
 _symmetry_equiv_pos_site_id
 _symmetry_equiv_pos_as_xyz
  1  'x, y, z'
loop_
 _atom_site_type_symbol
 _atom_site_label
 _atom_site_symmetry_multiplicity
 _atom_site_fract_x
 _atom_site_fract_y
 _atom_site_fract_z
 _atom_site_occupancy
  Sr  Sr0  1  0.333333  0.666667  0.250000  1
  La  La1  1  0.666667  0.333333  0.750000  1
  Ta  Ta2  1  0.333333  0.666667  0.997249  1
  Ta  Ta3  1  0.000000  0.000000  0.996058  1
  Ta  Ta4  1  0.666667  0.333333  0.993279  1
  Ta  Ta5  1  0.333333  0.666667  0.502751  1
  Ta  Ta6  1  0.000000  0.000000  0.503942  1
  Ta  Ta7  1  0.666667  0.333333  0.506721  1
  Se  Se8  1  0.672137  0.664521  0.396735  1
  Se  Se9  1  0.665571  0.675145  0.612402  1
  Se  Se10  1  0.009574  0.675145  0.887598  1
  Se  Se11  1  0.665571  0.990426  0.887598  1
  Se  Se12  1  0.672137  0.007617  0.103265  1
  Se  Se13  1  0.335479  0.007617  0.396735  1
  Se  Se14  1  0.009574  0.334429  0.612402  1
  Se  Se15  1  0.324855  0.990426  0.612402  1
  Se  Se16  1  0.992383  0.664521  0.103265  1
  Se  Se17  1  0.324855  0.334429  0.887598  1
  Se  Se18  1  0.992383  0.327863  0.396735  1
  Se  Se19  1  0.335479  0.327863  0.103265  1
