# generated using pymatgen
data_Zr12Al4Ir7RuN4
_symmetry_space_group_name_H-M   'P 1'
_cell_length_a   8.57897456
_cell_length_b   8.57442146
_cell_length_c   8.57442100
_cell_angle_alpha   60.00000565
_cell_angle_beta   60.01756042
_cell_angle_gamma   60.01755745
_symmetry_Int_Tables_number   1
_chemical_formula_structural   Zr12Al4Ir7RuN4
_chemical_formula_sum   'Zr12 Al4 Ir7 Ru1 N4'
_cell_volume   446.11337409
_cell_formula_units_Z   1
loop_
 _symmetry_equiv_pos_site_id
 _symmetry_equiv_pos_as_xyz
  1  'x, y, z'
loop_
 _atom_site_type_symbol
 _atom_site_label
 _atom_site_symmetry_multiplicity
 _atom_site_fract_x
 _atom_site_fract_y
 _atom_site_fract_z
 _atom_site_occupancy
  Zr  Zr0  1  0.808927  0.807640  0.191717  1
  Zr  Zr1  1  0.192180  0.192041  0.807889  1
  Zr  Zr2  1  0.808927  0.191717  0.807640  1
  Zr  Zr3  1  0.192180  0.807889  0.192041  1
  Zr  Zr4  1  0.192180  0.807889  0.807889  1
  Zr  Zr5  1  0.808927  0.191717  0.191717  1
  Zr  Zr6  1  0.442201  0.441916  0.057941  1
  Zr  Zr7  1  0.056412  0.059868  0.441860  1
  Zr  Zr8  1  0.442201  0.057941  0.441916  1
  Zr  Zr9  1  0.056412  0.441860  0.059868  1
  Zr  Zr10  1  0.056412  0.441860  0.441860  1
  Zr  Zr11  1  0.442201  0.057941  0.057941  1
  Al  Al12  1  0.124933  0.625022  0.625022  1
  Al  Al13  1  0.625479  0.124885  0.624818  1
  Al  Al14  1  0.625479  0.624818  0.124885  1
  Al  Al15  1  0.625479  0.624818  0.624818  1
  Ir  Ir16  1  0.416313  0.751508  0.416091  1
  Ir  Ir17  1  0.416313  0.416091  0.751508  1
  Ir  Ir18  1  0.416313  0.416091  0.416091  1
  Ir  Ir19  1  0.498493  0.833835  0.833835  1
  Ir  Ir20  1  0.834071  0.498049  0.833939  1
  Ir  Ir21  1  0.834071  0.833939  0.498049  1
  Ir  Ir22  1  0.834071  0.833939  0.833939  1
  Ru  Ru23  1  0.748897  0.417035  0.417035  1
  N  N24  1  0.623785  0.125405  0.125405  1
  N  N25  1  0.125716  0.624665  0.124810  1
  N  N26  1  0.125716  0.124810  0.624665  1
  N  N27  1  0.125716  0.124810  0.124810  1
