# generated using pymatgen
data_YEr9(In2Ir)4
_symmetry_space_group_name_H-M   'P 1'
_cell_length_a   3.58049300
_cell_length_b   8.03191947
_cell_length_c   18.23417208
_cell_angle_alpha   90.03937798
_cell_angle_beta   90.00000000
_cell_angle_gamma   90.00000000
_symmetry_Int_Tables_number   1
_chemical_formula_structural   YEr9(In2Ir)4
_chemical_formula_sum   'Y1 Er9 In8 Ir4'
_cell_volume   524.38241711
_cell_formula_units_Z   1
loop_
 _symmetry_equiv_pos_site_id
 _symmetry_equiv_pos_as_xyz
  1  'x, y, z'
loop_
 _atom_site_type_symbol
 _atom_site_label
 _atom_site_symmetry_multiplicity
 _atom_site_fract_x
 _atom_site_fract_y
 _atom_site_fract_z
 _atom_site_occupancy
  Y  Y0  1  0.000000  0.500000  0.500000  1
  Er  Er1  1  0.000000  0.000000  0.000000  1
  Er  Er2  1  0.000000  0.745747  0.277808  1
  Er  Er3  1  0.000000  0.254253  0.722192  1
  Er  Er4  1  0.000000  0.754385  0.778318  1
  Er  Er5  1  0.000000  0.245615  0.221682  1
  Er  Er6  1  0.000000  0.617570  0.087751  1
  Er  Er7  1  0.000000  0.382430  0.912249  1
  Er  Er8  1  0.000000  0.882347  0.588166  1
  Er  Er9  1  0.000000  0.117653  0.411834  1
  In  In10  1  0.500000  0.706415  0.933043  1
  In  In11  1  0.500000  0.293585  0.066957  1
  In  In12  1  0.500000  0.794609  0.432615  1
  In  In13  1  0.500000  0.205391  0.567385  1
  In  In14  1  0.500000  0.569030  0.649310  1
  In  In15  1  0.500000  0.430970  0.350690  1
  In  In16  1  0.500000  0.931256  0.148400  1
  In  In17  1  0.500000  0.068744  0.851600  1
  Ir  Ir18  1  0.500000  0.522826  0.196266  1
  Ir  Ir19  1  0.500000  0.477174  0.803734  1
  Ir  Ir20  1  0.500000  0.977259  0.696677  1
  Ir  Ir21  1  0.500000  0.022741  0.303323  1
