# generated using pymatgen
data_Na3Tb4NdTe8
_symmetry_space_group_name_H-M   'P 1'
_cell_length_a   8.96823839
_cell_length_b   8.96823637
_cell_length_c   8.96823603
_cell_angle_alpha   59.17412029
_cell_angle_beta   59.17412862
_cell_angle_gamma   59.17412659
_symmetry_Int_Tables_number   1
_chemical_formula_structural   Na3Tb4NdTe8
_chemical_formula_sum   'Na3 Tb4 Nd1 Te8'
_cell_volume   500.44368040
_cell_formula_units_Z   1
loop_
 _symmetry_equiv_pos_site_id
 _symmetry_equiv_pos_as_xyz
  1  'x, y, z'
loop_
 _atom_site_type_symbol
 _atom_site_label
 _atom_site_symmetry_multiplicity
 _atom_site_fract_x
 _atom_site_fract_y
 _atom_site_fract_z
 _atom_site_occupancy
  Na  Na0  1  0.125000  0.625000  0.125000  1
  Na  Na1  1  0.125000  0.125000  0.625000  1
  Na  Na2  1  0.625000  0.125000  0.125000  1
  Tb  Tb3  1  0.625000  0.125000  0.625000  1
  Tb  Tb4  1  0.625000  0.625000  0.625000  1
  Tb  Tb5  1  0.125000  0.625000  0.625000  1
  Tb  Tb6  1  0.625000  0.625000  0.125000  1
  Nd  Nd7  1  0.125000  0.125000  0.125000  1
  Te  Te8  1  0.378325  0.867556  0.378325  1
  Te  Te9  1  0.871675  0.382444  0.871675  1
  Te  Te10  1  0.871675  0.871675  0.382444  1
  Te  Te11  1  0.871080  0.871080  0.871080  1
  Te  Te12  1  0.867556  0.378325  0.378325  1
  Te  Te13  1  0.378325  0.378325  0.867556  1
  Te  Te14  1  0.378920  0.378920  0.378920  1
  Te  Te15  1  0.382444  0.871675  0.871675  1
