# generated using pymatgen
data_TbHo3Al4(IrPt)2
_symmetry_space_group_name_H-M   'P 1'
_cell_length_a   4.35926100
_cell_length_b   6.79683961
_cell_length_c   7.86648516
_cell_angle_alpha   89.88200270
_cell_angle_beta   90.00000000
_cell_angle_gamma   90.00000000
_symmetry_Int_Tables_number   1
_chemical_formula_structural   TbHo3Al4(IrPt)2
_chemical_formula_sum   'Tb1 Ho3 Al4 Ir2 Pt2'
_cell_volume   233.07715088
_cell_formula_units_Z   1
loop_
 _symmetry_equiv_pos_site_id
 _symmetry_equiv_pos_as_xyz
  1  'x, y, z'
loop_
 _atom_site_type_symbol
 _atom_site_label
 _atom_site_symmetry_multiplicity
 _atom_site_fract_x
 _atom_site_fract_y
 _atom_site_fract_z
 _atom_site_occupancy
  Tb  Tb0  1  0.250000  0.032546  0.679010  1
  Ho  Ho1  1  0.250000  0.533110  0.821339  1
  Ho  Ho2  1  0.750000  0.971714  0.317610  1
  Ho  Ho3  1  0.750000  0.471965  0.181988  1
  Al  Al4  1  0.250000  0.140546  0.064847  1
  Al  Al5  1  0.250000  0.639877  0.435293  1
  Al  Al6  1  0.750000  0.856235  0.940879  1
  Al  Al7  1  0.750000  0.357120  0.559219  1
  Ir  Ir8  1  0.250000  0.266977  0.380485  1
  Ir  Ir9  1  0.250000  0.766619  0.118455  1
  Pt  Pt10  1  0.750000  0.730512  0.620235  1
  Pt  Pt11  1  0.750000  0.232779  0.880640  1
