# generated using pymatgen
data_Tb3TmNp2O12
_symmetry_space_group_name_H-M   'P 1'
_cell_length_a   5.54337500
_cell_length_b   7.84153939
_cell_length_c   11.84014211
_cell_angle_alpha   73.91516266
_cell_angle_beta   90.00000000
_cell_angle_gamma   90.00000000
_symmetry_Int_Tables_number   1
_chemical_formula_structural   Tb3TmNp2O12
_chemical_formula_sum   'Tb6 Tm2 Np4 O24'
_cell_volume   494.52611486
_cell_formula_units_Z   2
loop_
 _symmetry_equiv_pos_site_id
 _symmetry_equiv_pos_as_xyz
  1  'x, y, z'
loop_
 _atom_site_type_symbol
 _atom_site_label
 _atom_site_symmetry_multiplicity
 _atom_site_fract_x
 _atom_site_fract_y
 _atom_site_fract_z
 _atom_site_occupancy
  Tb  Tb0  1  0.744750  0.998409  0.749728  1
  Tb  Tb1  1  0.255250  0.998409  0.249728  1
  Tb  Tb2  1  0.697290  0.501426  0.748933  1
  Tb  Tb3  1  0.302710  0.501426  0.248933  1
  Tb  Tb4  1  0.185871  0.203928  0.921040  1
  Tb  Tb5  1  0.814129  0.203928  0.421040  1
  Tm  Tm6  1  0.187262  0.793473  0.580514  1
  Tm  Tm7  1  0.812738  0.793473  0.080514  1
  Np  Np8  1  0.254879  0.720702  0.887441  1
  Np  Np9  1  0.745121  0.720702  0.387441  1
  Np  Np10  1  0.255596  0.279839  0.612931  1
  Np  Np11  1  0.744404  0.279839  0.112931  1
  O  O12  1  0.043419  0.941492  0.897461  1
  O  O13  1  0.553666  0.847808  0.933742  1
  O  O14  1  0.956581  0.941492  0.397461  1
  O  O15  1  0.447346  0.800297  0.726160  1
  O  O16  1  0.446334  0.847808  0.433742  1
  O  O17  1  0.966455  0.714339  0.765110  1
  O  O18  1  0.552654  0.800297  0.226160  1
  O  O19  1  0.879161  0.628607  0.555025  1
  O  O20  1  0.388177  0.482282  0.884799  1
  O  O21  1  0.033545  0.714339  0.265110  1
  O  O22  1  0.384649  0.521412  0.615976  1
  O  O23  1  0.874095  0.373900  0.945186  1
  O  O24  1  0.120839  0.628607  0.055025  1
  O  O25  1  0.611823  0.482282  0.384799  1
  O  O26  1  0.964042  0.285504  0.732474  1
  O  O27  1  0.615351  0.521412  0.115976  1
  O  O28  1  0.125905  0.373900  0.445186  1
  O  O29  1  0.449906  0.201157  0.772471  1
  O  O30  1  0.035958  0.285504  0.232474  1
  O  O31  1  0.551554  0.151407  0.568617  1
  O  O32  1  0.550094  0.201157  0.272471  1
  O  O33  1  0.047848  0.054017  0.602394  1
  O  O34  1  0.448446  0.151407  0.068617  1
  O  O35  1  0.952152  0.054017  0.102394  1
