# generated using pymatgen
data_LiTm2(P2Rh3)3
_symmetry_space_group_name_H-M   'P 1'
_cell_length_a   3.92627100
_cell_length_b   10.82244000
_cell_length_c   12.55442900
_cell_angle_alpha   90.00000000
_cell_angle_beta   90.00000000
_cell_angle_gamma   90.00000000
_symmetry_Int_Tables_number   1
_chemical_formula_structural   LiTm2(P2Rh3)3
_chemical_formula_sum   'Li2 Tm4 P12 Rh18'
_cell_volume   533.46069196
_cell_formula_units_Z   2
loop_
 _symmetry_equiv_pos_site_id
 _symmetry_equiv_pos_as_xyz
  1  'x, y, z'
loop_
 _atom_site_type_symbol
 _atom_site_label
 _atom_site_symmetry_multiplicity
 _atom_site_fract_x
 _atom_site_fract_y
 _atom_site_fract_z
 _atom_site_occupancy
  Li  Li0  1  0.250000  0.707481  0.991603  1
  Li  Li1  1  0.250000  0.792519  0.491603  1
  Tm  Tm2  1  0.250000  0.578772  0.704648  1
  Tm  Tm3  1  0.250000  0.921228  0.204648  1
  Tm  Tm4  1  0.750000  0.426477  0.300215  1
  Tm  Tm5  1  0.750000  0.073523  0.800215  1
  P  P6  1  0.250000  0.429096  0.116691  1
  P  P7  1  0.250000  0.070904  0.616691  1
  P  P8  1  0.750000  0.572799  0.881748  1
  P  P9  1  0.750000  0.927201  0.381748  1
  P  P10  1  0.250000  0.258153  0.866346  1
  P  P11  1  0.250000  0.241847  0.366346  1
  P  P12  1  0.750000  0.737502  0.140508  1
  P  P13  1  0.750000  0.762498  0.640508  1
  P  P14  1  0.250000  0.604736  0.391372  1
  P  P15  1  0.250000  0.895264  0.891372  1
  P  P16  1  0.750000  0.401551  0.607079  1
  P  P17  1  0.750000  0.098449  0.107079  1
  Rh  Rh18  1  0.750000  0.274489  0.999851  1
  Rh  Rh19  1  0.750000  0.225511  0.499851  1
  Rh  Rh20  1  0.250000  0.411839  0.480976  1
  Rh  Rh21  1  0.250000  0.088161  0.980976  1
  Rh  Rh22  1  0.750000  0.595161  0.523786  1
  Rh  Rh23  1  0.750000  0.904839  0.023786  1
  Rh  Rh24  1  0.250000  0.235014  0.176799  1
  Rh  Rh25  1  0.250000  0.264986  0.676799  1
  Rh  Rh26  1  0.750000  0.771983  0.827432  1
  Rh  Rh27  1  0.750000  0.728017  0.327432  1
  Rh  Rh28  1  0.250000  0.876717  0.700744  1
  Rh  Rh29  1  0.250000  0.623283  0.200744  1
  Rh  Rh30  1  0.750000  0.116653  0.291487  1
  Rh  Rh31  1  0.750000  0.383347  0.791487  1
  Rh  Rh32  1  0.250000  0.458214  0.930850  1
  Rh  Rh33  1  0.250000  0.041786  0.430850  1
  Rh  Rh34  1  0.750000  0.536288  0.067862  1
  Rh  Rh35  1  0.750000  0.963712  0.567862  1
