# generated using pymatgen
data_AcTbNi6(BIr)2
_symmetry_space_group_name_H-M   'P 1'
_cell_length_a   5.22535174
_cell_length_b   5.22535079
_cell_length_c   7.14466300
_cell_angle_alpha   90.00000000
_cell_angle_beta   90.00000000
_cell_angle_gamma   121.48967896
_symmetry_Int_Tables_number   1
_chemical_formula_structural   AcTbNi6(BIr)2
_chemical_formula_sum   'Ac1 Tb1 Ni6 B2 Ir2'
_cell_volume   166.35139503
_cell_formula_units_Z   1
loop_
 _symmetry_equiv_pos_site_id
 _symmetry_equiv_pos_as_xyz
  1  'x, y, z'
loop_
 _atom_site_type_symbol
 _atom_site_label
 _atom_site_symmetry_multiplicity
 _atom_site_fract_x
 _atom_site_fract_y
 _atom_site_fract_z
 _atom_site_occupancy
  Ac  Ac0  1  0.000000  0.000000  0.000000  1
  Tb  Tb1  1  0.000000  0.000000  0.500000  1
  Ni  Ni2  1  0.334268  0.665732  0.000000  1
  Ni  Ni3  1  0.665732  0.334268  0.000000  1
  Ni  Ni4  1  0.500000  0.000000  0.297065  1
  Ni  Ni5  1  0.000000  0.500000  0.297065  1
  Ni  Ni6  1  0.500000  0.000000  0.702935  1
  Ni  Ni7  1  0.000000  0.500000  0.702935  1
  B  B8  1  0.673122  0.326878  0.500000  1
  B  B9  1  0.326878  0.673122  0.500000  1
  Ir  Ir10  1  0.500000  0.500000  0.294142  1
  Ir  Ir11  1  0.500000  0.500000  0.705858  1
