# generated using pymatgen
data_Lu5TlCoTe2
_symmetry_space_group_name_H-M   'P 1'
_cell_length_a   8.67892434
_cell_length_b   8.67892577
_cell_length_c   7.87295500
_cell_angle_alpha   91.57775140
_cell_angle_beta   91.57775166
_cell_angle_gamma   126.02418745
_symmetry_Int_Tables_number   1
_chemical_formula_structural   Lu5TlCoTe2
_chemical_formula_sum   'Lu10 Tl2 Co2 Te4'
_cell_volume   478.73280935
_cell_formula_units_Z   2
loop_
 _symmetry_equiv_pos_site_id
 _symmetry_equiv_pos_as_xyz
  1  'x, y, z'
loop_
 _atom_site_type_symbol
 _atom_site_label
 _atom_site_symmetry_multiplicity
 _atom_site_fract_x
 _atom_site_fract_y
 _atom_site_fract_z
 _atom_site_occupancy
  Lu  Lu0  1  0.000000  0.000000  0.000000  1
  Lu  Lu1  1  0.500000  0.500000  0.500000  1
  Lu  Lu2  1  0.818936  0.572456  0.192831  1
  Lu  Lu3  1  0.427544  0.181064  0.807169  1
  Lu  Lu4  1  0.973622  0.747224  0.640585  1
  Lu  Lu5  1  0.252776  0.026378  0.359415  1
  Lu  Lu6  1  0.181064  0.427544  0.807169  1
  Lu  Lu7  1  0.572456  0.818936  0.192831  1
  Lu  Lu8  1  0.026378  0.252776  0.359415  1
  Lu  Lu9  1  0.747224  0.973622  0.640585  1
  Tl  Tl10  1  0.631357  0.631357  0.868713  1
  Tl  Tl11  1  0.368643  0.368643  0.131287  1
  Co  Co12  1  0.866027  0.866027  0.368027  1
  Co  Co13  1  0.133973  0.133973  0.631973  1
  Te  Te14  1  0.209676  0.790324  0.000000  1
  Te  Te15  1  0.706752  0.293248  0.500000  1
  Te  Te16  1  0.790324  0.209676  0.000000  1
  Te  Te17  1  0.293248  0.706752  0.500000  1
