# generated using pymatgen
data_Tb5Zr2P12Ir17
_symmetry_space_group_name_H-M   'P 1'
_cell_length_a   12.68233700
_cell_length_b   12.91449251
_cell_length_c   3.99577300
_cell_angle_alpha   90.00000000
_cell_angle_beta   90.00000000
_cell_angle_gamma   119.40710488
_symmetry_Int_Tables_number   1
_chemical_formula_structural   Tb5Zr2P12Ir17
_chemical_formula_sum   'Tb5 Zr2 P12 Ir17'
_cell_volume   570.12730884
_cell_formula_units_Z   1
loop_
 _symmetry_equiv_pos_site_id
 _symmetry_equiv_pos_as_xyz
  1  'x, y, z'
loop_
 _atom_site_type_symbol
 _atom_site_label
 _atom_site_symmetry_multiplicity
 _atom_site_fract_x
 _atom_site_fract_y
 _atom_site_fract_z
 _atom_site_occupancy
  Tb  Tb0  1  0.330145  0.661546  0.500000  1
  Tb  Tb1  1  0.668600  0.338454  0.500000  1
  Tb  Tb2  1  0.000556  0.815479  0.000000  1
  Tb  Tb3  1  0.185077  0.184521  0.000000  1
  Tb  Tb4  1  0.812773  0.000000  0.000000  1
  Zr  Zr5  1  0.997746  0.446916  0.500000  1
  Zr  Zr6  1  0.550830  0.553084  0.500000  1
  P  P7  1  0.005903  0.650798  0.500000  1
  P  P8  1  0.355104  0.349202  0.500000  1
  P  P9  1  0.644579  0.000000  0.500000  1
  P  P10  1  0.515018  0.686411  0.000000  1
  P  P11  1  0.309698  0.825343  0.000000  1
  P  P12  1  0.164543  0.480800  0.000000  1
  P  P13  1  0.484354  0.174657  0.000000  1
  P  P14  1  0.683743  0.519200  0.000000  1
  P  P15  1  0.828607  0.313589  0.000000  1
  P  P16  1  0.999297  0.174259  0.500000  1
  P  P17  1  0.825038  0.825741  0.500000  1
  P  P18  1  0.181697  0.000000  0.500000  1
  Ir  Ir19  1  0.505021  0.864983  0.000000  1
  Ir  Ir20  1  0.127760  0.644116  0.000000  1
  Ir  Ir21  1  0.354921  0.495288  0.000000  1
  Ir  Ir22  1  0.483645  0.355884  0.000000  1
  Ir  Ir23  1  0.859634  0.504712  0.000000  1
  Ir  Ir24  1  0.640039  0.135017  0.000000  1
  Ir  Ir25  1  0.464596  0.000000  0.500000  1
  Ir  Ir26  1  0.996803  0.277728  0.000000  1
  Ir  Ir27  1  0.719075  0.722272  0.000000  1
  Ir  Ir28  1  0.290394  0.000000  0.000000  1
  Ir  Ir29  1  0.623850  0.808318  0.500000  1
  Ir  Ir30  1  0.204076  0.825862  0.500000  1
  Ir  Ir31  1  0.177763  0.365950  0.500000  1
  Ir  Ir32  1  0.378213  0.174138  0.500000  1
  Ir  Ir33  1  0.811813  0.634050  0.500000  1
  Ir  Ir34  1  0.815533  0.191682  0.500000  1
  Ir  Ir35  1  0.003560  0.000000  0.500000  1
