# generated using pymatgen
data_Dy2Zr3Si4
_symmetry_space_group_name_H-M   'P 1'
_cell_length_a   7.33382741
_cell_length_b   7.12544276
_cell_length_c   7.34337600
_cell_angle_alpha   90.00000000
_cell_angle_beta   90.00000000
_cell_angle_gamma   108.15602794
_symmetry_Int_Tables_number   1
_chemical_formula_structural   Dy2Zr3Si4
_chemical_formula_sum   'Dy4 Zr6 Si8'
_cell_volume   364.63518869
_cell_formula_units_Z   2
loop_
 _symmetry_equiv_pos_site_id
 _symmetry_equiv_pos_as_xyz
  1  'x, y, z'
loop_
 _atom_site_type_symbol
 _atom_site_label
 _atom_site_symmetry_multiplicity
 _atom_site_fract_x
 _atom_site_fract_y
 _atom_site_fract_z
 _atom_site_occupancy
  Dy  Dy0  1  0.191722  0.073420  0.172650  1
  Dy  Dy1  1  0.191721  0.573418  0.327351  1
  Dy  Dy2  1  0.808278  0.426581  0.672650  1
  Dy  Dy3  1  0.808279  0.926581  0.827349  1
  Zr  Zr4  1  0.500000  0.499999  0.000000  1
  Zr  Zr5  1  0.747956  0.250761  0.180729  1
  Zr  Zr6  1  0.747957  0.750761  0.319270  1
  Zr  Zr7  1  0.500000  0.000001  0.500000  1
  Zr  Zr8  1  0.252044  0.249240  0.680729  1
  Zr  Zr9  1  0.252043  0.749238  0.819270  1
  Si  Si10  1  0.919581  0.630602  0.032036  1
  Si  Si11  1  0.491039  0.872253  0.122818  1
  Si  Si12  1  0.491040  0.372252  0.377183  1
  Si  Si13  1  0.919582  0.130602  0.467965  1
  Si  Si14  1  0.080419  0.869398  0.532036  1
  Si  Si15  1  0.508961  0.627748  0.622818  1
  Si  Si16  1  0.508960  0.127748  0.877183  1
  Si  Si17  1  0.080419  0.369398  0.967965  1
