# generated using pymatgen
data_Zr7Au10
_symmetry_space_group_name_H-M   'P 1'
_cell_length_a   8.38984812
_cell_length_b   8.38985657
_cell_length_c   10.00613400
_cell_angle_alpha   90.00000000
_cell_angle_beta   90.00000000
_cell_angle_gamma   107.00664186
_symmetry_Int_Tables_number   1
_chemical_formula_structural   Zr7Au10
_chemical_formula_sum   'Zr14 Au20'
_cell_volume   673.52833373
_cell_formula_units_Z   2
loop_
 _symmetry_equiv_pos_site_id
 _symmetry_equiv_pos_as_xyz
  1  'x, y, z'
loop_
 _atom_site_type_symbol
 _atom_site_label
 _atom_site_symmetry_multiplicity
 _atom_site_fract_x
 _atom_site_fract_y
 _atom_site_fract_z
 _atom_site_occupancy
  Zr  Zr0  1  0.690279  0.309720  0.000000  1
  Zr  Zr1  1  0.309721  0.690280  0.000000  1
  Zr  Zr2  1  0.809721  0.190280  0.500000  1
  Zr  Zr3  1  0.190279  0.809720  0.500000  1
  Zr  Zr4  1  0.000000  0.000000  0.000000  1
  Zr  Zr5  1  0.500000  0.500000  0.500000  1
  Zr  Zr6  1  0.006402  0.506402  0.250000  1
  Zr  Zr7  1  0.993598  0.493598  0.750000  1
  Zr  Zr8  1  0.493598  0.993598  0.750000  1
  Zr  Zr9  1  0.506402  0.006402  0.250000  1
  Zr  Zr10  1  0.311831  0.311831  0.190076  1
  Zr  Zr11  1  0.688169  0.688169  0.809924  1
  Zr  Zr12  1  0.188169  0.188169  0.690076  1
  Zr  Zr13  1  0.811831  0.811831  0.309924  1
  Au  Au14  1  0.858748  0.151340  0.207197  1
  Au  Au15  1  0.141252  0.848660  0.792803  1
  Au  Au16  1  0.641252  0.348660  0.707197  1
  Au  Au17  1  0.651340  0.358748  0.292803  1
  Au  Au18  1  0.358748  0.651340  0.292803  1
  Au  Au19  1  0.348660  0.641252  0.707197  1
  Au  Au20  1  0.848660  0.141252  0.792803  1
  Au  Au21  1  0.151340  0.858748  0.207197  1
  Au  Au22  1  0.941500  0.647227  0.002035  1
  Au  Au23  1  0.058500  0.352773  0.997965  1
  Au  Au24  1  0.558500  0.852773  0.502035  1
  Au  Au25  1  0.147228  0.441500  0.497966  1
  Au  Au26  1  0.441500  0.147227  0.497965  1
  Au  Au27  1  0.852772  0.558500  0.502034  1
  Au  Au28  1  0.352772  0.058500  0.997966  1
  Au  Au29  1  0.647228  0.941500  0.002034  1
  Au  Au30  1  0.105192  0.105192  0.397353  1
  Au  Au31  1  0.894808  0.894808  0.602647  1
  Au  Au32  1  0.394808  0.394808  0.897353  1
  Au  Au33  1  0.605192  0.605192  0.102647  1
