# generated using pymatgen
data_Y4BeCo12GeB6
_symmetry_space_group_name_H-M   'P 1'
_cell_length_a   5.05633104
_cell_length_b   5.05641702
_cell_length_c   12.25992718
_cell_angle_alpha   89.98517417
_cell_angle_beta   89.99615478
_cell_angle_gamma   119.99033459
_symmetry_Int_Tables_number   1
_chemical_formula_structural   Y4BeCo12GeB6
_chemical_formula_sum   'Y4 Be1 Co12 Ge1 B6'
_cell_volume   271.48083129
_cell_formula_units_Z   1
loop_
 _symmetry_equiv_pos_site_id
 _symmetry_equiv_pos_as_xyz
  1  'x, y, z'
loop_
 _atom_site_type_symbol
 _atom_site_label
 _atom_site_symmetry_multiplicity
 _atom_site_fract_x
 _atom_site_fract_y
 _atom_site_fract_z
 _atom_site_occupancy
  Y  Y0  1  0.999917  0.999891  0.999990  1
  Y  Y1  1  0.999960  0.999974  0.499959  1
  Y  Y2  1  0.999958  0.999976  0.257461  1
  Y  Y3  1  0.999982  0.999974  0.742478  1
  Be  Be4  1  0.333393  0.666722  0.000245  1
  Co  Co5  1  0.498085  0.996295  0.151942  1
  Co  Co6  1  0.498058  0.501821  0.151903  1
  Co  Co7  1  0.003635  0.501814  0.151832  1
  Co  Co8  1  0.498183  0.996275  0.848056  1
  Co  Co9  1  0.498181  0.501889  0.848141  1
  Co  Co10  1  0.003804  0.501893  0.848110  1
  Co  Co11  1  0.500126  0.000317  0.383201  1
  Co  Co12  1  0.500117  0.499825  0.383121  1
  Co  Co13  1  0.999641  0.499826  0.383154  1
  Co  Co14  1  0.500173  0.000344  0.616746  1
  Co  Co15  1  0.500171  0.499826  0.616806  1
  Co  Co16  1  0.999667  0.499823  0.616899  1
  Ge  Ge17  1  0.666699  0.333355  0.000000  1
  B  B18  1  0.333153  0.666437  0.499982  1
  B  B19  1  0.666852  0.333589  0.499976  1
  B  B20  1  0.333173  0.666631  0.265078  1
  B  B21  1  0.666771  0.333424  0.264261  1
  B  B22  1  0.666619  0.333386  0.735746  1
  B  B23  1  0.333482  0.666694  0.734911  1
