# generated using pymatgen
data_Sc12Si12MoOs3
_symmetry_space_group_name_H-M   'P 1'
_cell_length_a   3.95320700
_cell_length_b   10.44329600
_cell_length_c   11.77596345
_cell_angle_alpha   89.85261108
_cell_angle_beta   90.00000000
_cell_angle_gamma   90.00000000
_symmetry_Int_Tables_number   1
_chemical_formula_structural   Sc12Si12MoOs3
_chemical_formula_sum   'Sc12 Si12 Mo1 Os3'
_cell_volume   486.16328226
_cell_formula_units_Z   1
loop_
 _symmetry_equiv_pos_site_id
 _symmetry_equiv_pos_as_xyz
  1  'x, y, z'
loop_
 _atom_site_type_symbol
 _atom_site_label
 _atom_site_symmetry_multiplicity
 _atom_site_fract_x
 _atom_site_fract_y
 _atom_site_fract_z
 _atom_site_occupancy
  Sc  Sc0  1  0.250000  0.876787  0.019297  1
  Sc  Sc1  1  0.250000  0.621633  0.516320  1
  Sc  Sc2  1  0.750000  0.125192  0.982541  1
  Sc  Sc3  1  0.750000  0.376640  0.480607  1
  Sc  Sc4  1  0.250000  0.921950  0.606840  1
  Sc  Sc5  1  0.250000  0.576823  0.107077  1
  Sc  Sc6  1  0.750000  0.078128  0.393588  1
  Sc  Sc7  1  0.750000  0.422863  0.896216  1
  Sc  Sc8  1  0.250000  0.656552  0.798880  1
  Sc  Sc9  1  0.250000  0.841530  0.297760  1
  Sc  Sc10  1  0.750000  0.341136  0.202195  1
  Sc  Sc11  1  0.750000  0.164582  0.701108  1
  Si  Si12  1  0.250000  0.027234  0.822541  1
  Si  Si13  1  0.250000  0.483191  0.321376  1
  Si  Si14  1  0.750000  0.983937  0.177400  1
  Si  Si15  1  0.750000  0.514336  0.677383  1
  Si  Si16  1  0.250000  0.256124  0.843954  1
  Si  Si17  1  0.250000  0.249194  0.342686  1
  Si  Si18  1  0.750000  0.747842  0.158042  1
  Si  Si19  1  0.750000  0.747449  0.651944  1
  Si  Si20  1  0.250000  0.194229  0.543897  1
  Si  Si21  1  0.250000  0.306105  0.046444  1
  Si  Si22  1  0.750000  0.804186  0.453471  1
  Si  Si23  1  0.750000  0.687559  0.959169  1
  Mo  Mo24  1  0.750000  0.885308  0.822865  1
  Os  Os25  1  0.250000  0.387571  0.674744  1
  Os  Os26  1  0.250000  0.111597  0.178163  1
  Os  Os27  1  0.750000  0.610323  0.323495  1
