# generated using pymatgen
data_Lu2USn3IrRu2
_symmetry_space_group_name_H-M   'P 1'
_cell_length_a   7.74474100
_cell_length_b   7.35757640
_cell_length_c   3.83661600
_cell_angle_alpha   90.00000000
_cell_angle_beta   90.00000000
_cell_angle_gamma   121.75755339
_symmetry_Int_Tables_number   1
_chemical_formula_structural   Lu2USn3IrRu2
_chemical_formula_sum   'Lu2 U1 Sn3 Ir1 Ru2'
_cell_volume   185.88888832
_cell_formula_units_Z   1
loop_
 _symmetry_equiv_pos_site_id
 _symmetry_equiv_pos_as_xyz
  1  'x, y, z'
loop_
 _atom_site_type_symbol
 _atom_site_label
 _atom_site_symmetry_multiplicity
 _atom_site_fract_x
 _atom_site_fract_y
 _atom_site_fract_z
 _atom_site_occupancy
  Lu  Lu0  1  0.003410  0.402347  0.500000  1
  Lu  Lu1  1  0.601097  0.597554  0.500000  1
  U  U2  1  0.414473  0.999979  0.500000  1
  Sn  Sn3  1  0.982960  0.719954  0.000000  1
  Sn  Sn4  1  0.262964  0.280290  0.000000  1
  Sn  Sn5  1  0.757354  0.999934  0.000000  1
  Ir  Ir6  1  0.011948  0.999984  0.500000  1
  Ru  Ru7  1  0.339465  0.713007  0.000000  1
  Ru  Ru8  1  0.626330  0.286950  0.000000  1
