# generated using pymatgen
data_Dy15Tm5(IrRh3)3
_symmetry_space_group_name_H-M   'P 1'
_cell_length_a   10.86631173
_cell_length_b   10.86719658
_cell_length_c   6.34563341
_cell_angle_alpha   89.97880326
_cell_angle_beta   90.00914698
_cell_angle_gamma   89.85920301
_symmetry_Int_Tables_number   1
_chemical_formula_structural   Dy15Tm5(IrRh3)3
_chemical_formula_sum   'Dy15 Tm5 Ir3 Rh9'
_cell_volume   749.33033661
_cell_formula_units_Z   1
loop_
 _symmetry_equiv_pos_site_id
 _symmetry_equiv_pos_as_xyz
  1  'x, y, z'
loop_
 _atom_site_type_symbol
 _atom_site_label
 _atom_site_symmetry_multiplicity
 _atom_site_fract_x
 _atom_site_fract_y
 _atom_site_fract_z
 _atom_site_occupancy
  Dy  Dy0  1  0.288846  0.090715  0.378803  1
  Dy  Dy1  1  0.289817  0.909568  0.878618  1
  Dy  Dy2  1  0.710291  0.088393  0.878912  1
  Dy  Dy3  1  0.709914  0.909745  0.378702  1
  Dy  Dy4  1  0.587432  0.788269  0.879859  1
  Dy  Dy5  1  0.587099  0.210576  0.378325  1
  Dy  Dy6  1  0.412149  0.788786  0.379526  1
  Dy  Dy7  1  0.409957  0.210460  0.879800  1
  Dy  Dy8  1  0.211483  0.411948  0.619696  1
  Dy  Dy9  1  0.211281  0.586814  0.120307  1
  Dy  Dy10  1  0.789884  0.412623  0.121627  1
  Dy  Dy11  1  0.789560  0.589638  0.619909  1
  Dy  Dy12  1  0.910421  0.710348  0.120186  1
  Dy  Dy13  1  0.912117  0.289506  0.621419  1
  Dy  Dy14  1  0.090305  0.709990  0.620765  1
  Tm  Tm15  1  0.089737  0.291430  0.120219  1
  Tm  Tm16  1  0.999647  0.999931  0.500591  1
  Tm  Tm17  1  0.000549  0.001362  0.001270  1
  Tm  Tm18  1  0.499943  0.499342  0.000290  1
  Tm  Tm19  1  0.500178  0.499968  0.500448  1
  Ir  Ir20  1  0.653430  0.652380  0.249901  1
  Ir  Ir21  1  0.346316  0.346512  0.249382  1
  Ir  Ir22  1  0.346795  0.653143  0.750113  1
  Rh  Rh23  1  0.848510  0.153847  0.248968  1
  Rh  Rh24  1  0.847653  0.848869  0.750439  1
  Rh  Rh25  1  0.150955  0.152969  0.751635  1
  Rh  Rh26  1  0.152136  0.847942  0.250399  1
  Rh  Rh27  1  0.653763  0.346010  0.749825  1
  Rh  Rh28  1  0.499814  0.000386  0.128564  1
  Rh  Rh29  1  0.500300  0.000921  0.629025  1
  Rh  Rh30  1  0.999633  0.498675  0.871654  1
  Rh  Rh31  1  0.000085  0.498938  0.370826  1
