# generated using pymatgen
data_Hf3MnTc2GeAs2
_symmetry_space_group_name_H-M   'P 1'
_cell_length_a   6.83948100
_cell_length_b   6.91857540
_cell_length_c   3.54605800
_cell_angle_alpha   90.00000000
_cell_angle_beta   90.00000000
_cell_angle_gamma   119.62254638
_symmetry_Int_Tables_number   1
_chemical_formula_structural   Hf3MnTc2GeAs2
_chemical_formula_sum   'Hf3 Mn1 Tc2 Ge1 As2'
_cell_volume   145.86650792
_cell_formula_units_Z   1
loop_
 _symmetry_equiv_pos_site_id
 _symmetry_equiv_pos_as_xyz
  1  'x, y, z'
loop_
 _atom_site_type_symbol
 _atom_site_label
 _atom_site_symmetry_multiplicity
 _atom_site_fract_x
 _atom_site_fract_y
 _atom_site_fract_z
 _atom_site_occupancy
  Hf  Hf0  1  0.005504  0.407984  0.500000  1
  Hf  Hf1  1  0.597521  0.592016  0.500000  1
  Hf  Hf2  1  0.404226  0.000000  0.500000  1
  Mn  Mn3  1  0.744839  0.000000  0.000000  1
  Tc  Tc4  1  0.000931  0.748833  0.000000  1
  Tc  Tc5  1  0.252099  0.251167  0.000000  1
  Ge  Ge6  1  0.979912  0.000000  0.500000  1
  As  As7  1  0.344426  0.673884  0.000000  1
  As  As8  1  0.670544  0.326116  0.000000  1
