# generated using pymatgen
data_TbDy(ErPt)2
_symmetry_space_group_name_H-M   'P 1'
_cell_length_a   4.75397000
_cell_length_b   7.13432300
_cell_length_c   8.75639900
_cell_angle_alpha   90.00000000
_cell_angle_beta   90.00000000
_cell_angle_gamma   90.00000000
_symmetry_Int_Tables_number   1
_chemical_formula_structural   TbDy(ErPt)2
_chemical_formula_sum   'Tb2 Dy2 Er4 Pt4'
_cell_volume   296.98515900
_cell_formula_units_Z   2
loop_
 _symmetry_equiv_pos_site_id
 _symmetry_equiv_pos_as_xyz
  1  'x, y, z'
loop_
 _atom_site_type_symbol
 _atom_site_label
 _atom_site_symmetry_multiplicity
 _atom_site_fract_x
 _atom_site_fract_y
 _atom_site_fract_z
 _atom_site_occupancy
  Tb  Tb0  1  0.750000  0.009486  0.669709  1
  Tb  Tb1  1  0.750000  0.509486  0.830291  1
  Dy  Dy2  1  0.250000  0.990553  0.331320  1
  Dy  Dy3  1  0.250000  0.490553  0.168680  1
  Er  Er4  1  0.250000  0.856018  0.920863  1
  Er  Er5  1  0.250000  0.356018  0.579137  1
  Er  Er6  1  0.750000  0.144023  0.080099  1
  Er  Er7  1  0.750000  0.644023  0.419901  1
  Pt  Pt8  1  0.250000  0.256724  0.907613  1
  Pt  Pt9  1  0.250000  0.756724  0.592387  1
  Pt  Pt10  1  0.750000  0.743196  0.093086  1
  Pt  Pt11  1  0.750000  0.243196  0.406914  1
