# generated using pymatgen
data_Tb16MgHg3Ru3Pt
_symmetry_space_group_name_H-M   'P 1'
_cell_length_a   9.67618785
_cell_length_b   9.68012505
_cell_length_c   9.68012621
_cell_angle_alpha   59.61047869
_cell_angle_beta   59.74342077
_cell_angle_gamma   59.74343253
_symmetry_Int_Tables_number   1
_chemical_formula_structural   Tb16MgHg3Ru3Pt
_chemical_formula_sum   'Tb16 Mg1 Hg3 Ru3 Pt1'
_cell_volume   636.75335657
_cell_formula_units_Z   1
loop_
 _symmetry_equiv_pos_site_id
 _symmetry_equiv_pos_as_xyz
  1  'x, y, z'
loop_
 _atom_site_type_symbol
 _atom_site_label
 _atom_site_symmetry_multiplicity
 _atom_site_fract_x
 _atom_site_fract_y
 _atom_site_fract_z
 _atom_site_occupancy
  Tb  Tb0  1  0.596653  0.596044  0.596044  1
  Tb  Tb1  1  0.601679  0.600598  0.205249  1
  Tb  Tb2  1  0.601679  0.205249  0.600598  1
  Tb  Tb3  1  0.194540  0.603803  0.603803  1
  Tb  Tb4  1  0.051161  0.442860  0.442860  1
  Tb  Tb5  1  0.435889  0.061631  0.061631  1
  Tb  Tb6  1  0.438889  0.055813  0.439209  1
  Tb  Tb7  1  0.057987  0.439870  0.058991  1
  Tb  Tb8  1  0.438889  0.439209  0.055813  1
  Tb  Tb9  1  0.057987  0.058991  0.439870  1
  Tb  Tb10  1  0.187501  0.811658  0.811658  1
  Tb  Tb11  1  0.814643  0.187587  0.187587  1
  Tb  Tb12  1  0.811973  0.188190  0.812461  1
  Tb  Tb13  1  0.186810  0.814950  0.188647  1
  Tb  Tb14  1  0.811973  0.812461  0.188190  1
  Tb  Tb15  1  0.186810  0.188647  0.814950  1
  Mg  Mg16  1  0.537522  0.820246  0.820246  1
  Hg  Hg17  1  0.831643  0.836404  0.836404  1
  Hg  Hg18  1  0.831887  0.836287  0.494783  1
  Hg  Hg19  1  0.831887  0.494783  0.836287  1
  Ru  Ru20  1  0.387473  0.391796  0.829614  1
  Ru  Ru21  1  0.387473  0.829614  0.391796  1
  Ru  Ru22  1  0.828822  0.390624  0.390624  1
  Pt  Pt23  1  0.388226  0.392683  0.392683  1
