# generated using pymatgen
data_Y6Zn22PtS
_symmetry_space_group_name_H-M   'P 1'
_cell_length_a   9.01908755
_cell_length_b   8.97243671
_cell_length_c   9.01908800
_cell_angle_alpha   60.17095343
_cell_angle_beta   59.64050716
_cell_angle_gamma   60.17095808
_symmetry_Int_Tables_number   1
_chemical_formula_structural   Y6Zn22PtS
_chemical_formula_sum   'Y6 Zn22 Pt1 S1'
_cell_volume   515.98632122
_cell_formula_units_Z   1
loop_
 _symmetry_equiv_pos_site_id
 _symmetry_equiv_pos_as_xyz
  1  'x, y, z'
loop_
 _atom_site_type_symbol
 _atom_site_label
 _atom_site_symmetry_multiplicity
 _atom_site_fract_x
 _atom_site_fract_y
 _atom_site_fract_z
 _atom_site_occupancy
  Y  Y0  1  0.714359  0.288229  0.285641  1
  Y  Y1  1  0.712864  0.287136  0.712864  1
  Y  Y2  1  0.714359  0.711771  0.285641  1
  Y  Y3  1  0.285641  0.711771  0.714359  1
  Y  Y4  1  0.287136  0.712864  0.287136  1
  Y  Y5  1  0.285641  0.288229  0.714359  1
  Zn  Zn6  1  0.626447  0.125088  0.123378  1
  Zn  Zn7  1  0.124070  0.624862  0.124070  1
  Zn  Zn8  1  0.123378  0.125088  0.626447  1
  Zn  Zn9  1  0.124070  0.127000  0.124070  1
  Zn  Zn10  1  0.373553  0.874912  0.876622  1
  Zn  Zn11  1  0.875930  0.375138  0.875930  1
  Zn  Zn12  1  0.876622  0.874912  0.373553  1
  Zn  Zn13  1  0.875930  0.873000  0.875930  1
  Zn  Zn14  1  0.500000  0.000000  0.000000  1
  Zn  Zn15  1  0.500000  0.000000  0.500000  1
  Zn  Zn16  1  0.500000  0.500000  0.000000  1
  Zn  Zn17  1  0.000000  0.500000  0.500000  1
  Zn  Zn18  1  0.000000  0.000000  0.500000  1
  Zn  Zn19  1  0.000000  0.000000  0.000000  1
  Zn  Zn20  1  0.013826  0.327729  0.330714  1
  Zn  Zn21  1  0.330721  0.010159  0.330721  1
  Zn  Zn22  1  0.330714  0.327729  0.013826  1
  Zn  Zn23  1  0.330721  0.328395  0.330721  1
  Zn  Zn24  1  0.986174  0.672271  0.669286  1
  Zn  Zn25  1  0.669279  0.989841  0.669279  1
  Zn  Zn26  1  0.669286  0.672271  0.986174  1
  Zn  Zn27  1  0.669279  0.671605  0.669279  1
  Pt  Pt28  1  0.000000  0.500000  0.000000  1
  S  S29  1  0.500000  0.500000  0.500000  1
