# generated using pymatgen
data_Hf6Al15ZnPt7
_symmetry_space_group_name_H-M   'P 1'
_cell_length_a   8.76225661
_cell_length_b   8.76225664
_cell_length_c   8.76128903
_cell_angle_alpha   59.99634846
_cell_angle_beta   59.99634669
_cell_angle_gamma   60.00000600
_symmetry_Int_Tables_number   1
_chemical_formula_structural   Hf6Al15ZnPt7
_chemical_formula_sum   'Hf6 Al15 Zn1 Pt7'
_cell_volume   475.62096358
_cell_formula_units_Z   1
loop_
 _symmetry_equiv_pos_site_id
 _symmetry_equiv_pos_as_xyz
  1  'x, y, z'
loop_
 _atom_site_type_symbol
 _atom_site_label
 _atom_site_symmetry_multiplicity
 _atom_site_fract_x
 _atom_site_fract_y
 _atom_site_fract_z
 _atom_site_occupancy
  Hf  Hf0  1  0.680972  0.680972  0.319408  1
  Hf  Hf1  1  0.318647  0.680972  0.319408  1
  Hf  Hf2  1  0.680972  0.318647  0.319408  1
  Hf  Hf3  1  0.319518  0.319518  0.680646  1
  Hf  Hf4  1  0.680317  0.319518  0.680646  1
  Hf  Hf5  1  0.319518  0.680317  0.680646  1
  Al  Al6  1  0.879846  0.360399  0.879908  1
  Al  Al7  1  0.360399  0.879846  0.879908  1
  Al  Al8  1  0.879846  0.879846  0.879908  1
  Al  Al9  1  0.120273  0.120273  0.639182  1
  Al  Al10  1  0.117801  0.642007  0.122393  1
  Al  Al11  1  0.642007  0.117801  0.122393  1
  Al  Al12  1  0.117801  0.117801  0.122393  1
  Al  Al13  1  0.663974  0.663974  0.008077  1
  Al  Al14  1  0.666603  0.005119  0.661674  1
  Al  Al15  1  0.005119  0.666603  0.661674  1
  Al  Al16  1  0.666603  0.666603  0.661674  1
  Al  Al17  1  0.335675  0.335675  0.992976  1
  Al  Al18  1  0.336409  0.992349  0.334834  1
  Al  Al19  1  0.992349  0.336409  0.334834  1
  Al  Al20  1  0.336409  0.336409  0.334834  1
  Zn  Zn21  1  0.879987  0.879987  0.360039  1
  Pt  Pt22  1  0.002795  0.002795  0.991615  1
  Pt  Pt23  1  0.001856  0.001856  0.504601  1
  Pt  Pt24  1  0.491687  0.001856  0.504601  1
  Pt  Pt25  1  0.001856  0.491687  0.504601  1
  Pt  Pt26  1  0.500156  0.500156  0.999238  1
  Pt  Pt27  1  0.000450  0.500156  0.999238  1
  Pt  Pt28  1  0.500156  0.000450  0.999238  1
