# generated using pymatgen
data_AcAl3Hg
_symmetry_space_group_name_H-M   'P 1'
_cell_length_a   4.57239005
_cell_length_b   4.57238901
_cell_length_c   6.44659255
_cell_angle_alpha   69.22885305
_cell_angle_beta   69.22883786
_cell_angle_gamma   90.00000557
_symmetry_Int_Tables_number   1
_chemical_formula_structural   AcAl3Hg
_chemical_formula_sum   'Ac1 Al3 Hg1'
_cell_volume   116.60112998
_cell_formula_units_Z   1
loop_
 _symmetry_equiv_pos_site_id
 _symmetry_equiv_pos_as_xyz
  1  'x, y, z'
loop_
 _atom_site_type_symbol
 _atom_site_label
 _atom_site_symmetry_multiplicity
 _atom_site_fract_x
 _atom_site_fract_y
 _atom_site_fract_z
 _atom_site_occupancy
  Ac  Ac0  1  0.995387  0.995387  0.009228  1
  Al  Al1  1  0.753275  0.253275  0.493450  1
  Al  Al2  1  0.253275  0.753275  0.493450  1
  Al  Al3  1  0.379889  0.379889  0.240223  1
  Hg  Hg4  1  0.618176  0.618176  0.763649  1
