# generated using pymatgen
data_DyGaPt3Au
_symmetry_space_group_name_H-M   'P 1'
_cell_length_a   5.18249650
_cell_length_b   5.18249628
_cell_length_c   5.18249627
_cell_angle_alpha   64.01448792
_cell_angle_beta   64.01448545
_cell_angle_gamma   64.01449495
_symmetry_Int_Tables_number   1
_chemical_formula_structural   DyGaPt3Au
_chemical_formula_sum   'Dy1 Ga1 Pt3 Au1'
_cell_volume   107.12525672
_cell_formula_units_Z   1
loop_
 _symmetry_equiv_pos_site_id
 _symmetry_equiv_pos_as_xyz
  1  'x, y, z'
loop_
 _atom_site_type_symbol
 _atom_site_label
 _atom_site_symmetry_multiplicity
 _atom_site_fract_x
 _atom_site_fract_y
 _atom_site_fract_z
 _atom_site_occupancy
  Dy  Dy0  1  0.003959  0.003959  0.003959  1
  Ga  Ga1  1  0.623045  0.623045  0.623045  1
  Pt  Pt2  1  0.622865  0.622865  0.125758  1
  Pt  Pt3  1  0.622865  0.125758  0.622865  1
  Pt  Pt4  1  0.125758  0.622865  0.622865  1
  Au  Au5  1  0.251511  0.251511  0.251511  1
