# generated using pymatgen
data_Cs8Tm2O7
_symmetry_space_group_name_H-M   'P 1'
_cell_length_a   19.34446800
_cell_length_b   7.46285360
_cell_length_c   7.68506411
_cell_angle_alpha   60.28547920
_cell_angle_beta   90.00000000
_cell_angle_gamma   90.00000000
_symmetry_Int_Tables_number   1
_chemical_formula_structural   Cs8Tm2O7
_chemical_formula_sum   'Cs16 Tm4 O14'
_cell_volume   963.56716114
_cell_formula_units_Z   2
loop_
 _symmetry_equiv_pos_site_id
 _symmetry_equiv_pos_as_xyz
  1  'x, y, z'
loop_
 _atom_site_type_symbol
 _atom_site_label
 _atom_site_symmetry_multiplicity
 _atom_site_fract_x
 _atom_site_fract_y
 _atom_site_fract_z
 _atom_site_occupancy
  Cs  Cs0  1  0.993495  0.236858  0.240180  1
  Cs  Cs1  1  0.493495  0.263142  0.759820  1
  Cs  Cs2  1  0.006505  0.763142  0.759820  1
  Cs  Cs3  1  0.506505  0.736858  0.240180  1
  Cs  Cs4  1  0.191645  0.236924  0.219538  1
  Cs  Cs5  1  0.691645  0.263076  0.780462  1
  Cs  Cs6  1  0.808355  0.763076  0.780462  1
  Cs  Cs7  1  0.308355  0.736924  0.219538  1
  Cs  Cs8  1  0.791595  0.220584  0.234019  1
  Cs  Cs9  1  0.291595  0.279416  0.765981  1
  Cs  Cs10  1  0.208405  0.779416  0.765981  1
  Cs  Cs11  1  0.708405  0.720584  0.234019  1
  Cs  Cs12  1  0.911373  0.356652  0.638952  1
  Cs  Cs13  1  0.411373  0.143348  0.361048  1
  Cs  Cs14  1  0.088627  0.643348  0.361048  1
  Cs  Cs15  1  0.588627  0.856652  0.638952  1
  Tm  Tm16  1  0.596249  0.355043  0.144522  1
  Tm  Tm17  1  0.096249  0.144957  0.855478  1
  Tm  Tm18  1  0.403751  0.644957  0.855478  1
  Tm  Tm19  1  0.903751  0.855043  0.144522  1
  O  O20  1  0.500000  0.500000  0.000000  1
  O  O21  1  0.000000  0.000000  0.000000  1
  O  O22  1  0.599230  0.330941  0.430721  1
  O  O23  1  0.099230  0.169059  0.569279  1
  O  O24  1  0.400770  0.669059  0.569279  1
  O  O25  1  0.900770  0.830941  0.430721  1
  O  O26  1  0.323024  0.449742  0.037618  1
  O  O27  1  0.823024  0.050258  0.962382  1
  O  O28  1  0.676976  0.550258  0.962382  1
  O  O29  1  0.176976  0.949742  0.037618  1
  O  O30  1  0.608267  0.063901  0.161014  1
  O  O31  1  0.108267  0.436099  0.838986  1
  O  O32  1  0.391733  0.936099  0.838986  1
  O  O33  1  0.891733  0.563901  0.161014  1
