# generated using pymatgen
data_Dy3ErAl23GaIr2Pt7
_symmetry_space_group_name_H-M   'P 1'
_cell_length_a   7.51518312
_cell_length_b   7.51445807
_cell_length_c   13.17836200
_cell_angle_alpha   84.52294808
_cell_angle_beta   100.91110376
_cell_angle_gamma   119.77952483
_symmetry_Int_Tables_number   1
_chemical_formula_structural   Dy3ErAl23GaIr2Pt7
_chemical_formula_sum   'Dy3 Er1 Al23 Ga1 Ir2 Pt7'
_cell_volume   634.25845399
_cell_formula_units_Z   1
loop_
 _symmetry_equiv_pos_site_id
 _symmetry_equiv_pos_as_xyz
  1  'x, y, z'
loop_
 _atom_site_type_symbol
 _atom_site_label
 _atom_site_symmetry_multiplicity
 _atom_site_fract_x
 _atom_site_fract_y
 _atom_site_fract_z
 _atom_site_occupancy
  Dy  Dy0  1  0.731876  0.998648  0.190103  1
  Dy  Dy1  1  0.265186  0.001959  0.809661  1
  Dy  Dy2  1  0.062011  0.668823  0.190525  1
  Er  Er3  1  0.938952  0.330072  0.809405  1
  Al  Al4  1  0.191021  0.129505  0.182719  1
  Al  Al5  1  0.985362  0.668756  0.946472  1
  Al  Al6  1  0.020261  0.334511  0.053052  1
  Al  Al7  1  0.396085  0.663661  0.818880  1
  Al  Al8  1  0.601551  0.335694  0.182877  1
  Al  Al9  1  0.882429  0.664716  0.672440  1
  Al  Al10  1  0.117639  0.334628  0.326652  1
  Al  Al11  1  0.604882  0.458486  0.816734  1
  Al  Al12  1  0.397271  0.543702  0.181481  1
  Al  Al13  1  0.231371  0.340972  0.670714  1
  Al  Al14  1  0.769320  0.659656  0.329786  1
  Al  Al15  1  0.853423  0.333637  0.559239  1
  Al  Al16  1  0.186703  0.999512  0.559023  1
  Al  Al17  1  0.814266  0.000175  0.440671  1
  Al  Al18  1  0.348851  0.996578  0.053631  1
  Al  Al19  1  0.648539  0.998399  0.946726  1
  Al  Al20  1  0.556726  0.992748  0.672939  1
  Al  Al21  1  0.443549  0.007138  0.327232  1
  Al  Al22  1  0.521612  0.668888  0.561164  1
  Al  Al23  1  0.478274  0.331362  0.438295  1
  Al  Al24  1  0.682322  0.671216  0.043337  1
  Al  Al25  1  0.314652  0.332638  0.957241  1
  Al  Al26  1  0.146796  0.665632  0.441140  1
  Ga  Ga27  1  0.805890  0.866361  0.817650  1
  Ir  Ir28  1  0.329011  0.671503  0.999687  1
  Ir  Ir29  1  0.000956  0.000975  0.001634  1
  Pt  Pt30  1  0.546245  0.325067  0.637150  1
  Pt  Pt31  1  0.454092  0.674596  0.362655  1
  Pt  Pt32  1  0.887802  0.009059  0.636781  1
  Pt  Pt33  1  0.112421  0.991672  0.361692  1
  Pt  Pt34  1  0.671606  0.329059  0.999759  1
  Pt  Pt35  1  0.204816  0.667112  0.638951  1
  Pt  Pt36  1  0.796230  0.332887  0.361903  1
