# generated using pymatgen
data_DyHo3ReTcB12
_symmetry_space_group_name_H-M   'P 1'
_cell_length_a   3.67566400
_cell_length_b   9.15333955
_cell_length_c   11.53533500
_cell_angle_alpha   90.05562204
_cell_angle_beta   90.00000000
_cell_angle_gamma   90.00000000
_symmetry_Int_Tables_number   1
_chemical_formula_structural   DyHo3ReTcB12
_chemical_formula_sum   'Dy2 Ho6 Re2 Tc2 B24'
_cell_volume   388.10155674
_cell_formula_units_Z   2
loop_
 _symmetry_equiv_pos_site_id
 _symmetry_equiv_pos_as_xyz
  1  'x, y, z'
loop_
 _atom_site_type_symbol
 _atom_site_label
 _atom_site_symmetry_multiplicity
 _atom_site_fract_x
 _atom_site_fract_y
 _atom_site_fract_z
 _atom_site_occupancy
  Dy  Dy0  1  0.000000  0.323913  0.414006  1
  Dy  Dy1  1  0.000000  0.676087  0.585994  1
  Ho  Ho2  1  0.000000  0.823609  0.085959  1
  Ho  Ho3  1  0.000000  0.176391  0.914041  1
  Ho  Ho4  1  0.000000  0.942241  0.369798  1
  Ho  Ho5  1  0.000000  0.057759  0.630202  1
  Ho  Ho6  1  0.000000  0.443759  0.130458  1
  Ho  Ho7  1  0.000000  0.556241  0.869542  1
  Re  Re8  1  0.000000  0.138662  0.179186  1
  Re  Re9  1  0.000000  0.861338  0.820814  1
  Tc  Tc10  1  0.000000  0.638974  0.320537  1
  Tc  Tc11  1  0.000000  0.361026  0.679463  1
  B  B12  1  0.500000  0.553555  0.432807  1
  B  B13  1  0.500000  0.446445  0.567193  1
  B  B14  1  0.500000  0.053329  0.066878  1
  B  B15  1  0.500000  0.946671  0.933122  1
  B  B16  1  0.500000  0.749003  0.418544  1
  B  B17  1  0.500000  0.250997  0.581456  1
  B  B18  1  0.500000  0.249414  0.081179  1
  B  B19  1  0.500000  0.750586  0.918821  1
  B  B20  1  0.500000  0.792086  0.265401  1
  B  B21  1  0.500000  0.207914  0.734599  1
  B  B22  1  0.500000  0.292337  0.234519  1
  B  B23  1  0.500000  0.707663  0.765481  1
  B  B24  1  0.500000  0.631181  0.185643  1
  B  B25  1  0.500000  0.368819  0.814357  1
  B  B26  1  0.500000  0.130761  0.314469  1
  B  B27  1  0.500000  0.869239  0.685531  1
  B  B28  1  0.500000  0.982120  0.211823  1
  B  B29  1  0.500000  0.017880  0.788177  1
  B  B30  1  0.500000  0.482678  0.288107  1
  B  B31  1  0.500000  0.517322  0.711893  1
  B  B32  1  0.500000  0.600359  0.027950  1
  B  B33  1  0.500000  0.399641  0.972050  1
  B  B34  1  0.500000  0.099938  0.471941  1
  B  B35  1  0.500000  0.900062  0.528059  1
