# generated using pymatgen
data_Ho15Th(CdPt)4
_symmetry_space_group_name_H-M   'P 1'
_cell_length_a   9.66122669
_cell_length_b   9.66122805
_cell_length_c   9.66122707
_cell_angle_alpha   60.19065597
_cell_angle_beta   60.19065057
_cell_angle_gamma   60.19065151
_symmetry_Int_Tables_number   1
_chemical_formula_structural   Ho15Th(CdPt)4
_chemical_formula_sum   'Ho15 Th1 Cd4 Pt4'
_cell_volume   640.40226963
_cell_formula_units_Z   1
loop_
 _symmetry_equiv_pos_site_id
 _symmetry_equiv_pos_as_xyz
  1  'x, y, z'
loop_
 _atom_site_type_symbol
 _atom_site_label
 _atom_site_symmetry_multiplicity
 _atom_site_fract_x
 _atom_site_fract_y
 _atom_site_fract_z
 _atom_site_occupancy
  Ho  Ho0  1  0.603471  0.603471  0.190090  1
  Ho  Ho1  1  0.603471  0.190090  0.603471  1
  Ho  Ho2  1  0.190090  0.603471  0.603471  1
  Ho  Ho3  1  0.062226  0.439277  0.439277  1
  Ho  Ho4  1  0.440428  0.060472  0.060472  1
  Ho  Ho5  1  0.439277  0.062226  0.439277  1
  Ho  Ho6  1  0.060472  0.440428  0.060472  1
  Ho  Ho7  1  0.439277  0.439277  0.062226  1
  Ho  Ho8  1  0.060472  0.060472  0.440428  1
  Ho  Ho9  1  0.185286  0.816488  0.816488  1
  Ho  Ho10  1  0.813946  0.186118  0.186118  1
  Ho  Ho11  1  0.816488  0.185286  0.816488  1
  Ho  Ho12  1  0.186118  0.813946  0.186118  1
  Ho  Ho13  1  0.816488  0.816488  0.185286  1
  Ho  Ho14  1  0.186118  0.186118  0.813946  1
  Th  Th15  1  0.599795  0.599795  0.599795  1
  Cd  Cd16  1  0.831734  0.831734  0.831734  1
  Cd  Cd17  1  0.832790  0.832790  0.502646  1
  Cd  Cd18  1  0.832790  0.502646  0.832790  1
  Cd  Cd19  1  0.502646  0.832790  0.832790  1
  Pt  Pt20  1  0.393814  0.393814  0.393814  1
  Pt  Pt21  1  0.390853  0.390853  0.821096  1
  Pt  Pt22  1  0.390853  0.821096  0.390853  1
  Pt  Pt23  1  0.821096  0.390853  0.390853  1
