# generated using pymatgen
data_Er2Tm4NpO12
_symmetry_space_group_name_H-M   'P 1'
_cell_length_a   6.48872536
_cell_length_b   6.48105307
_cell_length_c   6.48555191
_cell_angle_alpha   99.04563201
_cell_angle_beta   99.00004934
_cell_angle_gamma   98.96943718
_symmetry_Int_Tables_number   1
_chemical_formula_structural   Er2Tm4NpO12
_chemical_formula_sum   'Er2 Tm4 Np1 O12'
_cell_volume   261.43893847
_cell_formula_units_Z   1
loop_
 _symmetry_equiv_pos_site_id
 _symmetry_equiv_pos_as_xyz
  1  'x, y, z'
loop_
 _atom_site_type_symbol
 _atom_site_label
 _atom_site_symmetry_multiplicity
 _atom_site_fract_x
 _atom_site_fract_y
 _atom_site_fract_z
 _atom_site_occupancy
  Er  Er0  1  0.854730  0.389350  0.677240  1
  Er  Er1  1  0.609930  0.322958  0.145439  1
  Tm  Tm2  1  0.323273  0.145544  0.610070  1
  Tm  Tm3  1  0.675497  0.853963  0.389963  1
  Tm  Tm4  1  0.389705  0.676989  0.854319  1
  Tm  Tm5  1  0.145986  0.610789  0.323978  1
  Np  Np6  1  0.000286  0.999634  0.999967  1
  O  O7  1  0.918061  0.045008  0.689444  1
  O  O8  1  0.954484  0.310705  0.081165  1
  O  O9  1  0.586843  0.176680  0.427532  1
  O  O10  1  0.822780  0.574076  0.411839  1
  O  O11  1  0.309655  0.080538  0.951927  1
  O  O12  1  0.571412  0.412648  0.821594  1
  O  O13  1  0.426495  0.589475  0.177959  1
  O  O14  1  0.689832  0.918464  0.047158  1
  O  O15  1  0.178811  0.427233  0.587158  1
  O  O16  1  0.412063  0.822196  0.573351  1
  O  O17  1  0.047663  0.689913  0.919445  1
  O  O18  1  0.082494  0.953838  0.310453  1
