# generated using pymatgen
data_Sc12Ir3Cl16
_symmetry_space_group_name_H-M   'P 1'
_cell_length_a   8.85353211
_cell_length_b   10.46907030
_cell_length_c   11.14498615
_cell_angle_alpha   116.62188164
_cell_angle_beta   102.27645533
_cell_angle_gamma   101.91324805
_symmetry_Int_Tables_number   1
_chemical_formula_structural   Sc12Ir3Cl16
_chemical_formula_sum   'Sc12 Ir3 Cl16'
_cell_volume   846.84353604
_cell_formula_units_Z   1
loop_
 _symmetry_equiv_pos_site_id
 _symmetry_equiv_pos_as_xyz
  1  'x, y, z'
loop_
 _atom_site_type_symbol
 _atom_site_label
 _atom_site_symmetry_multiplicity
 _atom_site_fract_x
 _atom_site_fract_y
 _atom_site_fract_z
 _atom_site_occupancy
  Sc  Sc0  1  0.076069  0.243311  0.341765  1
  Sc  Sc1  1  0.923931  0.756689  0.658235  1
  Sc  Sc2  1  0.773114  0.538600  0.309019  1
  Sc  Sc3  1  0.226886  0.461400  0.690981  1
  Sc  Sc4  1  0.288429  0.757361  0.659344  1
  Sc  Sc5  1  0.711571  0.242639  0.340656  1
  Sc  Sc6  1  0.137613  0.537897  0.310503  1
  Sc  Sc7  1  0.862387  0.462103  0.689497  1
  Sc  Sc8  1  0.393154  0.339941  0.245378  1
  Sc  Sc9  1  0.606846  0.660059  0.754622  1
  Sc  Sc10  1  0.453423  0.286460  0.522381  1
  Sc  Sc11  1  0.546577  0.713540  0.477619  1
  Ir  Ir12  1  0.000000  0.500000  0.500000  1
  Ir  Ir13  1  0.340428  0.499997  0.498998  1
  Ir  Ir14  1  0.659573  0.500003  0.501002  1
  Cl  Cl15  1  0.402551  0.745974  0.890475  1
  Cl  Cl16  1  0.597449  0.254026  0.109525  1
  Cl  Cl17  1  0.194766  0.977080  0.791656  1
  Cl  Cl18  1  0.805234  0.022920  0.208344  1
  Cl  Cl19  1  0.337435  0.086205  0.246942  1
  Cl  Cl20  1  0.662565  0.913795  0.753058  1
  Cl  Cl21  1  0.549442  0.435615  0.803124  1
  Cl  Cl22  1  0.450558  0.564385  0.196876  1
  Cl  Cl23  1  0.313391  0.831150  0.462864  1
  Cl  Cl24  1  0.686609  0.168850  0.537136  1
  Cl  Cl25  1  0.168295  0.166906  0.532018  1
  Cl  Cl26  1  0.831705  0.833094  0.467982  1
  Cl  Cl27  1  0.924770  0.578554  0.154329  1
  Cl  Cl28  1  0.075230  0.421446  0.845671  1
  Cl  Cl29  1  0.924020  0.744664  0.890470  1
  Cl  Cl30  1  0.075980  0.255336  0.109530  1
