# generated using pymatgen
data_Sm2Ho4Fe3(Co5P4)3
_symmetry_space_group_name_H-M   'P 1'
_cell_length_a   3.70622400
_cell_length_b   10.55027200
_cell_length_c   12.16794200
_cell_angle_alpha   90.00000000
_cell_angle_beta   90.00000000
_cell_angle_gamma   90.00000000
_symmetry_Int_Tables_number   1
_chemical_formula_structural   Sm2Ho4Fe3(Co5P4)3
_chemical_formula_sum   'Sm2 Ho4 Fe3 Co15 P12'
_cell_volume   475.78686840
_cell_formula_units_Z   1
loop_
 _symmetry_equiv_pos_site_id
 _symmetry_equiv_pos_as_xyz
  1  'x, y, z'
loop_
 _atom_site_type_symbol
 _atom_site_label
 _atom_site_symmetry_multiplicity
 _atom_site_fract_x
 _atom_site_fract_y
 _atom_site_fract_z
 _atom_site_occupancy
  Sm  Sm0  1  0.000000  0.500000  0.522550  1
  Sm  Sm1  1  0.500000  0.000000  0.477707  1
  Ho  Ho2  1  0.500000  0.817579  0.204474  1
  Ho  Ho3  1  0.500000  0.182421  0.204474  1
  Ho  Ho4  1  0.000000  0.681303  0.795779  1
  Ho  Ho5  1  0.000000  0.318697  0.795779  1
  Fe  Fe6  1  0.000000  0.500000  0.988221  1
  Fe  Fe7  1  0.500000  0.500000  0.155083  1
  Fe  Fe8  1  0.000000  0.000000  0.843874  1
  Co  Co9  1  0.500000  0.000000  0.013470  1
  Co  Co10  1  0.500000  0.296572  0.429672  1
  Co  Co11  1  0.500000  0.703428  0.429672  1
  Co  Co12  1  0.000000  0.203604  0.570391  1
  Co  Co13  1  0.000000  0.796396  0.570391  1
  Co  Co14  1  0.500000  0.879102  0.711034  1
  Co  Co15  1  0.500000  0.120898  0.711034  1
  Co  Co16  1  0.000000  0.620990  0.288856  1
  Co  Co17  1  0.000000  0.379010  0.288856  1
  Co  Co18  1  0.500000  0.331175  0.994735  1
  Co  Co19  1  0.500000  0.668825  0.994735  1
  Co  Co20  1  0.000000  0.166640  0.005226  1
  Co  Co21  1  0.000000  0.833360  0.005226  1
  Co  Co22  1  0.500000  0.500000  0.703773  1
  Co  Co23  1  0.000000  0.000000  0.295510  1
  P  P24  1  0.500000  0.308421  0.617330  1
  P  P25  1  0.500000  0.691579  0.617330  1
  P  P26  1  0.000000  0.191536  0.382583  1
  P  P27  1  0.000000  0.808464  0.382583  1
  P  P28  1  0.500000  0.500000  0.884956  1
  P  P29  1  0.000000  0.000000  0.116557  1
  P  P30  1  0.500000  0.846870  0.893352  1
  P  P31  1  0.500000  0.153130  0.893352  1
  P  P32  1  0.000000  0.652824  0.106009  1
  P  P33  1  0.000000  0.347176  0.106009  1
  P  P34  1  0.500000  0.500000  0.339758  1
  P  P35  1  0.000000  0.000000  0.659660  1
