# generated using pymatgen
data_Nd3Y3Tm2(CdIr)2
_symmetry_space_group_name_H-M   'P 1'
_cell_length_a   9.74563843
_cell_length_b   9.74563913
_cell_length_c   9.74563800
_cell_angle_alpha   59.99999703
_cell_angle_beta   59.99999466
_cell_angle_gamma   60.00000077
_symmetry_Int_Tables_number   1
_chemical_formula_structural   Nd3Y3Tm2(CdIr)2
_chemical_formula_sum   'Nd6 Y6 Tm4 Cd4 Ir4'
_cell_volume   654.50937750
_cell_formula_units_Z   2
loop_
 _symmetry_equiv_pos_site_id
 _symmetry_equiv_pos_as_xyz
  1  'x, y, z'
loop_
 _atom_site_type_symbol
 _atom_site_label
 _atom_site_symmetry_multiplicity
 _atom_site_fract_x
 _atom_site_fract_y
 _atom_site_fract_z
 _atom_site_occupancy
  Nd  Nd0  1  0.941919  0.558081  0.558081  1
  Nd  Nd1  1  0.558081  0.941919  0.941919  1
  Nd  Nd2  1  0.558081  0.941919  0.558081  1
  Nd  Nd3  1  0.941919  0.558081  0.941919  1
  Nd  Nd4  1  0.558081  0.558081  0.941919  1
  Nd  Nd5  1  0.941919  0.941919  0.558081  1
  Y  Y6  1  0.811158  0.188842  0.188842  1
  Y  Y7  1  0.188842  0.811158  0.811158  1
  Y  Y8  1  0.188842  0.811158  0.188842  1
  Y  Y9  1  0.811158  0.188842  0.811158  1
  Y  Y10  1  0.188842  0.188842  0.811158  1
  Y  Y11  1  0.811158  0.811158  0.188842  1
  Tm  Tm12  1  0.346277  0.346277  0.346277  1
  Tm  Tm13  1  0.346277  0.346277  0.961169  1
  Tm  Tm14  1  0.346277  0.961169  0.346277  1
  Tm  Tm15  1  0.961169  0.346277  0.346277  1
  Cd  Cd16  1  0.579638  0.579638  0.579638  1
  Cd  Cd17  1  0.579638  0.579638  0.261084  1
  Cd  Cd18  1  0.579638  0.261084  0.579638  1
  Cd  Cd19  1  0.261084  0.579638  0.579638  1
  Ir  Ir20  1  0.142286  0.142286  0.142286  1
  Ir  Ir21  1  0.142286  0.142286  0.573142  1
  Ir  Ir22  1  0.142286  0.573142  0.142286  1
  Ir  Ir23  1  0.573142  0.142286  0.142286  1
