# generated using pymatgen
data_Tm9LuSi5As
_symmetry_space_group_name_H-M   'P 1'
_cell_length_a   8.30095001
_cell_length_b   8.31357204
_cell_length_c   6.19174502
_cell_angle_alpha   90.00564100
_cell_angle_beta   90.00446641
_cell_angle_gamma   119.95114988
_symmetry_Int_Tables_number   1
_chemical_formula_structural   Tm9LuSi5As
_chemical_formula_sum   'Tm9 Lu1 Si5 As1'
_cell_volume   370.23094949
_cell_formula_units_Z   1
loop_
 _symmetry_equiv_pos_site_id
 _symmetry_equiv_pos_as_xyz
  1  'x, y, z'
loop_
 _atom_site_type_symbol
 _atom_site_label
 _atom_site_symmetry_multiplicity
 _atom_site_fract_x
 _atom_site_fract_y
 _atom_site_fract_z
 _atom_site_occupancy
  Tm  Tm0  1  0.668933  0.335948  0.001115  1
  Tm  Tm1  1  0.333003  0.664111  0.499000  1
  Tm  Tm2  1  0.332968  0.664032  0.001031  1
  Tm  Tm3  1  0.759435  0.000067  0.749900  1
  Tm  Tm4  1  0.757406  0.756951  0.250109  1
  Tm  Tm5  1  0.000253  0.242949  0.250140  1
  Tm  Tm6  1  0.996410  0.754678  0.749901  1
  Tm  Tm7  1  0.241779  0.245227  0.749863  1
  Tm  Tm8  1  0.242071  0.000082  0.250083  1
  Lu  Lu9  1  0.669051  0.336085  0.498773  1
  Si  Si10  1  0.394870  0.393300  0.250375  1
  Si  Si11  1  0.000830  0.606312  0.250364  1
  Si  Si12  1  0.999358  0.394370  0.749658  1
  Si  Si13  1  0.605300  0.605216  0.749647  1
  Si  Si14  1  0.606592  0.000357  0.250303  1
  As  As15  1  0.391740  0.000315  0.749737  1
