# generated using pymatgen
data_DyLu15(In3Ir)2
_symmetry_space_group_name_H-M   'P 1'
_cell_length_a   10.22625400
_cell_length_b   10.22625160
_cell_length_c   6.94188800
_cell_angle_alpha   89.99931771
_cell_angle_beta   89.99998054
_cell_angle_gamma   119.99932957
_symmetry_Int_Tables_number   1
_chemical_formula_structural   DyLu15(In3Ir)2
_chemical_formula_sum   'Dy1 Lu15 In6 Ir2'
_cell_volume   628.70109571
_cell_formula_units_Z   1
loop_
 _symmetry_equiv_pos_site_id
 _symmetry_equiv_pos_as_xyz
  1  'x, y, z'
loop_
 _atom_site_type_symbol
 _atom_site_label
 _atom_site_symmetry_multiplicity
 _atom_site_fract_x
 _atom_site_fract_y
 _atom_site_fract_z
 _atom_site_occupancy
  Dy  Dy0  1  0.999997  0.999992  0.000240  1
  Lu  Lu1  1  0.532877  0.065755  0.513982  1
  Lu  Lu2  1  0.934255  0.467126  0.513987  1
  Lu  Lu3  1  0.532875  0.467118  0.513994  1
  Lu  Lu4  1  0.467025  0.934049  0.014216  1
  Lu  Lu5  1  0.065937  0.532966  0.014206  1
  Lu  Lu6  1  0.467033  0.532989  0.014221  1
  Lu  Lu7  1  0.177299  0.354607  0.719249  1
  Lu  Lu8  1  0.645423  0.822703  0.719236  1
  Lu  Lu9  1  0.177294  0.822702  0.719239  1
  Lu  Lu10  1  0.822729  0.645446  0.220609  1
  Lu  Lu11  1  0.354557  0.177292  0.220611  1
  Lu  Lu12  1  0.822708  0.177279  0.220615  1
  Lu  Lu13  1  0.666669  0.333334  0.894860  1
  Lu  Lu14  1  0.333326  0.666665  0.395933  1
  Lu  Lu15  1  0.000000  0.999974  0.499833  1
  In  In16  1  0.836731  0.673445  0.759728  1
  In  In17  1  0.326533  0.163258  0.759731  1
  In  In18  1  0.836725  0.163264  0.759684  1
  In  In19  1  0.163235  0.326516  0.263295  1
  In  In20  1  0.673485  0.836767  0.263308  1
  In  In21  1  0.163279  0.836781  0.263322  1
  Ir  Ir22  1  0.666671  0.333327  0.289227  1
  Ir  Ir23  1  0.333338  0.666644  0.790873  1
