# generated using pymatgen
data_Y18Sc2Cd3Hg3Ru2
_symmetry_space_group_name_H-M   'P 1'
_cell_length_a   9.55739000
_cell_length_b   9.55739040
_cell_length_c   9.71547800
_cell_angle_alpha   90.00000000
_cell_angle_beta   90.00000000
_cell_angle_gamma   119.99999860
_symmetry_Int_Tables_number   1
_chemical_formula_structural   Y18Sc2Cd3Hg3Ru2
_chemical_formula_sum   'Y18 Sc2 Cd3 Hg3 Ru2'
_cell_volume   768.55233315
_cell_formula_units_Z   1
loop_
 _symmetry_equiv_pos_site_id
 _symmetry_equiv_pos_as_xyz
  1  'x, y, z'
loop_
 _atom_site_type_symbol
 _atom_site_label
 _atom_site_symmetry_multiplicity
 _atom_site_fract_x
 _atom_site_fract_y
 _atom_site_fract_z
 _atom_site_occupancy
  Y  Y0  1  0.208007  0.791993  0.440053  1
  Y  Y1  1  0.208007  0.416015  0.440053  1
  Y  Y2  1  0.583985  0.791993  0.440053  1
  Y  Y3  1  0.791797  0.208203  0.558978  1
  Y  Y4  1  0.791797  0.583594  0.558978  1
  Y  Y5  1  0.416406  0.208203  0.558978  1
  Y  Y6  1  0.791797  0.208203  0.941022  1
  Y  Y7  1  0.791797  0.583594  0.941022  1
  Y  Y8  1  0.416406  0.208203  0.941022  1
  Y  Y9  1  0.208007  0.791993  0.059947  1
  Y  Y10  1  0.208007  0.416015  0.059947  1
  Y  Y11  1  0.583985  0.791993  0.059947  1
  Y  Y12  1  0.540953  0.459047  0.250000  1
  Y  Y13  1  0.540953  0.081905  0.250000  1
  Y  Y14  1  0.918095  0.459047  0.250000  1
  Y  Y15  1  0.459014  0.540986  0.750000  1
  Y  Y16  1  0.459014  0.918027  0.750000  1
  Y  Y17  1  0.081973  0.540986  0.750000  1
  Sc  Sc18  1  0.000000  0.000000  0.490431  1
  Sc  Sc19  1  0.000000  0.000000  0.009569  1
  Cd  Cd20  1  0.109555  0.890445  0.750000  1
  Cd  Cd21  1  0.109555  0.219108  0.750000  1
  Cd  Cd22  1  0.780892  0.890445  0.750000  1
  Hg  Hg23  1  0.884305  0.115695  0.250000  1
  Hg  Hg24  1  0.884305  0.768612  0.250000  1
  Hg  Hg25  1  0.231388  0.115695  0.250000  1
  Ru  Ru26  1  0.333333  0.666667  0.250000  1
  Ru  Ru27  1  0.666667  0.333333  0.750000  1
