# generated using pymatgen
data_Zr6Co20P13
_symmetry_space_group_name_H-M   'P 1'
_cell_length_a   12.38255500
_cell_length_b   12.38255545
_cell_length_c   3.58576000
_cell_angle_alpha   90.00000000
_cell_angle_beta   90.00000000
_cell_angle_gamma   119.99999613
_symmetry_Int_Tables_number   1
_chemical_formula_structural   Zr6Co20P13
_chemical_formula_sum   'Zr6 Co20 P13'
_cell_volume   476.13752921
_cell_formula_units_Z   1
loop_
 _symmetry_equiv_pos_site_id
 _symmetry_equiv_pos_as_xyz
  1  'x, y, z'
loop_
 _atom_site_type_symbol
 _atom_site_label
 _atom_site_symmetry_multiplicity
 _atom_site_fract_x
 _atom_site_fract_y
 _atom_site_fract_z
 _atom_site_occupancy
  Zr  Zr0  1  0.808374  0.283951  0.500000  1
  Zr  Zr1  1  0.716049  0.524423  0.500000  1
  Zr  Zr2  1  0.475577  0.191626  0.500000  1
  Zr  Zr3  1  0.192589  0.717370  0.000000  1
  Zr  Zr4  1  0.282630  0.475219  0.000000  1
  Zr  Zr5  1  0.524781  0.807411  0.000000  1
  Co  Co6  1  0.419716  0.980892  0.000000  1
  Co  Co7  1  0.019108  0.438824  0.000000  1
  Co  Co8  1  0.584066  0.019349  0.500000  1
  Co  Co9  1  0.561176  0.580284  0.000000  1
  Co  Co10  1  0.980651  0.564717  0.500000  1
  Co  Co11  1  0.920152  0.083440  0.500000  1
  Co  Co12  1  0.163288  0.079848  0.500000  1
  Co  Co13  1  0.916560  0.836712  0.500000  1
  Co  Co14  1  0.095874  0.897442  0.000000  1
  Co  Co15  1  0.801569  0.904126  0.000000  1
  Co  Co16  1  0.102558  0.198431  0.000000  1
  Co  Co17  1  0.333333  0.666667  0.500000  1
  Co  Co18  1  0.666667  0.333333  0.000000  1
  Co  Co19  1  0.676377  0.746724  0.500000  1
  Co  Co20  1  0.253276  0.929653  0.500000  1
  Co  Co21  1  0.922471  0.677137  0.000000  1
  Co  Co22  1  0.322863  0.245334  0.000000  1
  Co  Co23  1  0.754666  0.077529  0.000000  1
  Co  Co24  1  0.435283  0.415934  0.500000  1
  Co  Co25  1  0.070347  0.323623  0.500000  1
  P  P26  1  0.000000  0.000000  0.000000  1
  P  P27  1  0.230566  0.284300  0.500000  1
  P  P28  1  0.715700  0.946265  0.500000  1
  P  P29  1  0.053735  0.769434  0.500000  1
  P  P30  1  0.766468  0.712995  0.000000  1
  P  P31  1  0.287005  0.053473  0.000000  1
  P  P32  1  0.473271  0.613082  0.500000  1
  P  P33  1  0.386918  0.860188  0.500000  1
  P  P34  1  0.859513  0.475245  0.000000  1
  P  P35  1  0.524755  0.384268  0.000000  1
  P  P36  1  0.615732  0.140487  0.000000  1
  P  P37  1  0.946527  0.233532  0.000000  1
  P  P38  1  0.139812  0.526729  0.500000  1
