# generated using pymatgen
data_Th3V(Co4P3)2
_symmetry_space_group_name_H-M   'P 1'
_cell_length_a   3.81587900
_cell_length_b   10.69131400
_cell_length_c   12.45083600
_cell_angle_alpha   90.00000000
_cell_angle_beta   90.00000000
_cell_angle_gamma   90.00000000
_symmetry_Int_Tables_number   1
_chemical_formula_structural   Th3V(Co4P3)2
_chemical_formula_sum   'Th6 V2 Co16 P12'
_cell_volume   507.95377525
_cell_formula_units_Z   2
loop_
 _symmetry_equiv_pos_site_id
 _symmetry_equiv_pos_as_xyz
  1  'x, y, z'
loop_
 _atom_site_type_symbol
 _atom_site_label
 _atom_site_symmetry_multiplicity
 _atom_site_fract_x
 _atom_site_fract_y
 _atom_site_fract_z
 _atom_site_occupancy
  Th  Th0  1  0.000000  0.500000  0.521379  1
  Th  Th1  1  0.500000  0.000000  0.478621  1
  Th  Th2  1  0.500000  0.817306  0.206510  1
  Th  Th3  1  0.500000  0.182694  0.206510  1
  Th  Th4  1  0.000000  0.682694  0.793490  1
  Th  Th5  1  0.000000  0.317306  0.793490  1
  V  V6  1  0.500000  0.500000  0.149024  1
  V  V7  1  0.000000  0.000000  0.850976  1
  Co  Co8  1  0.500000  0.500000  0.702300  1
  Co  Co9  1  0.000000  0.000000  0.297700  1
  Co  Co10  1  0.000000  0.500000  0.985522  1
  Co  Co11  1  0.500000  0.000000  0.014478  1
  Co  Co12  1  0.500000  0.332737  0.993361  1
  Co  Co13  1  0.500000  0.667263  0.993361  1
  Co  Co14  1  0.000000  0.167263  0.006639  1
  Co  Co15  1  0.000000  0.832737  0.006639  1
  Co  Co16  1  0.500000  0.300213  0.427739  1
  Co  Co17  1  0.500000  0.699787  0.427739  1
  Co  Co18  1  0.000000  0.199787  0.572261  1
  Co  Co19  1  0.000000  0.800213  0.572261  1
  Co  Co20  1  0.500000  0.880940  0.713620  1
  Co  Co21  1  0.500000  0.119060  0.713620  1
  Co  Co22  1  0.000000  0.619060  0.286380  1
  Co  Co23  1  0.000000  0.380940  0.286380  1
  P  P24  1  0.500000  0.500000  0.886468  1
  P  P25  1  0.000000  0.000000  0.113532  1
  P  P26  1  0.500000  0.500000  0.338828  1
  P  P27  1  0.000000  0.000000  0.661172  1
  P  P28  1  0.500000  0.305040  0.612013  1
  P  P29  1  0.500000  0.694960  0.612013  1
  P  P30  1  0.000000  0.194960  0.387987  1
  P  P31  1  0.000000  0.805040  0.387987  1
  P  P32  1  0.500000  0.848794  0.896819  1
  P  P33  1  0.500000  0.151206  0.896819  1
  P  P34  1  0.000000  0.651206  0.103181  1
  P  P35  1  0.000000  0.348794  0.103181  1
