# generated using pymatgen
data_Ce8Zn(Si4Ir)3
_symmetry_space_group_name_H-M   'P 1'
_cell_length_a   8.20459000
_cell_length_b   8.20459055
_cell_length_c   8.28029500
_cell_angle_alpha   90.00000000
_cell_angle_beta   90.00000000
_cell_angle_gamma   119.99999779
_symmetry_Int_Tables_number   1
_chemical_formula_structural   Ce8Zn(Si4Ir)3
_chemical_formula_sum   'Ce8 Zn1 Si12 Ir3'
_cell_volume   482.71439115
_cell_formula_units_Z   1
loop_
 _symmetry_equiv_pos_site_id
 _symmetry_equiv_pos_as_xyz
  1  'x, y, z'
loop_
 _atom_site_type_symbol
 _atom_site_label
 _atom_site_symmetry_multiplicity
 _atom_site_fract_x
 _atom_site_fract_y
 _atom_site_fract_z
 _atom_site_occupancy
  Ce  Ce0  1  0.000000  0.000000  0.249118  1
  Ce  Ce1  1  0.000000  0.000000  0.750954  1
  Ce  Ce2  1  0.502562  0.497438  0.252812  1
  Ce  Ce3  1  0.502562  0.005123  0.252812  1
  Ce  Ce4  1  0.994877  0.497438  0.252812  1
  Ce  Ce5  1  0.503480  0.496520  0.747230  1
  Ce  Ce6  1  0.503480  0.006961  0.747230  1
  Ce  Ce7  1  0.993039  0.496520  0.747230  1
  Zn  Zn8  1  0.333333  0.666667  0.997819  1
  Si  Si9  1  0.165987  0.834013  0.500678  1
  Si  Si10  1  0.165987  0.331975  0.500678  1
  Si  Si11  1  0.668025  0.834013  0.500678  1
  Si  Si12  1  0.835388  0.164612  0.499471  1
  Si  Si13  1  0.835388  0.670775  0.499471  1
  Si  Si14  1  0.329225  0.164612  0.499471  1
  Si  Si15  1  0.834189  0.165811  0.000456  1
  Si  Si16  1  0.834189  0.668378  0.000456  1
  Si  Si17  1  0.331622  0.165811  0.000456  1
  Si  Si18  1  0.165492  0.834508  0.999545  1
  Si  Si19  1  0.165492  0.330984  0.999545  1
  Si  Si20  1  0.669016  0.834508  0.999545  1
  Ir  Ir21  1  0.333333  0.666667  0.501242  1
  Ir  Ir22  1  0.666667  0.333333  0.498990  1
  Ir  Ir23  1  0.666667  0.333333  0.001302  1
