# generated using pymatgen
data_Li2Pr2Ni15
_symmetry_space_group_name_H-M   'P 1'
_cell_length_a   6.31482826
_cell_length_b   6.31482779
_cell_length_c   6.31482781
_cell_angle_alpha   83.53739513
_cell_angle_beta   83.53739898
_cell_angle_gamma   83.53740318
_symmetry_Int_Tables_number   1
_chemical_formula_structural   Li2Pr2Ni15
_chemical_formula_sum   'Li2 Pr2 Ni15'
_cell_volume   247.35096287
_cell_formula_units_Z   1
loop_
 _symmetry_equiv_pos_site_id
 _symmetry_equiv_pos_as_xyz
  1  'x, y, z'
loop_
 _atom_site_type_symbol
 _atom_site_label
 _atom_site_symmetry_multiplicity
 _atom_site_fract_x
 _atom_site_fract_y
 _atom_site_fract_z
 _atom_site_occupancy
  Li  Li0  1  0.906368  0.906368  0.906368  1
  Li  Li1  1  0.093632  0.093632  0.093632  1
  Pr  Pr2  1  0.656934  0.656934  0.656934  1
  Pr  Pr3  1  0.343066  0.343066  0.343066  1
  Ni  Ni4  1  0.000000  0.000000  0.500000  1
  Ni  Ni5  1  0.500000  0.000000  0.000000  1
  Ni  Ni6  1  0.000000  0.500000  0.000000  1
  Ni  Ni7  1  0.703302  0.296698  0.000000  1
  Ni  Ni8  1  0.000000  0.703302  0.296698  1
  Ni  Ni9  1  0.296698  0.000000  0.703302  1
  Ni  Ni10  1  0.000000  0.296698  0.703302  1
  Ni  Ni11  1  0.703302  0.000000  0.296698  1
  Ni  Ni12  1  0.296698  0.703302  0.000000  1
  Ni  Ni13  1  0.342270  0.342270  0.845224  1
  Ni  Ni14  1  0.845224  0.342270  0.342270  1
  Ni  Ni15  1  0.342270  0.845224  0.342270  1
  Ni  Ni16  1  0.657730  0.657730  0.154776  1
  Ni  Ni17  1  0.154776  0.657730  0.657730  1
  Ni  Ni18  1  0.657730  0.154776  0.657730  1
