# generated using pymatgen
data_TaOs2Cl15
_symmetry_space_group_name_H-M   'P 1'
_cell_length_a   13.45070893
_cell_length_b   13.45070910
_cell_length_c   6.35671304
_cell_angle_alpha   89.02038262
_cell_angle_beta   89.02037847
_cell_angle_gamma   86.85332289
_symmetry_Int_Tables_number   1
_chemical_formula_structural   TaOs2Cl15
_chemical_formula_sum   'Ta2 Os4 Cl30'
_cell_volume   1148.01431312
_cell_formula_units_Z   2
loop_
 _symmetry_equiv_pos_site_id
 _symmetry_equiv_pos_as_xyz
  1  'x, y, z'
loop_
 _atom_site_type_symbol
 _atom_site_label
 _atom_site_symmetry_multiplicity
 _atom_site_fract_x
 _atom_site_fract_y
 _atom_site_fract_z
 _atom_site_occupancy
  Ta  Ta0  1  0.107497  0.892503  0.000000  1
  Ta  Ta1  1  0.892503  0.107497  0.000000  1
  Os  Os2  1  0.767995  0.565965  0.524228  1
  Os  Os3  1  0.434035  0.232005  0.475772  1
  Os  Os4  1  0.232005  0.434035  0.475772  1
  Os  Os5  1  0.565965  0.767995  0.524228  1
  Cl  Cl6  1  0.668226  0.475626  0.741242  1
  Cl  Cl7  1  0.524374  0.331774  0.258758  1
  Cl  Cl8  1  0.331774  0.524374  0.258758  1
  Cl  Cl9  1  0.475626  0.668226  0.741242  1
  Cl  Cl10  1  0.797639  0.435224  0.311728  1
  Cl  Cl11  1  0.564776  0.202361  0.688272  1
  Cl  Cl12  1  0.951099  0.951099  0.209227  1
  Cl  Cl13  1  0.048901  0.048901  0.790773  1
  Cl  Cl14  1  0.761721  0.131192  0.228886  1
  Cl  Cl15  1  0.868808  0.238279  0.771114  1
  Cl  Cl16  1  0.238279  0.868808  0.771114  1
  Cl  Cl17  1  0.131192  0.761721  0.228886  1
  Cl  Cl18  1  0.808815  0.999760  0.792168  1
  Cl  Cl19  1  0.000240  0.191185  0.207832  1
  Cl  Cl20  1  0.191185  0.000240  0.207832  1
  Cl  Cl21  1  0.999760  0.808815  0.792168  1
  Cl  Cl22  1  0.714977  0.714977  0.725330  1
  Cl  Cl23  1  0.285023  0.285023  0.274670  1
  Cl  Cl24  1  0.536694  0.898754  0.736638  1
  Cl  Cl25  1  0.101246  0.463306  0.263362  1
  Cl  Cl26  1  0.463306  0.101246  0.263362  1
  Cl  Cl27  1  0.898754  0.536694  0.736638  1
  Cl  Cl28  1  0.665834  0.857994  0.307145  1
  Cl  Cl29  1  0.142006  0.334166  0.692855  1
  Cl  Cl30  1  0.334166  0.142006  0.692855  1
  Cl  Cl31  1  0.857994  0.665834  0.307145  1
  Cl  Cl32  1  0.618826  0.618826  0.323239  1
  Cl  Cl33  1  0.381174  0.381174  0.676761  1
  Cl  Cl34  1  0.435224  0.797639  0.311728  1
  Cl  Cl35  1  0.202361  0.564776  0.688272  1
