# generated using pymatgen
data_CaCo2(Sb6Ru)2
_symmetry_space_group_name_H-M   'P 1'
_cell_length_a   8.07341091
_cell_length_b   8.01712165
_cell_length_c   8.01712201
_cell_angle_alpha   109.09700926
_cell_angle_beta   109.48128631
_cell_angle_gamma   109.55072049
_symmetry_Int_Tables_number   1
_chemical_formula_structural   CaCo2(Sb6Ru)2
_chemical_formula_sum   'Ca1 Co2 Sb12 Ru2'
_cell_volume   400.85058168
_cell_formula_units_Z   1
loop_
 _symmetry_equiv_pos_site_id
 _symmetry_equiv_pos_as_xyz
  1  'x, y, z'
loop_
 _atom_site_type_symbol
 _atom_site_label
 _atom_site_symmetry_multiplicity
 _atom_site_fract_x
 _atom_site_fract_y
 _atom_site_fract_z
 _atom_site_occupancy
  Ca  Ca0  1  0.000000  0.000000  0.000000  1
  Co  Co1  1  0.500000  0.500000  0.500000  1
  Co  Co2  1  0.500000  0.000000  0.000000  1
  Sb  Sb3  1  0.164081  0.496997  0.342519  1
  Sb  Sb4  1  0.504062  0.664541  0.839520  1
  Sb  Sb5  1  0.341568  0.845021  0.178236  1
  Sb  Sb6  1  0.817540  0.660116  0.157424  1
  Sb  Sb7  1  0.658432  0.836667  0.503453  1
  Sb  Sb8  1  0.182460  0.339884  0.842576  1
  Sb  Sb9  1  0.658432  0.154979  0.821764  1
  Sb  Sb10  1  0.341568  0.163333  0.496547  1
  Sb  Sb11  1  0.495938  0.335459  0.160480  1
  Sb  Sb12  1  0.835919  0.503003  0.657481  1
  Sb  Sb13  1  0.835919  0.178441  0.332916  1
  Sb  Sb14  1  0.164081  0.821559  0.667084  1
  Ru  Ru15  1  0.000000  0.500000  0.000000  1
  Ru  Ru16  1  0.000000  0.000000  0.500000  1
