# generated using pymatgen
data_YbEu3(HgN)2
_symmetry_space_group_name_H-M   'P 1'
_cell_length_a   10.17738800
_cell_length_b   10.17738867
_cell_length_c   5.04269100
_cell_angle_alpha   90.00000000
_cell_angle_beta   90.00000000
_cell_angle_gamma   160.40152987
_symmetry_Int_Tables_number   1
_chemical_formula_structural   YbEu3(HgN)2
_chemical_formula_sum   'Yb1 Eu3 Hg2 N2'
_cell_volume   175.19927715
_cell_formula_units_Z   1
loop_
 _symmetry_equiv_pos_site_id
 _symmetry_equiv_pos_as_xyz
  1  'x, y, z'
loop_
 _atom_site_type_symbol
 _atom_site_label
 _atom_site_symmetry_multiplicity
 _atom_site_fract_x
 _atom_site_fract_y
 _atom_site_fract_z
 _atom_site_occupancy
  Yb  Yb0  1  0.215505  0.784495  0.750000  1
  Eu  Eu1  1  0.784729  0.215271  0.250000  1
  Eu  Eu2  1  0.385886  0.614114  0.750000  1
  Eu  Eu3  1  0.613207  0.386793  0.250000  1
  Hg  Hg4  1  0.044233  0.955767  0.750000  1
  Hg  Hg5  1  0.957116  0.042884  0.250000  1
  N  N6  1  0.799880  0.200120  0.750000  1
  N  N7  1  0.199443  0.800557  0.250000  1
