# generated using pymatgen
data_Tb8InRh2Au
_symmetry_space_group_name_H-M   'P 1'
_cell_length_a   9.61692747
_cell_length_b   9.61692696
_cell_length_c   9.63328400
_cell_angle_alpha   59.94372005
_cell_angle_beta   59.94372181
_cell_angle_gamma   60.06905220
_symmetry_Int_Tables_number   1
_chemical_formula_structural   Tb8InRh2Au
_chemical_formula_sum   'Tb16 In2 Rh4 Au2'
_cell_volume   629.77846514
_cell_formula_units_Z   2
loop_
 _symmetry_equiv_pos_site_id
 _symmetry_equiv_pos_as_xyz
  1  'x, y, z'
loop_
 _atom_site_type_symbol
 _atom_site_label
 _atom_site_symmetry_multiplicity
 _atom_site_fract_x
 _atom_site_fract_y
 _atom_site_fract_z
 _atom_site_occupancy
  Tb  Tb0  1  0.807603  0.807603  0.192397  1
  Tb  Tb1  1  0.810053  0.191352  0.807313  1
  Tb  Tb2  1  0.191543  0.191543  0.808457  1
  Tb  Tb3  1  0.645773  0.056946  0.648641  1
  Tb  Tb4  1  0.063471  0.063471  0.436529  1
  Tb  Tb5  1  0.439197  0.439197  0.060803  1
  Tb  Tb6  1  0.648862  0.648862  0.650173  1
  Tb  Tb7  1  0.810053  0.191352  0.191282  1
  Tb  Tb8  1  0.191352  0.810053  0.807313  1
  Tb  Tb9  1  0.056946  0.645773  0.648641  1
  Tb  Tb10  1  0.438324  0.069293  0.057022  1
  Tb  Tb11  1  0.438324  0.069293  0.435362  1
  Tb  Tb12  1  0.069293  0.438324  0.057022  1
  Tb  Tb13  1  0.648862  0.648862  0.052104  1
  Tb  Tb14  1  0.191352  0.810053  0.191282  1
  Tb  Tb15  1  0.069293  0.438324  0.435362  1
  In  In16  1  0.416788  0.740905  0.421153  1
  In  In17  1  0.740905  0.416788  0.421153  1
  Rh  Rh18  1  0.857366  0.427630  0.857503  1
  Rh  Rh19  1  0.857192  0.857192  0.859269  1
  Rh  Rh20  1  0.857192  0.857192  0.426349  1
  Rh  Rh21  1  0.427630  0.857366  0.857503  1
  Au  Au22  1  0.411315  0.411315  0.411439  1
  Au  Au23  1  0.411315  0.411315  0.765929  1
