# generated using pymatgen
data_Y7Er5(LuSn2)8
_symmetry_space_group_name_H-M   'P 1'
_cell_length_a   7.95349049
_cell_length_b   8.08649209
_cell_length_c   15.29544300
_cell_angle_alpha   90.00376942
_cell_angle_beta   90.02008434
_cell_angle_gamma   89.99228980
_symmetry_Int_Tables_number   1
_chemical_formula_structural   Y7Er5(LuSn2)8
_chemical_formula_sum   'Y7 Er5 Lu8 Sn16'
_cell_volume   983.73916158
_cell_formula_units_Z   1
loop_
 _symmetry_equiv_pos_site_id
 _symmetry_equiv_pos_as_xyz
  1  'x, y, z'
loop_
 _atom_site_type_symbol
 _atom_site_label
 _atom_site_symmetry_multiplicity
 _atom_site_fract_x
 _atom_site_fract_y
 _atom_site_fract_z
 _atom_site_occupancy
  Y  Y0  1  0.020455  0.179340  0.596474  1
  Y  Y1  1  0.479762  0.679394  0.403618  1
  Y  Y2  1  0.979593  0.820658  0.096292  1
  Y  Y3  1  0.480837  0.678914  0.096037  1
  Y  Y4  1  0.980788  0.821150  0.403900  1
  Y  Y5  1  0.519015  0.321098  0.595992  1
  Y  Y6  1  0.019175  0.178809  0.903975  1
  Er  Er7  1  0.633812  0.162956  0.122817  1
  Er  Er8  1  0.134158  0.337292  0.377041  1
  Er  Er9  1  0.365846  0.837420  0.623614  1
  Er  Er10  1  0.865935  0.662558  0.876785  1
  Er  Er11  1  0.520964  0.321048  0.903222  1
  Lu  Lu12  1  0.363902  0.838257  0.876278  1
  Lu  Lu13  1  0.863860  0.661677  0.623703  1
  Lu  Lu14  1  0.635966  0.161745  0.376349  1
  Lu  Lu15  1  0.135665  0.338273  0.123505  1
  Lu  Lu16  1  0.196109  0.504592  0.750703  1
  Lu  Lu17  1  0.695870  0.995428  0.749492  1
  Lu  Lu18  1  0.803895  0.495271  0.250564  1
  Lu  Lu19  1  0.303885  0.004633  0.249335  1
  Sn  Sn20  1  0.295604  0.039561  0.040919  1
  Sn  Sn21  1  0.795468  0.460552  0.458872  1
  Sn  Sn22  1  0.704645  0.960731  0.541251  1
  Sn  Sn23  1  0.206785  0.537801  0.958421  1
  Sn  Sn24  1  0.700775  0.961409  0.957630  1
  Sn  Sn25  1  0.201442  0.539635  0.542303  1
  Sn  Sn26  1  0.298632  0.039229  0.457896  1
  Sn  Sn27  1  0.797384  0.460429  0.041748  1
  Sn  Sn28  1  0.561412  0.619249  0.750764  1
  Sn  Sn29  1  0.061313  0.880352  0.749666  1
  Sn  Sn30  1  0.438412  0.380351  0.250477  1
  Sn  Sn31  1  0.938430  0.119292  0.249432  1
  Sn  Sn32  1  0.331054  0.149965  0.750833  1
  Sn  Sn33  1  0.829617  0.350965  0.750231  1
  Sn  Sn34  1  0.669843  0.851218  0.249999  1
  Sn  Sn35  1  0.169694  0.648748  0.249866  1
