# generated using pymatgen
data_Dy6In(Ga3Co8)2
_symmetry_space_group_name_H-M   'P 1'
_cell_length_a   8.56803107
_cell_length_b   8.56739663
_cell_length_c   8.56718000
_cell_angle_alpha   119.99917128
_cell_angle_beta   90.00000000
_cell_angle_gamma   119.99414821
_symmetry_Int_Tables_number   1
_chemical_formula_structural   Dy6In(Ga3Co8)2
_chemical_formula_sum   'Dy6 In1 Ga6 Co16'
_cell_volume   444.73022518
_cell_formula_units_Z   1
loop_
 _symmetry_equiv_pos_site_id
 _symmetry_equiv_pos_as_xyz
  1  'x, y, z'
loop_
 _atom_site_type_symbol
 _atom_site_label
 _atom_site_symmetry_multiplicity
 _atom_site_fract_x
 _atom_site_fract_y
 _atom_site_fract_z
 _atom_site_occupancy
  Dy  Dy0  1  0.280339  0.999920  0.280209  1
  Dy  Dy1  1  0.280238  0.560632  0.280316  1
  Dy  Dy2  1  0.719662  0.000080  0.280288  1
  Dy  Dy3  1  0.719661  0.000080  0.719791  1
  Dy  Dy4  1  0.280339  0.999920  0.719713  1
  Dy  Dy5  1  0.719763  0.439369  0.719685  1
  In  In6  1  0.000000  0.000000  0.000000  1
  Ga  Ga7  1  0.500000  0.000000  0.000000  1
  Ga  Ga8  1  0.000000  0.500000  0.000000  1
  Ga  Ga9  1  0.500000  0.500000  0.000000  1
  Ga  Ga10  1  0.000000  0.000000  0.500000  1
  Ga  Ga11  1  0.000000  0.500000  0.500000  1
  Ga  Ga12  1  0.500000  0.500000  0.500000  1
  Co  Co13  1  0.679140  0.358212  0.037365  1
  Co  Co14  1  0.389137  0.259403  0.129703  1
  Co  Co15  1  0.870351  0.259382  0.129691  1
  Co  Co16  1  0.870286  0.740504  0.129735  1
  Co  Co17  1  0.679140  0.358212  0.320848  1
  Co  Co18  1  0.679164  0.641656  0.320829  1
  Co  Co19  1  0.962738  0.641763  0.320882  1
  Co  Co20  1  0.129714  0.259495  0.389230  1
  Co  Co21  1  0.870286  0.740504  0.610769  1
  Co  Co22  1  0.037263  0.358236  0.679118  1
  Co  Co23  1  0.320836  0.358343  0.679171  1
  Co  Co24  1  0.320860  0.641787  0.679152  1
  Co  Co25  1  0.129714  0.259495  0.870265  1
  Co  Co26  1  0.129649  0.740617  0.870309  1
  Co  Co27  1  0.610862  0.740596  0.870297  1
  Co  Co28  1  0.320860  0.641787  0.962636  1
