# generated using pymatgen
data_Dy10Cd5Hg3Pd4
_symmetry_space_group_name_H-M   'P 1'
_cell_length_a   3.65597200
_cell_length_b   7.92709792
_cell_length_c   18.25322400
_cell_angle_alpha   90.04916376
_cell_angle_beta   90.00000000
_cell_angle_gamma   90.00000000
_symmetry_Int_Tables_number   1
_chemical_formula_structural   Dy10Cd5Hg3Pd4
_chemical_formula_sum   'Dy10 Cd5 Hg3 Pd4'
_cell_volume   529.00101735
_cell_formula_units_Z   1
loop_
 _symmetry_equiv_pos_site_id
 _symmetry_equiv_pos_as_xyz
  1  'x, y, z'
loop_
 _atom_site_type_symbol
 _atom_site_label
 _atom_site_symmetry_multiplicity
 _atom_site_fract_x
 _atom_site_fract_y
 _atom_site_fract_z
 _atom_site_occupancy
  Dy  Dy0  1  0.000000  0.502373  0.497799  1
  Dy  Dy1  1  0.000000  0.000409  0.000290  1
  Dy  Dy2  1  0.000000  0.741437  0.284812  1
  Dy  Dy3  1  0.000000  0.257045  0.717912  1
  Dy  Dy4  1  0.000000  0.759349  0.784403  1
  Dy  Dy5  1  0.000000  0.241494  0.214510  1
  Dy  Dy6  1  0.000000  0.612117  0.084272  1
  Dy  Dy7  1  0.000000  0.390089  0.916623  1
  Dy  Dy8  1  0.000000  0.883628  0.584199  1
  Dy  Dy9  1  0.000000  0.111823  0.415582  1
  Cd  Cd10  1  0.500000  0.214885  0.566901  1
  Cd  Cd11  1  0.500000  0.574664  0.648533  1
  Cd  Cd12  1  0.500000  0.418089  0.350276  1
  Cd  Cd13  1  0.500000  0.919579  0.149270  1
  Cd  Cd14  1  0.500000  0.080275  0.851541  1
  Hg  Hg15  1  0.500000  0.717170  0.934601  1
  Hg  Hg16  1  0.500000  0.285003  0.065066  1
  Hg  Hg17  1  0.500000  0.786656  0.434306  1
  Pd  Pd18  1  0.500000  0.531418  0.196971  1
  Pd  Pd19  1  0.500000  0.470809  0.803761  1
  Pd  Pd20  1  0.500000  0.970541  0.695821  1
  Pd  Pd21  1  0.500000  0.031146  0.302551  1
