# generated using pymatgen
data_Y6Sc7Al9Ir7
_symmetry_space_group_name_H-M   'P 1'
_cell_length_a   9.27370779
_cell_length_b   9.27370760
_cell_length_c   9.27370796
_cell_angle_alpha   59.48672564
_cell_angle_beta   59.48673298
_cell_angle_gamma   59.48672851
_symmetry_Int_Tables_number   1
_chemical_formula_structural   Y6Sc7Al9Ir7
_chemical_formula_sum   'Y6 Sc7 Al9 Ir7'
_cell_volume   557.37232468
_cell_formula_units_Z   1
loop_
 _symmetry_equiv_pos_site_id
 _symmetry_equiv_pos_as_xyz
  1  'x, y, z'
loop_
 _atom_site_type_symbol
 _atom_site_label
 _atom_site_symmetry_multiplicity
 _atom_site_fract_x
 _atom_site_fract_y
 _atom_site_fract_z
 _atom_site_occupancy
  Y  Y0  1  0.693983  0.693983  0.308496  1
  Y  Y1  1  0.302045  0.705969  0.302045  1
  Y  Y2  1  0.705969  0.302045  0.302045  1
  Y  Y3  1  0.302045  0.302045  0.705969  1
  Y  Y4  1  0.693983  0.308496  0.693983  1
  Y  Y5  1  0.308496  0.693983  0.693983  1
  Sc  Sc6  1  0.881174  0.881174  0.361311  1
  Sc  Sc7  1  0.881174  0.361311  0.881174  1
  Sc  Sc8  1  0.361311  0.881174  0.881174  1
  Sc  Sc9  1  0.878456  0.878456  0.878456  1
  Sc  Sc10  1  0.121262  0.121262  0.635453  1
  Sc  Sc11  1  0.121262  0.635453  0.121262  1
  Sc  Sc12  1  0.635453  0.121262  0.121262  1
  Al  Al13  1  0.117471  0.117471  0.117471  1
  Al  Al14  1  0.669361  0.669361  0.992547  1
  Al  Al15  1  0.669361  0.992547  0.669361  1
  Al  Al16  1  0.992547  0.669361  0.669361  1
  Al  Al17  1  0.669830  0.669830  0.669830  1
  Al  Al18  1  0.326744  0.326744  0.009881  1
  Al  Al19  1  0.326744  0.009881  0.326744  1
  Al  Al20  1  0.009881  0.326744  0.326744  1
  Al  Al21  1  0.331135  0.331135  0.331135  1
  Ir  Ir22  1  0.000588  0.000588  0.000588  1
  Ir  Ir23  1  0.001210  0.001210  0.496046  1
  Ir  Ir24  1  0.500237  0.000780  0.500237  1
  Ir  Ir25  1  0.000780  0.500237  0.500237  1
  Ir  Ir26  1  0.500237  0.500237  0.000780  1
  Ir  Ir27  1  0.001210  0.496046  0.001210  1
  Ir  Ir28  1  0.496046  0.001210  0.001210  1
