# generated using pymatgen
data_Eu3P6Ir5Os
_symmetry_space_group_name_H-M   'P 1'
_cell_length_a   6.72826925
_cell_length_b   6.73681572
_cell_length_c   7.14993955
_cell_angle_alpha   90.04033106
_cell_angle_beta   89.96634308
_cell_angle_gamma   119.81793580
_symmetry_Int_Tables_number   1
_chemical_formula_structural   Eu3P6Ir5Os
_chemical_formula_sum   'Eu3 P6 Ir5 Os1'
_cell_volume   281.18020595
_cell_formula_units_Z   1
loop_
 _symmetry_equiv_pos_site_id
 _symmetry_equiv_pos_as_xyz
  1  'x, y, z'
loop_
 _atom_site_type_symbol
 _atom_site_label
 _atom_site_symmetry_multiplicity
 _atom_site_fract_x
 _atom_site_fract_y
 _atom_site_fract_z
 _atom_site_occupancy
  Eu  Eu0  1  0.396726  0.396328  0.499899  1
  Eu  Eu1  1  0.605468  0.000613  0.167461  1
  Eu  Eu2  1  0.000753  0.605466  0.832633  1
  P  P3  1  0.883738  0.219746  0.540601  1
  P  P4  1  0.219593  0.883392  0.459428  1
  P  P5  1  0.118121  0.339471  0.124941  1
  P  P6  1  0.776405  0.662238  0.211798  1
  P  P7  1  0.339885  0.118585  0.875120  1
  P  P8  1  0.661912  0.776185  0.788091  1
  Ir  Ir9  1  0.132743  0.999220  0.165781  1
  Ir  Ir10  1  0.485740  0.485813  0.999797  1
  Ir  Ir11  1  0.999024  0.515262  0.333114  1
  Ir  Ir12  1  0.515521  0.999155  0.667124  1
  Ir  Ir13  1  0.998871  0.132772  0.834241  1
  Os  Os14  1  0.865499  0.865755  0.499973  1
