# generated using pymatgen
data_Hf6Zr3CrRe3Ni
_symmetry_space_group_name_H-M   'P 1'
_cell_length_a   8.64127600
_cell_length_b   8.64111274
_cell_length_c   8.33911700
_cell_angle_alpha   90.00000000
_cell_angle_beta   90.00000000
_cell_angle_gamma   119.99994230
_symmetry_Int_Tables_number   1
_chemical_formula_structural   Hf6Zr3CrRe3Ni
_chemical_formula_sum   'Hf12 Zr6 Cr2 Re6 Ni2'
_cell_volume   539.26036244
_cell_formula_units_Z   2
loop_
 _symmetry_equiv_pos_site_id
 _symmetry_equiv_pos_as_xyz
  1  'x, y, z'
loop_
 _atom_site_type_symbol
 _atom_site_label
 _atom_site_symmetry_multiplicity
 _atom_site_fract_x
 _atom_site_fract_y
 _atom_site_fract_z
 _atom_site_occupancy
  Hf  Hf0  1  0.195861  0.804123  0.442945  1
  Hf  Hf1  1  0.195871  0.391742  0.442959  1
  Hf  Hf2  1  0.608262  0.804128  0.442941  1
  Hf  Hf3  1  0.804139  0.195877  0.557055  1
  Hf  Hf4  1  0.804129  0.608258  0.557041  1
  Hf  Hf5  1  0.391738  0.195872  0.557059  1
  Hf  Hf6  1  0.804139  0.195877  0.942945  1
  Hf  Hf7  1  0.804129  0.608258  0.942959  1
  Hf  Hf8  1  0.391738  0.195872  0.942941  1
  Hf  Hf9  1  0.195861  0.804123  0.057055  1
  Hf  Hf10  1  0.195871  0.391742  0.057041  1
  Hf  Hf11  1  0.608262  0.804128  0.057059  1
  Zr  Zr12  1  0.541508  0.458468  0.250000  1
  Zr  Zr13  1  0.541525  0.083041  0.250000  1
  Zr  Zr14  1  0.916953  0.458473  0.250000  1
  Zr  Zr15  1  0.458492  0.541532  0.750000  1
  Zr  Zr16  1  0.458475  0.916959  0.750000  1
  Zr  Zr17  1  0.083047  0.541527  0.750000  1
  Cr  Cr18  1  0.000000  0.000000  0.500000  1
  Cr  Cr19  1  0.000000  0.000000  0.000000  1
  Re  Re20  1  0.892821  0.107237  0.250000  1
  Re  Re21  1  0.892852  0.785680  0.250000  1
  Re  Re22  1  0.214440  0.107231  0.250000  1
  Re  Re23  1  0.107179  0.892763  0.750000  1
  Re  Re24  1  0.107148  0.214320  0.750000  1
  Re  Re25  1  0.785560  0.892769  0.750000  1
  Ni  Ni26  1  0.333332  0.666667  0.250000  1
  Ni  Ni27  1  0.666668  0.333333  0.750000  1
