# generated using pymatgen
data_Yb3Sm(NiBi2)4
_symmetry_space_group_name_H-M   'P 1'
_cell_length_a   4.30372200
_cell_length_b   8.43276785
_cell_length_c   11.15124001
_cell_angle_alpha   89.86567865
_cell_angle_beta   90.00000000
_cell_angle_gamma   90.00000000
_symmetry_Int_Tables_number   1
_chemical_formula_structural   Yb3Sm(NiBi2)4
_chemical_formula_sum   'Yb3 Sm1 Ni4 Bi8'
_cell_volume   404.70290775
_cell_formula_units_Z   1
loop_
 _symmetry_equiv_pos_site_id
 _symmetry_equiv_pos_as_xyz
  1  'x, y, z'
loop_
 _atom_site_type_symbol
 _atom_site_label
 _atom_site_symmetry_multiplicity
 _atom_site_fract_x
 _atom_site_fract_y
 _atom_site_fract_z
 _atom_site_occupancy
  Yb  Yb0  1  0.750000  0.222308  0.636163  1
  Yb  Yb1  1  0.250000  0.777317  0.361330  1
  Yb  Yb2  1  0.750000  0.721777  0.862962  1
  Sm  Sm3  1  0.250000  0.273185  0.141031  1
  Ni  Ni4  1  0.250000  0.089835  0.477517  1
  Ni  Ni5  1  0.750000  0.910169  0.519546  1
  Ni  Ni6  1  0.250000  0.590544  0.021799  1
  Ni  Ni7  1  0.750000  0.412276  0.982039  1
  Bi  Bi8  1  0.750000  0.109663  0.929335  1
  Bi  Bi9  1  0.250000  0.894261  0.067681  1
  Bi  Bi10  1  0.750000  0.608193  0.569798  1
  Bi  Bi11  1  0.250000  0.393534  0.429958  1
  Bi  Bi12  1  0.250000  0.408895  0.829573  1
  Bi  Bi13  1  0.750000  0.590849  0.174544  1
  Bi  Bi14  1  0.250000  0.906602  0.668851  1
  Bi  Bi15  1  0.750000  0.090592  0.327871  1
