# generated using pymatgen
data_Y2Ta3Co9SiAs6
_symmetry_space_group_name_H-M   'P 1'
_cell_length_a   3.79391700
_cell_length_b   9.55273322
_cell_length_c   9.55273300
_cell_angle_alpha   119.99999576
_cell_angle_beta   90.00000000
_cell_angle_gamma   90.00000000
_symmetry_Int_Tables_number   1
_chemical_formula_structural   Y2Ta3Co9SiAs6
_chemical_formula_sum   'Y2 Ta3 Co9 Si1 As6'
_cell_volume   299.82908858
_cell_formula_units_Z   1
loop_
 _symmetry_equiv_pos_site_id
 _symmetry_equiv_pos_as_xyz
  1  'x, y, z'
loop_
 _atom_site_type_symbol
 _atom_site_label
 _atom_site_symmetry_multiplicity
 _atom_site_fract_x
 _atom_site_fract_y
 _atom_site_fract_z
 _atom_site_occupancy
  Y  Y0  1  0.000000  0.666667  0.333333  1
  Y  Y1  1  0.500000  0.333333  0.666667  1
  Ta  Ta2  1  0.500000  0.780759  0.897737  1
  Ta  Ta3  1  0.500000  0.116978  0.219241  1
  Ta  Ta4  1  0.500000  0.102263  0.883022  1
  Co  Co5  1  0.000000  0.572624  0.937931  1
  Co  Co6  1  0.000000  0.365307  0.427376  1
  Co  Co7  1  0.000000  0.062069  0.634693  1
  Co  Co8  1  0.000000  0.880900  0.156223  1
  Co  Co9  1  0.000000  0.275324  0.119100  1
  Co  Co10  1  0.000000  0.843777  0.724676  1
  Co  Co11  1  0.500000  0.947931  0.383726  1
  Co  Co12  1  0.500000  0.435794  0.052069  1
  Co  Co13  1  0.500000  0.616274  0.564206  1
  Si  Si14  1  0.000000  0.000000  0.000000  1
  As  As15  1  0.500000  0.708174  0.124509  1
  As  As16  1  0.500000  0.416335  0.291826  1
  As  As17  1  0.500000  0.875491  0.583665  1
  As  As18  1  0.000000  0.580667  0.691804  1
  As  As19  1  0.000000  0.111137  0.419333  1
  As  As20  1  0.000000  0.308196  0.888863  1
