# generated using pymatgen
data_CaVInP2O9
_symmetry_space_group_name_H-M   'P 1'
_cell_length_a   6.66353200
_cell_length_b   7.56741500
_cell_length_c   14.75866000
_cell_angle_alpha   90.00000000
_cell_angle_beta   90.00000000
_cell_angle_gamma   90.00000000
_symmetry_Int_Tables_number   1
_chemical_formula_structural   CaVInP2O9
_chemical_formula_sum   'Ca4 V4 In4 P8 O36'
_cell_volume   744.21593881
_cell_formula_units_Z   4
loop_
 _symmetry_equiv_pos_site_id
 _symmetry_equiv_pos_as_xyz
  1  'x, y, z'
loop_
 _atom_site_type_symbol
 _atom_site_label
 _atom_site_symmetry_multiplicity
 _atom_site_fract_x
 _atom_site_fract_y
 _atom_site_fract_z
 _atom_site_occupancy
  Ca  Ca0  1  0.250000  0.895898  0.274228  1
  Ca  Ca1  1  0.250000  0.604102  0.774228  1
  Ca  Ca2  1  0.750000  0.395898  0.225772  1
  Ca  Ca3  1  0.750000  0.104102  0.725772  1
  V  V4  1  0.250000  0.357153  0.381584  1
  V  V5  1  0.750000  0.642847  0.618416  1
  V  V6  1  0.750000  0.857153  0.118416  1
  V  V7  1  0.250000  0.142847  0.881584  1
  In  In8  1  0.000000  0.000000  0.500000  1
  In  In9  1  0.000000  0.500000  0.000000  1
  In  In10  1  0.500000  0.500000  0.000000  1
  In  In11  1  0.500000  0.000000  0.500000  1
  P  P12  1  0.750000  0.368391  0.432356  1
  P  P13  1  0.250000  0.631609  0.567644  1
  P  P14  1  0.250000  0.868391  0.067644  1
  P  P15  1  0.750000  0.131609  0.932356  1
  P  P16  1  0.250000  0.386173  0.197304  1
  P  P17  1  0.250000  0.113827  0.697304  1
  P  P18  1  0.750000  0.886173  0.302696  1
  P  P19  1  0.750000  0.613827  0.802696  1
  O  O20  1  0.556453  0.608092  0.861388  1
  O  O21  1  0.056453  0.391908  0.138612  1
  O  O22  1  0.443547  0.108092  0.638612  1
  O  O23  1  0.943547  0.891908  0.361388  1
  O  O24  1  0.443547  0.391908  0.138612  1
  O  O25  1  0.943547  0.608092  0.861388  1
  O  O26  1  0.556453  0.891908  0.361388  1
  O  O27  1  0.056453  0.108092  0.638612  1
  O  O28  1  0.750000  0.315466  0.982706  1
  O  O29  1  0.250000  0.684534  0.017294  1
  O  O30  1  0.250000  0.815466  0.517294  1
  O  O31  1  0.750000  0.184534  0.482706  1
  O  O32  1  0.250000  0.128726  0.439761  1
  O  O33  1  0.750000  0.871274  0.560239  1
  O  O34  1  0.750000  0.628726  0.060239  1
  O  O35  1  0.250000  0.371274  0.939761  1
  O  O36  1  0.250000  0.216025  0.257079  1
  O  O37  1  0.750000  0.783975  0.742921  1
  O  O38  1  0.750000  0.716025  0.242921  1
  O  O39  1  0.250000  0.283975  0.757079  1
  O  O40  1  0.933864  0.124712  0.868460  1
  O  O41  1  0.433864  0.875288  0.131540  1
  O  O42  1  0.066136  0.624712  0.631540  1
  O  O43  1  0.566136  0.375288  0.368460  1
  O  O44  1  0.066136  0.875288  0.131540  1
  O  O45  1  0.566136  0.124712  0.868460  1
  O  O46  1  0.933864  0.375288  0.368460  1
  O  O47  1  0.433864  0.624712  0.631540  1
  O  O48  1  0.250000  0.491647  0.494029  1
  O  O49  1  0.750000  0.037819  0.230502  1
  O  O50  1  0.750000  0.462181  0.730502  1
  O  O51  1  0.250000  0.537819  0.269498  1
  O  O52  1  0.250000  0.008353  0.994029  1
  O  O53  1  0.750000  0.991647  0.005971  1
  O  O54  1  0.750000  0.508353  0.505971  1
  O  O55  1  0.250000  0.962181  0.769498  1
