# generated using pymatgen
data_HfZr2Al3CoNi2
_symmetry_space_group_name_H-M   'P 1'
_cell_length_a   6.92829401
_cell_length_b   6.94421787
_cell_length_c   3.44007800
_cell_angle_alpha   90.00000000
_cell_angle_beta   90.00000000
_cell_angle_gamma   120.15435213
_symmetry_Int_Tables_number   1
_chemical_formula_structural   HfZr2Al3CoNi2
_chemical_formula_sum   'Hf1 Zr2 Al3 Co1 Ni2'
_cell_volume   143.11033009
_cell_formula_units_Z   1
loop_
 _symmetry_equiv_pos_site_id
 _symmetry_equiv_pos_as_xyz
  1  'x, y, z'
loop_
 _atom_site_type_symbol
 _atom_site_label
 _atom_site_symmetry_multiplicity
 _atom_site_fract_x
 _atom_site_fract_y
 _atom_site_fract_z
 _atom_site_occupancy
  Hf  Hf0  1  0.991975  0.586282  0.500000  1
  Zr  Zr1  1  0.414644  0.406946  0.500000  1
  Zr  Zr2  1  0.593588  0.007456  0.500000  1
  Al  Al3  1  0.748595  0.750345  0.000000  1
  Al  Al4  1  0.249027  0.996899  0.000000  1
  Al  Al5  1  0.002432  0.251940  0.000000  1
  Co  Co6  1  0.670168  0.336183  0.000000  1
  Ni  Ni7  1  0.329579  0.666145  0.000000  1
  Ni  Ni8  1  0.999994  0.997803  0.500000  1
