# generated using pymatgen
data_SmDy4Y3(PSe)8
_symmetry_space_group_name_H-M   'P 1'
_cell_length_a   5.46006500
_cell_length_b   5.51514600
_cell_length_c   17.18225300
_cell_angle_alpha   90.00000000
_cell_angle_beta   90.00000000
_cell_angle_gamma   90.00000000
_symmetry_Int_Tables_number   1
_chemical_formula_structural   SmDy4Y3(PSe)8
_chemical_formula_sum   'Sm1 Dy4 Y3 P8 Se8'
_cell_volume   517.41014069
_cell_formula_units_Z   1
loop_
 _symmetry_equiv_pos_site_id
 _symmetry_equiv_pos_as_xyz
  1  'x, y, z'
loop_
 _atom_site_type_symbol
 _atom_site_label
 _atom_site_symmetry_multiplicity
 _atom_site_fract_x
 _atom_site_fract_y
 _atom_site_fract_z
 _atom_site_occupancy
  Sm  Sm0  1  0.750000  0.015724  0.870130  1
  Dy  Dy1  1  0.250000  0.014666  0.639785  1
  Dy  Dy2  1  0.250000  0.514501  0.859704  1
  Dy  Dy3  1  0.750000  0.985277  0.359977  1
  Dy  Dy4  1  0.750000  0.485062  0.140399  1
  Y  Y5  1  0.250000  0.484074  0.368913  1
  Y  Y6  1  0.250000  0.984048  0.131319  1
  Y  Y7  1  0.750000  0.515978  0.630922  1
  P  P8  1  0.040496  0.300237  0.997659  1
  P  P9  1  0.460341  0.799293  0.502669  1
  P  P10  1  0.539570  0.699933  0.003345  1
  P  P11  1  0.960355  0.200717  0.497134  1
  P  P12  1  0.960430  0.699933  0.003345  1
  P  P13  1  0.539645  0.200717  0.497134  1
  P  P14  1  0.459504  0.300237  0.997659  1
  P  P15  1  0.039659  0.799293  0.502669  1
  Se  Se16  1  0.250000  0.485374  0.189971  1
  Se  Se17  1  0.250000  0.985358  0.310001  1
  Se  Se18  1  0.750000  0.514752  0.809324  1
  Se  Se19  1  0.750000  0.014738  0.688789  1
  Se  Se20  1  0.250000  0.011262  0.814519  1
  Se  Se21  1  0.250000  0.511184  0.684547  1
  Se  Se22  1  0.750000  0.988807  0.184662  1
  Se  Se23  1  0.750000  0.488835  0.315426  1
