# generated using pymatgen
data_Tm5Zn2Bi
_symmetry_space_group_name_H-M   'P 1'
_cell_length_a   8.52359619
_cell_length_b   8.52359610
_cell_length_c   8.52359600
_cell_angle_alpha   123.80137969
_cell_angle_beta   123.80137959
_cell_angle_gamma   83.53297883
_symmetry_Int_Tables_number   1
_chemical_formula_structural   Tm5Zn2Bi
_chemical_formula_sum   'Tm10 Zn4 Bi2'
_cell_volume   409.85794284
_cell_formula_units_Z   2
loop_
 _symmetry_equiv_pos_site_id
 _symmetry_equiv_pos_as_xyz
  1  'x, y, z'
loop_
 _atom_site_type_symbol
 _atom_site_label
 _atom_site_symmetry_multiplicity
 _atom_site_fract_x
 _atom_site_fract_y
 _atom_site_fract_z
 _atom_site_occupancy
  Tm  Tm0  1  0.000000  0.000000  0.000000  1
  Tm  Tm1  1  0.500000  0.500000  0.000000  1
  Tm  Tm2  1  0.794900  0.294900  0.805673  1
  Tm  Tm3  1  0.205100  0.705100  0.194327  1
  Tm  Tm4  1  0.489227  0.989227  0.194327  1
  Tm  Tm5  1  0.294900  0.489227  0.500000  1
  Tm  Tm6  1  0.010773  0.205100  0.500000  1
  Tm  Tm7  1  0.510773  0.010773  0.805673  1
  Tm  Tm8  1  0.705100  0.510773  0.500000  1
  Tm  Tm9  1  0.989227  0.794900  0.500000  1
  Zn  Zn10  1  0.137847  0.637847  0.775695  1
  Zn  Zn11  1  0.862153  0.362153  0.224305  1
  Zn  Zn12  1  0.637847  0.862153  0.500000  1
  Zn  Zn13  1  0.362153  0.137847  0.500000  1
  Bi  Bi14  1  0.250000  0.250000  0.000000  1
  Bi  Bi15  1  0.750000  0.750000  0.000000  1
