# generated using pymatgen
data_Ba2CeNd(Ge4N7)2
_symmetry_space_group_name_H-M   'P 1'
_cell_length_a   6.43060700
_cell_length_b   6.43060500
_cell_length_c   10.50068600
_cell_angle_alpha   90.00000000
_cell_angle_beta   90.00000000
_cell_angle_gamma   120.00000516
_symmetry_Int_Tables_number   1
_chemical_formula_structural   Ba2CeNd(Ge4N7)2
_chemical_formula_sum   'Ba2 Ce1 Nd1 Ge8 N14'
_cell_volume   376.05562032
_cell_formula_units_Z   1
loop_
 _symmetry_equiv_pos_site_id
 _symmetry_equiv_pos_as_xyz
  1  'x, y, z'
loop_
 _atom_site_type_symbol
 _atom_site_label
 _atom_site_symmetry_multiplicity
 _atom_site_fract_x
 _atom_site_fract_y
 _atom_site_fract_z
 _atom_site_occupancy
  Ba  Ba0  1  0.333333  0.666667  0.364625  1
  Ba  Ba1  1  0.666667  0.333333  0.866022  1
  Ce  Ce2  1  0.333333  0.666667  0.735565  1
  Nd  Nd3  1  0.666667  0.333333  0.236158  1
  Ge  Ge4  1  0.827272  0.654542  0.547869  1
  Ge  Ge5  1  0.173609  0.826391  0.045980  1
  Ge  Ge6  1  0.652781  0.826391  0.045980  1
  Ge  Ge7  1  0.345458  0.172728  0.547869  1
  Ge  Ge8  1  0.827272  0.172728  0.547869  1
  Ge  Ge9  1  0.173609  0.347219  0.045980  1
  Ge  Ge10  1  0.000000  0.000000  0.812319  1
  Ge  Ge11  1  0.000000  0.000000  0.314779  1
  N  N12  1  0.000000  0.000000  0.623075  1
  N  N13  1  0.000000  0.000000  0.122167  1
  N  N14  1  0.156707  0.313417  0.869027  1
  N  N15  1  0.844084  0.155916  0.372732  1
  N  N16  1  0.311831  0.155916  0.372732  1
  N  N17  1  0.686583  0.843293  0.869027  1
  N  N18  1  0.156707  0.843293  0.869027  1
  N  N19  1  0.844084  0.688169  0.372732  1
  N  N20  1  0.983594  0.491797  0.603245  1
  N  N21  1  0.491711  0.983421  0.098846  1
  N  N22  1  0.491711  0.508289  0.098846  1
  N  N23  1  0.508203  0.491797  0.603245  1
  N  N24  1  0.016579  0.508289  0.098846  1
  N  N25  1  0.508203  0.016406  0.603245  1
