# generated using pymatgen
data_Nd12Hg(RhI4)3
_symmetry_space_group_name_H-M   'P 1'
_cell_length_a   11.00522093
_cell_length_b   11.00522090
_cell_length_c   11.00522060
_cell_angle_alpha   110.07565812
_cell_angle_beta   110.07565610
_cell_angle_gamma   110.07565186
_symmetry_Int_Tables_number   1
_chemical_formula_structural   Nd12Hg(RhI4)3
_chemical_formula_sum   'Nd12 Hg1 Rh3 I12'
_cell_volume   1002.44509563
_cell_formula_units_Z   1
loop_
 _symmetry_equiv_pos_site_id
 _symmetry_equiv_pos_as_xyz
  1  'x, y, z'
loop_
 _atom_site_type_symbol
 _atom_site_label
 _atom_site_symmetry_multiplicity
 _atom_site_fract_x
 _atom_site_fract_y
 _atom_site_fract_z
 _atom_site_occupancy
  Nd  Nd0  1  0.463216  0.491834  0.223115  1
  Nd  Nd1  1  0.750000  0.227908  0.272092  1
  Nd  Nd2  1  0.750000  0.020541  0.479459  1
  Nd  Nd3  1  0.223115  0.463216  0.491834  1
  Nd  Nd4  1  0.272092  0.750000  0.227908  1
  Nd  Nd5  1  0.036784  0.276885  0.008166  1
  Nd  Nd6  1  0.008166  0.036784  0.276885  1
  Nd  Nd7  1  0.479459  0.750000  0.020541  1
  Nd  Nd8  1  0.491834  0.223115  0.463216  1
  Nd  Nd9  1  0.020541  0.479459  0.750000  1
  Nd  Nd10  1  0.276885  0.008166  0.036784  1
  Nd  Nd11  1  0.227908  0.272092  0.750000  1
  Hg  Hg12  1  0.250000  0.250000  0.250000  1
  Rh  Rh13  1  0.501695  0.998305  0.250000  1
  Rh  Rh14  1  0.998305  0.250000  0.501695  1
  Rh  Rh15  1  0.250000  0.501695  0.998305  1
  I  I16  1  0.250000  0.760203  0.739797  1
  I  I17  1  0.514942  0.506366  0.756200  1
  I  I18  1  0.985058  0.743800  0.993634  1
  I  I19  1  0.739797  0.250000  0.760203  1
  I  I20  1  0.993634  0.985058  0.743800  1
  I  I21  1  0.250000  0.993627  0.506373  1
  I  I22  1  0.756200  0.514942  0.506366  1
  I  I23  1  0.506373  0.250000  0.993627  1
  I  I24  1  0.760203  0.739797  0.250000  1
  I  I25  1  0.743800  0.993634  0.985058  1
  I  I26  1  0.993627  0.506373  0.250000  1
  I  I27  1  0.506366  0.756200  0.514942  1
