# generated using pymatgen
data_VRh(NF10)2
_symmetry_space_group_name_H-M   'P 1'
_cell_length_a   5.61750584
_cell_length_b   7.57880280
_cell_length_c   8.98435400
_cell_angle_alpha   88.78016168
_cell_angle_beta   109.33118577
_cell_angle_gamma   96.68679073
_symmetry_Int_Tables_number   1
_chemical_formula_structural   VRh(NF10)2
_chemical_formula_sum   'V1 Rh1 N2 F20'
_cell_volume   358.41860454
_cell_formula_units_Z   1
loop_
 _symmetry_equiv_pos_site_id
 _symmetry_equiv_pos_as_xyz
  1  'x, y, z'
loop_
 _atom_site_type_symbol
 _atom_site_label
 _atom_site_symmetry_multiplicity
 _atom_site_fract_x
 _atom_site_fract_y
 _atom_site_fract_z
 _atom_site_occupancy
  V  V0  1  0.993823  0.752074  0.293262  1
  Rh  Rh1  1  0.003955  0.248328  0.706924  1
  N  N2  1  0.300088  0.272657  0.214784  1
  N  N3  1  0.702892  0.727386  0.786566  1
  F  F4  1  0.063089  0.234072  0.216321  1
  F  F5  1  0.939371  0.766713  0.784365  1
  F  F6  1  0.370161  0.134657  0.154297  1
  F  F7  1  0.633354  0.864159  0.848845  1
  F  F8  1  0.918081  0.197905  0.893972  1
  F  F9  1  0.069987  0.798006  0.111313  1
  F  F10  1  0.089628  0.300812  0.523347  1
  F  F11  1  0.916407  0.703582  0.469367  1
  F  F12  1  0.783232  0.045370  0.604430  1
  F  F13  1  0.206366  0.945538  0.387526  1
  F  F14  1  0.278247  0.107751  0.784249  1
  F  F15  1  0.732101  0.884423  0.217537  1
  F  F16  1  0.215134  0.457283  0.810639  1
  F  F17  1  0.791852  0.551743  0.195721  1
  F  F18  1  0.726524  0.386802  0.634816  1
  F  F19  1  0.259668  0.620124  0.359714  1
  F  F20  1  0.693811  0.584486  0.875464  1
  F  F21  1  0.310321  0.414440  0.124855  1
  F  F22  1  0.542232  0.695045  0.639566  1
  F  F23  1  0.459677  0.306649  0.362123  1
