# generated using pymatgen
data_HfZr5Bi6
_symmetry_space_group_name_H-M   'P 1'
_cell_length_a   5.79102621
_cell_length_b   5.79102505
_cell_length_c   14.54876700
_cell_angle_alpha   90.00000000
_cell_angle_beta   90.00000000
_cell_angle_gamma   141.10953697
_symmetry_Int_Tables_number   1
_chemical_formula_structural   HfZr5Bi6
_chemical_formula_sum   'Hf1 Zr5 Bi6'
_cell_volume   306.32444413
_cell_formula_units_Z   1
loop_
 _symmetry_equiv_pos_site_id
 _symmetry_equiv_pos_as_xyz
  1  'x, y, z'
loop_
 _atom_site_type_symbol
 _atom_site_label
 _atom_site_symmetry_multiplicity
 _atom_site_fract_x
 _atom_site_fract_y
 _atom_site_fract_z
 _atom_site_occupancy
  Hf  Hf0  1  0.398225  0.601775  0.750000  1
  Zr  Zr1  1  0.604147  0.395853  0.250000  1
  Zr  Zr2  1  0.926725  0.073275  0.109718  1
  Zr  Zr3  1  0.072177  0.927823  0.888757  1
  Zr  Zr4  1  0.072177  0.927823  0.611243  1
  Zr  Zr5  1  0.926725  0.073275  0.390282  1
  Bi  Bi6  1  0.318826  0.681174  0.250000  1
  Bi  Bi7  1  0.683500  0.316500  0.750000  1
  Bi  Bi8  1  0.640495  0.359505  0.049735  1
  Bi  Bi9  1  0.358254  0.641746  0.948875  1
  Bi  Bi10  1  0.358254  0.641746  0.551125  1
  Bi  Bi11  1  0.640495  0.359505  0.450265  1
