# generated using pymatgen
data_NaSrTa2O6F
_symmetry_space_group_name_H-M   'P 1'
_cell_length_a   7.46180821
_cell_length_b   7.46180821
_cell_length_c   7.46180821
_cell_angle_alpha   120.36437901
_cell_angle_beta   119.42572459
_cell_angle_gamma   90.18378804
_symmetry_Int_Tables_number   1
_chemical_formula_structural   NaSrTa2O6F
_chemical_formula_sum   'Na2 Sr2 Ta4 O12 F2'
_cell_volume   294.21642702
_cell_formula_units_Z   2
loop_
 _symmetry_equiv_pos_site_id
 _symmetry_equiv_pos_as_xyz
  1  'x, y, z'
loop_
 _atom_site_type_symbol
 _atom_site_label
 _atom_site_symmetry_multiplicity
 _atom_site_fract_x
 _atom_site_fract_y
 _atom_site_fract_z
 _atom_site_occupancy
  Na  Na0  1  0.500000  0.000000  0.000000  1
  Na  Na1  1  0.500000  0.500000  0.500000  1
  Sr  Sr2  1  0.000000  0.500000  0.500000  1
  Sr  Sr3  1  0.500000  0.500000  0.000000  1
  Ta  Ta4  1  0.000000  0.000000  0.500000  1
  Ta  Ta5  1  0.000000  0.000000  0.000000  1
  Ta  Ta6  1  0.000000  0.500000  0.000000  1
  Ta  Ta7  1  0.500000  0.000000  0.500000  1
  O  O8  1  0.063105  0.930895  0.745372  1
  O  O9  1  0.070183  0.320183  0.750000  1
  O  O10  1  0.063105  0.317733  0.132210  1
  O  O11  1  0.685523  0.930895  0.367790  1
  O  O12  1  0.936895  0.069105  0.254628  1
  O  O13  1  0.688543  0.938543  0.750000  1
  O  O14  1  0.929817  0.679817  0.250000  1
  O  O15  1  0.685523  0.317733  0.754628  1
  O  O16  1  0.936895  0.682267  0.867790  1
  O  O17  1  0.314477  0.069105  0.632210  1
  O  O18  1  0.314477  0.682267  0.245372  1
  O  O19  1  0.311457  0.061457  0.250000  1
  F  F20  1  0.614965  0.364965  0.250000  1
  F  F21  1  0.385035  0.635035  0.750000  1
