# generated using pymatgen
data_CaTbGa5Ir3
_symmetry_space_group_name_H-M   'P 1'
_cell_length_a   8.57474115
_cell_length_b   8.68915436
_cell_length_c   8.68915409
_cell_angle_alpha   141.21499838
_cell_angle_beta   109.95968999
_cell_angle_gamma   83.22799572
_symmetry_Int_Tables_number   1
_chemical_formula_structural   CaTbGa5Ir3
_chemical_formula_sum   'Ca2 Tb2 Ga10 Ir6'
_cell_volume   368.90719407
_cell_formula_units_Z   2
loop_
 _symmetry_equiv_pos_site_id
 _symmetry_equiv_pos_as_xyz
  1  'x, y, z'
loop_
 _atom_site_type_symbol
 _atom_site_label
 _atom_site_symmetry_multiplicity
 _atom_site_fract_x
 _atom_site_fract_y
 _atom_site_fract_z
 _atom_site_occupancy
  Ca  Ca0  1  0.418246  0.645802  0.772445  1
  Ca  Ca1  1  0.581754  0.354198  0.227555  1
  Tb  Tb2  1  0.129840  0.858182  0.271658  1
  Tb  Tb3  1  0.870160  0.141818  0.728342  1
  Ga  Ga4  1  0.734434  0.916076  0.818359  1
  Ga  Ga5  1  0.265566  0.083924  0.181641  1
  Ga  Ga6  1  0.903592  0.583369  0.320223  1
  Ga  Ga7  1  0.096408  0.416631  0.679777  1
  Ga  Ga8  1  0.203469  0.952706  0.751155  1
  Ga  Ga9  1  0.796531  0.547686  0.749237  1
  Ga  Ga10  1  0.796531  0.047294  0.248845  1
  Ga  Ga11  1  0.203469  0.452314  0.250763  1
  Ga  Ga12  1  0.500000  0.742386  0.242386  1
  Ga  Ga13  1  0.500000  0.257614  0.757614  1
  Ir  Ir14  1  0.000000  0.747507  0.747507  1
  Ir  Ir15  1  0.000000  0.252493  0.252493  1
  Ir  Ir16  1  0.433038  0.852039  0.580999  1
  Ir  Ir17  1  0.566962  0.147961  0.419001  1
  Ir  Ir18  1  0.747063  0.654045  0.093017  1
  Ir  Ir19  1  0.252937  0.345955  0.906983  1
