# generated using pymatgen
data_Zr6Ti4Al12Pd6Ru
_symmetry_space_group_name_H-M   'P 1'
_cell_length_a   8.84028938
_cell_length_b   8.84029010
_cell_length_c   8.84028900
_cell_angle_alpha   60.00000037
_cell_angle_beta   59.99999768
_cell_angle_gamma   60.00000546
_symmetry_Int_Tables_number   1
_chemical_formula_structural   Zr6Ti4Al12Pd6Ru
_chemical_formula_sum   'Zr6 Ti4 Al12 Pd6 Ru1'
_cell_volume   488.52239196
_cell_formula_units_Z   1
loop_
 _symmetry_equiv_pos_site_id
 _symmetry_equiv_pos_as_xyz
  1  'x, y, z'
loop_
 _atom_site_type_symbol
 _atom_site_label
 _atom_site_symmetry_multiplicity
 _atom_site_fract_x
 _atom_site_fract_y
 _atom_site_fract_z
 _atom_site_occupancy
  Zr  Zr0  1  0.691245  0.691245  0.308755  1
  Zr  Zr1  1  0.308755  0.691245  0.308755  1
  Zr  Zr2  1  0.691245  0.308755  0.308755  1
  Zr  Zr3  1  0.308755  0.308755  0.691245  1
  Zr  Zr4  1  0.691245  0.308755  0.691245  1
  Zr  Zr5  1  0.308755  0.691245  0.691245  1
  Ti  Ti6  1  0.882274  0.882274  0.353177  1
  Ti  Ti7  1  0.882274  0.353177  0.882274  1
  Ti  Ti8  1  0.353177  0.882274  0.882274  1
  Ti  Ti9  1  0.882274  0.882274  0.882274  1
  Al  Al10  1  0.118861  0.118861  0.643420  1
  Al  Al11  1  0.118861  0.643420  0.118861  1
  Al  Al12  1  0.643420  0.118861  0.118861  1
  Al  Al13  1  0.118861  0.118861  0.118861  1
  Al  Al14  1  0.665314  0.665314  0.004058  1
  Al  Al15  1  0.665314  0.004058  0.665314  1
  Al  Al16  1  0.004058  0.665314  0.665314  1
  Al  Al17  1  0.665314  0.665314  0.665314  1
  Al  Al18  1  0.334388  0.334388  0.996836  1
  Al  Al19  1  0.334388  0.996836  0.334388  1
  Al  Al20  1  0.996836  0.334388  0.334388  1
  Al  Al21  1  0.334388  0.334388  0.334388  1
  Pd  Pd22  1  0.999545  0.999545  0.500455  1
  Pd  Pd23  1  0.500455  0.999545  0.500455  1
  Pd  Pd24  1  0.999545  0.500455  0.500455  1
  Pd  Pd25  1  0.500455  0.500455  0.999545  1
  Pd  Pd26  1  0.999545  0.500455  0.999545  1
  Pd  Pd27  1  0.500455  0.999545  0.999545  1
  Ru  Ru28  1  0.000000  0.000000  0.000000  1
