# generated using pymatgen
data_DyGa2Ni2Pd
_symmetry_space_group_name_H-M   'P 1'
_cell_length_a   4.15482100
_cell_length_b   8.94585779
_cell_length_c   8.94585792
_cell_angle_alpha   60.07501925
_cell_angle_beta   90.00000000
_cell_angle_gamma   90.00000000
_symmetry_Int_Tables_number   1
_chemical_formula_structural   DyGa2Ni2Pd
_chemical_formula_sum   'Dy3 Ga6 Ni6 Pd3'
_cell_volume   288.17396510
_cell_formula_units_Z   3
loop_
 _symmetry_equiv_pos_site_id
 _symmetry_equiv_pos_as_xyz
  1  'x, y, z'
loop_
 _atom_site_type_symbol
 _atom_site_label
 _atom_site_symmetry_multiplicity
 _atom_site_fract_x
 _atom_site_fract_y
 _atom_site_fract_z
 _atom_site_occupancy
  Dy  Dy0  1  0.500000  0.333559  0.333359  1
  Dy  Dy1  1  0.500000  0.666641  0.666441  1
  Dy  Dy2  1  0.000000  0.999968  0.000032  1
  Ga  Ga3  1  0.000000  0.535619  0.464381  1
  Ga  Ga4  1  0.000000  0.464307  0.999936  1
  Ga  Ga5  1  0.000000  0.000064  0.535693  1
  Ga  Ga6  1  0.500000  0.286754  0.713246  1
  Ga  Ga7  1  0.500000  0.713106  0.999935  1
  Ga  Ga8  1  0.500000  0.000065  0.286894  1
  Ni  Ni9  1  0.000000  0.165525  0.222957  1
  Ni  Ni10  1  0.000000  0.222871  0.611664  1
  Ni  Ni11  1  0.000000  0.611769  0.165297  1
  Ni  Ni12  1  0.000000  0.777043  0.834475  1
  Ni  Ni13  1  0.000000  0.388336  0.777129  1
  Ni  Ni14  1  0.000000  0.834703  0.388231  1
  Pd  Pd15  1  0.500000  0.718190  0.281810  1
  Pd  Pd16  1  0.500000  0.281538  0.000159  1
  Pd  Pd17  1  0.500000  0.999841  0.718462  1
