# generated using pymatgen
data_Yb4SiAg4Ge3
_symmetry_space_group_name_H-M   'P 1'
_cell_length_a   5.71775699
_cell_length_b   5.71775530
_cell_length_c   10.47007554
_cell_angle_alpha   83.23069247
_cell_angle_beta   83.23069355
_cell_angle_gamma   47.64274056
_symmetry_Int_Tables_number   1
_chemical_formula_structural   Yb4SiAg4Ge3
_chemical_formula_sum   'Yb4 Si1 Ag4 Ge3'
_cell_volume   250.83351858
_cell_formula_units_Z   1
loop_
 _symmetry_equiv_pos_site_id
 _symmetry_equiv_pos_as_xyz
  1  'x, y, z'
loop_
 _atom_site_type_symbol
 _atom_site_label
 _atom_site_symmetry_multiplicity
 _atom_site_fract_x
 _atom_site_fract_y
 _atom_site_fract_z
 _atom_site_occupancy
  Yb  Yb0  1  0.679411  0.679411  0.680137  1
  Yb  Yb1  1  0.180267  0.180267  0.180426  1
  Yb  Yb2  1  0.402227  0.402227  0.901078  1
  Yb  Yb3  1  0.901619  0.901619  0.400945  1
  Si  Si4  1  0.676604  0.676604  0.985561  1
  Ag  Ag5  1  0.385688  0.385688  0.610176  1
  Ag  Ag6  1  0.881740  0.881740  0.106595  1
  Ag  Ag7  1  0.113607  0.113607  0.890369  1
  Ag  Ag8  1  0.609473  0.609473  0.385821  1
  Ge  Ge9  1  0.177993  0.177993  0.484887  1
  Ge  Ge10  1  0.984880  0.984880  0.680769  1
  Ge  Ge11  1  0.487690  0.487690  0.174434  1
