# generated using pymatgen
data_Zr10ZnSn(Bi2Pb)2
_symmetry_space_group_name_H-M   'P 1'
_cell_length_a   8.92766929
_cell_length_b   8.93095280
_cell_length_c   5.99068525
_cell_angle_alpha   89.96696640
_cell_angle_beta   90.01651644
_cell_angle_gamma   120.01203028
_symmetry_Int_Tables_number   1
_chemical_formula_structural   Zr10ZnSn(Bi2Pb)2
_chemical_formula_sum   'Zr10 Zn1 Sn1 Bi4 Pb2'
_cell_volume   413.60929488
_cell_formula_units_Z   1
loop_
 _symmetry_equiv_pos_site_id
 _symmetry_equiv_pos_as_xyz
  1  'x, y, z'
loop_
 _atom_site_type_symbol
 _atom_site_label
 _atom_site_symmetry_multiplicity
 _atom_site_fract_x
 _atom_site_fract_y
 _atom_site_fract_z
 _atom_site_occupancy
  Zr  Zr0  1  0.334911  0.667457  0.000001  1
  Zr  Zr1  1  0.666002  0.333000  0.500000  1
  Zr  Zr2  1  0.666304  0.333151  0.000000  1
  Zr  Zr3  1  0.333969  0.666985  0.500001  1
  Zr  Zr4  1  0.272451  0.999469  0.263615  1
  Zr  Zr5  1  0.272451  0.272982  0.736385  1
  Zr  Zr6  1  0.000256  0.727657  0.735957  1
  Zr  Zr7  1  0.000255  0.272599  0.264043  1
  Zr  Zr8  1  0.727717  0.727156  0.263319  1
  Zr  Zr9  1  0.727717  0.000561  0.736680  1
  Zn  Zn10  1  0.000486  0.000243  0.500000  1
  Sn  Sn11  1  0.000578  0.000289  0.000000  1
  Bi  Bi12  1  0.612921  0.999947  0.247296  1
  Bi  Bi13  1  0.612921  0.612974  0.752705  1
  Bi  Bi14  1  0.000697  0.386996  0.753103  1
  Bi  Bi15  1  0.000697  0.613701  0.246897  1
  Pb  Pb16  1  0.384834  0.384106  0.247004  1
  Pb  Pb17  1  0.384834  0.000728  0.752996  1
