# generated using pymatgen
data_Na4CeZrSe6
_symmetry_space_group_name_H-M   'P 1'
_cell_length_a   7.18438234
_cell_length_b   7.18438261
_cell_length_c   7.35647973
_cell_angle_alpha   80.52187841
_cell_angle_beta   80.52187941
_cell_angle_gamma   119.97950127
_symmetry_Int_Tables_number   1
_chemical_formula_structural   Na4CeZrSe6
_chemical_formula_sum   'Na4 Ce1 Zr1 Se6'
_cell_volume   310.56643906
_cell_formula_units_Z   1
loop_
 _symmetry_equiv_pos_site_id
 _symmetry_equiv_pos_as_xyz
  1  'x, y, z'
loop_
 _atom_site_type_symbol
 _atom_site_label
 _atom_site_symmetry_multiplicity
 _atom_site_fract_x
 _atom_site_fract_y
 _atom_site_fract_z
 _atom_site_occupancy
  Na  Na0  1  0.000045  0.999955  0.000000  1
  Na  Na1  1  0.500521  0.499479  0.500000  1
  Na  Na2  1  0.841519  0.158481  0.500000  1
  Na  Na3  1  0.158362  0.841638  0.500000  1
  Ce  Ce4  1  0.332231  0.667769  0.000000  1
  Zr  Zr5  1  0.668445  0.331555  0.000000  1
  Se  Se6  1  0.571931  0.937549  0.227697  1
  Se  Se7  1  0.725428  0.712186  0.772829  1
  Se  Se8  1  0.442289  0.091037  0.773389  1
  Se  Se9  1  0.062451  0.428069  0.772303  1
  Se  Se10  1  0.908963  0.557711  0.226611  1
  Se  Se11  1  0.287814  0.274572  0.227171  1
