# generated using pymatgen
data_Tb12In2SiTc3
_symmetry_space_group_name_H-M   'P 1'
_cell_length_a   8.55778194
_cell_length_b   8.55768347
_cell_length_c   8.55778200
_cell_angle_alpha   112.62495880
_cell_angle_beta   112.16718815
_cell_angle_gamma   103.76849737
_symmetry_Int_Tables_number   1
_chemical_formula_structural   Tb12In2SiTc3
_chemical_formula_sum   'Tb12 In2 Si1 Tc3'
_cell_volume   478.90725647
_cell_formula_units_Z   1
loop_
 _symmetry_equiv_pos_site_id
 _symmetry_equiv_pos_as_xyz
  1  'x, y, z'
loop_
 _atom_site_type_symbol
 _atom_site_label
 _atom_site_symmetry_multiplicity
 _atom_site_fract_x
 _atom_site_fract_y
 _atom_site_fract_z
 _atom_site_occupancy
  Tb  Tb0  1  0.450641  0.245125  0.205386  1
  Tb  Tb1  1  0.557362  0.758833  0.798565  1
  Tb  Tb2  1  0.039740  0.245125  0.794484  1
  Tb  Tb3  1  0.960267  0.758833  0.201472  1
  Tb  Tb4  1  0.188367  0.287808  0.464953  1
  Tb  Tb5  1  0.822811  0.723399  0.535120  1
  Tb  Tb6  1  0.188279  0.723399  0.900588  1
  Tb  Tb7  1  0.822855  0.287808  0.099441  1
  Tb  Tb8  1  0.329527  0.644294  0.314766  1
  Tb  Tb9  1  0.658319  0.343015  0.684695  1
  Tb  Tb10  1  0.329303  0.014527  0.685223  1
  Tb  Tb11  1  0.658417  0.973626  0.315210  1
  In  In12  1  0.500815  0.500794  0.999979  1
  In  In13  1  0.997367  0.997502  0.000135  1
  Si  Si14  1  0.877433  0.377463  0.500031  1
  Tc  Tc15  1  0.327952  0.002187  0.325763  1
  Tc  Tc16  1  0.676423  0.002187  0.674235  1
  Tc  Tc17  1  0.114124  0.614079  0.499955  1
