# generated using pymatgen
data_Hf3Sc3GeAs5Ru6
_symmetry_space_group_name_H-M   'P 1'
_cell_length_a   7.68709110
_cell_length_b   7.69112457
_cell_length_c   7.68709104
_cell_angle_alpha   128.20515522
_cell_angle_beta   120.78661924
_cell_angle_gamma   82.49704114
_symmetry_Int_Tables_number   1
_chemical_formula_structural   Hf3Sc3GeAs5Ru6
_chemical_formula_sum   'Hf3 Sc3 Ge1 As5 Ru6'
_cell_volume   294.92953792
_cell_formula_units_Z   1
loop_
 _symmetry_equiv_pos_site_id
 _symmetry_equiv_pos_as_xyz
  1  'x, y, z'
loop_
 _atom_site_type_symbol
 _atom_site_label
 _atom_site_symmetry_multiplicity
 _atom_site_fract_x
 _atom_site_fract_y
 _atom_site_fract_z
 _atom_site_occupancy
  Hf  Hf0  1  0.248544  0.831950  0.083405  1
  Hf  Hf1  1  0.053833  0.258268  0.704436  1
  Hf  Hf2  1  0.949567  0.653365  0.203798  1
  Sc  Sc3  1  0.471011  0.702429  0.731417  1
  Sc  Sc4  1  0.527688  0.256830  0.229142  1
  Sc  Sc5  1  0.749522  0.833555  0.584033  1
  Ge  Ge6  1  0.280524  0.273768  0.493246  1
  As  As7  1  0.722956  0.220724  0.997768  1
  As  As8  1  0.331609  0.586104  0.252444  1
  As  As9  1  0.669851  0.920829  0.258793  1
  As  As10  1  0.162036  0.920829  0.750978  1
  As  As11  1  0.833659  0.586104  0.754495  1
  Ru  Ru12  1  0.495611  0.495731  0.992290  1
  Ru  Ru13  1  0.003442  0.495731  0.500120  1
  Ru  Ru14  1  0.089617  0.253408  0.097970  1
  Ru  Ru15  1  0.908530  0.008283  0.161721  1
  Ru  Ru16  1  0.346562  0.008283  0.599753  1
  Ru  Ru17  1  0.655439  0.253408  0.663792  1
