# generated using pymatgen
data_Er4Al6ReIr
_symmetry_space_group_name_H-M   'P 1'
_cell_length_a   5.47715200
_cell_length_b   5.47715306
_cell_length_c   8.84281900
_cell_angle_alpha   90.00000000
_cell_angle_beta   90.00000000
_cell_angle_gamma   119.99999358
_symmetry_Int_Tables_number   1
_chemical_formula_structural   Er4Al6ReIr
_chemical_formula_sum   'Er4 Al6 Re1 Ir1'
_cell_volume   229.73706411
_cell_formula_units_Z   1
loop_
 _symmetry_equiv_pos_site_id
 _symmetry_equiv_pos_as_xyz
  1  'x, y, z'
loop_
 _atom_site_type_symbol
 _atom_site_label
 _atom_site_symmetry_multiplicity
 _atom_site_fract_x
 _atom_site_fract_y
 _atom_site_fract_z
 _atom_site_occupancy
  Er  Er0  1  0.666665  0.333333  0.054882  1
  Er  Er1  1  0.666665  0.333333  0.447430  1
  Er  Er2  1  0.333334  0.666667  0.552570  1
  Er  Er3  1  0.333334  0.666667  0.945118  1
  Al  Al4  1  0.163020  0.326039  0.251874  1
  Al  Al5  1  0.163021  0.836981  0.251874  1
  Al  Al6  1  0.673960  0.836981  0.251874  1
  Al  Al7  1  0.326040  0.163021  0.748124  1
  Al  Al8  1  0.836981  0.163021  0.748124  1
  Al  Al9  1  0.836979  0.673960  0.748124  1
  Re  Re10  1  0.000000  0.000000  0.000000  1
  Ir  Ir11  1  0.000000  0.000000  0.500000  1
