# generated using pymatgen
data_La4Cu2Sn5
_symmetry_space_group_name_H-M   'P 1'
_cell_length_a   7.76922069
_cell_length_b   7.76922014
_cell_length_c   11.22024188
_cell_angle_alpha   52.01294312
_cell_angle_beta   52.01294582
_cell_angle_gamma   35.24100163
_symmetry_Int_Tables_number   1
_chemical_formula_structural   La4Cu2Sn5
_chemical_formula_sum   'La4 Cu2 Sn5'
_cell_volume   298.37823934
_cell_formula_units_Z   1
loop_
 _symmetry_equiv_pos_site_id
 _symmetry_equiv_pos_as_xyz
  1  'x, y, z'
loop_
 _atom_site_type_symbol
 _atom_site_label
 _atom_site_symmetry_multiplicity
 _atom_site_fract_x
 _atom_site_fract_y
 _atom_site_fract_z
 _atom_site_occupancy
  La  La0  1  0.936579  0.936579  0.723155  1
  La  La1  1  0.063421  0.063421  0.276845  1
  La  La2  1  0.333859  0.333859  0.284781  1
  La  La3  1  0.666141  0.666141  0.715219  1
  Cu  Cu4  1  0.765149  0.765149  0.141317  1
  Cu  Cu5  1  0.234851  0.234851  0.858683  1
  Sn  Sn6  1  0.646386  0.646386  0.023291  1
  Sn  Sn7  1  0.353614  0.353614  0.976709  1
  Sn  Sn8  1  0.623890  0.623890  0.449420  1
  Sn  Sn9  1  0.376110  0.376110  0.550580  1
  Sn  Sn10  1  0.000000  0.000000  0.000000  1
