# generated using pymatgen
data_Nb6V2Re3Si6W
_symmetry_space_group_name_H-M   'P 1'
_cell_length_a   7.63928379
_cell_length_b   7.64222012
_cell_length_c   7.63908802
_cell_angle_alpha   126.72312215
_cell_angle_beta   128.28678484
_cell_angle_gamma   77.42742901
_symmetry_Int_Tables_number   1
_chemical_formula_structural   Nb6V2Re3Si6W
_chemical_formula_sum   'Nb6 V2 Re3 Si6 W1'
_cell_volume   272.18031534
_cell_formula_units_Z   1
loop_
 _symmetry_equiv_pos_site_id
 _symmetry_equiv_pos_as_xyz
  1  'x, y, z'
loop_
 _atom_site_type_symbol
 _atom_site_label
 _atom_site_symmetry_multiplicity
 _atom_site_fract_x
 _atom_site_fract_y
 _atom_site_fract_z
 _atom_site_occupancy
  Nb  Nb0  1  0.551688  0.092741  0.039880  1
  Nb  Nb1  1  0.446044  0.491835  0.545179  1
  Nb  Nb2  1  0.946758  0.491850  0.045629  1
  Nb  Nb3  1  0.052799  0.092567  0.541005  1
  Nb  Nb4  1  0.752224  0.909819  0.658245  1
  Nb  Nb5  1  0.251510  0.909694  0.157707  1
  V  V6  1  0.500339  0.240191  0.739808  1
  V  V7  1  0.999294  0.240201  0.240871  1
  Re  Re8  1  0.871144  0.497082  0.625611  1
  Re  Re9  1  0.627493  0.752781  0.125138  1
  Re  Re10  1  0.371689  0.497569  0.126209  1
  Si  Si11  1  0.747292  0.491363  0.242131  1
  Si  Si12  1  0.249079  0.491270  0.744132  1
  Si  Si13  1  0.334618  0.828417  0.493932  1
  Si  Si14  1  0.668331  0.164865  0.496361  1
  Si  Si15  1  0.832937  0.827600  0.994542  1
  Si  Si16  1  0.168415  0.167844  0.999482  1
  W  W17  1  0.128347  0.754512  0.626337  1
