# generated using pymatgen
data_Tb18Ho2Sn9Bi7
_symmetry_space_group_name_H-M   'P 1'
_cell_length_a   8.20619248
_cell_length_b   8.23700854
_cell_length_c   15.68584200
_cell_angle_alpha   90.06807738
_cell_angle_beta   89.60553384
_cell_angle_gamma   89.91707639
_symmetry_Int_Tables_number   1
_chemical_formula_structural   Tb18Ho2Sn9Bi7
_chemical_formula_sum   'Tb18 Ho2 Sn9 Bi7'
_cell_volume   1060.24929551
_cell_formula_units_Z   1
loop_
 _symmetry_equiv_pos_site_id
 _symmetry_equiv_pos_as_xyz
  1  'x, y, z'
loop_
 _atom_site_type_symbol
 _atom_site_label
 _atom_site_symmetry_multiplicity
 _atom_site_fract_x
 _atom_site_fract_y
 _atom_site_fract_z
 _atom_site_occupancy
  Tb  Tb0  1  0.394660  0.837786  0.877916  1
  Tb  Tb1  1  0.898029  0.663965  0.621203  1
  Tb  Tb2  1  0.602180  0.162413  0.378138  1
  Tb  Tb3  1  0.101686  0.338226  0.121221  1
  Tb  Tb4  1  0.607207  0.167223  0.121289  1
  Tb  Tb5  1  0.102349  0.336552  0.378228  1
  Tb  Tb6  1  0.396747  0.838195  0.622374  1
  Tb  Tb7  1  0.892123  0.660664  0.880388  1
  Tb  Tb8  1  0.565042  0.333392  0.890189  1
  Tb  Tb9  1  0.065544  0.169357  0.613890  1
  Tb  Tb10  1  0.434989  0.668269  0.386531  1
  Tb  Tb11  1  0.937445  0.823504  0.111373  1
  Tb  Tb12  1  0.446022  0.665743  0.110126  1
  Tb  Tb13  1  0.934553  0.830512  0.385961  1
  Tb  Tb14  1  0.565628  0.331645  0.613402  1
  Tb  Tb15  1  0.056621  0.173981  0.889750  1
  Tb  Tb16  1  0.228520  0.500216  0.750744  1
  Tb  Tb17  1  0.728489  0.002147  0.750771  1
  Ho  Ho18  1  0.771623  0.499660  0.246162  1
  Ho  Ho19  1  0.271246  0.998148  0.248746  1
  Sn  Sn20  1  0.768296  0.480678  0.044983  1
  Sn  Sn21  1  0.594451  0.629383  0.749680  1
  Sn  Sn22  1  0.092882  0.872277  0.751124  1
  Sn  Sn23  1  0.405212  0.370484  0.250352  1
  Sn  Sn24  1  0.906344  0.127239  0.250080  1
  Sn  Sn25  1  0.366126  0.143120  0.751542  1
  Sn  Sn26  1  0.866240  0.360182  0.750124  1
  Sn  Sn27  1  0.633151  0.858413  0.249462  1
  Sn  Sn28  1  0.135330  0.640548  0.249670  1
  Bi  Bi29  1  0.265112  0.015702  0.044881  1
  Bi  Bi30  1  0.763331  0.486715  0.453687  1
  Bi  Bi31  1  0.736893  0.987453  0.545155  1
  Bi  Bi32  1  0.233658  0.518445  0.955573  1
  Bi  Bi33  1  0.732141  0.982103  0.955697  1
  Bi  Bi34  1  0.237587  0.513350  0.545249  1
  Bi  Bi35  1  0.262537  0.012308  0.454332  1
