# generated using pymatgen
data_Tb9Dy3OsRu3
_symmetry_space_group_name_H-M   'P 1'
_cell_length_a   6.34274554
_cell_length_b   7.33142602
_cell_length_c   9.21999255
_cell_angle_alpha   90.00222293
_cell_angle_beta   89.91475145
_cell_angle_gamma   90.00168567
_symmetry_Int_Tables_number   1
_chemical_formula_structural   Tb9Dy3OsRu3
_chemical_formula_sum   'Tb9 Dy3 Os1 Ru3'
_cell_volume   428.74180737
_cell_formula_units_Z   1
loop_
 _symmetry_equiv_pos_site_id
 _symmetry_equiv_pos_as_xyz
  1  'x, y, z'
loop_
 _atom_site_type_symbol
 _atom_site_label
 _atom_site_symmetry_multiplicity
 _atom_site_fract_x
 _atom_site_fract_y
 _atom_site_fract_z
 _atom_site_occupancy
  Tb  Tb0  1  0.829021  0.822756  0.934595  1
  Tb  Tb1  1  0.670041  0.323512  0.935170  1
  Tb  Tb2  1  0.828971  0.822982  0.565304  1
  Tb  Tb3  1  0.331407  0.676094  0.436302  1
  Tb  Tb4  1  0.169851  0.176708  0.065602  1
  Tb  Tb5  1  0.866140  0.540415  0.250117  1
  Tb  Tb6  1  0.634120  0.040205  0.250288  1
  Tb  Tb7  1  0.133055  0.460120  0.749787  1
  Tb  Tb8  1  0.365175  0.961742  0.749785  1
  Dy  Dy9  1  0.331567  0.675903  0.063770  1
  Dy  Dy10  1  0.169610  0.176375  0.434656  1
  Dy  Dy11  1  0.669993  0.323671  0.564778  1
  Os  Os12  1  0.541392  0.614491  0.750294  1
  Ru  Ru13  1  0.040691  0.885233  0.249923  1
  Ru  Ru14  1  0.459556  0.384710  0.250446  1
  Ru  Ru15  1  0.959408  0.115085  0.749184  1
