# generated using pymatgen
data_Be2Nb3Ru5
_symmetry_space_group_name_H-M   'P 1'
_cell_length_a   9.40078900
_cell_length_b   9.40078900
_cell_length_c   3.16705900
_cell_angle_alpha   90.00000000
_cell_angle_beta   90.00000000
_cell_angle_gamma   90.00000000
_symmetry_Int_Tables_number   1
_chemical_formula_structural   Be2Nb3Ru5
_chemical_formula_sum   'Be4 Nb6 Ru10'
_cell_volume   279.88831283
_cell_formula_units_Z   2
loop_
 _symmetry_equiv_pos_site_id
 _symmetry_equiv_pos_as_xyz
  1  'x, y, z'
loop_
 _atom_site_type_symbol
 _atom_site_label
 _atom_site_symmetry_multiplicity
 _atom_site_fract_x
 _atom_site_fract_y
 _atom_site_fract_z
 _atom_site_occupancy
  Be  Be0  1  0.620729  0.879271  0.000000  1
  Be  Be1  1  0.379271  0.120729  0.000000  1
  Be  Be2  1  0.120729  0.620729  0.000000  1
  Be  Be3  1  0.879271  0.379271  0.000000  1
  Nb  Nb4  1  0.824494  0.675506  0.000000  1
  Nb  Nb5  1  0.175506  0.324494  0.000000  1
  Nb  Nb6  1  0.324494  0.824494  0.000000  1
  Nb  Nb7  1  0.675506  0.175506  0.000000  1
  Nb  Nb8  1  0.500000  0.500000  0.000000  1
  Nb  Nb9  1  0.000000  0.000000  0.000000  1
  Ru  Ru10  1  0.574721  0.711330  0.500000  1
  Ru  Ru11  1  0.425279  0.288670  0.500000  1
  Ru  Ru12  1  0.074721  0.788670  0.500000  1
  Ru  Ru13  1  0.925279  0.211330  0.500000  1
  Ru  Ru14  1  0.288670  0.574721  0.500000  1
  Ru  Ru15  1  0.711330  0.425279  0.500000  1
  Ru  Ru16  1  0.211330  0.074721  0.500000  1
  Ru  Ru17  1  0.788670  0.925279  0.500000  1
  Ru  Ru18  1  0.500000  0.000000  0.500000  1
  Ru  Ru19  1  0.000000  0.500000  0.500000  1
