# generated using pymatgen
data_Dy8Ho11ScSi15Pt
_symmetry_space_group_name_H-M   'P 1'
_cell_length_a   7.31722594
_cell_length_b   7.71003496
_cell_length_c   14.53318700
_cell_angle_alpha   90.00000000
_cell_angle_beta   90.00000000
_cell_angle_gamma   90.13080549
_symmetry_Int_Tables_number   1
_chemical_formula_structural   Dy8Ho11ScSi15Pt
_chemical_formula_sum   'Dy8 Ho11 Sc1 Si15 Pt1'
_cell_volume   819.90312665
_cell_formula_units_Z   1
loop_
 _symmetry_equiv_pos_site_id
 _symmetry_equiv_pos_as_xyz
  1  'x, y, z'
loop_
 _atom_site_type_symbol
 _atom_site_label
 _atom_site_symmetry_multiplicity
 _atom_site_fract_x
 _atom_site_fract_y
 _atom_site_fract_z
 _atom_site_occupancy
  Dy  Dy0  1  0.022116  0.183063  0.098046  1
  Dy  Dy1  1  0.980753  0.818882  0.907584  1
  Dy  Dy2  1  0.479799  0.680980  0.906503  1
  Dy  Dy3  1  0.980753  0.818882  0.592416  1
  Dy  Dy4  1  0.519534  0.317146  0.098135  1
  Dy  Dy5  1  0.022116  0.183063  0.401954  1
  Dy  Dy6  1  0.519534  0.317146  0.401865  1
  Dy  Dy7  1  0.479799  0.680980  0.593497  1
  Ho  Ho8  1  0.150630  0.515745  0.750000  1
  Ho  Ho9  1  0.846319  0.487439  0.250000  1
  Ho  Ho10  1  0.660897  0.988448  0.750000  1
  Ho  Ho11  1  0.316255  0.175442  0.623098  1
  Ho  Ho12  1  0.678175  0.825074  0.373708  1
  Ho  Ho13  1  0.179286  0.681005  0.374760  1
  Ho  Ho14  1  0.678175  0.825074  0.126292  1
  Ho  Ho15  1  0.825339  0.319698  0.623257  1
  Ho  Ho16  1  0.316255  0.175442  0.876902  1
  Ho  Ho17  1  0.825339  0.319698  0.876743  1
  Ho  Ho18  1  0.179286  0.681005  0.125240  1
  Sc  Sc19  1  0.344178  0.015860  0.250000  1
  Si  Si20  1  0.980820  0.902629  0.250000  1
  Si  Si21  1  0.475333  0.602004  0.250000  1
  Si  Si22  1  0.524830  0.395958  0.750000  1
  Si  Si23  1  0.276643  0.867186  0.750000  1
  Si  Si24  1  0.719901  0.130455  0.250000  1
  Si  Si25  1  0.227527  0.364394  0.250000  1
  Si  Si26  1  0.764381  0.623344  0.750000  1
  Si  Si27  1  0.152743  0.472056  0.537267  1
  Si  Si28  1  0.847565  0.531355  0.460160  1
  Si  Si29  1  0.350057  0.971807  0.458139  1
  Si  Si30  1  0.847565  0.531355  0.039840  1
  Si  Si31  1  0.650919  0.029011  0.537820  1
  Si  Si32  1  0.152743  0.472056  0.962733  1
  Si  Si33  1  0.650919  0.029011  0.962180  1
  Si  Si34  1  0.350057  0.971807  0.041861  1
  Pt  Pt35  1  0.023460  0.095498  0.750000  1
