# generated using pymatgen
data_YbNiPdO4
_symmetry_space_group_name_H-M   'P 1'
_cell_length_a   5.24044000
_cell_length_b   6.08107700
_cell_length_c   10.73896900
_cell_angle_alpha   90.00000000
_cell_angle_beta   90.00000000
_cell_angle_gamma   90.00000000
_symmetry_Int_Tables_number   1
_chemical_formula_structural   YbNiPdO4
_chemical_formula_sum   'Yb4 Ni4 Pd4 O16'
_cell_volume   342.22430030
_cell_formula_units_Z   4
loop_
 _symmetry_equiv_pos_site_id
 _symmetry_equiv_pos_as_xyz
  1  'x, y, z'
loop_
 _atom_site_type_symbol
 _atom_site_label
 _atom_site_symmetry_multiplicity
 _atom_site_fract_x
 _atom_site_fract_y
 _atom_site_fract_z
 _atom_site_occupancy
  Yb  Yb0  1  0.833171  0.000000  0.500000  1
  Yb  Yb1  1  0.166829  0.500000  0.000000  1
  Yb  Yb2  1  0.496645  0.000000  0.000000  1
  Yb  Yb3  1  0.503355  0.500000  0.500000  1
  Ni  Ni4  1  0.504721  0.500000  0.239148  1
  Ni  Ni5  1  0.504721  0.500000  0.760852  1
  Ni  Ni6  1  0.495279  0.000000  0.260852  1
  Ni  Ni7  1  0.495279  0.000000  0.739148  1
  Pd  Pd8  1  0.000000  0.250000  0.250000  1
  Pd  Pd9  1  0.000000  0.750000  0.750000  1
  Pd  Pd10  1  0.000000  0.750000  0.250000  1
  Pd  Pd11  1  0.000000  0.250000  0.750000  1
  O  O12  1  0.847512  0.500000  0.148253  1
  O  O13  1  0.847512  0.500000  0.851747  1
  O  O14  1  0.152488  0.000000  0.351747  1
  O  O15  1  0.152488  0.000000  0.648253  1
  O  O16  1  0.172628  0.500000  0.345197  1
  O  O17  1  0.172628  0.500000  0.654803  1
  O  O18  1  0.827372  0.000000  0.154803  1
  O  O19  1  0.827372  0.000000  0.845197  1
  O  O20  1  0.673206  0.254014  0.356942  1
  O  O21  1  0.673206  0.745986  0.643058  1
  O  O22  1  0.326794  0.754014  0.143058  1
  O  O23  1  0.326794  0.245986  0.856942  1
  O  O24  1  0.326794  0.245986  0.143058  1
  O  O25  1  0.326794  0.754014  0.856942  1
  O  O26  1  0.673206  0.745986  0.356942  1
  O  O27  1  0.673206  0.254014  0.643058  1
