# generated using pymatgen
data_La2Er3Se7
_symmetry_space_group_name_H-M   'P 1'
_cell_length_a   6.92094020
_cell_length_b   6.92094143
_cell_length_c   12.35286600
_cell_angle_alpha   75.71800604
_cell_angle_beta   75.71801199
_cell_angle_gamma   34.46055963
_symmetry_Int_Tables_number   1
_chemical_formula_structural   La2Er3Se7
_chemical_formula_sum   'La2 Er3 Se7'
_cell_volume   323.44368366
_cell_formula_units_Z   1
loop_
 _symmetry_equiv_pos_site_id
 _symmetry_equiv_pos_as_xyz
  1  'x, y, z'
loop_
 _atom_site_type_symbol
 _atom_site_label
 _atom_site_symmetry_multiplicity
 _atom_site_fract_x
 _atom_site_fract_y
 _atom_site_fract_z
 _atom_site_occupancy
  La  La0  1  0.302402  0.302402  0.804642  1
  La  La1  1  0.697598  0.697598  0.195358  1
  Er  Er2  1  0.112797  0.112797  0.572854  1
  Er  Er3  1  0.887203  0.887203  0.427146  1
  Er  Er4  1  0.000000  0.000000  0.000000  1
  Se  Se5  1  0.264048  0.264048  0.359660  1
  Se  Se6  1  0.735952  0.735952  0.640340  1
  Se  Se7  1  0.972968  0.972968  0.783430  1
  Se  Se8  1  0.027032  0.027032  0.216570  1
  Se  Se9  1  0.654872  0.654872  0.950560  1
  Se  Se10  1  0.500000  0.500000  0.500000  1
  Se  Se11  1  0.345128  0.345128  0.049440  1
