# generated using pymatgen
data_Ho12In2FeTc2
_symmetry_space_group_name_H-M   'P 1'
_cell_length_a   8.38892360
_cell_length_b   8.38892463
_cell_length_c   8.38892395
_cell_angle_alpha   108.72181213
_cell_angle_beta   108.72181117
_cell_angle_gamma   110.98066115
_symmetry_Int_Tables_number   1
_chemical_formula_structural   Ho12In2FeTc2
_chemical_formula_sum   'Ho12 In2 Fe1 Tc2'
_cell_volume   454.22404657
_cell_formula_units_Z   1
loop_
 _symmetry_equiv_pos_site_id
 _symmetry_equiv_pos_as_xyz
  1  'x, y, z'
loop_
 _atom_site_type_symbol
 _atom_site_label
 _atom_site_symmetry_multiplicity
 _atom_site_fract_x
 _atom_site_fract_y
 _atom_site_fract_z
 _atom_site_occupancy
  Ho  Ho0  1  0.304023  0.304023  0.610806  1
  Ho  Ho1  1  0.693216  0.693216  0.389194  1
  Ho  Ho2  1  0.693216  0.304023  0.000000  1
  Ho  Ho3  1  0.304023  0.693216  0.000000  1
  Ho  Ho4  1  0.190400  0.431061  0.240660  1
  Ho  Ho5  1  0.806867  0.569212  0.762345  1
  Ho  Ho6  1  0.190400  0.949739  0.759340  1
  Ho  Ho7  1  0.949739  0.190400  0.759340  1
  Ho  Ho8  1  0.806867  0.044523  0.237655  1
  Ho  Ho9  1  0.044523  0.806867  0.237655  1
  Ho  Ho10  1  0.431061  0.190400  0.240660  1
  Ho  Ho11  1  0.569212  0.806867  0.762345  1
  In  In12  1  0.998263  0.498263  0.500000  1
  In  In13  1  0.498263  0.998263  0.500000  1
  Fe  Fe14  1  0.630128  0.630128  0.000000  1
  Tc  Tc15  1  0.389120  0.389120  0.000000  1
  Tc  Tc16  1  0.000678  0.000678  0.000000  1
