# generated using pymatgen
data_Tb15YMgIn3Pt4
_symmetry_space_group_name_H-M   'P 1'
_cell_length_a   9.78849289
_cell_length_b   9.76742884
_cell_length_c   9.77051100
_cell_angle_alpha   59.98915718
_cell_angle_beta   60.06062829
_cell_angle_gamma   60.08866233
_symmetry_Int_Tables_number   1
_chemical_formula_structural   Tb15YMgIn3Pt4
_chemical_formula_sum   'Tb15 Y1 Mg1 In3 Pt4'
_cell_volume   661.22872426
_cell_formula_units_Z   1
loop_
 _symmetry_equiv_pos_site_id
 _symmetry_equiv_pos_as_xyz
  1  'x, y, z'
loop_
 _atom_site_type_symbol
 _atom_site_label
 _atom_site_symmetry_multiplicity
 _atom_site_fract_x
 _atom_site_fract_y
 _atom_site_fract_z
 _atom_site_occupancy
  Tb  Tb0  1  0.600190  0.599677  0.599866  1
  Tb  Tb1  1  0.600191  0.599678  0.200268  1
  Tb  Tb2  1  0.600655  0.199014  0.600167  1
  Tb  Tb3  1  0.196101  0.601288  0.601307  1
  Tb  Tb4  1  0.058746  0.441625  0.441136  1
  Tb  Tb5  1  0.438862  0.061195  0.060576  1
  Tb  Tb6  1  0.438862  0.061195  0.439368  1
  Tb  Tb7  1  0.058745  0.441626  0.058494  1
  Tb  Tb8  1  0.438700  0.439213  0.061044  1
  Tb  Tb9  1  0.058778  0.058561  0.441332  1
  Tb  Tb10  1  0.185591  0.814103  0.814463  1
  Tb  Tb11  1  0.813781  0.186491  0.186708  1
  Tb  Tb12  1  0.813781  0.186490  0.813021  1
  Tb  Tb13  1  0.185591  0.814104  0.185844  1
  Tb  Tb14  1  0.814375  0.813099  0.186263  1
  Y  Y15  1  0.185710  0.187037  0.813626  1
  Mg  Mg16  1  0.517445  0.827520  0.827518  1
  In  In17  1  0.832335  0.833132  0.833153  1
  In  In18  1  0.832342  0.833114  0.501381  1
  In  In19  1  0.832116  0.501813  0.833029  1
  Pt  Pt20  1  0.391740  0.393017  0.393874  1
  Pt  Pt21  1  0.391740  0.393017  0.821372  1
  Pt  Pt22  1  0.391367  0.821809  0.393413  1
  Pt  Pt23  1  0.822260  0.392182  0.392780  1
