# generated using pymatgen
data_Ho8Re11Si16Rh
_symmetry_space_group_name_H-M   'P 1'
_cell_length_a   6.75667440
_cell_length_b   6.75667346
_cell_length_c   12.81790573
_cell_angle_alpha   90.11755559
_cell_angle_beta   89.88244412
_cell_angle_gamma   90.48896213
_symmetry_Int_Tables_number   1
_chemical_formula_structural   Ho8Re11Si16Rh
_chemical_formula_sum   'Ho8 Re11 Si16 Rh1'
_cell_volume   585.14751754
_cell_formula_units_Z   1
loop_
 _symmetry_equiv_pos_site_id
 _symmetry_equiv_pos_as_xyz
  1  'x, y, z'
loop_
 _atom_site_type_symbol
 _atom_site_label
 _atom_site_symmetry_multiplicity
 _atom_site_fract_x
 _atom_site_fract_y
 _atom_site_fract_z
 _atom_site_occupancy
  Ho  Ho0  1  0.006417  0.660904  0.030341  1
  Ho  Ho1  1  0.994362  0.335144  0.532335  1
  Ho  Ho2  1  0.335144  0.994362  0.467665  1
  Ho  Ho3  1  0.165744  0.488190  0.781817  1
  Ho  Ho4  1  0.834355  0.509712  0.280360  1
  Ho  Ho5  1  0.488190  0.165744  0.218183  1
  Ho  Ho6  1  0.509712  0.834355  0.719640  1
  Ho  Ho7  1  0.660904  0.006417  0.969659  1
  Re  Re8  1  0.161157  0.838606  0.248335  1
  Re  Re9  1  0.335021  0.335021  0.000000  1
  Re  Re10  1  0.025100  0.807042  0.631776  1
  Re  Re11  1  0.976147  0.194366  0.133660  1
  Re  Re12  1  0.807042  0.025100  0.368224  1
  Re  Re13  1  0.315706  0.489492  0.380457  1
  Re  Re14  1  0.686515  0.512265  0.880608  1
  Re  Re15  1  0.489492  0.315706  0.619543  1
  Re  Re16  1  0.512265  0.686515  0.119392  1
  Re  Re17  1  0.194366  0.976147  0.866340  1
  Re  Re18  1  0.838606  0.161157  0.751665  1
  Si  Si19  1  0.019353  0.730663  0.439077  1
  Si  Si20  1  0.610781  0.305211  0.435306  1
  Si  Si21  1  0.387471  0.693158  0.934605  1
  Si  Si22  1  0.199157  0.112280  0.681858  1
  Si  Si23  1  0.305211  0.610781  0.564694  1
  Si  Si24  1  0.693158  0.387471  0.065395  1
  Si  Si25  1  0.801673  0.887700  0.182670  1
  Si  Si26  1  0.112280  0.199157  0.318142  1
  Si  Si27  1  0.984612  0.265199  0.940067  1
  Si  Si28  1  0.730663  0.019353  0.560923  1
  Si  Si29  1  0.220675  0.482191  0.189255  1
  Si  Si30  1  0.779188  0.514920  0.692089  1
  Si  Si31  1  0.482191  0.220675  0.810745  1
  Si  Si32  1  0.514920  0.779188  0.307911  1
  Si  Si33  1  0.265199  0.984612  0.059933  1
  Si  Si34  1  0.887700  0.801673  0.817330  1
  Rh  Rh35  1  0.669526  0.669526  0.500000  1
