# generated using pymatgen
data_Zr(TiRe6)4
_symmetry_space_group_name_H-M   'P 1'
_cell_length_a   8.39399708
_cell_length_b   8.39399658
_cell_length_c   8.39399700
_cell_angle_alpha   109.47122890
_cell_angle_beta   109.47122768
_cell_angle_gamma   109.47121481
_symmetry_Int_Tables_number   1
_chemical_formula_structural   Zr(TiRe6)4
_chemical_formula_sum   'Zr1 Ti4 Re24'
_cell_volume   455.28618208
_cell_formula_units_Z   1
loop_
 _symmetry_equiv_pos_site_id
 _symmetry_equiv_pos_as_xyz
  1  'x, y, z'
loop_
 _atom_site_type_symbol
 _atom_site_label
 _atom_site_symmetry_multiplicity
 _atom_site_fract_x
 _atom_site_fract_y
 _atom_site_fract_z
 _atom_site_occupancy
  Zr  Zr0  1  0.000000  0.000000  0.000000  1
  Ti  Ti1  1  0.369487  0.369487  0.369487  1
  Ti  Ti2  1  0.000000  0.630513  0.000000  1
  Ti  Ti3  1  0.630513  0.000000  0.000000  1
  Ti  Ti4  1  0.000000  0.000000  0.630513  1
  Re  Re5  1  0.000000  0.400198  0.682108  1
  Re  Re6  1  0.281911  0.599802  0.599802  1
  Re  Re7  1  0.718089  0.317892  0.317892  1
  Re  Re8  1  0.317892  0.718089  0.317892  1
  Re  Re9  1  0.682108  0.000000  0.400198  1
  Re  Re10  1  0.000000  0.682108  0.400198  1
  Re  Re11  1  0.599802  0.599802  0.281911  1
  Re  Re12  1  0.805944  0.805944  0.182624  1
  Re  Re13  1  0.376680  0.194056  0.000000  1
  Re  Re14  1  0.194056  0.376680  0.000000  1
  Re  Re15  1  0.623320  0.817376  0.623320  1
  Re  Re16  1  0.376680  0.000000  0.194056  1
  Re  Re17  1  0.000000  0.376680  0.194056  1
  Re  Re18  1  0.817376  0.623320  0.623320  1
  Re  Re19  1  0.182624  0.805944  0.805944  1
  Re  Re20  1  0.805944  0.182624  0.805944  1
  Re  Re21  1  0.194056  0.000000  0.376680  1
  Re  Re22  1  0.000000  0.194056  0.376680  1
  Re  Re23  1  0.623320  0.623320  0.817376  1
  Re  Re24  1  0.400198  0.000000  0.682108  1
  Re  Re25  1  0.599802  0.281911  0.599802  1
  Re  Re26  1  0.682108  0.400198  0.000000  1
  Re  Re27  1  0.400198  0.682108  0.000000  1
  Re  Re28  1  0.317892  0.317892  0.718089  1
