# generated using pymatgen
data_InGa4Te8Au
_symmetry_space_group_name_H-M   'P 1'
_cell_length_a   7.41397528
_cell_length_b   7.41397550
_cell_length_c   8.89276403
_cell_angle_alpha   89.82158261
_cell_angle_beta   89.82158503
_cell_angle_gamma   106.87496035
_symmetry_Int_Tables_number   1
_chemical_formula_structural   InGa4Te8Au
_chemical_formula_sum   'In1 Ga4 Te8 Au1'
_cell_volume   467.75459992
_cell_formula_units_Z   1
loop_
 _symmetry_equiv_pos_site_id
 _symmetry_equiv_pos_as_xyz
  1  'x, y, z'
loop_
 _atom_site_type_symbol
 _atom_site_label
 _atom_site_symmetry_multiplicity
 _atom_site_fract_x
 _atom_site_fract_y
 _atom_site_fract_z
 _atom_site_occupancy
  In  In0  1  0.501333  0.498667  0.500000  1
  Ga  Ga1  1  0.987997  0.012003  0.500000  1
  Ga  Ga2  1  0.510563  0.489437  0.000000  1
  Ga  Ga3  1  0.989425  0.489108  0.753246  1
  Ga  Ga4  1  0.510892  0.010575  0.246754  1
  Te  Te5  1  0.389691  0.117247  0.990914  1
  Te  Te6  1  0.904279  0.629571  0.488480  1
  Te  Te7  1  0.882753  0.610309  0.009086  1
  Te  Te8  1  0.370429  0.095721  0.511520  1
  Te  Te9  1  0.880558  0.152844  0.253821  1
  Te  Te10  1  0.370246  0.645604  0.763868  1
  Te  Te11  1  0.847156  0.119442  0.746179  1
  Te  Te12  1  0.354396  0.629754  0.236132  1
  Au  Au13  1  0.000284  0.999716  0.000000  1
