# generated using pymatgen
data_TbY7(ErBi)12
_symmetry_space_group_name_H-M   'P 1'
_cell_length_a   8.24341600
_cell_length_b   9.46547100
_cell_length_c   12.05890400
_cell_angle_alpha   90.00000000
_cell_angle_beta   89.99796149
_cell_angle_gamma   90.00000000
_symmetry_Int_Tables_number   1
_chemical_formula_structural   TbY7(ErBi)12
_chemical_formula_sum   'Tb1 Y7 Er12 Bi12'
_cell_volume   940.92993119
_cell_formula_units_Z   1
loop_
 _symmetry_equiv_pos_site_id
 _symmetry_equiv_pos_as_xyz
  1  'x, y, z'
loop_
 _atom_site_type_symbol
 _atom_site_label
 _atom_site_symmetry_multiplicity
 _atom_site_fract_x
 _atom_site_fract_y
 _atom_site_fract_z
 _atom_site_occupancy
  Tb  Tb0  1  0.186483  0.750000  0.718847  1
  Y  Y1  1  0.686263  0.750000  0.781141  1
  Y  Y2  1  0.813622  0.250000  0.281193  1
  Y  Y3  1  0.313604  0.250000  0.218817  1
  Y  Y4  1  0.353822  0.750000  0.215538  1
  Y  Y5  1  0.853812  0.750000  0.284446  1
  Y  Y6  1  0.646108  0.250000  0.784413  1
  Y  Y7  1  0.146302  0.250000  0.715531  1
  Er  Er8  1  0.025915  0.750000  0.988922  1
  Er  Er9  1  0.525675  0.750000  0.511041  1
  Er  Er10  1  0.974223  0.250000  0.011022  1
  Er  Er11  1  0.474154  0.250000  0.488995  1
  Er  Er12  1  0.306358  0.435669  0.940123  1
  Er  Er13  1  0.806350  0.064241  0.559893  1
  Er  Er14  1  0.693700  0.935696  0.059909  1
  Er  Er15  1  0.193663  0.564301  0.440175  1
  Er  Er16  1  0.693700  0.564304  0.059909  1
  Er  Er17  1  0.193663  0.935699  0.440175  1
  Er  Er18  1  0.306358  0.064331  0.940123  1
  Er  Er19  1  0.806350  0.435759  0.559893  1
  Bi  Bi20  1  0.433970  0.003890  0.673287  1
  Bi  Bi21  1  0.933715  0.496143  0.826755  1
  Bi  Bi22  1  0.566144  0.503740  0.326709  1
  Bi  Bi23  1  0.066177  0.996225  0.173236  1
  Bi  Bi24  1  0.566144  0.996260  0.326709  1
  Bi  Bi25  1  0.066177  0.503775  0.173236  1
  Bi  Bi26  1  0.433970  0.496110  0.673287  1
  Bi  Bi27  1  0.933715  0.003857  0.826755  1
  Bi  Bi28  1  0.408958  0.750000  0.958139  1
  Bi  Bi29  1  0.908567  0.750000  0.541767  1
  Bi  Bi30  1  0.591151  0.250000  0.041878  1
  Bi  Bi31  1  0.091190  0.250000  0.458141  1
