# generated using pymatgen
data_Zr8C4O
_symmetry_space_group_name_H-M   'P 1'
_cell_length_a   6.62031617
_cell_length_b   6.62031546
_cell_length_c   6.62031619
_cell_angle_alpha   60.36982421
_cell_angle_beta   60.36983105
_cell_angle_gamma   60.36982988
_symmetry_Int_Tables_number   1
_chemical_formula_structural   Zr8C4O
_chemical_formula_sum   'Zr8 C4 O1'
_cell_volume   206.88975244
_cell_formula_units_Z   1
loop_
 _symmetry_equiv_pos_site_id
 _symmetry_equiv_pos_as_xyz
  1  'x, y, z'
loop_
 _atom_site_type_symbol
 _atom_site_label
 _atom_site_symmetry_multiplicity
 _atom_site_fract_x
 _atom_site_fract_y
 _atom_site_fract_z
 _atom_site_occupancy
  Zr  Zr0  1  0.754024  0.754024  0.754024  1
  Zr  Zr1  1  0.747053  0.241895  0.747053  1
  Zr  Zr2  1  0.252947  0.758105  0.252947  1
  Zr  Zr3  1  0.241895  0.747053  0.747053  1
  Zr  Zr4  1  0.758105  0.252947  0.252947  1
  Zr  Zr5  1  0.245976  0.245976  0.245976  1
  Zr  Zr6  1  0.252947  0.252947  0.758105  1
  Zr  Zr7  1  0.747053  0.747053  0.241895  1
  C  C8  1  0.000000  0.000000  0.500000  1
  C  C9  1  0.000000  0.500000  0.000000  1
  C  C10  1  0.500000  0.000000  0.000000  1
  C  C11  1  0.500000  0.500000  0.500000  1
  O  O12  1  0.000000  0.000000  0.000000  1
