# generated using pymatgen
data_TbSm2Y3PtI10
_symmetry_space_group_name_H-M   'P 1'
_cell_length_a   7.77518036
_cell_length_b   9.79957558
_cell_length_c   9.87915756
_cell_angle_alpha   107.32142966
_cell_angle_beta   96.81934961
_cell_angle_gamma   104.98108712
_symmetry_Int_Tables_number   1
_chemical_formula_structural   TbSm2Y3PtI10
_chemical_formula_sum   'Tb1 Sm2 Y3 Pt1 I10'
_cell_volume   678.35599224
_cell_formula_units_Z   1
loop_
 _symmetry_equiv_pos_site_id
 _symmetry_equiv_pos_as_xyz
  1  'x, y, z'
loop_
 _atom_site_type_symbol
 _atom_site_label
 _atom_site_symmetry_multiplicity
 _atom_site_fract_x
 _atom_site_fract_y
 _atom_site_fract_z
 _atom_site_occupancy
  Tb  Tb0  1  0.350044  0.126543  0.165760  1
  Sm  Sm1  1  0.882577  0.958397  0.243993  1
  Sm  Sm2  1  0.117150  0.041625  0.755955  1
  Y  Y3  1  0.649927  0.873330  0.834220  1
  Y  Y4  1  0.971757  0.287461  0.087279  1
  Y  Y5  1  0.027961  0.712479  0.912695  1
  Pt  Pt6  1  0.000154  0.000080  0.000096  1
  I  I7  1  0.355120  0.452832  0.272020  1
  I  I8  1  0.644864  0.547387  0.728026  1
  I  I9  1  0.915707  0.624345  0.176910  1
  I  I10  1  0.084267  0.375656  0.823082  1
  I  I11  1  0.449775  0.816703  0.089377  1
  I  I12  1  0.550308  0.183120  0.910443  1
  I  I13  1  0.266146  0.089532  0.460864  1
  I  I14  1  0.733809  0.910443  0.539218  1
  I  I15  1  0.779433  0.262651  0.346443  1
  I  I16  1  0.220999  0.737415  0.653619  1
