# generated using pymatgen
data_Tb12Eu7ThSn16
_symmetry_space_group_name_H-M   'P 1'
_cell_length_a   8.15635086
_cell_length_b   8.30690075
_cell_length_c   15.67373500
_cell_angle_alpha   90.01978166
_cell_angle_beta   90.02633554
_cell_angle_gamma   89.98583061
_symmetry_Int_Tables_number   1
_chemical_formula_structural   Tb12Eu7ThSn16
_chemical_formula_sum   'Tb12 Eu7 Th1 Sn16'
_cell_volume   1061.95798751
_cell_formula_units_Z   1
loop_
 _symmetry_equiv_pos_site_id
 _symmetry_equiv_pos_as_xyz
  1  'x, y, z'
loop_
 _atom_site_type_symbol
 _atom_site_label
 _atom_site_symmetry_multiplicity
 _atom_site_fract_x
 _atom_site_fract_y
 _atom_site_fract_z
 _atom_site_occupancy
  Tb  Tb0  1  0.348619  0.836838  0.878214  1
  Tb  Tb1  1  0.843223  0.665666  0.625805  1
  Tb  Tb2  1  0.657633  0.166010  0.377105  1
  Tb  Tb3  1  0.154777  0.337593  0.124825  1
  Tb  Tb4  1  0.650510  0.159239  0.120890  1
  Tb  Tb5  1  0.156417  0.334922  0.376005  1
  Tb  Tb6  1  0.341988  0.834476  0.624529  1
  Tb  Tb7  1  0.844870  0.663562  0.875461  1
  Tb  Tb8  1  0.182790  0.495983  0.750256  1
  Tb  Tb9  1  0.680313  0.004180  0.749033  1
  Tb  Tb10  1  0.817725  0.505488  0.249688  1
  Tb  Tb11  1  0.316215  0.995324  0.249038  1
  Eu  Eu12  1  0.507307  0.321380  0.906779  1
  Eu  Eu13  1  0.006799  0.175827  0.595143  1
  Eu  Eu14  1  0.496046  0.676600  0.406845  1
  Eu  Eu15  1  0.992679  0.821235  0.093005  1
  Eu  Eu16  1  0.495533  0.680116  0.091214  1
  Eu  Eu17  1  0.995524  0.824251  0.406795  1
  Eu  Eu18  1  0.505647  0.323639  0.594833  1
  Th  Th19  1  0.005285  0.176563  0.904086  1
  Sn  Sn20  1  0.307598  0.045005  0.040632  1
  Sn  Sn21  1  0.826599  0.461265  0.458825  1
  Sn  Sn22  1  0.674284  0.961404  0.542972  1
  Sn  Sn23  1  0.176947  0.534370  0.955973  1
  Sn  Sn24  1  0.689359  0.962287  0.954525  1
  Sn  Sn25  1  0.173893  0.539402  0.542541  1
  Sn  Sn26  1  0.325625  0.039984  0.457948  1
  Sn  Sn27  1  0.824668  0.453867  0.039746  1
  Sn  Sn28  1  0.543614  0.623069  0.751204  1
  Sn  Sn29  1  0.044854  0.880003  0.752718  1
  Sn  Sn30  1  0.456608  0.377961  0.249089  1
  Sn  Sn31  1  0.952321  0.122950  0.250482  1
  Sn  Sn32  1  0.309238  0.138468  0.752923  1
  Sn  Sn33  1  0.815437  0.359142  0.751541  1
  Sn  Sn34  1  0.689107  0.863750  0.249061  1
  Sn  Sn35  1  0.189950  0.638181  0.250277  1
