# generated using pymatgen
data_Ho4Lu8Co5Bi
_symmetry_space_group_name_H-M   'P 1'
_cell_length_a   8.16174912
_cell_length_b   8.16175487
_cell_length_c   8.16174987
_cell_angle_alpha   111.33566950
_cell_angle_beta   110.74130415
_cell_angle_gamma   106.38075115
_symmetry_Int_Tables_number   1
_chemical_formula_structural   Ho4Lu8Co5Bi
_chemical_formula_sum   'Ho4 Lu8 Co5 Bi1'
_cell_volume   417.61281385
_cell_formula_units_Z   1
loop_
 _symmetry_equiv_pos_site_id
 _symmetry_equiv_pos_as_xyz
  1  'x, y, z'
loop_
 _atom_site_type_symbol
 _atom_site_label
 _atom_site_symmetry_multiplicity
 _atom_site_fract_x
 _atom_site_fract_y
 _atom_site_fract_z
 _atom_site_occupancy
  Ho  Ho0  1  0.592092  0.788661  0.803416  1
  Ho  Ho1  1  0.407908  0.211339  0.196584  1
  Ho  Ho2  1  0.985245  0.788661  0.196569  1
  Ho  Ho3  1  0.014755  0.211339  0.803431  1
  Lu  Lu4  1  0.817965  0.713617  0.531580  1
  Lu  Lu5  1  0.182035  0.286383  0.468420  1
  Lu  Lu6  1  0.182038  0.713617  0.895653  1
  Lu  Lu7  1  0.817962  0.286383  0.104347  1
  Lu  Lu8  1  0.687656  0.378641  0.690986  1
  Lu  Lu9  1  0.312344  0.621359  0.309014  1
  Lu  Lu10  1  0.687668  0.996681  0.309013  1
  Lu  Lu11  1  0.312332  0.003319  0.690987  1
  Co  Co12  1  0.624978  0.000000  0.624978  1
  Co  Co13  1  0.375022  0.000000  0.375022  1
  Co  Co14  1  0.112027  0.612030  0.500003  1
  Co  Co15  1  0.887973  0.387970  0.499997  1
  Co  Co16  1  0.000000  0.000000  0.000000  1
  Bi  Bi17  1  0.500000  0.500000  0.000000  1
