# generated using pymatgen
data_TmPu4(GeB4)2
_symmetry_space_group_name_H-M   'P 1'
_cell_length_a   7.22548900
_cell_length_b   7.22548900
_cell_length_c   8.15473300
_cell_angle_alpha   90.00000000
_cell_angle_beta   90.00000000
_cell_angle_gamma   90.00000000
_symmetry_Int_Tables_number   1
_chemical_formula_structural   TmPu4(GeB4)2
_chemical_formula_sum   'Tm2 Pu8 Ge4 B16'
_cell_volume   425.73978301
_cell_formula_units_Z   2
loop_
 _symmetry_equiv_pos_site_id
 _symmetry_equiv_pos_as_xyz
  1  'x, y, z'
loop_
 _atom_site_type_symbol
 _atom_site_label
 _atom_site_symmetry_multiplicity
 _atom_site_fract_x
 _atom_site_fract_y
 _atom_site_fract_z
 _atom_site_occupancy
  Tm  Tm0  1  0.000000  0.000000  0.500000  1
  Tm  Tm1  1  0.500000  0.500000  0.500000  1
  Pu  Pu2  1  0.682107  0.182107  0.224492  1
  Pu  Pu3  1  0.317893  0.817893  0.775508  1
  Pu  Pu4  1  0.317893  0.817893  0.224492  1
  Pu  Pu5  1  0.817893  0.682107  0.224492  1
  Pu  Pu6  1  0.817893  0.682107  0.775508  1
  Pu  Pu7  1  0.682107  0.182107  0.775508  1
  Pu  Pu8  1  0.182107  0.317893  0.775508  1
  Pu  Pu9  1  0.182107  0.317893  0.224492  1
  Ge  Ge10  1  0.120784  0.620784  0.500000  1
  Ge  Ge11  1  0.879216  0.379216  0.500000  1
  Ge  Ge12  1  0.379216  0.120784  0.500000  1
  Ge  Ge13  1  0.620784  0.879216  0.500000  1
  B  B14  1  0.172842  0.040656  0.000000  1
  B  B15  1  0.827158  0.959344  0.000000  1
  B  B16  1  0.959344  0.172842  0.000000  1
  B  B17  1  0.327158  0.540656  0.000000  1
  B  B18  1  0.040656  0.827158  0.000000  1
  B  B19  1  0.672842  0.459344  0.000000  1
  B  B20  1  0.540656  0.672842  0.000000  1
  B  B21  1  0.459344  0.327158  0.000000  1
  B  B22  1  0.090668  0.590668  0.000000  1
  B  B23  1  0.909332  0.409332  0.000000  1
  B  B24  1  0.409332  0.090668  0.000000  1
  B  B25  1  0.590668  0.909332  0.000000  1
  B  B26  1  0.000000  0.000000  0.160898  1
  B  B27  1  0.000000  0.000000  0.839102  1
  B  B28  1  0.500000  0.500000  0.839102  1
  B  B29  1  0.500000  0.500000  0.160898  1
