# generated using pymatgen
data_Tb12Pr8Si15Tc
_symmetry_space_group_name_H-M   'P 1'
_cell_length_a   7.55201910
_cell_length_b   7.84700785
_cell_length_c   14.96843800
_cell_angle_alpha   90.00000000
_cell_angle_beta   90.00000000
_cell_angle_gamma   90.41695680
_symmetry_Int_Tables_number   1
_chemical_formula_structural   Tb12Pr8Si15Tc
_chemical_formula_sum   'Tb12 Pr8 Si15 Tc1'
_cell_volume   887.01742187
_cell_formula_units_Z   1
loop_
 _symmetry_equiv_pos_site_id
 _symmetry_equiv_pos_as_xyz
  1  'x, y, z'
loop_
 _atom_site_type_symbol
 _atom_site_label
 _atom_site_symmetry_multiplicity
 _atom_site_fract_x
 _atom_site_fract_y
 _atom_site_fract_z
 _atom_site_occupancy
  Tb  Tb0  1  0.316889  0.171548  0.625388  1
  Tb  Tb1  1  0.678084  0.817489  0.378052  1
  Tb  Tb2  1  0.639643  0.984043  0.750000  1
  Tb  Tb3  1  0.178020  0.681509  0.376735  1
  Tb  Tb4  1  0.822807  0.322116  0.876459  1
  Tb  Tb5  1  0.822807  0.322116  0.623541  1
  Tb  Tb6  1  0.846679  0.487739  0.250000  1
  Tb  Tb7  1  0.349421  0.016606  0.250000  1
  Tb  Tb8  1  0.316889  0.171548  0.874612  1
  Tb  Tb9  1  0.178020  0.681509  0.123265  1
  Tb  Tb10  1  0.678084  0.817489  0.121948  1
  Tb  Tb11  1  0.159064  0.522883  0.750000  1
  Pr  Pr12  1  0.024323  0.179378  0.401135  1
  Pr  Pr13  1  0.522457  0.323300  0.403420  1
  Pr  Pr14  1  0.473196  0.682435  0.903420  1
  Pr  Pr15  1  0.473196  0.682435  0.596580  1
  Pr  Pr16  1  0.979548  0.820379  0.598749  1
  Pr  Pr17  1  0.979548  0.820379  0.901251  1
  Pr  Pr18  1  0.522457  0.323300  0.096580  1
  Pr  Pr19  1  0.024323  0.179378  0.098865  1
  Si  Si20  1  0.470113  0.613196  0.250000  1
  Si  Si21  1  0.023693  0.104754  0.750000  1
  Si  Si22  1  0.531524  0.388888  0.750000  1
  Si  Si23  1  0.146313  0.467104  0.537570  1
  Si  Si24  1  0.970086  0.889540  0.250000  1
  Si  Si25  1  0.731055  0.116838  0.250000  1
  Si  Si26  1  0.858233  0.526731  0.040851  1
  Si  Si27  1  0.356928  0.972692  0.040556  1
  Si  Si28  1  0.146313  0.467104  0.962430  1
  Si  Si29  1  0.648157  0.035742  0.537277  1
  Si  Si30  1  0.356928  0.972692  0.459444  1
  Si  Si31  1  0.858233  0.526731  0.459149  1
  Si  Si32  1  0.765282  0.614446  0.750000  1
  Si  Si33  1  0.231585  0.382619  0.250000  1
  Si  Si34  1  0.648157  0.035742  0.962723  1
  Tc  Tc35  1  0.271955  0.877605  0.750000  1
