# generated using pymatgen
data_Sc6TiAl15Co7
_symmetry_space_group_name_H-M   'P 1'
_cell_length_a   8.57349368
_cell_length_b   8.57349416
_cell_length_c   8.55301900
_cell_angle_alpha   59.92078746
_cell_angle_beta   59.92077787
_cell_angle_gamma   60.00000396
_symmetry_Int_Tables_number   1
_chemical_formula_structural   Sc6TiAl15Co7
_chemical_formula_sum   'Sc6 Ti1 Al15 Co7'
_cell_volume   444.01648057
_cell_formula_units_Z   1
loop_
 _symmetry_equiv_pos_site_id
 _symmetry_equiv_pos_as_xyz
  1  'x, y, z'
loop_
 _atom_site_type_symbol
 _atom_site_label
 _atom_site_symmetry_multiplicity
 _atom_site_fract_x
 _atom_site_fract_y
 _atom_site_fract_z
 _atom_site_occupancy
  Sc  Sc0  1  0.703570  0.703570  0.292214  1
  Sc  Sc1  1  0.300646  0.703570  0.292214  1
  Sc  Sc2  1  0.703570  0.300646  0.292214  1
  Sc  Sc3  1  0.292548  0.292548  0.707530  1
  Sc  Sc4  1  0.707375  0.292548  0.707530  1
  Sc  Sc5  1  0.292548  0.707375  0.707530  1
  Ti  Ti6  1  0.880084  0.880084  0.359747  1
  Al  Al7  1  0.881527  0.355199  0.881746  1
  Al  Al8  1  0.355199  0.881527  0.881746  1
  Al  Al9  1  0.881527  0.881527  0.881746  1
  Al  Al10  1  0.119245  0.119245  0.642268  1
  Al  Al11  1  0.117449  0.643613  0.121490  1
  Al  Al12  1  0.643613  0.117449  0.121490  1
  Al  Al13  1  0.117449  0.117449  0.121490  1
  Al  Al14  1  0.666659  0.666659  0.000025  1
  Al  Al15  1  0.665995  0.000752  0.667258  1
  Al  Al16  1  0.000752  0.665995  0.667258  1
  Al  Al17  1  0.665995  0.665995  0.667258  1
  Al  Al18  1  0.332551  0.332551  0.002346  1
  Al  Al19  1  0.333476  0.999668  0.333379  1
  Al  Al20  1  0.999668  0.333476  0.333379  1
  Al  Al21  1  0.333476  0.333476  0.333379  1
  Co  Co22  1  0.998185  0.998185  0.005445  1
  Co  Co23  1  0.999205  0.999205  0.497445  1
  Co  Co24  1  0.504145  0.999205  0.497445  1
  Co  Co25  1  0.999205  0.504145  0.497445  1
  Co  Co26  1  0.501001  0.501001  0.995662  1
  Co  Co27  1  0.002336  0.501001  0.995662  1
  Co  Co28  1  0.501001  0.002336  0.995662  1
