# generated using pymatgen
data_TmScCu2As3P
_symmetry_space_group_name_H-M   'P 1'
_cell_length_a   3.78585700
_cell_length_b   3.78585700
_cell_length_c   9.66804300
_cell_angle_alpha   90.00000000
_cell_angle_beta   90.00000000
_cell_angle_gamma   90.00000000
_symmetry_Int_Tables_number   1
_chemical_formula_structural   TmScCu2As3P
_chemical_formula_sum   'Tm1 Sc1 Cu2 As3 P1'
_cell_volume   138.56928776
_cell_formula_units_Z   1
loop_
 _symmetry_equiv_pos_site_id
 _symmetry_equiv_pos_as_xyz
  1  'x, y, z'
loop_
 _atom_site_type_symbol
 _atom_site_label
 _atom_site_symmetry_multiplicity
 _atom_site_fract_x
 _atom_site_fract_y
 _atom_site_fract_z
 _atom_site_occupancy
  Tm  Tm0  1  0.500000  0.000000  0.240558  1
  Sc  Sc1  1  0.000000  0.500000  0.763436  1
  Cu  Cu2  1  0.500000  0.500000  0.496099  1
  Cu  Cu3  1  0.000000  0.000000  0.496099  1
  As  As4  1  0.000000  0.000000  0.995838  1
  As  As5  1  0.500000  0.500000  0.995838  1
  As  As6  1  0.500000  0.000000  0.670922  1
  P  P7  1  0.000000  0.500000  0.341211  1
