# generated using pymatgen
data_Ca2Dy2As6Ir7
_symmetry_space_group_name_H-M   'P 1'
_cell_length_a   7.28987133
_cell_length_b   7.28987136
_cell_length_c   7.28361256
_cell_angle_alpha   109.49134806
_cell_angle_beta   109.49134594
_cell_angle_gamma   109.46578101
_symmetry_Int_Tables_number   1
_chemical_formula_structural   Ca2Dy2As6Ir7
_chemical_formula_sum   'Ca2 Dy2 As6 Ir7'
_cell_volume   297.83650072
_cell_formula_units_Z   1
loop_
 _symmetry_equiv_pos_site_id
 _symmetry_equiv_pos_as_xyz
  1  'x, y, z'
loop_
 _atom_site_type_symbol
 _atom_site_label
 _atom_site_symmetry_multiplicity
 _atom_site_fract_x
 _atom_site_fract_y
 _atom_site_fract_z
 _atom_site_occupancy
  Ca  Ca0  1  0.000000  0.000000  0.500000  1
  Ca  Ca1  1  0.500000  0.500000  0.500000  1
  Dy  Dy2  1  0.500000  0.000000  0.000000  1
  Dy  Dy3  1  0.000000  0.500000  0.000000  1
  As  As4  1  0.680177  0.680177  0.000000  1
  As  As5  1  0.319823  0.319823  0.000000  1
  As  As6  1  0.998051  0.680376  0.678427  1
  As  As7  1  0.001949  0.319624  0.321573  1
  As  As8  1  0.680376  0.998051  0.678427  1
  As  As9  1  0.319624  0.001949  0.321573  1
  Ir  Ir10  1  0.000000  0.000000  0.000000  1
  Ir  Ir11  1  0.249761  0.503167  0.752928  1
  Ir  Ir12  1  0.750000  0.250000  0.500000  1
  Ir  Ir13  1  0.503167  0.249761  0.752928  1
  Ir  Ir14  1  0.496833  0.750239  0.247072  1
  Ir  Ir15  1  0.750239  0.496833  0.247072  1
  Ir  Ir16  1  0.250000  0.750000  0.500000  1
