# generated using pymatgen
data_NdNb6InSe12
_symmetry_space_group_name_H-M   'P 1'
_cell_length_a   6.08690600
_cell_length_b   6.08690717
_cell_length_c   15.43855900
_cell_angle_alpha   90.00000000
_cell_angle_beta   90.00000000
_cell_angle_gamma   120.00000451
_symmetry_Int_Tables_number   1
_chemical_formula_structural   NdNb6InSe12
_chemical_formula_sum   'Nd1 Nb6 In1 Se12'
_cell_volume   495.37107839
_cell_formula_units_Z   1
loop_
 _symmetry_equiv_pos_site_id
 _symmetry_equiv_pos_as_xyz
  1  'x, y, z'
loop_
 _atom_site_type_symbol
 _atom_site_label
 _atom_site_symmetry_multiplicity
 _atom_site_fract_x
 _atom_site_fract_y
 _atom_site_fract_z
 _atom_site_occupancy
  Nd  Nd0  1  0.666667  0.333333  0.750000  1
  Nb  Nb1  1  0.333333  0.666667  0.993598  1
  Nb  Nb2  1  0.000000  0.000000  0.994267  1
  Nb  Nb3  1  0.666667  0.333333  0.991814  1
  Nb  Nb4  1  0.333333  0.666667  0.506402  1
  Nb  Nb5  1  0.000000  0.000000  0.505733  1
  Nb  Nb6  1  0.666667  0.333333  0.508186  1
  In  In7  1  0.333333  0.666667  0.250000  1
  Se  Se8  1  0.667131  0.664937  0.399567  1
  Se  Se9  1  0.667306  0.673919  0.615408  1
  Se  Se10  1  0.006613  0.673919  0.884592  1
  Se  Se11  1  0.667306  0.993387  0.884592  1
  Se  Se12  1  0.667131  0.002194  0.100433  1
  Se  Se13  1  0.335063  0.002194  0.399567  1
  Se  Se14  1  0.006613  0.332694  0.615408  1
  Se  Se15  1  0.326081  0.993387  0.615408  1
  Se  Se16  1  0.997806  0.664937  0.100433  1
  Se  Se17  1  0.326081  0.332694  0.884592  1
  Se  Se18  1  0.997806  0.332869  0.399567  1
  Se  Se19  1  0.335063  0.332869  0.100433  1
