# generated using pymatgen
data_VReRh6
_symmetry_space_group_name_H-M   'P 1'
_cell_length_a   5.47362500
_cell_length_b   5.47362586
_cell_length_c   4.34508700
_cell_angle_alpha   90.00000000
_cell_angle_beta   90.00000000
_cell_angle_gamma   120.00000087
_symmetry_Int_Tables_number   1
_chemical_formula_structural   VReRh6
_chemical_formula_sum   'V1 Re1 Rh6'
_cell_volume   112.74031741
_cell_formula_units_Z   1
loop_
 _symmetry_equiv_pos_site_id
 _symmetry_equiv_pos_as_xyz
  1  'x, y, z'
loop_
 _atom_site_type_symbol
 _atom_site_label
 _atom_site_symmetry_multiplicity
 _atom_site_fract_x
 _atom_site_fract_y
 _atom_site_fract_z
 _atom_site_occupancy
  V  V0  1  0.666667  0.333333  0.250000  1
  Re  Re1  1  0.333333  0.666667  0.750000  1
  Rh  Rh2  1  0.168423  0.336847  0.250000  1
  Rh  Rh3  1  0.663153  0.831577  0.250000  1
  Rh  Rh4  1  0.168423  0.831577  0.250000  1
  Rh  Rh5  1  0.832395  0.664790  0.750000  1
  Rh  Rh6  1  0.335210  0.167605  0.750000  1
  Rh  Rh7  1  0.832395  0.167605  0.750000  1
