# generated using pymatgen
data_Er5Tm11MgCd3Ir4
_symmetry_space_group_name_H-M   'P 1'
_cell_length_a   9.59044715
_cell_length_b   9.58714996
_cell_length_c   9.58715175
_cell_angle_alpha   59.45440878
_cell_angle_beta   59.45647723
_cell_angle_gamma   59.45647727
_symmetry_Int_Tables_number   1
_chemical_formula_structural   Er5Tm11MgCd3Ir4
_chemical_formula_sum   'Er5 Tm11 Mg1 Cd3 Ir4'
_cell_volume   615.59174299
_cell_formula_units_Z   1
loop_
 _symmetry_equiv_pos_site_id
 _symmetry_equiv_pos_as_xyz
  1  'x, y, z'
loop_
 _atom_site_type_symbol
 _atom_site_label
 _atom_site_symmetry_multiplicity
 _atom_site_fract_x
 _atom_site_fract_y
 _atom_site_fract_z
 _atom_site_occupancy
  Er  Er0  1  0.811854  0.187627  0.187627  1
  Er  Er1  1  0.812634  0.189014  0.812504  1
  Er  Er2  1  0.187658  0.811899  0.187388  1
  Er  Er3  1  0.812634  0.812504  0.189014  1
  Er  Er4  1  0.187658  0.187388  0.811899  1
  Tm  Tm5  1  0.600081  0.600158  0.600158  1
  Tm  Tm6  1  0.598477  0.598605  0.206407  1
  Tm  Tm7  1  0.598477  0.206407  0.598605  1
  Tm  Tm8  1  0.206274  0.598648  0.598648  1
  Tm  Tm9  1  0.059421  0.439926  0.439926  1
  Tm  Tm10  1  0.436441  0.061372  0.061372  1
  Tm  Tm11  1  0.439855  0.059407  0.440051  1
  Tm  Tm12  1  0.061426  0.436547  0.061272  1
  Tm  Tm13  1  0.439855  0.440051  0.059407  1
  Tm  Tm14  1  0.061426  0.061272  0.436547  1
  Tm  Tm15  1  0.189447  0.812343  0.812343  1
  Mg  Mg16  1  0.825070  0.824959  0.824959  1
  Cd  Cd17  1  0.831266  0.831345  0.504645  1
  Cd  Cd18  1  0.831266  0.504645  0.831345  1
  Cd  Cd19  1  0.504396  0.831329  0.831329  1
  Ir  Ir20  1  0.392064  0.392020  0.392020  1
  Ir  Ir21  1  0.393306  0.393514  0.825649  1
  Ir  Ir22  1  0.393306  0.825649  0.393514  1
  Ir  Ir23  1  0.825710  0.393372  0.393372  1
