# generated using pymatgen
data_Mn3FeS4
_symmetry_space_group_name_H-M   'P 1'
_cell_length_a   5.44667900
_cell_length_b   5.44667900
_cell_length_c   5.44667900
_cell_angle_alpha   90.00000000
_cell_angle_beta   90.00000000
_cell_angle_gamma   90.00000000
_symmetry_Int_Tables_number   1
_chemical_formula_structural   Mn3FeS4
_chemical_formula_sum   'Mn3 Fe1 S4'
_cell_volume   161.58287928
_cell_formula_units_Z   1
loop_
 _symmetry_equiv_pos_site_id
 _symmetry_equiv_pos_as_xyz
  1  'x, y, z'
loop_
 _atom_site_type_symbol
 _atom_site_label
 _atom_site_symmetry_multiplicity
 _atom_site_fract_x
 _atom_site_fract_y
 _atom_site_fract_z
 _atom_site_occupancy
  Mn  Mn0  1  0.000000  0.000000  0.500000  1
  Mn  Mn1  1  0.000000  0.500000  0.000000  1
  Mn  Mn2  1  0.500000  0.000000  0.000000  1
  Fe  Fe3  1  0.000000  0.000000  0.000000  1
  S  S4  1  0.760049  0.760049  0.239951  1
  S  S5  1  0.760049  0.239951  0.760049  1
  S  S6  1  0.239951  0.760049  0.760049  1
  S  S7  1  0.239951  0.239951  0.239951  1
