# generated using pymatgen
data_CaHo2Tm5(B6Ru)4
_symmetry_space_group_name_H-M   'P 1'
_cell_length_a   3.62853000
_cell_length_b   9.09138004
_cell_length_c   11.47923501
_cell_angle_alpha   89.90885246
_cell_angle_beta   90.00000000
_cell_angle_gamma   90.00000000
_symmetry_Int_Tables_number   1
_chemical_formula_structural   CaHo2Tm5(B6Ru)4
_chemical_formula_sum   'Ca1 Ho2 Tm5 B24 Ru4'
_cell_volume   378.68048783
_cell_formula_units_Z   1
loop_
 _symmetry_equiv_pos_site_id
 _symmetry_equiv_pos_as_xyz
  1  'x, y, z'
loop_
 _atom_site_type_symbol
 _atom_site_label
 _atom_site_symmetry_multiplicity
 _atom_site_fract_x
 _atom_site_fract_y
 _atom_site_fract_z
 _atom_site_occupancy
  Ca  Ca0  1  0.000000  0.322173  0.413977  1
  Ho  Ho1  1  0.000000  0.676376  0.585083  1
  Ho  Ho2  1  0.000000  0.822245  0.086167  1
  Tm  Tm3  1  0.000000  0.178532  0.914706  1
  Tm  Tm4  1  0.000000  0.943979  0.371179  1
  Tm  Tm5  1  0.000000  0.057804  0.628234  1
  Tm  Tm6  1  0.000000  0.442919  0.129135  1
  Tm  Tm7  1  0.000000  0.556093  0.872406  1
  B  B8  1  0.500000  0.554776  0.432664  1
  B  B9  1  0.500000  0.446172  0.568035  1
  B  B10  1  0.500000  0.053437  0.065910  1
  B  B11  1  0.500000  0.946131  0.932626  1
  B  B12  1  0.500000  0.749267  0.419127  1
  B  B13  1  0.500000  0.251379  0.581826  1
  B  B14  1  0.500000  0.248165  0.079789  1
  B  B15  1  0.500000  0.751187  0.919503  1
  B  B16  1  0.500000  0.791986  0.265632  1
  B  B17  1  0.500000  0.208926  0.735168  1
  B  B18  1  0.500000  0.290120  0.233042  1
  B  B19  1  0.500000  0.708930  0.766188  1
  B  B20  1  0.500000  0.631579  0.185170  1
  B  B21  1  0.500000  0.368767  0.816091  1
  B  B22  1  0.500000  0.130213  0.313858  1
  B  B23  1  0.500000  0.869100  0.684892  1
  B  B24  1  0.500000  0.982667  0.211714  1
  B  B25  1  0.500000  0.017510  0.787394  1
  B  B26  1  0.500000  0.483711  0.287045  1
  B  B27  1  0.500000  0.517056  0.713356  1
  B  B28  1  0.500000  0.606292  0.029444  1
  B  B29  1  0.500000  0.393376  0.970959  1
  B  B30  1  0.500000  0.102295  0.471745  1
  B  B31  1  0.500000  0.896057  0.528702  1
  Ru  Ru32  1  0.000000  0.640274  0.319767  1
  Ru  Ru33  1  0.000000  0.361629  0.681547  1
  Ru  Ru34  1  0.000000  0.136557  0.177081  1
  Ru  Ru35  1  0.000000  0.862320  0.820839  1
