# generated using pymatgen
data_TbSm3V4F28
_symmetry_space_group_name_H-M   'P 1'
_cell_length_a   5.58692108
_cell_length_b   8.96993422
_cell_length_c   11.96630652
_cell_angle_alpha   63.05502829
_cell_angle_beta   89.98926317
_cell_angle_gamma   90.00924429
_symmetry_Int_Tables_number   1
_chemical_formula_structural   TbSm3V4F28
_chemical_formula_sum   'Tb1 Sm3 V4 F28'
_cell_volume   534.58288756
_cell_formula_units_Z   1
loop_
 _symmetry_equiv_pos_site_id
 _symmetry_equiv_pos_as_xyz
  1  'x, y, z'
loop_
 _atom_site_type_symbol
 _atom_site_label
 _atom_site_symmetry_multiplicity
 _atom_site_fract_x
 _atom_site_fract_y
 _atom_site_fract_z
 _atom_site_occupancy
  Tb  Tb0  1  0.241189  0.805047  0.770287  1
  Sm  Sm1  1  0.258232  0.805511  0.270154  1
  Sm  Sm2  1  0.741624  0.189849  0.730912  1
  Sm  Sm3  1  0.758389  0.193264  0.230222  1
  V  V4  1  0.753715  0.726347  0.042684  1
  V  V5  1  0.245862  0.275471  0.954313  1
  V  V6  1  0.253869  0.272664  0.456096  1
  V  V7  1  0.745403  0.726182  0.547198  1
  F  F8  1  0.947314  0.706668  0.427050  1
  F  F9  1  0.052059  0.293425  0.575567  1
  F  F10  1  0.446882  0.294864  0.074367  1
  F  F11  1  0.549905  0.707453  0.923338  1
  F  F12  1  0.483070  0.731511  0.136701  1
  F  F13  1  0.517624  0.268694  0.861270  1
  F  F14  1  0.981568  0.268634  0.362590  1
  F  F15  1  0.016932  0.733207  0.640751  1
  F  F16  1  0.954425  0.745996  0.165360  1
  F  F17  1  0.045910  0.255118  0.832182  1
  F  F18  1  0.453340  0.253932  0.333183  1
  F  F19  1  0.541445  0.747932  0.668090  1
  F  F20  1  0.766403  0.497086  0.135265  1
  F  F21  1  0.235485  0.506089  0.862386  1
  F  F22  1  0.265194  0.502845  0.363555  1
  F  F23  1  0.735002  0.496828  0.638533  1
  F  F24  1  0.966760  0.287366  0.042503  1
  F  F25  1  0.033339  0.715591  0.953231  1
  F  F26  1  0.467707  0.714029  0.457657  1
  F  F27  1  0.533023  0.285530  0.544005  1
  F  F28  1  0.741899  0.953938  0.455572  1
  F  F29  1  0.258050  0.045419  0.546554  1
  F  F30  1  0.242099  0.047958  0.044946  1
  F  F31  1  0.757830  0.954557  0.953096  1
  F  F32  1  0.583522  0.970772  0.229974  1
  F  F33  1  0.416147  0.022701  0.769244  1
  F  F34  1  0.084349  0.028467  0.270129  1
  F  F35  1  0.924433  0.969054  0.731036  1
