# generated using pymatgen
data_Y3Tm3Mg2(Co4P3)4
_symmetry_space_group_name_H-M   'P 1'
_cell_length_a   3.72290500
_cell_length_b   10.61276912
_cell_length_c   12.24958814
_cell_angle_alpha   89.98299423
_cell_angle_beta   90.00000000
_cell_angle_gamma   90.00000000
_symmetry_Int_Tables_number   1
_chemical_formula_structural   Y3Tm3Mg2(Co4P3)4
_chemical_formula_sum   'Y3 Tm3 Mg2 Co16 P12'
_cell_volume   483.98526307
_cell_formula_units_Z   1
loop_
 _symmetry_equiv_pos_site_id
 _symmetry_equiv_pos_as_xyz
  1  'x, y, z'
loop_
 _atom_site_type_symbol
 _atom_site_label
 _atom_site_symmetry_multiplicity
 _atom_site_fract_x
 _atom_site_fract_y
 _atom_site_fract_z
 _atom_site_occupancy
  Y  Y0  1  0.000000  0.499962  0.526083  1
  Y  Y1  1  0.500000  0.000144  0.474369  1
  Y  Y2  1  0.500000  0.822108  0.206047  1
  Tm  Tm3  1  0.500000  0.177876  0.206199  1
  Tm  Tm4  1  0.000000  0.677410  0.794006  1
  Tm  Tm5  1  0.000000  0.322606  0.793617  1
  Mg  Mg6  1  0.500000  0.499611  0.156251  1
  Mg  Mg7  1  0.000000  0.000077  0.843733  1
  Co  Co8  1  0.500000  0.499789  0.706538  1
  Co  Co9  1  0.000000  0.001617  0.293948  1
  Co  Co10  1  0.000000  0.499489  0.987882  1
  Co  Co11  1  0.500000  0.000659  0.010988  1
  Co  Co12  1  0.500000  0.332391  0.996370  1
  Co  Co13  1  0.500000  0.666941  0.995688  1
  Co  Co14  1  0.000000  0.168019  0.003006  1
  Co  Co15  1  0.000000  0.832460  0.002798  1
  Co  Co16  1  0.500000  0.296281  0.432007  1
  Co  Co17  1  0.500000  0.703610  0.432797  1
  Co  Co18  1  0.000000  0.204059  0.568297  1
  Co  Co19  1  0.000000  0.796030  0.568863  1
  Co  Co20  1  0.500000  0.877168  0.706720  1
  Co  Co21  1  0.500000  0.122881  0.706455  1
  Co  Co22  1  0.000000  0.621754  0.294346  1
  Co  Co23  1  0.000000  0.377018  0.293412  1
  P  P24  1  0.500000  0.499674  0.884475  1
  P  P25  1  0.000000  0.001274  0.114475  1
  P  P26  1  0.500000  0.500048  0.354958  1
  P  P27  1  0.000000  0.000064  0.645320  1
  P  P28  1  0.500000  0.309751  0.616562  1
  P  P29  1  0.500000  0.690055  0.617044  1
  P  P30  1  0.000000  0.190630  0.383628  1
  P  P31  1  0.000000  0.809562  0.384882  1
  P  P32  1  0.500000  0.838232  0.892280  1
  P  P33  1  0.500000  0.162047  0.891997  1
  P  P34  1  0.000000  0.660482  0.106375  1
  P  P35  1  0.000000  0.338224  0.107585  1
