# generated using pymatgen
data_PrY5C2Br7
_symmetry_space_group_name_H-M   'P 1'
_cell_length_a   10.60362004
_cell_length_b   10.60361938
_cell_length_c   12.07571107
_cell_angle_alpha   57.43806908
_cell_angle_beta   57.43807236
_cell_angle_gamma   20.84219414
_symmetry_Int_Tables_number   1
_chemical_formula_structural   PrY5C2Br7
_chemical_formula_sum   'Pr1 Y5 C2 Br7'
_cell_volume   404.32899105
_cell_formula_units_Z   1
loop_
 _symmetry_equiv_pos_site_id
 _symmetry_equiv_pos_as_xyz
  1  'x, y, z'
loop_
 _atom_site_type_symbol
 _atom_site_label
 _atom_site_symmetry_multiplicity
 _atom_site_fract_x
 _atom_site_fract_y
 _atom_site_fract_z
 _atom_site_occupancy
  Pr  Pr0  1  0.229106  0.229106  0.842526  1
  Y  Y1  1  0.313219  0.313219  0.366035  1
  Y  Y2  1  0.131586  0.131586  0.442623  1
  Y  Y3  1  0.867441  0.867441  0.558314  1
  Y  Y4  1  0.687726  0.687726  0.634040  1
  Y  Y5  1  0.769287  0.769287  0.166329  1
  C  C6  1  0.280965  0.280965  0.600225  1
  C  C7  1  0.720149  0.720149  0.393652  1
  Br  Br8  1  0.164204  0.164204  0.169047  1
  Br  Br9  1  0.844614  0.844614  0.829569  1
  Br  Br10  1  0.060600  0.060600  0.715636  1
  Br  Br11  1  0.939967  0.939967  0.281631  1
  Br  Br12  1  0.501041  0.501041  0.498206  1
  Br  Br13  1  0.387387  0.387387  0.071126  1
  Br  Br14  1  0.602709  0.602709  0.931040  1
