# generated using pymatgen
data_Tm5InBi2
_symmetry_space_group_name_H-M   'P 1'
_cell_length_a   6.44713000
_cell_length_b   9.02110735
_cell_length_c   8.98371929
_cell_angle_alpha   120.13776181
_cell_angle_beta   89.99992597
_cell_angle_gamma   90.00014151
_symmetry_Int_Tables_number   1
_chemical_formula_structural   Tm5InBi2
_chemical_formula_sum   'Tm10 In2 Bi4'
_cell_volume   451.86481831
_cell_formula_units_Z   2
loop_
 _symmetry_equiv_pos_site_id
 _symmetry_equiv_pos_as_xyz
  1  'x, y, z'
loop_
 _atom_site_type_symbol
 _atom_site_label
 _atom_site_symmetry_multiplicity
 _atom_site_fract_x
 _atom_site_fract_y
 _atom_site_fract_z
 _atom_site_occupancy
  Tm  Tm0  1  0.496191  0.331056  0.659687  1
  Tm  Tm1  1  0.496191  0.671369  0.340313  1
  Tm  Tm2  1  0.003807  0.671368  0.340314  1
  Tm  Tm3  1  0.003807  0.331053  0.659686  1
  Tm  Tm4  1  0.750002  0.234933  0.000000  1
  Tm  Tm5  1  0.750000  0.765737  0.763919  1
  Tm  Tm6  1  0.750000  0.001818  0.236081  1
  Tm  Tm7  1  0.250002  0.768476  0.000000  1
  Tm  Tm8  1  0.249999  0.233250  0.242238  1
  Tm  Tm9  1  0.249999  0.991012  0.757762  1
  In  In10  1  0.250000  0.605016  0.606761  1
  In  In11  1  0.250000  0.998254  0.393239  1
  Bi  Bi12  1  0.750002  0.606638  0.000000  1
  Bi  Bi13  1  0.749998  0.396474  0.393369  1
  Bi  Bi14  1  0.749998  0.003105  0.606631  1
  Bi  Bi15  1  0.250003  0.390442  0.000000  1
