# generated using pymatgen
data_Zr10Ge4As2N
_symmetry_space_group_name_H-M   'P 1'
_cell_length_a   8.06933775
_cell_length_b   8.06071957
_cell_length_c   5.65063600
_cell_angle_alpha   90.06503842
_cell_angle_beta   89.87005489
_cell_angle_gamma   120.03537788
_symmetry_Int_Tables_number   1
_chemical_formula_structural   Zr10Ge4As2N
_chemical_formula_sum   'Zr10 Ge4 As2 N1'
_cell_volume   318.18787078
_cell_formula_units_Z   1
loop_
 _symmetry_equiv_pos_site_id
 _symmetry_equiv_pos_as_xyz
  1  'x, y, z'
loop_
 _atom_site_type_symbol
 _atom_site_label
 _atom_site_symmetry_multiplicity
 _atom_site_fract_x
 _atom_site_fract_y
 _atom_site_fract_z
 _atom_site_occupancy
  Zr  Zr0  1  0.000809  0.761327  0.259748  1
  Zr  Zr1  1  0.239481  0.238673  0.259748  1
  Zr  Zr2  1  0.760504  0.000000  0.257607  1
  Zr  Zr3  1  0.999381  0.239005  0.740746  1
  Zr  Zr4  1  0.760376  0.760995  0.740746  1
  Zr  Zr5  1  0.239319  0.000000  0.741263  1
  Zr  Zr6  1  0.332907  0.665423  0.999215  1
  Zr  Zr7  1  0.667485  0.334577  0.999215  1
  Zr  Zr8  1  0.667390  0.334120  0.501145  1
  Zr  Zr9  1  0.333268  0.665880  0.501145  1
  Ge  Ge10  1  0.396450  0.000000  0.246415  1
  Ge  Ge11  1  0.000636  0.606365  0.753850  1
  Ge  Ge12  1  0.394271  0.393635  0.753850  1
  Ge  Ge13  1  0.603495  0.000000  0.754459  1
  As  As14  1  0.999943  0.394665  0.245868  1
  As  As15  1  0.605277  0.605335  0.245868  1
  N  N16  1  0.999008  0.000000  0.499113  1
