# generated using pymatgen
data_TbYb2TiMnC6
_symmetry_space_group_name_H-M   'P 1'
_cell_length_a   8.19685807
_cell_length_b   8.21394423
_cell_length_c   5.11144700
_cell_angle_alpha   90.00000000
_cell_angle_beta   90.00000000
_cell_angle_gamma   119.69102814
_symmetry_Int_Tables_number   1
_chemical_formula_structural   TbYb2TiMnC6
_chemical_formula_sum   'Tb2 Yb4 Ti2 Mn2 C12'
_cell_volume   298.96296480
_cell_formula_units_Z   2
loop_
 _symmetry_equiv_pos_site_id
 _symmetry_equiv_pos_as_xyz
  1  'x, y, z'
loop_
 _atom_site_type_symbol
 _atom_site_label
 _atom_site_symmetry_multiplicity
 _atom_site_fract_x
 _atom_site_fract_y
 _atom_site_fract_z
 _atom_site_occupancy
  Tb  Tb0  1  0.068040  0.388814  0.750000  1
  Tb  Tb1  1  0.388322  0.318256  0.250000  1
  Yb  Yb2  1  0.609794  0.684368  0.750000  1
  Yb  Yb3  1  0.927033  0.610589  0.250000  1
  Yb  Yb4  1  0.677620  0.071977  0.250000  1
  Yb  Yb5  1  0.320835  0.927154  0.750000  1
  Ti  Ti6  1  0.000991  0.999718  0.499954  1
  Ti  Ti7  1  0.000991  0.999718  0.000046  1
  Mn  Mn8  1  0.667136  0.333247  0.750000  1
  Mn  Mn9  1  0.330184  0.662030  0.250000  1
  C  C10  1  0.955884  0.760802  0.750000  1
  C  C11  1  0.197862  0.957671  0.250000  1
  C  C12  1  0.761274  0.807560  0.250000  1
  C  C13  1  0.237877  0.197372  0.750000  1
  C  C14  1  0.810340  0.046020  0.750000  1
  C  C15  1  0.042292  0.233973  0.250000  1
  C  C16  1  0.855865  0.572961  0.750000  1
  C  C17  1  0.284010  0.853179  0.250000  1
  C  C18  1  0.572849  0.719100  0.250000  1
  C  C19  1  0.429491  0.284540  0.750000  1
  C  C20  1  0.141812  0.425074  0.250000  1
  C  C21  1  0.719496  0.145879  0.750000  1
