# generated using pymatgen
data_Pr4YIr2Rh
_symmetry_space_group_name_H-M   'P 1'
_cell_length_a   11.26111900
_cell_length_b   11.26111900
_cell_length_c   6.63485800
_cell_angle_alpha   90.00000000
_cell_angle_beta   90.00000000
_cell_angle_gamma   90.00000000
_symmetry_Int_Tables_number   1
_chemical_formula_structural   Pr4YIr2Rh
_chemical_formula_sum   'Pr16 Y4 Ir8 Rh4'
_cell_volume   841.38492809
_cell_formula_units_Z   4
loop_
 _symmetry_equiv_pos_site_id
 _symmetry_equiv_pos_as_xyz
  1  'x, y, z'
loop_
 _atom_site_type_symbol
 _atom_site_label
 _atom_site_symmetry_multiplicity
 _atom_site_fract_x
 _atom_site_fract_y
 _atom_site_fract_z
 _atom_site_occupancy
  Pr  Pr0  1  0.288856  0.088146  0.384602  1
  Pr  Pr1  1  0.288856  0.911854  0.884602  1
  Pr  Pr2  1  0.711144  0.088146  0.884602  1
  Pr  Pr3  1  0.711144  0.911854  0.384602  1
  Pr  Pr4  1  0.588146  0.788856  0.884602  1
  Pr  Pr5  1  0.588146  0.211144  0.384602  1
  Pr  Pr6  1  0.411854  0.788856  0.384602  1
  Pr  Pr7  1  0.411854  0.211144  0.884602  1
  Pr  Pr8  1  0.211144  0.411854  0.615398  1
  Pr  Pr9  1  0.211144  0.588146  0.115398  1
  Pr  Pr10  1  0.788856  0.411854  0.115398  1
  Pr  Pr11  1  0.788856  0.588146  0.615398  1
  Pr  Pr12  1  0.911854  0.711144  0.115398  1
  Pr  Pr13  1  0.911854  0.288856  0.615398  1
  Pr  Pr14  1  0.088146  0.711144  0.615398  1
  Pr  Pr15  1  0.088146  0.288856  0.115398  1
  Y  Y16  1  0.000000  0.000000  0.500000  1
  Y  Y17  1  0.000000  0.000000  0.000000  1
  Y  Y18  1  0.500000  0.500000  0.000000  1
  Y  Y19  1  0.500000  0.500000  0.500000  1
  Ir  Ir20  1  0.850264  0.149736  0.250000  1
  Ir  Ir21  1  0.850264  0.850264  0.750000  1
  Ir  Ir22  1  0.149736  0.149736  0.750000  1
  Ir  Ir23  1  0.149736  0.850264  0.250000  1
  Ir  Ir24  1  0.649736  0.350264  0.750000  1
  Ir  Ir25  1  0.649736  0.649736  0.250000  1
  Ir  Ir26  1  0.350264  0.350264  0.250000  1
  Ir  Ir27  1  0.350264  0.649736  0.750000  1
  Rh  Rh28  1  0.500000  0.000000  0.120258  1
  Rh  Rh29  1  0.500000  0.000000  0.620258  1
  Rh  Rh30  1  0.000000  0.500000  0.879742  1
  Rh  Rh31  1  0.000000  0.500000  0.379742  1
