# generated using pymatgen
data_Hf18ZnRe8Ru
_symmetry_space_group_name_H-M   'P 1'
_cell_length_a   8.62843800
_cell_length_b   8.62843843
_cell_length_c   8.56472300
_cell_angle_alpha   90.00000000
_cell_angle_beta   90.00000000
_cell_angle_gamma   119.99999835
_symmetry_Int_Tables_number   1
_chemical_formula_structural   Hf18ZnRe8Ru
_chemical_formula_sum   'Hf18 Zn1 Re8 Ru1'
_cell_volume   552.21518875
_cell_formula_units_Z   1
loop_
 _symmetry_equiv_pos_site_id
 _symmetry_equiv_pos_as_xyz
  1  'x, y, z'
loop_
 _atom_site_type_symbol
 _atom_site_label
 _atom_site_symmetry_multiplicity
 _atom_site_fract_x
 _atom_site_fract_y
 _atom_site_fract_z
 _atom_site_occupancy
  Hf  Hf0  1  0.197934  0.802066  0.446647  1
  Hf  Hf1  1  0.197934  0.395866  0.446647  1
  Hf  Hf2  1  0.604134  0.802066  0.446647  1
  Hf  Hf3  1  0.807120  0.192880  0.549733  1
  Hf  Hf4  1  0.807120  0.614242  0.549733  1
  Hf  Hf5  1  0.385758  0.192880  0.549733  1
  Hf  Hf6  1  0.807120  0.192880  0.950267  1
  Hf  Hf7  1  0.807120  0.614242  0.950267  1
  Hf  Hf8  1  0.385758  0.192880  0.950267  1
  Hf  Hf9  1  0.197934  0.802066  0.053353  1
  Hf  Hf10  1  0.197934  0.395866  0.053353  1
  Hf  Hf11  1  0.604134  0.802066  0.053353  1
  Hf  Hf12  1  0.541679  0.458321  0.250000  1
  Hf  Hf13  1  0.541679  0.083358  0.250000  1
  Hf  Hf14  1  0.916642  0.458321  0.250000  1
  Hf  Hf15  1  0.459758  0.540242  0.750000  1
  Hf  Hf16  1  0.459758  0.919515  0.750000  1
  Hf  Hf17  1  0.080485  0.540242  0.750000  1
  Zn  Zn18  1  0.666667  0.333333  0.750000  1
  Re  Re19  1  0.889403  0.110597  0.250000  1
  Re  Re20  1  0.889403  0.778806  0.250000  1
  Re  Re21  1  0.221194  0.110597  0.250000  1
  Re  Re22  1  0.110675  0.889325  0.750000  1
  Re  Re23  1  0.110675  0.221350  0.750000  1
  Re  Re24  1  0.778650  0.889325  0.750000  1
  Re  Re25  1  0.000000  0.000000  0.499279  1
  Re  Re26  1  0.000000  0.000000  0.000721  1
  Ru  Ru27  1  0.333333  0.666667  0.250000  1
