# generated using pymatgen
data_La2Nd4CuSn2Sb13
_symmetry_space_group_name_H-M   'P 1'
_cell_length_a   12.61590481
_cell_length_b   12.65895086
_cell_length_c   4.29475317
_cell_angle_alpha   80.41407728
_cell_angle_beta   80.39982122
_cell_angle_gamma   102.20551649
_symmetry_Int_Tables_number   1
_chemical_formula_structural   La2Nd4CuSn2Sb13
_chemical_formula_sum   'La2 Nd4 Cu1 Sn2 Sb13'
_cell_volume   646.34516737
_cell_formula_units_Z   1
loop_
 _symmetry_equiv_pos_site_id
 _symmetry_equiv_pos_as_xyz
  1  'x, y, z'
loop_
 _atom_site_type_symbol
 _atom_site_label
 _atom_site_symmetry_multiplicity
 _atom_site_fract_x
 _atom_site_fract_y
 _atom_site_fract_z
 _atom_site_occupancy
  La  La0  1  0.995402  0.727102  0.072724  1
  La  La1  1  0.004761  0.268497  0.796613  1
  Nd  Nd2  1  0.324795  0.678757  0.929360  1
  Nd  Nd3  1  0.676823  0.322695  0.931135  1
  Nd  Nd4  1  0.270850  0.005913  0.795464  1
  Nd  Nd5  1  0.725240  0.995985  0.073098  1
  Cu  Cu6  1  0.265921  0.264739  0.678742  1
  Sn  Sn7  1  0.399809  0.400257  0.032515  1
  Sn  Sn8  1  0.595093  0.594278  0.833213  1
  Sb  Sb9  1  0.470726  0.246956  0.570748  1
  Sb  Sb10  1  0.544029  0.748918  0.284765  1
  Sb  Sb11  1  0.745877  0.541212  0.287466  1
  Sb  Sb12  1  0.249219  0.470884  0.569522  1
  Sb  Sb13  1  0.511149  0.913794  0.718117  1
  Sb  Sb14  1  0.486649  0.079768  0.148776  1
  Sb  Sb15  1  0.079688  0.487432  0.148494  1
  Sb  Sb16  1  0.913967  0.510080  0.718457  1
  Sb  Sb17  1  0.160261  0.157057  0.281711  1
  Sb  Sb18  1  0.849340  0.853647  0.583107  1
  Sb  Sb19  1  0.201873  0.801798  0.430906  1
  Sb  Sb20  1  0.796908  0.197583  0.435527  1
  Sb  Sb21  1  0.992222  0.993249  0.946840  1
