# generated using pymatgen
data_Sc5Si12Tc2Ir17
_symmetry_space_group_name_H-M   'P 1'
_cell_length_a   12.72708337
_cell_length_b   12.72708372
_cell_length_c   3.95150300
_cell_angle_alpha   90.00000000
_cell_angle_beta   90.00000000
_cell_angle_gamma   120.30258860
_symmetry_Int_Tables_number   1
_chemical_formula_structural   Sc5Si12Tc2Ir17
_chemical_formula_sum   'Sc5 Si12 Tc2 Ir17'
_cell_volume   552.60962620
_cell_formula_units_Z   1
loop_
 _symmetry_equiv_pos_site_id
 _symmetry_equiv_pos_as_xyz
  1  'x, y, z'
loop_
 _atom_site_type_symbol
 _atom_site_label
 _atom_site_symmetry_multiplicity
 _atom_site_fract_x
 _atom_site_fract_y
 _atom_site_fract_z
 _atom_site_occupancy
  Sc  Sc0  1  0.330540  0.668078  0.000000  1
  Sc  Sc1  1  0.668078  0.330540  0.000000  1
  Sc  Sc2  1  0.814743  0.001817  0.500000  1
  Sc  Sc3  1  0.001817  0.814743  0.500000  1
  Sc  Sc4  1  0.184645  0.184645  0.500000  1
  Si  Si5  1  0.179455  0.001289  0.000000  1
  Si  Si6  1  0.001289  0.179455  0.000000  1
  Si  Si7  1  0.820058  0.820058  0.000000  1
  Si  Si8  1  0.168279  0.482641  0.500000  1
  Si  Si9  1  0.518080  0.688750  0.500000  1
  Si  Si10  1  0.313083  0.833660  0.500000  1
  Si  Si11  1  0.688750  0.518080  0.500000  1
  Si  Si12  1  0.833660  0.313083  0.500000  1
  Si  Si13  1  0.482641  0.168279  0.500000  1
  Si  Si14  1  0.629456  0.999314  0.000000  1
  Si  Si15  1  0.999314  0.629456  0.000000  1
  Si  Si16  1  0.366650  0.366650  0.000000  1
  Tc  Tc17  1  0.441954  0.000293  0.000000  1
  Tc  Tc18  1  0.000293  0.441954  0.000000  1
  Ir  Ir19  1  0.553610  0.553610  0.000000  1
  Ir  Ir20  1  0.361191  0.488704  0.500000  1
  Ir  Ir21  1  0.511310  0.872291  0.500000  1
  Ir  Ir22  1  0.127986  0.640348  0.500000  1
  Ir  Ir23  1  0.872291  0.511310  0.500000  1
  Ir  Ir24  1  0.640348  0.127986  0.500000  1
  Ir  Ir25  1  0.488704  0.361191  0.500000  1
  Ir  Ir26  1  0.183725  0.376222  0.000000  1
  Ir  Ir27  1  0.625575  0.807922  0.000000  1
  Ir  Ir28  1  0.190610  0.818547  0.000000  1
  Ir  Ir29  1  0.807922  0.625575  0.000000  1
  Ir  Ir30  1  0.818547  0.190610  0.000000  1
  Ir  Ir31  1  0.376222  0.183725  0.000000  1
  Ir  Ir32  1  0.279032  0.001414  0.500000  1
  Ir  Ir33  1  0.001414  0.279032  0.500000  1
  Ir  Ir34  1  0.719002  0.719002  0.500000  1
  Ir  Ir35  1  0.999724  0.999724  0.000000  1
