# generated using pymatgen
data_ErTmCo2Sn
_symmetry_space_group_name_H-M   'P 1'
_cell_length_a   7.10771937
_cell_length_b   7.10771862
_cell_length_c   3.87182300
_cell_angle_alpha   90.00000000
_cell_angle_beta   90.00000000
_cell_angle_gamma   149.03722766
_symmetry_Int_Tables_number   1
_chemical_formula_structural   ErTmCo2Sn
_chemical_formula_sum   'Er1 Tm1 Co2 Sn1'
_cell_volume   100.63414409
_cell_formula_units_Z   1
loop_
 _symmetry_equiv_pos_site_id
 _symmetry_equiv_pos_as_xyz
  1  'x, y, z'
loop_
 _atom_site_type_symbol
 _atom_site_label
 _atom_site_symmetry_multiplicity
 _atom_site_fract_x
 _atom_site_fract_y
 _atom_site_fract_z
 _atom_site_occupancy
  Er  Er0  1  0.637622  0.362378  0.500000  1
  Tm  Tm1  1  0.362062  0.637938  0.500000  1
  Co  Co2  1  0.795756  0.204244  0.000000  1
  Co  Co3  1  0.205013  0.794987  0.000000  1
  Sn  Sn4  1  0.999547  0.000453  0.000000  1
