# generated using pymatgen
data_Gd3Dy5Er2(SiB4)4
_symmetry_space_group_name_H-M   'P 1'
_cell_length_a   7.23478440
_cell_length_b   7.23478440
_cell_length_c   8.10272800
_cell_angle_alpha   90.00227142
_cell_angle_beta   90.00227142
_cell_angle_gamma   90.03814023
_symmetry_Int_Tables_number   1
_chemical_formula_structural   Gd3Dy5Er2(SiB4)4
_chemical_formula_sum   'Gd3 Dy5 Er2 Si4 B16'
_cell_volume   424.11374810
_cell_formula_units_Z   1
loop_
 _symmetry_equiv_pos_site_id
 _symmetry_equiv_pos_as_xyz
  1  'x, y, z'
loop_
 _atom_site_type_symbol
 _atom_site_label
 _atom_site_symmetry_multiplicity
 _atom_site_fract_x
 _atom_site_fract_y
 _atom_site_fract_z
 _atom_site_occupancy
  Gd  Gd0  1  0.680890  0.180890  0.226459  1
  Gd  Gd1  1  0.319639  0.819639  0.773570  1
  Gd  Gd2  1  0.319350  0.819350  0.226371  1
  Dy  Dy3  1  0.819827  0.679990  0.223869  1
  Dy  Dy4  1  0.819682  0.680257  0.775981  1
  Dy  Dy5  1  0.680285  0.180285  0.775516  1
  Dy  Dy6  1  0.180257  0.319682  0.775981  1
  Dy  Dy7  1  0.179990  0.319827  0.223869  1
  Er  Er8  1  0.999885  0.000120  0.500112  1
  Er  Er9  1  0.500120  0.499885  0.500112  1
  Si  Si10  1  0.114839  0.614839  0.500209  1
  Si  Si11  1  0.884684  0.384684  0.500387  1
  Si  Si12  1  0.384753  0.115691  0.500528  1
  Si  Si13  1  0.615691  0.884753  0.500528  1
  B  B14  1  0.172349  0.039429  0.999739  1
  B  B15  1  0.827433  0.960804  0.999797  1
  B  B16  1  0.960822  0.172533  0.999842  1
  B  B17  1  0.327595  0.538860  0.999773  1
  B  B18  1  0.038860  0.827595  0.999773  1
  B  B19  1  0.672533  0.460822  0.999842  1
  B  B20  1  0.539429  0.672349  0.999739  1
  B  B21  1  0.460804  0.327433  0.999797  1
  B  B22  1  0.089748  0.589748  0.999939  1
  B  B23  1  0.910166  0.410166  0.999999  1
  B  B24  1  0.410167  0.090115  0.999610  1
  B  B25  1  0.590115  0.910167  0.999610  1
  B  B26  1  0.000003  0.000121  0.161754  1
  B  B27  1  0.999797  0.000164  0.837770  1
  B  B28  1  0.500164  0.499797  0.837770  1
  B  B29  1  0.500121  0.500003  0.161754  1
