# generated using pymatgen
data_Y2HoSi2Ag3Hg
_symmetry_space_group_name_H-M   'P 1'
_cell_length_a   7.24803007
_cell_length_b   7.24625929
_cell_length_c   4.22407900
_cell_angle_alpha   90.00000000
_cell_angle_beta   90.00000000
_cell_angle_gamma   119.99191519
_symmetry_Int_Tables_number   1
_chemical_formula_structural   Y2HoSi2Ag3Hg
_chemical_formula_sum   'Y2 Ho1 Si2 Ag3 Hg1'
_cell_volume   192.14624231
_cell_formula_units_Z   1
loop_
 _symmetry_equiv_pos_site_id
 _symmetry_equiv_pos_as_xyz
  1  'x, y, z'
loop_
 _atom_site_type_symbol
 _atom_site_label
 _atom_site_symmetry_multiplicity
 _atom_site_fract_x
 _atom_site_fract_y
 _atom_site_fract_z
 _atom_site_occupancy
  Y  Y0  1  0.579143  0.578964  0.500000  1
  Y  Y1  1  0.420857  0.999821  0.500000  1
  Ho  Ho2  1  0.000000  0.421024  0.500000  1
  Si  Si3  1  0.332178  0.665794  0.000000  1
  Si  Si4  1  0.667822  0.333615  0.000000  1
  Ag  Ag5  1  0.000000  0.729942  0.000000  1
  Ag  Ag6  1  0.268623  0.269108  0.000000  1
  Ag  Ag7  1  0.731377  0.000486  0.000000  1
  Hg  Hg8  1  0.000000  0.001246  0.500000  1
