# generated using pymatgen
data_YbTh3(Ga3Ir)6
_symmetry_space_group_name_H-M   'P 1'
_cell_length_a   7.68687962
_cell_length_b   7.70020225
_cell_length_c   9.50575700
_cell_angle_alpha   90.00000000
_cell_angle_beta   90.00000000
_cell_angle_gamma   119.75311632
_symmetry_Int_Tables_number   1
_chemical_formula_structural   YbTh3(Ga3Ir)6
_chemical_formula_sum   'Yb1 Th3 Ga18 Ir6'
_cell_volume   488.47754852
_cell_formula_units_Z   1
loop_
 _symmetry_equiv_pos_site_id
 _symmetry_equiv_pos_as_xyz
  1  'x, y, z'
loop_
 _atom_site_type_symbol
 _atom_site_label
 _atom_site_symmetry_multiplicity
 _atom_site_fract_x
 _atom_site_fract_y
 _atom_site_fract_z
 _atom_site_occupancy
  Yb  Yb0  1  0.330798  0.003671  0.750000  1
  Th  Th1  1  0.997252  0.669831  0.250000  1
  Th  Th2  1  0.002444  0.331098  0.750000  1
  Th  Th3  1  0.667665  0.995674  0.250000  1
  Ga  Ga4  1  0.133992  0.131568  0.250000  1
  Ga  Ga5  1  0.873548  0.870623  0.750000  1
  Ga  Ga6  1  0.004591  0.334533  0.079501  1
  Ga  Ga7  1  0.004003  0.673112  0.916659  1
  Ga  Ga8  1  0.004003  0.673112  0.583341  1
  Ga  Ga9  1  0.334620  0.003890  0.428166  1
  Ga  Ga10  1  0.004591  0.334533  0.420499  1
  Ga  Ga11  1  0.657557  0.996467  0.583583  1
  Ga  Ga12  1  0.657557  0.996467  0.916417  1
  Ga  Ga13  1  0.334620  0.003890  0.071834  1
  Ga  Ga14  1  0.335929  0.329403  0.566400  1
  Ga  Ga15  1  0.663447  0.663120  0.439658  1
  Ga  Ga16  1  0.663447  0.663120  0.060342  1
  Ga  Ga17  1  0.335929  0.329403  0.933600  1
  Ga  Ga18  1  0.339466  0.541290  0.250000  1
  Ga  Ga19  1  0.657320  0.451869  0.750000  1
  Ga  Ga20  1  0.541186  0.337080  0.250000  1
  Ga  Ga21  1  0.455966  0.663451  0.750000  1
  Ir  Ir22  1  0.676543  0.331529  0.001565  1
  Ir  Ir23  1  0.327554  0.669657  0.001708  1
  Ir  Ir24  1  0.327554  0.669657  0.498292  1
  Ir  Ir25  1  0.676543  0.331529  0.498435  1
  Ir  Ir26  1  0.995938  0.000210  0.001733  1
  Ir  Ir27  1  0.995938  0.000210  0.498267  1
