# generated using pymatgen
data_EuGa4Cu9
_symmetry_space_group_name_H-M   'P 1'
_cell_length_a   8.40677547
_cell_length_b   8.40677625
_cell_length_c   8.40677501
_cell_angle_alpha   120.74303918
_cell_angle_beta   120.74304722
_cell_angle_gamma   88.71776247
_symmetry_Int_Tables_number   1
_chemical_formula_structural   EuGa4Cu9
_chemical_formula_sum   'Eu2 Ga8 Cu18'
_cell_volume   415.28876915
_cell_formula_units_Z   2
loop_
 _symmetry_equiv_pos_site_id
 _symmetry_equiv_pos_as_xyz
  1  'x, y, z'
loop_
 _atom_site_type_symbol
 _atom_site_label
 _atom_site_symmetry_multiplicity
 _atom_site_fract_x
 _atom_site_fract_y
 _atom_site_fract_z
 _atom_site_occupancy
  Eu  Eu0  1  0.750000  0.750000  0.000000  1
  Eu  Eu1  1  0.250000  0.250000  0.000000  1
  Ga  Ga2  1  0.698292  0.559782  0.500000  1
  Ga  Ga3  1  0.940218  0.801708  0.500000  1
  Ga  Ga4  1  0.198292  0.698292  0.138510  1
  Ga  Ga5  1  0.559782  0.059782  0.861490  1
  Ga  Ga6  1  0.440218  0.940218  0.138510  1
  Ga  Ga7  1  0.801708  0.301708  0.861490  1
  Ga  Ga8  1  0.301708  0.440218  0.500000  1
  Ga  Ga9  1  0.059782  0.198292  0.500000  1
  Cu  Cu10  1  0.436653  0.704095  0.500000  1
  Cu  Cu11  1  0.062856  0.796395  0.859251  1
  Cu  Cu12  1  0.937144  0.203605  0.140749  1
  Cu  Cu13  1  0.295905  0.795905  0.732557  1
  Cu  Cu14  1  0.563347  0.295905  0.500000  1
  Cu  Cu15  1  0.796395  0.937144  0.733538  1
  Cu  Cu16  1  0.437144  0.296395  0.733538  1
  Cu  Cu17  1  0.204095  0.936653  0.500000  1
  Cu  Cu18  1  0.296395  0.562856  0.859251  1
  Cu  Cu19  1  0.704095  0.204095  0.267443  1
  Cu  Cu20  1  0.000000  0.500000  0.500000  1
  Cu  Cu21  1  0.203605  0.062856  0.266462  1
  Cu  Cu22  1  0.936653  0.436653  0.732557  1
  Cu  Cu23  1  0.703605  0.437144  0.140749  1
  Cu  Cu24  1  0.063347  0.563347  0.267443  1
  Cu  Cu25  1  0.562856  0.703605  0.266462  1
  Cu  Cu26  1  0.500000  0.000000  0.500000  1
  Cu  Cu27  1  0.795905  0.063347  0.500000  1
