# generated using pymatgen
data_EuY3Ni13C4
_symmetry_space_group_name_H-M   'P 1'
_cell_length_a   8.41765117
_cell_length_b   8.41765167
_cell_length_c   3.88635600
_cell_angle_alpha   90.00000000
_cell_angle_beta   90.00000000
_cell_angle_gamma   90.60483499
_symmetry_Int_Tables_number   1
_chemical_formula_structural   EuY3Ni13C4
_chemical_formula_sum   'Eu1 Y3 Ni13 C4'
_cell_volume   275.35962206
_cell_formula_units_Z   1
loop_
 _symmetry_equiv_pos_site_id
 _symmetry_equiv_pos_as_xyz
  1  'x, y, z'
loop_
 _atom_site_type_symbol
 _atom_site_label
 _atom_site_symmetry_multiplicity
 _atom_site_fract_x
 _atom_site_fract_y
 _atom_site_fract_z
 _atom_site_occupancy
  Eu  Eu0  1  0.649851  0.649851  0.500000  1
  Y  Y1  1  0.811808  0.188117  0.500000  1
  Y  Y2  1  0.188117  0.811808  0.500000  1
  Y  Y3  1  0.349652  0.349652  0.500000  1
  Ni  Ni4  1  0.494136  0.007496  0.500000  1
  Ni  Ni5  1  0.007496  0.494136  0.500000  1
  Ni  Ni6  1  0.002577  0.002577  0.000000  1
  Ni  Ni7  1  0.426994  0.783960  0.000000  1
  Ni  Ni8  1  0.568146  0.212856  0.000000  1
  Ni  Ni9  1  0.212856  0.568146  0.000000  1
  Ni  Ni10  1  0.783960  0.426994  0.000000  1
  Ni  Ni11  1  0.712238  0.931471  0.000000  1
  Ni  Ni12  1  0.291914  0.074464  0.000000  1
  Ni  Ni13  1  0.074464  0.291914  0.000000  1
  Ni  Ni14  1  0.931471  0.712238  0.000000  1
  Ni  Ni15  1  0.879308  0.879308  0.500000  1
  Ni  Ni16  1  0.124982  0.124982  0.500000  1
  C  C17  1  0.439496  0.553396  0.000000  1
  C  C18  1  0.553396  0.439496  0.000000  1
  C  C19  1  0.500832  0.996307  0.000000  1
  C  C20  1  0.996307  0.500832  0.000000  1
