# generated using pymatgen
data_Mn2Nb3SiN
_symmetry_space_group_name_H-M   'P 1'
_cell_length_a   8.04973132
_cell_length_b   8.05004462
_cell_length_c   8.05023704
_cell_angle_alpha   59.99437229
_cell_angle_beta   59.99045148
_cell_angle_gamma   59.99247512
_symmetry_Int_Tables_number   1
_chemical_formula_structural   Mn2Nb3SiN
_chemical_formula_sum   'Mn8 Nb12 Si4 N4'
_cell_volume   368.80671772
_cell_formula_units_Z   4
loop_
 _symmetry_equiv_pos_site_id
 _symmetry_equiv_pos_as_xyz
  1  'x, y, z'
loop_
 _atom_site_type_symbol
 _atom_site_label
 _atom_site_symmetry_multiplicity
 _atom_site_fract_x
 _atom_site_fract_y
 _atom_site_fract_z
 _atom_site_occupancy
  Mn  Mn0  1  0.735311  0.421506  0.421571  1
  Mn  Mn1  1  0.421529  0.735304  0.421555  1
  Mn  Mn2  1  0.421520  0.421507  0.735368  1
  Mn  Mn3  1  0.421521  0.421484  0.421555  1
  Mn  Mn4  1  0.514689  0.828494  0.828429  1
  Mn  Mn5  1  0.828471  0.514696  0.828445  1
  Mn  Mn6  1  0.828480  0.828493  0.514632  1
  Mn  Mn7  1  0.828479  0.828516  0.828445  1
  Nb  Nb8  1  0.800261  0.800281  0.199691  1
  Nb  Nb9  1  0.199771  0.199777  0.800207  1
  Nb  Nb10  1  0.800251  0.199682  0.800285  1
  Nb  Nb11  1  0.199756  0.800201  0.199788  1
  Nb  Nb12  1  0.199685  0.800254  0.800268  1
  Nb  Nb13  1  0.800195  0.199754  0.199778  1
  Nb  Nb14  1  0.449739  0.449719  0.050309  1
  Nb  Nb15  1  0.050229  0.050223  0.449793  1
  Nb  Nb16  1  0.449749  0.050318  0.449715  1
  Nb  Nb17  1  0.050244  0.449799  0.050212  1
  Nb  Nb18  1  0.050315  0.449746  0.449732  1
  Nb  Nb19  1  0.449805  0.050246  0.050222  1
  Si  Si20  1  0.125000  0.625000  0.625000  1
  Si  Si21  1  0.625000  0.125000  0.625000  1
  Si  Si22  1  0.625000  0.625000  0.125000  1
  Si  Si23  1  0.625000  0.625000  0.625000  1
  N  N24  1  0.625000  0.125000  0.125000  1
  N  N25  1  0.125000  0.625000  0.125000  1
  N  N26  1  0.125000  0.125000  0.625000  1
  N  N27  1  0.125000  0.125000  0.125000  1
