# generated using pymatgen
data_Er3Th(Al8Pd3)3
_symmetry_space_group_name_H-M   'P 1'
_cell_length_a   7.57605519
_cell_length_b   7.59579568
_cell_length_c   13.15895290
_cell_angle_alpha   84.49075527
_cell_angle_beta   78.94203960
_cell_angle_gamma   59.93182853
_symmetry_Int_Tables_number   1
_chemical_formula_structural   Er3Th(Al8Pd3)3
_chemical_formula_sum   'Er3 Th1 Al24 Pd9'
_cell_volume   643.17709339
_cell_formula_units_Z   1
loop_
 _symmetry_equiv_pos_site_id
 _symmetry_equiv_pos_as_xyz
  1  'x, y, z'
loop_
 _atom_site_type_symbol
 _atom_site_label
 _atom_site_symmetry_multiplicity
 _atom_site_fract_x
 _atom_site_fract_y
 _atom_site_fract_z
 _atom_site_occupancy
  Er  Er0  1  0.606167  0.830976  0.192998  1
  Er  Er1  1  0.733398  0.498691  0.808009  1
  Er  Er2  1  0.265812  0.502107  0.193045  1
  Th  Th3  1  0.393351  0.168069  0.808194  1
  Al  Al4  1  0.686866  0.830278  0.947644  1
  Al  Al5  1  0.315311  0.166266  0.059197  1
  Al  Al6  1  0.146386  0.833547  0.560105  1
  Al  Al7  1  0.854999  0.166526  0.437036  1
  Al  Al8  1  0.480464  0.166578  0.556907  1
  Al  Al9  1  0.520792  0.832329  0.439834  1
  Al  Al10  1  0.218205  0.165338  0.328539  1
  Al  Al11  1  0.787225  0.831299  0.667100  1
  Al  Al12  1  0.437772  0.510296  0.667749  1
  Al  Al13  1  0.563218  0.493680  0.328223  1
  Al  Al14  1  0.106737  0.159733  0.666023  1
  Al  Al15  1  0.891100  0.839836  0.329597  1
  Al  Al16  1  0.351791  0.502931  0.947538  1
  Al  Al17  1  0.645607  0.501604  0.056775  1
  Al  Al18  1  0.011267  0.167428  0.958068  1
  Al  Al19  1  0.983726  0.831485  0.048676  1
  Al  Al20  1  0.186484  0.500448  0.439882  1
  Al  Al21  1  0.813328  0.500216  0.558615  1
  Al  Al22  1  0.732840  0.164166  0.183780  1
  Al  Al23  1  0.266076  0.832200  0.816358  1
  Al  Al24  1  0.058219  0.634445  0.815096  1
  Al  Al25  1  0.937548  0.370486  0.185476  1
  Al  Al26  1  0.859258  0.041636  0.816344  1
  Al  Al27  1  0.144946  0.957070  0.184525  1
  Pd  Pd28  1  0.120705  0.491795  0.637900  1
  Pd  Pd29  1  0.880508  0.507800  0.361346  1
  Pd  Pd30  1  0.656491  0.171559  0.000269  1
  Pd  Pd31  1  0.342715  0.829265  0.000598  1
  Pd  Pd32  1  0.537791  0.166867  0.361202  1
  Pd  Pd33  1  0.462187  0.833672  0.637741  1
  Pd  Pd34  1  0.777980  0.174873  0.637341  1
  Pd  Pd35  1  0.222063  0.825069  0.361782  1
  Pd  Pd36  1  0.000670  0.499439  0.000488  1
