# generated using pymatgen
data_Ho2ErHfIn2Ir3
_symmetry_space_group_name_H-M   'P 1'
_cell_length_a   7.43789109
_cell_length_b   7.21962213
_cell_length_c   4.13447900
_cell_angle_alpha   90.00000000
_cell_angle_beta   90.00000000
_cell_angle_gamma   119.02115312
_symmetry_Int_Tables_number   1
_chemical_formula_structural   Ho2ErHfIn2Ir3
_chemical_formula_sum   'Ho2 Er1 Hf1 In2 Ir3'
_cell_volume   194.14017449
_cell_formula_units_Z   1
loop_
 _symmetry_equiv_pos_site_id
 _symmetry_equiv_pos_as_xyz
  1  'x, y, z'
loop_
 _atom_site_type_symbol
 _atom_site_label
 _atom_site_symmetry_multiplicity
 _atom_site_fract_x
 _atom_site_fract_y
 _atom_site_fract_z
 _atom_site_occupancy
  Ho  Ho0  1  0.415312  0.003906  0.000000  1
  Ho  Ho1  1  0.000022  0.394420  0.000000  1
  Er  Er2  1  0.585050  0.588612  0.000000  1
  Hf  Hf3  1  0.999800  0.751637  0.500000  1
  In  In4  1  0.256321  0.254878  0.500000  1
  In  In5  1  0.743802  0.998332  0.500000  1
  Ir  Ir6  1  0.999700  0.979193  0.000000  1
  Ir  Ir7  1  0.681460  0.355483  0.500000  1
  Ir  Ir8  1  0.318533  0.673540  0.500000  1
