# generated using pymatgen
data_Pr8Sc12Ga3Si12As
_symmetry_space_group_name_H-M   'P 1'
_cell_length_a   7.29406956
_cell_length_b   7.57904912
_cell_length_c   14.34967504
_cell_angle_alpha   89.99324052
_cell_angle_beta   90.06521605
_cell_angle_gamma   90.52780517
_symmetry_Int_Tables_number   1
_chemical_formula_structural   Pr8Sc12Ga3Si12As
_chemical_formula_sum   'Pr8 Sc12 Ga3 Si12 As1'
_cell_volume   793.24615802
_cell_formula_units_Z   1
loop_
 _symmetry_equiv_pos_site_id
 _symmetry_equiv_pos_as_xyz
  1  'x, y, z'
loop_
 _atom_site_type_symbol
 _atom_site_label
 _atom_site_symmetry_multiplicity
 _atom_site_fract_x
 _atom_site_fract_y
 _atom_site_fract_z
 _atom_site_occupancy
  Pr  Pr0  1  0.011889  0.171623  0.401571  1
  Pr  Pr1  1  0.513343  0.325997  0.400951  1
  Pr  Pr2  1  0.491561  0.669450  0.901370  1
  Pr  Pr3  1  0.493846  0.672238  0.596421  1
  Pr  Pr4  1  0.987739  0.829763  0.599191  1
  Pr  Pr5  1  0.988219  0.830173  0.898461  1
  Pr  Pr6  1  0.509765  0.324910  0.099564  1
  Pr  Pr7  1  0.010561  0.174094  0.099573  1
  Sc  Sc8  1  0.331039  0.173268  0.626767  1
  Sc  Sc9  1  0.670100  0.824534  0.374748  1
  Sc  Sc10  1  0.662925  0.003798  0.749270  1
  Sc  Sc11  1  0.172099  0.677069  0.374521  1
  Sc  Sc12  1  0.828387  0.323835  0.873985  1
  Sc  Sc13  1  0.825019  0.325461  0.624483  1
  Sc  Sc14  1  0.839024  0.501376  0.252329  1
  Sc  Sc15  1  0.339244  0.997040  0.252010  1
  Sc  Sc16  1  0.328783  0.175916  0.872461  1
  Sc  Sc17  1  0.170023  0.673698  0.126820  1
  Sc  Sc18  1  0.670273  0.826917  0.126980  1
  Sc  Sc19  1  0.157980  0.493900  0.751349  1
  Ga  Ga20  1  0.156143  0.460603  0.539938  1
  Ga  Ga21  1  0.844947  0.542134  0.038579  1
  Ga  Ga22  1  0.344255  0.958983  0.038464  1
  Si  Si23  1  0.465754  0.624512  0.250613  1
  Si  Si24  1  0.024128  0.138855  0.749292  1
  Si  Si25  1  0.531931  0.374542  0.749133  1
  Si  Si26  1  0.966245  0.874098  0.250695  1
  Si  Si27  1  0.711356  0.117198  0.250891  1
  Si  Si28  1  0.153550  0.461510  0.959622  1
  Si  Si29  1  0.650149  0.037024  0.539484  1
  Si  Si30  1  0.349074  0.962729  0.461310  1
  Si  Si31  1  0.847388  0.540219  0.460578  1
  Si  Si32  1  0.791341  0.619080  0.749526  1
  Si  Si33  1  0.211452  0.382827  0.251112  1
  Si  Si34  1  0.651788  0.038829  0.958669  1
  As  As35  1  0.298676  0.871793  0.749266  1
