# generated using pymatgen
data_Er2Tm3(CoB3)2
_symmetry_space_group_name_H-M   'P 1'
_cell_length_a   5.38030682
_cell_length_b   5.38030553
_cell_length_c   8.21646342
_cell_angle_alpha   70.88834594
_cell_angle_beta   70.88833914
_cell_angle_gamma   59.99998891
_symmetry_Int_Tables_number   1
_chemical_formula_structural   Er2Tm3(CoB3)2
_chemical_formula_sum   'Er2 Tm3 Co2 B6'
_cell_volume   190.69428263
_cell_formula_units_Z   1
loop_
 _symmetry_equiv_pos_site_id
 _symmetry_equiv_pos_as_xyz
  1  'x, y, z'
loop_
 _atom_site_type_symbol
 _atom_site_label
 _atom_site_symmetry_multiplicity
 _atom_site_fract_x
 _atom_site_fract_y
 _atom_site_fract_z
 _atom_site_occupancy
  Er  Er0  1  0.252154  0.252154  0.243538  1
  Er  Er1  1  0.747846  0.747846  0.756462  1
  Tm  Tm2  1  0.000000  0.000000  0.000000  1
  Tm  Tm3  1  0.416171  0.416171  0.751486  1
  Tm  Tm4  1  0.583829  0.583829  0.248514  1
  Co  Co5  1  0.118845  0.118845  0.643464  1
  Co  Co6  1  0.881155  0.881155  0.356536  1
  B  B7  1  0.168954  0.831046  0.500000  1
  B  B8  1  0.831046  0.500000  0.500000  1
  B  B9  1  0.500000  0.168954  0.500000  1
  B  B10  1  0.168954  0.500000  0.500000  1
  B  B11  1  0.500000  0.831046  0.500000  1
  B  B12  1  0.831046  0.168954  0.500000  1
