# generated using pymatgen
data_PrAl2CuPt
_symmetry_space_group_name_H-M   'P 1'
_cell_length_a   4.30172800
_cell_length_b   4.30172800
_cell_length_c   10.31207100
_cell_angle_alpha   90.00000000
_cell_angle_beta   90.00000000
_cell_angle_gamma   90.00000000
_symmetry_Int_Tables_number   1
_chemical_formula_structural   PrAl2CuPt
_chemical_formula_sum   'Pr2 Al4 Cu2 Pt2'
_cell_volume   190.82346921
_cell_formula_units_Z   2
loop_
 _symmetry_equiv_pos_site_id
 _symmetry_equiv_pos_as_xyz
  1  'x, y, z'
loop_
 _atom_site_type_symbol
 _atom_site_label
 _atom_site_symmetry_multiplicity
 _atom_site_fract_x
 _atom_site_fract_y
 _atom_site_fract_z
 _atom_site_occupancy
  Pr  Pr0  1  0.000000  0.500000  0.246184  1
  Pr  Pr1  1  0.500000  0.000000  0.753816  1
  Al  Al2  1  0.000000  0.000000  0.500000  1
  Al  Al3  1  0.500000  0.500000  0.500000  1
  Al  Al4  1  0.000000  0.500000  0.878641  1
  Al  Al5  1  0.500000  0.000000  0.121359  1
  Cu  Cu6  1  0.000000  0.000000  0.000000  1
  Cu  Cu7  1  0.500000  0.500000  0.000000  1
  Pt  Pt8  1  0.000000  0.500000  0.634284  1
  Pt  Pt9  1  0.500000  0.000000  0.365716  1
