# generated using pymatgen
data_NdCdSnBiO7
_symmetry_space_group_name_H-M   'P 1'
_cell_length_a   7.61944300
_cell_length_b   7.61944300
_cell_length_c   10.84073100
_cell_angle_alpha   90.00000000
_cell_angle_beta   90.00000000
_cell_angle_gamma   90.00000000
_symmetry_Int_Tables_number   1
_chemical_formula_structural   NdCdSnBiO7
_chemical_formula_sum   'Nd4 Cd4 Sn4 Bi4 O28'
_cell_volume   629.36852094
_cell_formula_units_Z   4
loop_
 _symmetry_equiv_pos_site_id
 _symmetry_equiv_pos_as_xyz
  1  'x, y, z'
loop_
 _atom_site_type_symbol
 _atom_site_label
 _atom_site_symmetry_multiplicity
 _atom_site_fract_x
 _atom_site_fract_y
 _atom_site_fract_z
 _atom_site_occupancy
  Nd  Nd0  1  0.000000  0.740981  0.000000  1
  Nd  Nd1  1  0.259019  0.000000  0.250000  1
  Nd  Nd2  1  0.000000  0.259019  0.500000  1
  Nd  Nd3  1  0.740981  0.000000  0.750000  1
  Cd  Cd4  1  0.500000  0.732933  0.000000  1
  Cd  Cd5  1  0.500000  0.267067  0.500000  1
  Cd  Cd6  1  0.732933  0.500000  0.750000  1
  Cd  Cd7  1  0.267067  0.500000  0.250000  1
  Sn  Sn8  1  0.760501  0.000000  0.250000  1
  Sn  Sn9  1  0.000000  0.760501  0.500000  1
  Sn  Sn10  1  0.239499  0.000000  0.750000  1
  Sn  Sn11  1  0.000000  0.239499  0.000000  1
  Bi  Bi12  1  0.243069  0.500000  0.750000  1
  Bi  Bi13  1  0.500000  0.756931  0.500000  1
  Bi  Bi14  1  0.500000  0.243069  0.000000  1
  Bi  Bi15  1  0.756931  0.500000  0.250000  1
  O  O16  1  0.259914  0.740086  0.125000  1
  O  O17  1  0.546729  0.954854  0.366616  1
  O  O18  1  0.740086  0.259914  0.625000  1
  O  O19  1  0.964108  0.964108  0.375000  1
  O  O20  1  0.045146  0.453271  0.883384  1
  O  O21  1  0.035892  0.035892  0.875000  1
  O  O22  1  0.035892  0.964108  0.625000  1
  O  O23  1  0.247716  0.232193  0.081352  1
  O  O24  1  0.232193  0.247716  0.668648  1
  O  O25  1  0.247716  0.767807  0.418648  1
  O  O26  1  0.457353  0.457353  0.875000  1
  O  O27  1  0.453271  0.045146  0.866616  1
  O  O28  1  0.453271  0.954854  0.633384  1
  O  O29  1  0.542647  0.542647  0.375000  1
  O  O30  1  0.546729  0.045146  0.133384  1
  O  O31  1  0.542647  0.457353  0.125000  1
  O  O32  1  0.752284  0.767807  0.581352  1
  O  O33  1  0.740086  0.740086  0.875000  1
  O  O34  1  0.767807  0.247716  0.331352  1
  O  O35  1  0.767807  0.752284  0.168648  1
  O  O36  1  0.752284  0.232193  0.918648  1
  O  O37  1  0.954854  0.546729  0.383384  1
  O  O38  1  0.954854  0.453271  0.116616  1
  O  O39  1  0.964108  0.035892  0.125000  1
  O  O40  1  0.045146  0.546729  0.616616  1
  O  O41  1  0.259914  0.259914  0.375000  1
  O  O42  1  0.232193  0.752284  0.831352  1
  O  O43  1  0.457353  0.542647  0.625000  1
