# generated using pymatgen
data_K4Mn2CrFeF14
_symmetry_space_group_name_H-M   'P 1'
_cell_length_a   7.84251815
_cell_length_b   7.85521672
_cell_length_c   7.85521623
_cell_angle_alpha   120.91874841
_cell_angle_beta   117.15942197
_cell_angle_gamma   91.74763807
_symmetry_Int_Tables_number   1
_chemical_formula_structural   K4Mn2CrFeF14
_chemical_formula_sum   'K4 Mn2 Cr1 Fe1 F14'
_cell_volume   346.39477945
_cell_formula_units_Z   1
loop_
 _symmetry_equiv_pos_site_id
 _symmetry_equiv_pos_as_xyz
  1  'x, y, z'
loop_
 _atom_site_type_symbol
 _atom_site_label
 _atom_site_symmetry_multiplicity
 _atom_site_fract_x
 _atom_site_fract_y
 _atom_site_fract_z
 _atom_site_occupancy
  K  K0  1  0.500000  0.500000  0.000000  1
  K  K1  1  0.000000  0.000000  0.000000  1
  K  K2  1  0.000000  0.500000  0.000000  1
  K  K3  1  0.000000  0.000000  0.500000  1
  Mn  Mn4  1  0.500000  0.500000  0.500000  1
  Mn  Mn5  1  0.500000  0.000000  0.000000  1
  Cr  Cr6  1  0.000000  0.500000  0.500000  1
  Fe  Fe7  1  0.500000  0.000000  0.500000  1
  F  F8  1  0.875551  0.584688  0.290863  1
  F  F9  1  0.205703  0.915239  0.290464  1
  F  F10  1  0.183621  0.796015  0.753528  1
  F  F11  1  0.457239  0.702882  0.386737  1
  F  F12  1  0.457239  0.070502  0.754357  1
  F  F13  1  0.183621  0.430094  0.387605  1
  F  F14  1  0.816379  0.569906  0.612395  1
  F  F15  1  0.542761  0.929498  0.245643  1
  F  F16  1  0.542761  0.297118  0.613263  1
  F  F17  1  0.816379  0.203985  0.246472  1
  F  F18  1  0.389909  0.249895  0.140014  1
  F  F19  1  0.124449  0.415312  0.709137  1
  F  F20  1  0.794297  0.084761  0.709536  1
  F  F21  1  0.610091  0.750105  0.859986  1
