# generated using pymatgen
data_Ho2Si2IrPd2
_symmetry_space_group_name_H-M   'P 1'
_cell_length_a   4.21999700
_cell_length_b   6.66744500
_cell_length_c   8.75635500
_cell_angle_alpha   90.00000000
_cell_angle_beta   90.00000000
_cell_angle_gamma   90.00000000
_symmetry_Int_Tables_number   1
_chemical_formula_structural   Ho2Si2IrPd2
_chemical_formula_sum   'Ho4 Si4 Ir2 Pd4'
_cell_volume   246.37403968
_cell_formula_units_Z   2
loop_
 _symmetry_equiv_pos_site_id
 _symmetry_equiv_pos_as_xyz
  1  'x, y, z'
loop_
 _atom_site_type_symbol
 _atom_site_label
 _atom_site_symmetry_multiplicity
 _atom_site_fract_x
 _atom_site_fract_y
 _atom_site_fract_z
 _atom_site_occupancy
  Ho  Ho0  1  0.000000  0.881922  0.328780  1
  Ho  Ho1  1  0.000000  0.118078  0.671220  1
  Ho  Ho2  1  0.000000  0.381922  0.171220  1
  Ho  Ho3  1  0.000000  0.618078  0.828780  1
  Si  Si4  1  0.500000  0.570084  0.359947  1
  Si  Si5  1  0.500000  0.429916  0.640053  1
  Si  Si6  1  0.500000  0.070084  0.140053  1
  Si  Si7  1  0.500000  0.929916  0.859947  1
  Ir  Ir8  1  0.000000  0.500000  0.500000  1
  Ir  Ir9  1  0.000000  0.000000  0.000000  1
  Pd  Pd10  1  0.500000  0.693247  0.088560  1
  Pd  Pd11  1  0.500000  0.306753  0.911440  1
  Pd  Pd12  1  0.500000  0.193247  0.411440  1
  Pd  Pd13  1  0.500000  0.806753  0.588560  1
