# generated using pymatgen
data_Tb4PrSmCoBr10
_symmetry_space_group_name_H-M   'P 1'
_cell_length_a   7.43181911
_cell_length_b   9.24880420
_cell_length_c   9.33130640
_cell_angle_alpha   108.18368347
_cell_angle_beta   96.78871404
_cell_angle_gamma   104.22953071
_symmetry_Int_Tables_number   1
_chemical_formula_structural   Tb4PrSmCoBr10
_chemical_formula_sum   'Tb4 Pr1 Sm1 Co1 Br10'
_cell_volume   577.28314508
_cell_formula_units_Z   1
loop_
 _symmetry_equiv_pos_site_id
 _symmetry_equiv_pos_as_xyz
  1  'x, y, z'
loop_
 _atom_site_type_symbol
 _atom_site_label
 _atom_site_symmetry_multiplicity
 _atom_site_fract_x
 _atom_site_fract_y
 _atom_site_fract_z
 _atom_site_occupancy
  Tb  Tb0  1  0.877956  0.951923  0.744014  1
  Tb  Tb1  1  0.125226  0.046307  0.256484  1
  Tb  Tb2  1  0.353548  0.130251  0.676920  1
  Tb  Tb3  1  0.647270  0.872514  0.323722  1
  Pr  Pr4  1  0.034876  0.710402  0.408838  1
  Sm  Sm5  1  0.962859  0.281427  0.588089  1
  Co  Co6  1  0.000946  0.998185  0.499690  1
  Br  Br7  1  0.461842  0.825980  0.586707  1
  Br  Br8  1  0.543940  0.179458  0.417163  1
  Br  Br9  1  0.909396  0.631744  0.678723  1
  Br  Br10  1  0.086769  0.362553  0.326005  1
  Br  Br11  1  0.246296  0.085100  0.954760  1
  Br  Br12  1  0.756795  0.920162  0.046881  1
  Br  Br13  1  0.343264  0.445708  0.770537  1
  Br  Br14  1  0.641710  0.554354  0.226070  1
  Br  Br15  1  0.776325  0.248203  0.845060  1
  Br  Br16  1  0.230984  0.755729  0.150336  1
