# generated using pymatgen
data_TbSm5U4O20
_symmetry_space_group_name_H-M   'P 1'
_cell_length_a   6.72334664
_cell_length_b   7.61528006
_cell_length_c   8.52977558
_cell_angle_alpha   101.21966326
_cell_angle_beta   97.69511536
_cell_angle_gamma   107.19368168
_symmetry_Int_Tables_number   1
_chemical_formula_structural   TbSm5U4O20
_chemical_formula_sum   'Tb1 Sm5 U4 O20'
_cell_volume   400.60615978
_cell_formula_units_Z   1
loop_
 _symmetry_equiv_pos_site_id
 _symmetry_equiv_pos_as_xyz
  1  'x, y, z'
loop_
 _atom_site_type_symbol
 _atom_site_label
 _atom_site_symmetry_multiplicity
 _atom_site_fract_x
 _atom_site_fract_y
 _atom_site_fract_z
 _atom_site_occupancy
  Tb  Tb0  1  0.000000  0.000000  0.500000  1
  Sm  Sm1  1  0.613438  0.703858  0.699507  1
  Sm  Sm2  1  0.386562  0.296142  0.300493  1
  Sm  Sm3  1  0.198334  0.897172  0.892257  1
  Sm  Sm4  1  0.000000  0.500000  0.500000  1
  Sm  Sm5  1  0.801666  0.102828  0.107743  1
  U  U6  1  0.401442  0.804382  0.302032  1
  U  U7  1  0.198690  0.400416  0.900121  1
  U  U8  1  0.801310  0.599584  0.099879  1
  U  U9  1  0.598558  0.195618  0.697968  1
  O  O10  1  0.438395  0.532995  0.134916  1
  O  O11  1  0.556299  0.990917  0.839274  1
  O  O12  1  0.271716  0.148563  0.743679  1
  O  O13  1  0.359995  0.597651  0.439886  1
  O  O14  1  0.054497  0.731108  0.329026  1
  O  O15  1  0.443701  0.009083  0.160726  1
  O  O16  1  0.150470  0.186825  0.030154  1
  O  O17  1  0.561605  0.467005  0.865084  1
  O  O18  1  0.855142  0.339128  0.950261  1
  O  O19  1  0.256155  0.603160  0.761442  1
  O  O20  1  0.954291  0.775472  0.649497  1
  O  O21  1  0.354297  0.059639  0.454136  1
  O  O22  1  0.645703  0.940361  0.545864  1
  O  O23  1  0.045709  0.224528  0.350503  1
  O  O24  1  0.743845  0.396840  0.238558  1
  O  O25  1  0.144858  0.660872  0.049739  1
  O  O26  1  0.849530  0.813175  0.969846  1
  O  O27  1  0.945503  0.268892  0.670974  1
  O  O28  1  0.640005  0.402349  0.560114  1
  O  O29  1  0.728284  0.851437  0.256321  1
