# generated using pymatgen
data_SrCaIn2Au3
_symmetry_space_group_name_H-M   'P 1'
_cell_length_a   4.57397200
_cell_length_b   8.21060500
_cell_length_c   9.48743500
_cell_angle_alpha   90.00000000
_cell_angle_beta   90.00000000
_cell_angle_gamma   90.00000000
_symmetry_Int_Tables_number   1
_chemical_formula_structural   SrCaIn2Au3
_chemical_formula_sum   'Sr2 Ca2 In4 Au6'
_cell_volume   356.30135550
_cell_formula_units_Z   2
loop_
 _symmetry_equiv_pos_site_id
 _symmetry_equiv_pos_as_xyz
  1  'x, y, z'
loop_
 _atom_site_type_symbol
 _atom_site_label
 _atom_site_symmetry_multiplicity
 _atom_site_fract_x
 _atom_site_fract_y
 _atom_site_fract_z
 _atom_site_occupancy
  Sr  Sr0  1  0.500000  0.000000  0.725796  1
  Sr  Sr1  1  0.000000  0.500000  0.274204  1
  Ca  Ca2  1  0.000000  0.000000  0.343813  1
  Ca  Ca3  1  0.500000  0.500000  0.656187  1
  In  In4  1  0.000000  0.307905  0.886331  1
  In  In5  1  0.500000  0.192095  0.113669  1
  In  In6  1  0.000000  0.692095  0.886331  1
  In  In7  1  0.500000  0.807905  0.113669  1
  Au  Au8  1  0.000000  0.743921  0.588987  1
  Au  Au9  1  0.500000  0.756079  0.411013  1
  Au  Au10  1  0.500000  0.500000  0.981179  1
  Au  Au11  1  0.000000  0.000000  0.018821  1
  Au  Au12  1  0.500000  0.243921  0.411013  1
  Au  Au13  1  0.000000  0.256079  0.588987  1
