# generated using pymatgen
data_Ac4LaNdOsI10
_symmetry_space_group_name_H-M   'P 1'
_cell_length_a   8.44548803
_cell_length_b   10.50126044
_cell_length_c   10.16547952
_cell_angle_alpha   108.15508925
_cell_angle_beta   98.04084418
_cell_angle_gamma   104.40710048
_symmetry_Int_Tables_number   1
_chemical_formula_structural   Ac4LaNdOsI10
_chemical_formula_sum   'Ac4 La1 Nd1 Os1 I10'
_cell_volume   806.25284636
_cell_formula_units_Z   1
loop_
 _symmetry_equiv_pos_site_id
 _symmetry_equiv_pos_as_xyz
  1  'x, y, z'
loop_
 _atom_site_type_symbol
 _atom_site_label
 _atom_site_symmetry_multiplicity
 _atom_site_fract_x
 _atom_site_fract_y
 _atom_site_fract_z
 _atom_site_occupancy
  Ac  Ac0  1  0.462324  0.298191  0.595295  1
  Ac  Ac1  1  0.538862  0.703374  0.406994  1
  Ac  Ac2  1  0.861178  0.135838  0.690518  1
  Ac  Ac3  1  0.139282  0.864101  0.309728  1
  La  La4  1  0.607640  0.040768  0.278602  1
  Nd  Nd5  1  0.391137  0.958707  0.721101  1
  Os  Os6  1  0.504172  0.002389  0.493704  1
  I  I7  1  0.410343  0.641804  0.682306  1
  I  I8  1  0.586591  0.364761  0.321254  1
  I  I9  1  0.294754  0.245885  0.858161  1
  I  I10  1  0.707121  0.745741  0.141860  1
  I  I11  1  0.855571  0.463093  0.777854  1
  I  I12  1  0.145593  0.536947  0.222828  1
  I  I13  1  0.034599  0.177706  0.412760  1
  I  I14  1  0.253291  0.916129  0.030915  1
  I  I15  1  0.734949  0.079990  0.964569  1
  I  I16  1  0.972592  0.824577  0.591553  1
