# generated using pymatgen
data_Lu4Al18PtRh5
_symmetry_space_group_name_H-M   'P 1'
_cell_length_a   7.53385312
_cell_length_b   7.53385258
_cell_length_c   9.40270205
_cell_angle_alpha   89.99407933
_cell_angle_beta   89.99407619
_cell_angle_gamma   119.54487119
_symmetry_Int_Tables_number   1
_chemical_formula_structural   Lu4Al18PtRh5
_chemical_formula_sum   'Lu4 Al18 Pt1 Rh5'
_cell_volume   464.29189588
_cell_formula_units_Z   1
loop_
 _symmetry_equiv_pos_site_id
 _symmetry_equiv_pos_as_xyz
  1  'x, y, z'
loop_
 _atom_site_type_symbol
 _atom_site_label
 _atom_site_symmetry_multiplicity
 _atom_site_fract_x
 _atom_site_fract_y
 _atom_site_fract_z
 _atom_site_occupancy
  Lu  Lu0  1  0.995347  0.670284  0.250323  1
  Lu  Lu1  1  0.004768  0.329469  0.749910  1
  Lu  Lu2  1  0.670531  0.995232  0.250090  1
  Lu  Lu3  1  0.329716  0.004653  0.749677  1
  Al  Al4  1  0.126038  0.125288  0.250308  1
  Al  Al5  1  0.874712  0.873962  0.749692  1
  Al  Al6  1  0.003254  0.335024  0.076811  1
  Al  Al7  1  0.003340  0.668387  0.923131  1
  Al  Al8  1  0.000792  0.665129  0.575274  1
  Al  Al9  1  0.334871  0.999208  0.424726  1
  Al  Al10  1  0.000188  0.334730  0.424404  1
  Al  Al11  1  0.665270  0.999812  0.575596  1
  Al  Al12  1  0.664976  0.996746  0.923189  1
  Al  Al13  1  0.331613  0.996660  0.076869  1
  Al  Al14  1  0.332165  0.332228  0.553759  1
  Al  Al15  1  0.667772  0.667835  0.446241  1
  Al  Al16  1  0.667059  0.670263  0.055634  1
  Al  Al17  1  0.329737  0.332941  0.944366  1
  Al  Al18  1  0.339380  0.550218  0.250377  1
  Al  Al19  1  0.661013  0.452873  0.746939  1
  Al  Al20  1  0.547127  0.338987  0.253061  1
  Al  Al21  1  0.449782  0.660620  0.749623  1
  Pt  Pt22  1  0.672319  0.327681  0.000000  1
  Rh  Rh23  1  0.327814  0.672186  0.000000  1
  Rh  Rh24  1  0.327783  0.672217  0.500000  1
  Rh  Rh25  1  0.672503  0.327497  0.500000  1
  Rh  Rh26  1  0.000041  0.999959  0.000000  1
  Rh  Rh27  1  0.000088  0.999912  0.500000  1
