# generated using pymatgen
data_LuCd(CuPt)2
_symmetry_space_group_name_H-M   'P 1'
_cell_length_a   5.18739847
_cell_length_b   5.18739952
_cell_length_c   5.50336600
_cell_angle_alpha   57.96379768
_cell_angle_beta   57.96379038
_cell_angle_gamma   57.86987365
_symmetry_Int_Tables_number   1
_chemical_formula_structural   LuCd(CuPt)2
_chemical_formula_sum   'Lu1 Cd1 Cu2 Pt2'
_cell_volume   99.74762910
_cell_formula_units_Z   1
loop_
 _symmetry_equiv_pos_site_id
 _symmetry_equiv_pos_as_xyz
  1  'x, y, z'
loop_
 _atom_site_type_symbol
 _atom_site_label
 _atom_site_symmetry_multiplicity
 _atom_site_fract_x
 _atom_site_fract_y
 _atom_site_fract_z
 _atom_site_occupancy
  Lu  Lu0  1  0.996037  0.996037  0.003963  1
  Cd  Cd1  1  0.245017  0.245017  0.254983  1
  Cu  Cu2  1  0.628256  0.127447  0.622149  1
  Cu  Cu3  1  0.127447  0.628256  0.622149  1
  Pt  Pt4  1  0.626622  0.626622  0.623262  1
  Pt  Pt5  1  0.626622  0.626622  0.123495  1
