# generated using pymatgen
data_Yb3TmPt2(RhO7)2
_symmetry_space_group_name_H-M   'P 1'
_cell_length_a   7.19915244
_cell_length_b   7.19915167
_cell_length_c   7.22159954
_cell_angle_alpha   60.12318561
_cell_angle_beta   60.12318654
_cell_angle_gamma   59.98081680
_symmetry_Int_Tables_number   1
_chemical_formula_structural   Yb3TmPt2(RhO7)2
_chemical_formula_sum   'Yb3 Tm1 Pt2 Rh2 O14'
_cell_volume   265.10870901
_cell_formula_units_Z   1
loop_
 _symmetry_equiv_pos_site_id
 _symmetry_equiv_pos_as_xyz
  1  'x, y, z'
loop_
 _atom_site_type_symbol
 _atom_site_label
 _atom_site_symmetry_multiplicity
 _atom_site_fract_x
 _atom_site_fract_y
 _atom_site_fract_z
 _atom_site_occupancy
  Yb  Yb0  1  0.625000  0.625000  0.125000  1
  Yb  Yb1  1  0.625000  0.125000  0.625000  1
  Yb  Yb2  1  0.125000  0.625000  0.625000  1
  Tm  Tm3  1  0.625000  0.625000  0.625000  1
  Pt  Pt4  1  0.625000  0.125000  0.125000  1
  Pt  Pt5  1  0.125000  0.625000  0.125000  1
  Rh  Rh6  1  0.125000  0.125000  0.125000  1
  Rh  Rh7  1  0.125000  0.125000  0.625000  1
  O  O8  1  0.034560  0.457336  0.458568  1
  O  O9  1  0.788650  0.788650  0.219462  1
  O  O10  1  0.793685  0.204336  0.208960  1
  O  O11  1  0.457336  0.034560  0.458568  1
  O  O12  1  0.048040  0.048040  0.452830  1
  O  O13  1  0.045664  0.456315  0.041040  1
  O  O14  1  0.746433  0.746433  0.746506  1
  O  O15  1  0.503567  0.503567  0.503494  1
  O  O16  1  0.792664  0.215440  0.791432  1
  O  O17  1  0.204336  0.793685  0.208960  1
  O  O18  1  0.201960  0.201960  0.797170  1
  O  O19  1  0.456315  0.045664  0.041040  1
  O  O20  1  0.461350  0.461350  0.030538  1
  O  O21  1  0.215440  0.792664  0.791432  1
