# generated using pymatgen
data_Sr8HfMo3O16
_symmetry_space_group_name_H-M   'P 1'
_cell_length_a   5.79773637
_cell_length_b   5.79773637
_cell_length_c   12.66395176
_cell_angle_alpha   90.02772377
_cell_angle_beta   89.97227623
_cell_angle_gamma   89.02421924
_symmetry_Int_Tables_number   1
_chemical_formula_structural   Sr8HfMo3O16
_chemical_formula_sum   'Sr8 Hf1 Mo3 O16'
_cell_volume   425.62103751
_cell_formula_units_Z   1
loop_
 _symmetry_equiv_pos_site_id
 _symmetry_equiv_pos_as_xyz
  1  'x, y, z'
loop_
 _atom_site_type_symbol
 _atom_site_label
 _atom_site_symmetry_multiplicity
 _atom_site_fract_x
 _atom_site_fract_y
 _atom_site_fract_z
 _atom_site_occupancy
  Sr  Sr0  1  0.263209  0.763189  0.102884  1
  Sr  Sr1  1  0.263878  0.236122  0.602035  1
  Sr  Sr2  1  0.737041  0.762959  0.602215  1
  Sr  Sr3  1  0.736811  0.236791  0.102884  1
  Sr  Sr4  1  0.763189  0.263209  0.397116  1
  Sr  Sr5  1  0.762959  0.737041  0.897785  1
  Sr  Sr6  1  0.236122  0.263878  0.897965  1
  Sr  Sr7  1  0.236791  0.736811  0.397116  1
  Hf  Hf8  1  0.750000  0.750000  0.250000  1
  Mo  Mo9  1  0.250000  0.750000  0.750000  1
  Mo  Mo10  1  0.250000  0.250000  0.250000  1
  Mo  Mo11  1  0.750000  0.250000  0.750000  1
  O  O12  1  0.286158  0.213842  0.088337  1
  O  O13  1  0.286125  0.785492  0.586496  1
  O  O14  1  0.499910  0.000090  0.777680  1
  O  O15  1  0.497299  0.002701  0.272898  1
  O  O16  1  0.499334  0.499334  0.750000  1
  O  O17  1  0.502719  0.502719  0.250000  1
  O  O18  1  0.714508  0.213875  0.586496  1
  O  O19  1  0.710243  0.789757  0.086084  1
  O  O20  1  0.785492  0.286125  0.913504  1
  O  O21  1  0.789757  0.710243  0.413916  1
  O  O22  1  0.997281  0.997281  0.250000  1
  O  O23  1  0.002701  0.497299  0.227102  1
  O  O24  1  0.000666  0.000666  0.750000  1
  O  O25  1  0.000090  0.499910  0.722320  1
  O  O26  1  0.213875  0.714508  0.913504  1
  O  O27  1  0.213842  0.286158  0.411663  1
