# generated using pymatgen
data_HfOsI18
_symmetry_space_group_name_H-M   'P 1'
_cell_length_a   10.16413853
_cell_length_b   10.16413930
_cell_length_c   10.16414098
_cell_angle_alpha   94.53921052
_cell_angle_beta   94.53921112
_cell_angle_gamma   94.53921956
_symmetry_Int_Tables_number   1
_chemical_formula_structural   HfOsI18
_chemical_formula_sum   'Hf1 Os1 I18'
_cell_volume   1039.61687913
_cell_formula_units_Z   1
loop_
 _symmetry_equiv_pos_site_id
 _symmetry_equiv_pos_as_xyz
  1  'x, y, z'
loop_
 _atom_site_type_symbol
 _atom_site_label
 _atom_site_symmetry_multiplicity
 _atom_site_fract_x
 _atom_site_fract_y
 _atom_site_fract_z
 _atom_site_occupancy
  Hf  Hf0  1  0.000000  0.000000  0.000000  1
  Os  Os1  1  0.500000  0.500000  0.500000  1
  I  I2  1  0.726899  0.138073  0.605102  1
  I  I3  1  0.973050  0.009734  0.719321  1
  I  I4  1  0.605102  0.726899  0.138073  1
  I  I5  1  0.990266  0.280679  0.026950  1
  I  I6  1  0.719321  0.973050  0.009734  1
  I  I7  1  0.009734  0.719321  0.973050  1
  I  I8  1  0.026950  0.990266  0.280679  1
  I  I9  1  0.861927  0.394898  0.273101  1
  I  I10  1  0.280679  0.026950  0.990266  1
  I  I11  1  0.273101  0.861927  0.394898  1
  I  I12  1  0.138073  0.605102  0.726899  1
  I  I13  1  0.394898  0.273101  0.861927  1
  I  I14  1  0.765432  0.527030  0.502636  1
  I  I15  1  0.527030  0.502636  0.765432  1
  I  I16  1  0.234568  0.472970  0.497364  1
  I  I17  1  0.472970  0.497364  0.234568  1
  I  I18  1  0.502636  0.765432  0.527030  1
  I  I19  1  0.497364  0.234568  0.472970  1
