# generated using pymatgen
data_Nd3Ho(SeO3)6
_symmetry_space_group_name_H-M   'P 1'
_cell_length_a   7.27698526
_cell_length_b   8.30859894
_cell_length_c   9.25128488
_cell_angle_alpha   71.04259244
_cell_angle_beta   70.18288885
_cell_angle_gamma   66.14605832
_symmetry_Int_Tables_number   1
_chemical_formula_structural   Nd3Ho(SeO3)6
_chemical_formula_sum   'Nd3 Ho1 Se6 O18'
_cell_volume   469.67273879
_cell_formula_units_Z   1
loop_
 _symmetry_equiv_pos_site_id
 _symmetry_equiv_pos_as_xyz
  1  'x, y, z'
loop_
 _atom_site_type_symbol
 _atom_site_label
 _atom_site_symmetry_multiplicity
 _atom_site_fract_x
 _atom_site_fract_y
 _atom_site_fract_z
 _atom_site_occupancy
  Nd  Nd0  1  0.258723  0.266896  0.198630  1
  Nd  Nd1  1  0.335218  0.728557  0.589538  1
  Nd  Nd2  1  0.668380  0.266148  0.411759  1
  Ho  Ho3  1  0.741274  0.736822  0.801155  1
  Se  Se4  1  0.111258  0.242840  0.586060  1
  Se  Se5  1  0.429438  0.772965  0.195265  1
  Se  Se6  1  0.148738  0.756940  0.961086  1
  Se  Se7  1  0.849300  0.256202  0.030508  1
  Se  Se8  1  0.574385  0.217770  0.803237  1
  Se  Se9  1  0.886568  0.754407  0.422259  1
  O  O10  1  0.153008  0.020114  0.656259  1
  O  O11  1  0.165311  0.577866  0.116596  1
  O  O12  1  0.026150  0.706862  0.560979  1
  O  O13  1  0.339127  0.250978  0.442399  1
  O  O14  1  0.060427  0.701129  0.836137  1
  O  O15  1  0.597698  0.287914  0.146014  1
  O  O16  1  0.354114  0.204371  0.942358  1
  O  O17  1  0.366800  0.937218  0.299260  1
  O  O18  1  0.519223  0.593683  0.345033  1
  O  O19  1  0.488960  0.397800  0.652494  1
  O  O20  1  0.642699  0.050102  0.701240  1
  O  O21  1  0.644148  0.790036  0.048669  1
  O  O22  1  0.404215  0.714508  0.848926  1
  O  O23  1  0.933305  0.304870  0.161344  1
  O  O24  1  0.659640  0.750411  0.568729  1
  O  O25  1  0.968321  0.294471  0.448307  1
  O  O26  1  0.825906  0.441835  0.881048  1
  O  O27  1  0.847667  0.976286  0.344711  1
