# generated using pymatgen
data_TbDy3OsBr4
_symmetry_space_group_name_H-M   'P 1'
_cell_length_a   9.02076480
_cell_length_b   9.00711336
_cell_length_c   6.55567332
_cell_angle_alpha   89.69709457
_cell_angle_beta   89.56245058
_cell_angle_gamma   89.43996158
_symmetry_Int_Tables_number   1
_chemical_formula_structural   TbDy3OsBr4
_chemical_formula_sum   'Tb2 Dy6 Os2 Br8'
_cell_volume   532.60713688
_cell_formula_units_Z   2
loop_
 _symmetry_equiv_pos_site_id
 _symmetry_equiv_pos_as_xyz
  1  'x, y, z'
loop_
 _atom_site_type_symbol
 _atom_site_label
 _atom_site_symmetry_multiplicity
 _atom_site_fract_x
 _atom_site_fract_y
 _atom_site_fract_z
 _atom_site_occupancy
  Tb  Tb0  1  0.249473  0.901541  0.009799  1
  Tb  Tb1  1  0.750527  0.098459  0.990201  1
  Dy  Dy2  1  0.097647  0.752192  0.489349  1
  Dy  Dy3  1  0.902353  0.247808  0.510651  1
  Dy  Dy4  1  0.753113  0.903309  0.506634  1
  Dy  Dy5  1  0.246887  0.096691  0.493366  1
  Dy  Dy6  1  0.096596  0.247243  0.993387  1
  Dy  Dy7  1  0.903404  0.752757  0.006613  1
  Os  Os8  1  0.995910  0.004237  0.250207  1
  Os  Os9  1  0.004090  0.995763  0.749793  1
  Br  Br10  1  0.416474  0.818049  0.412765  1
  Br  Br11  1  0.583526  0.181951  0.587235  1
  Br  Br12  1  0.181546  0.583023  0.088154  1
  Br  Br13  1  0.818454  0.416977  0.911846  1
  Br  Br14  1  0.411566  0.189070  0.090807  1
  Br  Br15  1  0.588434  0.810930  0.909193  1
  Br  Br16  1  0.811678  0.587902  0.409242  1
  Br  Br17  1  0.188322  0.412098  0.590758  1
