# generated using pymatgen
data_Ca2Ni11As7Pd
_symmetry_space_group_name_H-M   'P 1'
_cell_length_a   3.88775600
_cell_length_b   9.43821711
_cell_length_c   9.50841819
_cell_angle_alpha   120.31978306
_cell_angle_beta   90.00000000
_cell_angle_gamma   90.00000000
_symmetry_Int_Tables_number   1
_chemical_formula_structural   Ca2Ni11As7Pd
_chemical_formula_sum   'Ca2 Ni11 As7 Pd1'
_cell_volume   301.17532246
_cell_formula_units_Z   1
loop_
 _symmetry_equiv_pos_site_id
 _symmetry_equiv_pos_as_xyz
  1  'x, y, z'
loop_
 _atom_site_type_symbol
 _atom_site_label
 _atom_site_symmetry_multiplicity
 _atom_site_fract_x
 _atom_site_fract_y
 _atom_site_fract_z
 _atom_site_occupancy
  Ca  Ca0  1  0.500000  0.333857  0.663441  1
  Ca  Ca1  1  0.000000  0.670313  0.339311  1
  Ni  Ni2  1  0.000000  0.875709  0.724173  1
  Ni  Ni3  1  0.000000  0.280472  0.153760  1
  Ni  Ni4  1  0.000000  0.842145  0.127821  1
  Ni  Ni5  1  0.500000  0.948096  0.568575  1
  Ni  Ni6  1  0.500000  0.425074  0.378108  1
  Ni  Ni7  1  0.500000  0.623574  0.046892  1
  Ni  Ni8  1  0.000000  0.378526  0.944067  1
  Ni  Ni9  1  0.000000  0.055397  0.431032  1
  Ni  Ni10  1  0.000000  0.565400  0.619549  1
  Ni  Ni11  1  0.500000  0.091242  0.208291  1
  Ni  Ni12  1  0.500000  0.789371  0.888859  1
  As  As13  1  0.500000  0.704118  0.599579  1
  As  As14  1  0.500000  0.415936  0.116785  1
  As  As15  1  0.500000  0.891311  0.296005  1
  As  As16  1  0.000000  0.995787  0.005307  1
  As  As17  1  0.000000  0.114555  0.701152  1
  As  As18  1  0.000000  0.290368  0.403857  1
  As  As19  1  0.000000  0.592169  0.881736  1
  Pd  Pd20  1  0.500000  0.116582  0.901703  1
