# generated using pymatgen
data_Dy5Ta2P12Ir11Ru6
_symmetry_space_group_name_H-M   'P 1'
_cell_length_a   12.74750015
_cell_length_b   12.61754572
_cell_length_c   3.97221400
_cell_angle_alpha   90.00000000
_cell_angle_beta   90.00000000
_cell_angle_gamma   119.74863710
_symmetry_Int_Tables_number   1
_chemical_formula_structural   Dy5Ta2P12Ir11Ru6
_chemical_formula_sum   'Dy5 Ta2 P12 Ir11 Ru6'
_cell_volume   554.69933239
_cell_formula_units_Z   1
loop_
 _symmetry_equiv_pos_site_id
 _symmetry_equiv_pos_as_xyz
  1  'x, y, z'
loop_
 _atom_site_type_symbol
 _atom_site_label
 _atom_site_symmetry_multiplicity
 _atom_site_fract_x
 _atom_site_fract_y
 _atom_site_fract_z
 _atom_site_occupancy
  Dy  Dy0  1  0.664878  0.331612  0.000000  1
  Dy  Dy1  1  0.335608  0.669508  0.000000  1
  Dy  Dy2  1  0.813772  0.001596  0.500000  1
  Dy  Dy3  1  0.182930  0.184561  0.500000  1
  Dy  Dy4  1  0.999714  0.811574  0.500000  1
  Ta  Ta5  1  0.443200  0.998090  0.000000  1
  Ta  Ta6  1  0.552979  0.550531  0.000000  1
  P  P7  1  0.640499  0.002003  0.000000  1
  P  P8  1  0.357139  0.360786  0.000000  1
  P  P9  1  0.000105  0.635813  0.000000  1
  P  P10  1  0.687946  0.518030  0.500000  1
  P  P11  1  0.830409  0.307513  0.500000  1
  P  P12  1  0.318749  0.834094  0.500000  1
  P  P13  1  0.522986  0.688980  0.500000  1
  P  P14  1  0.176254  0.998567  0.000000  1
  P  P15  1  0.820943  0.819283  0.000000  1
  P  P16  1  0.996982  0.183396  0.000000  1
  P  P17  1  0.476940  0.163823  0.500000  1
  P  P18  1  0.169330  0.481683  0.500000  1
  Ir  Ir19  1  0.627767  0.805726  0.000000  1
  Ir  Ir20  1  0.179717  0.376917  0.000000  1
  Ir  Ir21  1  0.369293  0.179760  0.000000  1
  Ir  Ir22  1  0.191280  0.816712  0.000000  1
  Ir  Ir23  1  0.806632  0.621511  0.000000  1
  Ir  Ir24  1  0.868434  0.505120  0.500000  1
  Ir  Ir25  1  0.494762  0.358789  0.500000  1
  Ir  Ir26  1  0.638147  0.129361  0.500000  1
  Ir  Ir27  1  0.134427  0.641466  0.500000  1
  Ir  Ir28  1  0.360375  0.492678  0.500000  1
  Ir  Ir29  1  0.997690  0.001477  0.000000  1
  Ru  Ru30  1  0.514323  0.870871  0.500000  1
  Ru  Ru31  1  0.720483  0.716784  0.500000  1
  Ru  Ru32  1  0.001985  0.288824  0.500000  1
  Ru  Ru33  1  0.002417  0.455661  0.000000  1
  Ru  Ru34  1  0.821206  0.199114  0.000000  1
  Ru  Ru35  1  0.279698  0.997783  0.500000  1
