# generated using pymatgen
data_Ti24Si7Se
_symmetry_space_group_name_H-M   'P 1'
_cell_length_a   10.16241543
_cell_length_b   10.12890732
_cell_length_c   5.08242609
_cell_angle_alpha   89.95578124
_cell_angle_beta   89.87405114
_cell_angle_gamma   90.06665142
_symmetry_Int_Tables_number   1
_chemical_formula_structural   Ti24Si7Se
_chemical_formula_sum   'Ti24 Si7 Se1'
_cell_volume   523.15350651
_cell_formula_units_Z   1
loop_
 _symmetry_equiv_pos_site_id
 _symmetry_equiv_pos_as_xyz
  1  'x, y, z'
loop_
 _atom_site_type_symbol
 _atom_site_label
 _atom_site_symmetry_multiplicity
 _atom_site_fract_x
 _atom_site_fract_y
 _atom_site_fract_z
 _atom_site_occupancy
  Ti  Ti0  1  0.972127  0.857601  0.282724  1
  Ti  Ti1  1  0.357900  0.529526  0.781606  1
  Ti  Ti2  1  0.643182  0.473216  0.783461  1
  Ti  Ti3  1  0.028167  0.141713  0.283331  1
  Ti  Ti4  1  0.528118  0.641323  0.218050  1
  Ti  Ti5  1  0.141998  0.972459  0.715893  1
  Ti  Ti6  1  0.857944  0.028489  0.717436  1
  Ti  Ti7  1  0.472735  0.361189  0.218335  1
  Ti  Ti8  1  0.819566  0.283624  0.006718  1
  Ti  Ti9  1  0.782770  0.682284  0.503963  1
  Ti  Ti10  1  0.214624  0.317940  0.501028  1
  Ti  Ti11  1  0.181697  0.716720  0.002833  1
  Ti  Ti12  1  0.681871  0.215693  0.490596  1
  Ti  Ti13  1  0.717329  0.817458  0.996826  1
  Ti  Ti14  1  0.280954  0.183094  0.000357  1
  Ti  Ti15  1  0.318397  0.783662  0.496001  1
  Ti  Ti16  1  0.917838  0.392156  0.531821  1
  Ti  Ti17  1  0.893232  0.581246  0.032444  1
  Ti  Ti18  1  0.106083  0.418872  0.034709  1
  Ti  Ti19  1  0.081684  0.606344  0.533854  1
  Ti  Ti20  1  0.583030  0.105701  0.977323  1
  Ti  Ti21  1  0.606688  0.918761  0.465709  1
  Ti  Ti22  1  0.392948  0.079347  0.457669  1
  Ti  Ti23  1  0.418424  0.893839  0.967480  1
  Si  Si24  1  0.795972  0.041033  0.212177  1
  Si  Si25  1  0.204688  0.957703  0.209684  1
  Si  Si26  1  0.541895  0.705583  0.711967  1
  Si  Si27  1  0.041873  0.205490  0.788935  1
  Si  Si28  1  0.705868  0.458642  0.288183  1
  Si  Si29  1  0.294220  0.542250  0.287405  1
  Si  Si30  1  0.958024  0.794801  0.788079  1
  Se  Se31  1  0.458156  0.292241  0.713403  1
