# generated using pymatgen
data_CsRu2S3
_symmetry_space_group_name_H-M   'P 1'
_cell_length_a   7.71970094
_cell_length_b   7.71969983
_cell_length_c   5.54728300
_cell_angle_alpha   90.00000000
_cell_angle_beta   90.00000000
_cell_angle_gamma   102.39461233
_symmetry_Int_Tables_number   1
_chemical_formula_structural   CsRu2S3
_chemical_formula_sum   'Cs2 Ru4 S6'
_cell_volume   322.87844284
_cell_formula_units_Z   2
loop_
 _symmetry_equiv_pos_site_id
 _symmetry_equiv_pos_as_xyz
  1  'x, y, z'
loop_
 _atom_site_type_symbol
 _atom_site_label
 _atom_site_symmetry_multiplicity
 _atom_site_fract_x
 _atom_site_fract_y
 _atom_site_fract_z
 _atom_site_occupancy
  Cs  Cs0  1  0.323685  0.676315  0.750000  1
  Cs  Cs1  1  0.676315  0.323685  0.250000  1
  Ru  Ru2  1  0.140162  0.140162  0.000000  1
  Ru  Ru3  1  0.859839  0.859839  0.500000  1
  Ru  Ru4  1  0.859839  0.859839  0.000000  1
  Ru  Ru5  1  0.140162  0.140162  0.500000  1
  S  S6  1  0.893842  0.106158  0.750000  1
  S  S7  1  0.106158  0.893842  0.250000  1
  S  S8  1  0.374796  0.166086  0.750000  1
  S  S9  1  0.625204  0.833914  0.250000  1
  S  S10  1  0.166086  0.374796  0.250000  1
  S  S11  1  0.833914  0.625204  0.750000  1
