# generated using pymatgen
data_Tb3Dy(Er3Ru2)2
_symmetry_space_group_name_H-M   'P 1'
_cell_length_a   6.31851931
_cell_length_b   7.25471038
_cell_length_c   8.43545386
_cell_angle_alpha   96.75090220
_cell_angle_beta   112.06357418
_cell_angle_gamma   89.94010162
_symmetry_Int_Tables_number   1
_chemical_formula_structural   Tb3Dy(Er3Ru2)2
_chemical_formula_sum   'Tb3 Dy1 Er6 Ru4'
_cell_volume   355.48074448
_cell_formula_units_Z   1
loop_
 _symmetry_equiv_pos_site_id
 _symmetry_equiv_pos_as_xyz
  1  'x, y, z'
loop_
 _atom_site_type_symbol
 _atom_site_label
 _atom_site_symmetry_multiplicity
 _atom_site_fract_x
 _atom_site_fract_y
 _atom_site_fract_z
 _atom_site_occupancy
  Tb  Tb0  1  0.790276  0.583864  0.812414  1
  Tb  Tb1  1  0.977308  0.916093  0.187350  1
  Tb  Tb2  1  0.209842  0.416067  0.187419  1
  Dy  Dy3  1  0.022499  0.084013  0.812599  1
  Er  Er4  1  0.205483  0.684915  0.565784  1
  Er  Er5  1  0.640198  0.815313  0.434654  1
  Er  Er6  1  0.794594  0.315046  0.434405  1
  Er  Er7  1  0.359796  0.184830  0.565638  1
  Er  Er8  1  0.419596  0.749887  0.999834  1
  Er  Er9  1  0.580246  0.250094  0.000010  1
  Ru  Ru10  1  0.601323  0.924581  0.778852  1
  Ru  Ru11  1  0.822084  0.576204  0.220990  1
  Ru  Ru12  1  0.398929  0.075493  0.221010  1
  Ru  Ru13  1  0.177825  0.423600  0.779041  1
