# generated using pymatgen
data_LiIn2(Ni10P3)2
_symmetry_space_group_name_H-M   'P 1'
_cell_length_a   7.84653916
_cell_length_b   7.84653883
_cell_length_c   7.84653900
_cell_angle_alpha   59.99999507
_cell_angle_beta   59.99999645
_cell_angle_gamma   60.00000112
_symmetry_Int_Tables_number   1
_chemical_formula_structural   LiIn2(Ni10P3)2
_chemical_formula_sum   'Li1 In2 Ni20 P6'
_cell_volume   341.60120221
_cell_formula_units_Z   1
loop_
 _symmetry_equiv_pos_site_id
 _symmetry_equiv_pos_as_xyz
  1  'x, y, z'
loop_
 _atom_site_type_symbol
 _atom_site_label
 _atom_site_symmetry_multiplicity
 _atom_site_fract_x
 _atom_site_fract_y
 _atom_site_fract_z
 _atom_site_occupancy
  Li  Li0  1  0.000000  0.000000  0.000000  1
  In  In1  1  0.750000  0.750000  0.750000  1
  In  In2  1  0.250000  0.250000  0.250000  1
  Ni  Ni3  1  0.384592  0.846222  0.384592  1
  Ni  Ni4  1  0.384592  0.384592  0.846222  1
  Ni  Ni5  1  0.348590  0.000000  0.651410  1
  Ni  Ni6  1  0.000000  0.348590  0.651410  1
  Ni  Ni7  1  0.153778  0.615408  0.615408  1
  Ni  Ni8  1  0.651410  0.000000  0.000000  1
  Ni  Ni9  1  0.846222  0.384592  0.384592  1
  Ni  Ni10  1  0.651410  0.348590  0.000000  1
  Ni  Ni11  1  0.000000  0.348590  0.000000  1
  Ni  Ni12  1  0.348590  0.651410  0.000000  1
  Ni  Ni13  1  0.000000  0.000000  0.348590  1
  Ni  Ni14  1  0.615408  0.153778  0.615408  1
  Ni  Ni15  1  0.651410  0.000000  0.348590  1
  Ni  Ni16  1  0.000000  0.651410  0.000000  1
  Ni  Ni17  1  0.615408  0.615408  0.153778  1
  Ni  Ni18  1  0.000000  0.651410  0.348590  1
  Ni  Ni19  1  0.348590  0.000000  0.000000  1
  Ni  Ni20  1  0.000000  0.000000  0.651410  1
  Ni  Ni21  1  0.384592  0.384592  0.384592  1
  Ni  Ni22  1  0.615408  0.615408  0.615408  1
  P  P23  1  0.262766  0.262766  0.737234  1
  P  P24  1  0.262766  0.737234  0.262766  1
  P  P25  1  0.737234  0.262766  0.262766  1
  P  P26  1  0.262766  0.737234  0.737234  1
  P  P27  1  0.737234  0.262766  0.737234  1
  P  P28  1  0.737234  0.737234  0.262766  1
