# generated using pymatgen
data_K2Ba(SiS3)2
_symmetry_space_group_name_H-M   'P 1'
_cell_length_a   8.45061324
_cell_length_b   8.45061339
_cell_length_c   9.75158250
_cell_angle_alpha   88.75452308
_cell_angle_beta   88.75452748
_cell_angle_gamma   113.34721450
_symmetry_Int_Tables_number   1
_chemical_formula_structural   K2Ba(SiS3)2
_chemical_formula_sum   'K4 Ba2 Si4 S12'
_cell_volume   638.86768470
_cell_formula_units_Z   2
loop_
 _symmetry_equiv_pos_site_id
 _symmetry_equiv_pos_as_xyz
  1  'x, y, z'
loop_
 _atom_site_type_symbol
 _atom_site_label
 _atom_site_symmetry_multiplicity
 _atom_site_fract_x
 _atom_site_fract_y
 _atom_site_fract_z
 _atom_site_occupancy
  K  K0  1  0.265021  0.528589  0.531101  1
  K  K1  1  0.734979  0.471411  0.468899  1
  K  K2  1  0.471411  0.734979  0.968899  1
  K  K3  1  0.528589  0.265021  0.031101  1
  Ba  Ba4  1  0.968480  0.031520  0.250000  1
  Ba  Ba5  1  0.031520  0.968480  0.750000  1
  Si  Si6  1  0.980810  0.651011  0.058367  1
  Si  Si7  1  0.019190  0.348989  0.941633  1
  Si  Si8  1  0.348989  0.019190  0.441633  1
  Si  Si9  1  0.651011  0.980810  0.558367  1
  S  S10  1  0.642794  0.757411  0.659860  1
  S  S11  1  0.914326  0.529973  0.857494  1
  S  S12  1  0.242589  0.357206  0.840140  1
  S  S13  1  0.529973  0.914326  0.357494  1
  S  S14  1  0.357206  0.242589  0.340140  1
  S  S15  1  0.896347  0.181256  0.534056  1
  S  S16  1  0.818744  0.103653  0.965944  1
  S  S17  1  0.181256  0.896347  0.034056  1
  S  S18  1  0.085674  0.470027  0.142506  1
  S  S19  1  0.470027  0.085674  0.642506  1
  S  S20  1  0.103653  0.818744  0.465944  1
  S  S21  1  0.757411  0.642794  0.159860  1
