# generated using pymatgen
data_La6Nd4Tc2I15
_symmetry_space_group_name_H-M   'P 1'
_cell_length_a   10.08564070
_cell_length_b   11.20555262
_cell_length_c   11.90000997
_cell_angle_alpha   91.07221338
_cell_angle_beta   114.07423753
_cell_angle_gamma   109.88087231
_symmetry_Int_Tables_number   1
_chemical_formula_structural   La6Nd4Tc2I15
_chemical_formula_sum   'La6 Nd4 Tc2 I15'
_cell_volume   1135.14305820
_cell_formula_units_Z   1
loop_
 _symmetry_equiv_pos_site_id
 _symmetry_equiv_pos_as_xyz
  1  'x, y, z'
loop_
 _atom_site_type_symbol
 _atom_site_label
 _atom_site_symmetry_multiplicity
 _atom_site_fract_x
 _atom_site_fract_y
 _atom_site_fract_z
 _atom_site_occupancy
  La  La0  1  0.087239  0.552113  0.321863  1
  La  La1  1  0.912761  0.447887  0.678137  1
  La  La2  1  0.838243  0.750267  0.176593  1
  La  La3  1  0.161757  0.249733  0.823407  1
  La  La4  1  0.977120  0.789190  0.912965  1
  La  La5  1  0.022880  0.210810  0.087035  1
  Nd  Nd6  1  0.233313  0.587576  0.057505  1
  Nd  Nd7  1  0.766687  0.412424  0.942495  1
  Nd  Nd8  1  0.301299  0.909176  0.279086  1
  Nd  Nd9  1  0.698701  0.090824  0.720914  1
  Tc  Tc10  1  0.021744  0.678777  0.121431  1
  Tc  Tc11  1  0.978256  0.321223  0.878569  1
  I  I12  1  0.339330  0.445547  0.296270  1
  I  I13  1  0.660670  0.554453  0.703730  1
  I  I14  1  0.212423  0.732717  0.820228  1
  I  I15  1  0.787577  0.267283  0.179772  1
  I  I16  1  0.142707  0.386163  0.581805  1
  I  I17  1  0.857293  0.613837  0.418195  1
  I  I18  1  0.388692  0.802423  0.530658  1
  I  I19  1  0.611308  0.197577  0.469342  1
  I  I20  1  0.265605  0.084706  0.055934  1
  I  I21  1  0.734395  0.915294  0.944066  1
  I  I22  1  0.560574  0.844512  0.225701  1
  I  I23  1  0.439426  0.155488  0.774299  1
  I  I24  1  0.094409  0.039630  0.336062  1
  I  I25  1  0.905591  0.960370  0.663938  1
  I  I26  1  0.500000  0.500000  0.000000  1
