# generated using pymatgen
data_LaPrY18Si15Pd
_symmetry_space_group_name_H-M   'P 1'
_cell_length_a   7.45176278
_cell_length_b   7.78514207
_cell_length_c   14.73697115
_cell_angle_alpha   89.65369489
_cell_angle_beta   89.96425282
_cell_angle_gamma   89.86940185
_symmetry_Int_Tables_number   1
_chemical_formula_structural   LaPrY18Si15Pd
_chemical_formula_sum   'La1 Pr1 Y18 Si15 Pd1'
_cell_volume   854.91838039
_cell_formula_units_Z   1
loop_
 _symmetry_equiv_pos_site_id
 _symmetry_equiv_pos_as_xyz
  1  'x, y, z'
loop_
 _atom_site_type_symbol
 _atom_site_label
 _atom_site_symmetry_multiplicity
 _atom_site_fract_x
 _atom_site_fract_y
 _atom_site_fract_z
 _atom_site_occupancy
  La  La0  1  0.023094  0.429136  0.656876  1
  Pr  Pr1  1  0.523183  0.570573  0.342275  1
  Y  Y2  1  0.811637  0.575976  0.874576  1
  Y  Y3  1  0.315559  0.423418  0.126160  1
  Y  Y4  1  0.182316  0.928040  0.373056  1
  Y  Y5  1  0.682236  0.069856  0.626915  1
  Y  Y6  1  0.182730  0.927898  0.628366  1
  Y  Y7  1  0.682649  0.070725  0.371295  1
  Y  Y8  1  0.816046  0.571774  0.126760  1
  Y  Y9  1  0.318737  0.427527  0.872805  1
  Y  Y10  1  0.644496  0.232118  0.999461  1
  Y  Y11  1  0.155218  0.759229  0.000709  1
  Y  Y12  1  0.351239  0.263563  0.499889  1
  Y  Y13  1  0.850124  0.735644  0.499807  1
  Y  Y14  1  0.474496  0.934214  0.845585  1
  Y  Y15  1  0.973175  0.066300  0.152496  1
  Y  Y16  1  0.472662  0.934813  0.153600  1
  Y  Y17  1  0.971656  0.066651  0.848812  1
  Y  Y18  1  0.527357  0.566255  0.652287  1
  Y  Y19  1  0.028034  0.434487  0.347900  1
  Si  Si20  1  0.019093  0.351573  0.999908  1
  Si  Si21  1  0.476590  0.858319  0.500936  1
  Si  Si22  1  0.977191  0.141039  0.498949  1
  Si  Si23  1  0.649859  0.277153  0.790618  1
  Si  Si24  1  0.151889  0.721738  0.209218  1
  Si  Si25  1  0.351946  0.216908  0.288324  1
  Si  Si26  1  0.851645  0.783383  0.712647  1
  Si  Si27  1  0.361458  0.220272  0.710306  1
  Si  Si28  1  0.860225  0.779863  0.289085  1
  Si  Si29  1  0.645242  0.270662  0.206359  1
  Si  Si30  1  0.147185  0.727934  0.793467  1
  Si  Si31  1  0.772776  0.880466  0.000843  1
  Si  Si32  1  0.259617  0.124724  0.999510  1
  Si  Si33  1  0.235104  0.627395  0.501533  1
  Si  Si34  1  0.733333  0.373404  0.498233  1
  Pd  Pd35  1  0.520202  0.656970  0.000436  1
