# generated using pymatgen
data_NpGaAu5
_symmetry_space_group_name_H-M   'P 1'
_cell_length_a   5.74298823
_cell_length_b   5.74298762
_cell_length_c   5.74298895
_cell_angle_alpha   102.42804496
_cell_angle_beta   102.42803226
_cell_angle_gamma   124.72050581
_symmetry_Int_Tables_number   1
_chemical_formula_structural   NpGaAu5
_chemical_formula_sum   'Np1 Ga1 Au5'
_cell_volume   137.92082065
_cell_formula_units_Z   1
loop_
 _symmetry_equiv_pos_site_id
 _symmetry_equiv_pos_as_xyz
  1  'x, y, z'
loop_
 _atom_site_type_symbol
 _atom_site_label
 _atom_site_symmetry_multiplicity
 _atom_site_fract_x
 _atom_site_fract_y
 _atom_site_fract_z
 _atom_site_occupancy
  Np  Np0  1  0.000000  0.000000  0.000000  1
  Ga  Ga1  1  0.750000  0.250000  0.500000  1
  Au  Au2  1  0.303243  0.696757  0.000000  1
  Au  Au3  1  0.696757  0.303243  0.000000  1
  Au  Au4  1  0.696757  0.696757  0.393511  1
  Au  Au5  1  0.303243  0.303243  0.606489  1
  Au  Au6  1  0.250000  0.750000  0.500000  1
