# generated using pymatgen
data_La9Y(Ga2Pb)2
_symmetry_space_group_name_H-M   'P 1'
_cell_length_a   8.56220100
_cell_length_b   8.56220100
_cell_length_c   13.15009700
_cell_angle_alpha   90.00000000
_cell_angle_beta   90.00000000
_cell_angle_gamma   90.00000000
_symmetry_Int_Tables_number   1
_chemical_formula_structural   La9Y(Ga2Pb)2
_chemical_formula_sum   'La18 Y2 Ga8 Pb4'
_cell_volume   964.05052163
_cell_formula_units_Z   2
loop_
 _symmetry_equiv_pos_site_id
 _symmetry_equiv_pos_as_xyz
  1  'x, y, z'
loop_
 _atom_site_type_symbol
 _atom_site_label
 _atom_site_symmetry_multiplicity
 _atom_site_fract_x
 _atom_site_fract_y
 _atom_site_fract_z
 _atom_site_occupancy
  La  La0  1  0.838059  0.831809  0.897767  1
  La  La1  1  0.167643  0.163607  0.598791  1
  La  La2  1  0.836393  0.167643  0.401209  1
  La  La3  1  0.163607  0.832357  0.401209  1
  La  La4  1  0.332357  0.336393  0.401209  1
  La  La5  1  0.831809  0.161941  0.102233  1
  La  La6  1  0.331809  0.661941  0.897767  1
  La  La7  1  0.168191  0.838059  0.102233  1
  La  La8  1  0.500000  0.000000  0.763625  1
  La  La9  1  0.000000  0.500000  0.236375  1
  La  La10  1  0.336393  0.667643  0.598791  1
  La  La11  1  0.661941  0.668191  0.102233  1
  La  La12  1  0.663607  0.332357  0.598791  1
  La  La13  1  0.832357  0.836393  0.598791  1
  La  La14  1  0.668191  0.338059  0.897767  1
  La  La15  1  0.161941  0.168191  0.897767  1
  La  La16  1  0.667643  0.663607  0.401209  1
  La  La17  1  0.338059  0.331809  0.102233  1
  Y  Y18  1  0.000000  0.500000  0.741478  1
  Y  Y19  1  0.500000  0.000000  0.258522  1
  Ga  Ga20  1  0.630015  0.363079  0.252840  1
  Ga  Ga21  1  0.369985  0.636921  0.252840  1
  Ga  Ga22  1  0.136921  0.130015  0.252840  1
  Ga  Ga23  1  0.363079  0.369985  0.747160  1
  Ga  Ga24  1  0.130015  0.863079  0.747160  1
  Ga  Ga25  1  0.863079  0.869985  0.252840  1
  Ga  Ga26  1  0.636921  0.630015  0.747160  1
  Ga  Ga27  1  0.869985  0.136921  0.747160  1
  Pb  Pb28  1  0.000000  0.500000  0.985891  1
  Pb  Pb29  1  0.500000  0.000000  0.014109  1
  Pb  Pb30  1  0.500000  0.000000  0.502844  1
  Pb  Pb31  1  0.000000  0.500000  0.497156  1
