# generated using pymatgen
data_TaNi2P
_symmetry_space_group_name_H-M   'P 1'
_cell_length_a   3.52359200
_cell_length_b   5.05449700
_cell_length_c   11.22431900
_cell_angle_alpha   90.00000000
_cell_angle_beta   90.00000000
_cell_angle_gamma   90.00000000
_symmetry_Int_Tables_number   1
_chemical_formula_structural   TaNi2P
_chemical_formula_sum   'Ta4 Ni8 P4'
_cell_volume   199.90495519
_cell_formula_units_Z   4
loop_
 _symmetry_equiv_pos_site_id
 _symmetry_equiv_pos_as_xyz
  1  'x, y, z'
loop_
 _atom_site_type_symbol
 _atom_site_label
 _atom_site_symmetry_multiplicity
 _atom_site_fract_x
 _atom_site_fract_y
 _atom_site_fract_z
 _atom_site_occupancy
  Ta  Ta0  1  0.750001  0.625641  0.205806  1
  Ta  Ta1  1  0.249999  0.125642  0.294194  1
  Ta  Ta2  1  0.750001  0.874359  0.705807  1
  Ta  Ta3  1  0.249999  0.374358  0.794193  1
  Ni  Ni4  1  0.249999  0.378803  0.059912  1
  Ni  Ni5  1  0.249999  0.873884  0.068257  1
  Ni  Ni6  1  0.750001  0.373883  0.431743  1
  Ni  Ni7  1  0.750001  0.878804  0.440087  1
  Ni  Ni8  1  0.249999  0.121197  0.559912  1
  Ni  Ni9  1  0.249999  0.626116  0.568256  1
  Ni  Ni10  1  0.750001  0.126116  0.931743  1
  Ni  Ni11  1  0.750001  0.621196  0.940087  1
  P  P12  1  0.750001  0.132202  0.131135  1
  P  P13  1  0.249999  0.632202  0.368865  1
  P  P14  1  0.750001  0.367797  0.631135  1
  P  P15  1  0.249999  0.867799  0.868865  1
