# generated using pymatgen
data_Rb5HfSb3
_symmetry_space_group_name_H-M   'P 1'
_cell_length_a   9.25670000
_cell_length_b   10.03840162
_cell_length_c   19.52365081
_cell_angle_alpha   59.92357136
_cell_angle_beta   90.00000000
_cell_angle_gamma   90.00000000
_symmetry_Int_Tables_number   1
_chemical_formula_structural   Rb5HfSb3
_chemical_formula_sum   'Rb20 Hf4 Sb12'
_cell_volume   1569.91967967
_cell_formula_units_Z   4
loop_
 _symmetry_equiv_pos_site_id
 _symmetry_equiv_pos_as_xyz
  1  'x, y, z'
loop_
 _atom_site_type_symbol
 _atom_site_label
 _atom_site_symmetry_multiplicity
 _atom_site_fract_x
 _atom_site_fract_y
 _atom_site_fract_z
 _atom_site_occupancy
  Rb  Rb0  1  0.172477  0.156290  0.260369  1
  Rb  Rb1  1  0.672477  0.843710  0.239631  1
  Rb  Rb2  1  0.827523  0.843710  0.739631  1
  Rb  Rb3  1  0.327523  0.156290  0.760369  1
  Rb  Rb4  1  0.167457  0.839885  0.579582  1
  Rb  Rb5  1  0.667457  0.160115  0.920418  1
  Rb  Rb6  1  0.832543  0.160115  0.420418  1
  Rb  Rb7  1  0.332543  0.839885  0.079582  1
  Rb  Rb8  1  0.003571  0.908963  0.908304  1
  Rb  Rb9  1  0.503571  0.091037  0.591696  1
  Rb  Rb10  1  0.996429  0.091037  0.091696  1
  Rb  Rb11  1  0.496429  0.908963  0.408304  1
  Rb  Rb12  1  0.513367  0.733283  0.922766  1
  Rb  Rb13  1  0.013367  0.266717  0.577234  1
  Rb  Rb14  1  0.486633  0.266717  0.077234  1
  Rb  Rb15  1  0.986633  0.733283  0.422766  1
  Rb  Rb16  1  0.987098  0.457813  0.744740  1
  Rb  Rb17  1  0.487098  0.542187  0.755260  1
  Rb  Rb18  1  0.012902  0.542187  0.255260  1
  Rb  Rb19  1  0.512902  0.457813  0.244740  1
  Hf  Hf20  1  0.368887  0.506236  0.420058  1
  Hf  Hf21  1  0.868887  0.493764  0.079942  1
  Hf  Hf22  1  0.631113  0.493764  0.579942  1
  Hf  Hf23  1  0.131113  0.506236  0.920058  1
  Sb  Sb24  1  0.251560  0.245355  0.922318  1
  Sb  Sb25  1  0.751560  0.754645  0.577682  1
  Sb  Sb26  1  0.748440  0.754645  0.077682  1
  Sb  Sb27  1  0.248440  0.245355  0.422318  1
  Sb  Sb28  1  0.178233  0.513550  0.063814  1
  Sb  Sb29  1  0.678233  0.486450  0.436186  1
  Sb  Sb30  1  0.821767  0.486450  0.936186  1
  Sb  Sb31  1  0.321767  0.513550  0.563814  1
  Sb  Sb32  1  0.285835  0.780211  0.282283  1
  Sb  Sb33  1  0.785835  0.219789  0.217717  1
  Sb  Sb34  1  0.714165  0.219789  0.717717  1
  Sb  Sb35  1  0.214165  0.780211  0.782283  1
