# generated using pymatgen
data_TmLu4(RuO6)2
_symmetry_space_group_name_H-M   'P 1'
_cell_length_a   6.71747697
_cell_length_b   6.71747637
_cell_length_c   7.31198304
_cell_angle_alpha   74.01965997
_cell_angle_beta   74.01966330
_cell_angle_gamma   49.42789466
_symmetry_Int_Tables_number   1
_chemical_formula_structural   TmLu4(RuO6)2
_chemical_formula_sum   'Tm1 Lu4 Ru2 O12'
_cell_volume   238.83864888
_cell_formula_units_Z   1
loop_
 _symmetry_equiv_pos_site_id
 _symmetry_equiv_pos_as_xyz
  1  'x, y, z'
loop_
 _atom_site_type_symbol
 _atom_site_label
 _atom_site_symmetry_multiplicity
 _atom_site_fract_x
 _atom_site_fract_y
 _atom_site_fract_z
 _atom_site_occupancy
  Tm  Tm0  1  0.698786  0.698786  0.640372  1
  Lu  Lu1  1  0.301052  0.301052  0.359597  1
  Lu  Lu2  1  0.687452  0.687452  0.173947  1
  Lu  Lu3  1  0.312562  0.312562  0.826062  1
  Lu  Lu4  1  0.000085  0.000085  0.499801  1
  Ru  Ru5  1  0.777700  0.222024  0.000229  1
  Ru  Ru6  1  0.222024  0.777700  0.000229  1
  O  O7  1  0.001357  0.001357  0.205243  1
  O  O8  1  0.998594  0.998594  0.794698  1
  O  O9  1  0.576775  0.085620  0.088415  1
  O  O10  1  0.422540  0.915005  0.912494  1
  O  O11  1  0.915005  0.422540  0.912494  1
  O  O12  1  0.085620  0.576775  0.088415  1
  O  O13  1  0.498950  0.498950  0.181855  1
  O  O14  1  0.500473  0.500473  0.818759  1
  O  O15  1  0.403116  0.901559  0.427268  1
  O  O16  1  0.595513  0.100834  0.571426  1
  O  O17  1  0.100834  0.595513  0.571426  1
  O  O18  1  0.901559  0.403116  0.427268  1
