# generated using pymatgen
data_Tb3Ho5InAgIr2
_symmetry_space_group_name_H-M   'P 1'
_cell_length_a   9.58185215
_cell_length_b   9.60058988
_cell_length_c   9.61082623
_cell_angle_alpha   59.87172364
_cell_angle_beta   59.79809845
_cell_angle_gamma   59.88847634
_symmetry_Int_Tables_number   1
_chemical_formula_structural   Tb3Ho5InAgIr2
_chemical_formula_sum   'Tb6 Ho10 In2 Ag2 Ir4'
_cell_volume   623.07307618
_cell_formula_units_Z   2
loop_
 _symmetry_equiv_pos_site_id
 _symmetry_equiv_pos_as_xyz
  1  'x, y, z'
loop_
 _atom_site_type_symbol
 _atom_site_label
 _atom_site_symmetry_multiplicity
 _atom_site_fract_x
 _atom_site_fract_y
 _atom_site_fract_z
 _atom_site_occupancy
  Tb  Tb0  1  0.443052  0.439535  0.059160  1
  Tb  Tb1  1  0.650432  0.650149  0.050788  1
  Tb  Tb2  1  0.189616  0.812324  0.191599  1
  Tb  Tb3  1  0.065947  0.439588  0.058266  1
  Tb  Tb4  1  0.190658  0.811007  0.807787  1
  Tb  Tb5  1  0.064885  0.436901  0.438291  1
  Ho  Ho6  1  0.811201  0.190054  0.191329  1
  Ho  Ho7  1  0.651103  0.650065  0.649183  1
  Ho  Ho8  1  0.809923  0.190868  0.808696  1
  Ho  Ho9  1  0.189966  0.190191  0.812681  1
  Ho  Ho10  1  0.048281  0.649537  0.649348  1
  Ho  Ho11  1  0.441110  0.065268  0.057577  1
  Ho  Ho12  1  0.061607  0.061822  0.438641  1
  Ho  Ho13  1  0.648276  0.051136  0.648726  1
  Ho  Ho14  1  0.806442  0.809009  0.192736  1
  Ho  Ho15  1  0.440225  0.062948  0.437793  1
  In  In16  1  0.416060  0.742902  0.421209  1
  In  In17  1  0.741835  0.416003  0.421844  1
  Ag  Ag18  1  0.416782  0.414642  0.419869  1
  Ag  Ag19  1  0.416750  0.415077  0.749381  1
  Ir  Ir20  1  0.425852  0.858992  0.855296  1
  Ir  Ir21  1  0.856994  0.859401  0.857845  1
  Ir  Ir22  1  0.857632  0.423866  0.856993  1
  Ir  Ir23  1  0.855369  0.858714  0.424963  1
