# generated using pymatgen
data_Dy3In4NiRh
_symmetry_space_group_name_H-M   'P 1'
_cell_length_a   7.91459600
_cell_length_b   7.91459546
_cell_length_c   3.69279900
_cell_angle_alpha   90.00000000
_cell_angle_beta   90.00000000
_cell_angle_gamma   120.00001060
_symmetry_Int_Tables_number   1
_chemical_formula_structural   Dy3In4NiRh
_chemical_formula_sum   'Dy3 In4 Ni1 Rh1'
_cell_volume   200.32895606
_cell_formula_units_Z   1
loop_
 _symmetry_equiv_pos_site_id
 _symmetry_equiv_pos_as_xyz
  1  'x, y, z'
loop_
 _atom_site_type_symbol
 _atom_site_label
 _atom_site_symmetry_multiplicity
 _atom_site_fract_x
 _atom_site_fract_y
 _atom_site_fract_z
 _atom_site_occupancy
  Dy  Dy0  1  0.049424  0.299534  0.500000  1
  Dy  Dy1  1  0.700466  0.749889  0.500000  1
  Dy  Dy2  1  0.250111  0.950576  0.500000  1
  In  In3  1  0.666098  0.083211  0.000000  1
  In  In4  1  0.916789  0.582889  0.000000  1
  In  In5  1  0.417111  0.333902  0.000000  1
  In  In6  1  0.333333  0.666667  0.000000  1
  Ni  Ni7  1  0.666667  0.333333  0.500000  1
  Rh  Rh8  1  0.000000  0.000000  0.000000  1
