# generated using pymatgen
data_TbDyMn3Fe9P7
_symmetry_space_group_name_H-M   'P 1'
_cell_length_a   9.05314000
_cell_length_b   9.05314067
_cell_length_c   3.63872500
_cell_angle_alpha   90.00000000
_cell_angle_beta   90.00000000
_cell_angle_gamma   119.99999754
_symmetry_Int_Tables_number   1
_chemical_formula_structural   TbDyMn3Fe9P7
_chemical_formula_sum   'Tb1 Dy1 Mn3 Fe9 P7'
_cell_volume   258.27262835
_cell_formula_units_Z   1
loop_
 _symmetry_equiv_pos_site_id
 _symmetry_equiv_pos_as_xyz
  1  'x, y, z'
loop_
 _atom_site_type_symbol
 _atom_site_label
 _atom_site_symmetry_multiplicity
 _atom_site_fract_x
 _atom_site_fract_y
 _atom_site_fract_z
 _atom_site_occupancy
  Tb  Tb0  1  0.333333  0.666667  0.500000  1
  Dy  Dy1  1  0.666667  0.333333  0.000000  1
  Mn  Mn2  1  0.102252  0.884928  0.500000  1
  Mn  Mn3  1  0.782675  0.897748  0.500000  1
  Mn  Mn4  1  0.115072  0.217325  0.500000  1
  Fe  Fe5  1  0.055357  0.631101  0.000000  1
  Fe  Fe6  1  0.575745  0.944643  0.000000  1
  Fe  Fe7  1  0.368899  0.424255  0.000000  1
  Fe  Fe8  1  0.274992  0.119938  0.000000  1
  Fe  Fe9  1  0.844945  0.725008  0.000000  1
  Fe  Fe10  1  0.880062  0.155055  0.000000  1
  Fe  Fe11  1  0.433838  0.048961  0.500000  1
  Fe  Fe12  1  0.615123  0.566162  0.500000  1
  Fe  Fe13  1  0.951039  0.384877  0.500000  1
  P  P14  1  0.302151  0.888811  0.000000  1
  P  P15  1  0.586661  0.697849  0.000000  1
  P  P16  1  0.111189  0.413339  0.000000  1
  P  P17  1  0.406332  0.289653  0.500000  1
  P  P18  1  0.883321  0.593668  0.500000  1
  P  P19  1  0.710347  0.116679  0.500000  1
  P  P20  1  0.000000  0.000000  0.000000  1
