# generated using pymatgen
data_FeSn(BrO)2
_symmetry_space_group_name_H-M   'P 1'
_cell_length_a   5.46998344
_cell_length_b   5.43108186
_cell_length_c   9.60863700
_cell_angle_alpha   75.67306257
_cell_angle_beta   75.52195620
_cell_angle_gamma   97.06282761
_symmetry_Int_Tables_number   1
_chemical_formula_structural   FeSn(BrO)2
_chemical_formula_sum   'Fe2 Sn2 Br4 O4'
_cell_volume   262.54346136
_cell_formula_units_Z   2
loop_
 _symmetry_equiv_pos_site_id
 _symmetry_equiv_pos_as_xyz
  1  'x, y, z'
loop_
 _atom_site_type_symbol
 _atom_site_label
 _atom_site_symmetry_multiplicity
 _atom_site_fract_x
 _atom_site_fract_y
 _atom_site_fract_z
 _atom_site_occupancy
  Fe  Fe0  1  0.695351  0.695401  0.109170  1
  Fe  Fe1  1  0.804626  0.304638  0.890827  1
  Sn  Sn2  1  0.198673  0.198605  0.102707  1
  Sn  Sn3  1  0.301325  0.801393  0.897285  1
  Br  Br4  1  0.344158  0.328492  0.319255  1
  Br  Br5  1  0.836587  0.851722  0.319191  1
  Br  Br6  1  0.155858  0.671485  0.680738  1
  Br  Br7  1  0.663431  0.148245  0.680816  1
  O  O8  1  0.036582  0.041122  0.955239  1
  O  O9  1  0.508228  0.503714  0.955196  1
  O  O10  1  0.463371  0.958857  0.044759  1
  O  O11  1  0.991812  0.496329  0.044816  1
