# generated using pymatgen
data_Tm6Th4Si7Au
_symmetry_space_group_name_H-M   'P 1'
_cell_length_a   7.53662200
_cell_length_b   7.74428056
_cell_length_c   14.77158100
_cell_angle_alpha   90.00000000
_cell_angle_beta   90.00000000
_cell_angle_gamma   90.40088163
_symmetry_Int_Tables_number   1
_chemical_formula_structural   Tm6Th4Si7Au
_chemical_formula_sum   'Tm12 Th8 Si14 Au2'
_cell_volume   862.13278703
_cell_formula_units_Z   2
loop_
 _symmetry_equiv_pos_site_id
 _symmetry_equiv_pos_as_xyz
  1  'x, y, z'
loop_
 _atom_site_type_symbol
 _atom_site_label
 _atom_site_symmetry_multiplicity
 _atom_site_fract_x
 _atom_site_fract_y
 _atom_site_fract_z
 _atom_site_occupancy
  Tm  Tm0  1  0.337644  0.179476  0.621832  1
  Tm  Tm1  1  0.662734  0.825822  0.377093  1
  Tm  Tm2  1  0.664159  0.995501  0.747913  1
  Tm  Tm3  1  0.169429  0.673752  0.375257  1
  Tm  Tm4  1  0.830571  0.326248  0.875257  1
  Tm  Tm5  1  0.830110  0.329149  0.624588  1
  Tm  Tm6  1  0.835912  0.489925  0.254412  1
  Tm  Tm7  1  0.335841  0.004499  0.247913  1
  Tm  Tm8  1  0.337266  0.174178  0.877093  1
  Tm  Tm9  1  0.169890  0.670851  0.124588  1
  Tm  Tm10  1  0.662356  0.820524  0.121832  1
  Tm  Tm11  1  0.164088  0.510075  0.754412  1
  Th  Th12  1  0.005387  0.173334  0.402103  1
  Th  Th13  1  0.514316  0.316127  0.399199  1
  Th  Th14  1  0.485684  0.683873  0.899199  1
  Th  Th15  1  0.489636  0.684974  0.598069  1
  Th  Th16  1  0.988128  0.828686  0.599352  1
  Th  Th17  1  0.994613  0.826666  0.902103  1
  Th  Th18  1  0.510364  0.315026  0.098069  1
  Th  Th19  1  0.011872  0.171314  0.099352  1
  Si  Si20  1  0.284403  0.875782  0.748702  1
  Si  Si21  1  0.462975  0.606839  0.250327  1
  Si  Si22  1  0.039924  0.113674  0.751248  1
  Si  Si23  1  0.537025  0.393161  0.750327  1
  Si  Si24  1  0.960076  0.886326  0.251248  1
  Si  Si25  1  0.715597  0.124218  0.248702  1
  Si  Si26  1  0.331766  0.963035  0.039471  1
  Si  Si27  1  0.169399  0.462634  0.961187  1
  Si  Si28  1  0.668234  0.036965  0.539471  1
  Si  Si29  1  0.330972  0.967279  0.457964  1
  Si  Si30  1  0.830601  0.537366  0.461187  1
  Si  Si31  1  0.786116  0.631314  0.751070  1
  Si  Si32  1  0.213884  0.368686  0.251070  1
  Si  Si33  1  0.669028  0.032721  0.957964  1
  Au  Au34  1  0.157571  0.467318  0.540214  1
  Au  Au35  1  0.842429  0.532682  0.040214  1
