# generated using pymatgen
data_Ho3Lu3(GaNi3)4
_symmetry_space_group_name_H-M   'P 1'
_cell_length_a   7.63745954
_cell_length_b   7.63746016
_cell_length_c   7.63610100
_cell_angle_alpha   109.46761573
_cell_angle_beta   109.46761736
_cell_angle_gamma   109.47482203
_symmetry_Int_Tables_number   1
_chemical_formula_structural   Ho3Lu3(GaNi3)4
_chemical_formula_sum   'Ho3 Lu3 Ga4 Ni12'
_cell_volume   342.89960272
_cell_formula_units_Z   1
loop_
 _symmetry_equiv_pos_site_id
 _symmetry_equiv_pos_as_xyz
  1  'x, y, z'
loop_
 _atom_site_type_symbol
 _atom_site_label
 _atom_site_symmetry_multiplicity
 _atom_site_fract_x
 _atom_site_fract_y
 _atom_site_fract_z
 _atom_site_occupancy
  Ho  Ho0  1  0.290897  0.290897  0.000656  1
  Ho  Ho1  1  0.709103  0.000000  0.709759  1
  Ho  Ho2  1  0.000000  0.709103  0.709759  1
  Lu  Lu3  1  0.707407  0.707407  0.000641  1
  Lu  Lu4  1  0.292593  0.000000  0.293234  1
  Lu  Lu5  1  0.000000  0.292593  0.293234  1
  Ga  Ga6  1  0.000000  0.000000  0.498690  1
  Ga  Ga7  1  0.000000  0.500391  0.000228  1
  Ga  Ga8  1  0.500391  0.000000  0.000228  1
  Ga  Ga9  1  0.499609  0.499609  0.499837  1
  Ni  Ni10  1  0.337279  0.337279  0.673076  1
  Ni  Ni11  1  0.662721  0.000000  0.335796  1
  Ni  Ni12  1  0.000000  0.662721  0.335796  1
  Ni  Ni13  1  0.662967  0.338570  0.001072  1
  Ni  Ni14  1  0.337033  0.675604  0.338105  1
  Ni  Ni15  1  0.000000  0.337551  0.661087  1
  Ni  Ni16  1  0.338570  0.662967  0.001072  1
  Ni  Ni17  1  0.337551  0.000000  0.661087  1
  Ni  Ni18  1  0.675604  0.337033  0.338105  1
  Ni  Ni19  1  0.662449  0.662449  0.323535  1
  Ni  Ni20  1  0.661430  0.324396  0.662502  1
  Ni  Ni21  1  0.324396  0.661430  0.662502  1
