# generated using pymatgen
data_Be6Si6IrOs11
_symmetry_space_group_name_H-M   'P 1'
_cell_length_a   4.08353000
_cell_length_b   5.75821000
_cell_length_c   12.24840600
_cell_angle_alpha   90.00000000
_cell_angle_beta   89.99949952
_cell_angle_gamma   90.00000000
_symmetry_Int_Tables_number   1
_chemical_formula_structural   Be6Si6IrOs11
_chemical_formula_sum   'Be6 Si6 Ir1 Os11'
_cell_volume   288.00685416
_cell_formula_units_Z   1
loop_
 _symmetry_equiv_pos_site_id
 _symmetry_equiv_pos_as_xyz
  1  'x, y, z'
loop_
 _atom_site_type_symbol
 _atom_site_label
 _atom_site_symmetry_multiplicity
 _atom_site_fract_x
 _atom_site_fract_y
 _atom_site_fract_z
 _atom_site_occupancy
  Be  Be0  1  0.000000  0.501069  0.000000  1
  Be  Be1  1  0.499694  0.999026  0.166903  1
  Be  Be2  1  0.999688  0.500348  0.333247  1
  Be  Be3  1  0.500000  0.000112  0.500000  1
  Be  Be4  1  0.000312  0.500348  0.666754  1
  Be  Be5  1  0.500306  0.999026  0.833097  1
  Si  Si6  1  0.000000  0.997793  0.000000  1
  Si  Si7  1  0.499740  0.501308  0.167312  1
  Si  Si8  1  0.999727  0.999845  0.333169  1
  Si  Si9  1  0.500000  0.499955  0.500000  1
  Si  Si10  1  0.000273  0.999845  0.666831  1
  Si  Si11  1  0.500260  0.501308  0.832687  1
  Ir  Ir12  1  0.500000  0.250162  0.000000  1
  Os  Os13  1  0.500000  0.749982  0.000000  1
  Os  Os14  1  0.999804  0.250053  0.167007  1
  Os  Os15  1  0.999790  0.749955  0.166363  1
  Os  Os16  1  0.499787  0.249842  0.333578  1
  Os  Os17  1  0.499785  0.750096  0.333521  1
  Os  Os18  1  0.000000  0.250043  0.500000  1
  Os  Os19  1  0.000000  0.749933  0.500000  1
  Os  Os20  1  0.500213  0.249842  0.666422  1
  Os  Os21  1  0.500215  0.750096  0.666479  1
  Os  Os22  1  0.000196  0.250053  0.832993  1
  Os  Os23  1  0.000210  0.749955  0.833637  1
