# generated using pymatgen
data_Zr8V2Si6N
_symmetry_space_group_name_H-M   'P 1'
_cell_length_a   7.82164300
_cell_length_b   7.82164328
_cell_length_c   5.40020800
_cell_angle_alpha   90.00000000
_cell_angle_beta   90.00000000
_cell_angle_gamma   120.00001148
_symmetry_Int_Tables_number   1
_chemical_formula_structural   Zr8V2Si6N
_chemical_formula_sum   'Zr8 V2 Si6 N1'
_cell_volume   286.11265314
_cell_formula_units_Z   1
loop_
 _symmetry_equiv_pos_site_id
 _symmetry_equiv_pos_as_xyz
  1  'x, y, z'
loop_
 _atom_site_type_symbol
 _atom_site_label
 _atom_site_symmetry_multiplicity
 _atom_site_fract_x
 _atom_site_fract_y
 _atom_site_fract_z
 _atom_site_occupancy
  Zr  Zr0  1  0.000000  0.757688  0.255763  1
  Zr  Zr1  1  0.242312  0.242312  0.255763  1
  Zr  Zr2  1  0.757688  0.000000  0.255763  1
  Zr  Zr3  1  0.000000  0.242312  0.744237  1
  Zr  Zr4  1  0.757688  0.757688  0.744237  1
  Zr  Zr5  1  0.242312  0.000000  0.744237  1
  Zr  Zr6  1  0.333333  0.666667  0.500000  1
  Zr  Zr7  1  0.666667  0.333333  0.500000  1
  V  V8  1  0.666667  0.333333  0.000000  1
  V  V9  1  0.333333  0.666667  0.000000  1
  Si  Si10  1  0.000000  0.402609  0.217173  1
  Si  Si11  1  0.597391  0.597391  0.217173  1
  Si  Si12  1  0.402609  0.000000  0.217173  1
  Si  Si13  1  0.000000  0.597391  0.782827  1
  Si  Si14  1  0.402609  0.402609  0.782827  1
  Si  Si15  1  0.597391  0.000000  0.782827  1
  N  N16  1  0.000000  0.000000  0.500000  1
