# generated using pymatgen
data_K3Rb3TbHoF12
_symmetry_space_group_name_H-M   'P 1'
_cell_length_a   6.72835019
_cell_length_b   6.51587369
_cell_length_c   11.31555733
_cell_angle_alpha   55.24669097
_cell_angle_beta   89.98050882
_cell_angle_gamma   89.92786474
_symmetry_Int_Tables_number   1
_chemical_formula_structural   K3Rb3TbHoF12
_chemical_formula_sum   'K3 Rb3 Tb1 Ho1 F12'
_cell_volume   407.59105427
_cell_formula_units_Z   1
loop_
 _symmetry_equiv_pos_site_id
 _symmetry_equiv_pos_as_xyz
  1  'x, y, z'
loop_
 _atom_site_type_symbol
 _atom_site_label
 _atom_site_symmetry_multiplicity
 _atom_site_fract_x
 _atom_site_fract_y
 _atom_site_fract_z
 _atom_site_occupancy
  K  K0  1  0.499385  0.497945  0.002191  1
  K  K1  1  0.998647  0.500935  0.498599  1
  K  K2  1  0.450505  0.733237  0.254931  1
  Rb  Rb3  1  0.048597  0.731321  0.753469  1
  Rb  Rb4  1  0.952520  0.264791  0.247088  1
  Rb  Rb5  1  0.546256  0.265616  0.748788  1
  Tb  Tb6  1  0.499703  0.002303  0.497624  1
  Ho  Ho7  1  0.999500  0.997971  0.001977  1
  F  F8  1  0.769580  0.768589  0.557587  1
  F  F9  1  0.233931  0.242338  0.437617  1
  F  F10  1  0.263128  0.234598  0.940617  1
  F  F11  1  0.730955  0.768345  0.065344  1
  F  F12  1  0.458327  0.870540  0.724357  1
  F  F13  1  0.542808  0.114222  0.274515  1
  F  F14  1  0.955828  0.125483  0.778578  1
  F  F15  1  0.056890  0.870681  0.223719  1
  F  F16  1  0.316056  0.685061  0.542012  1
  F  F17  1  0.676910  0.327579  0.448795  1
  F  F18  1  0.820208  0.312814  0.959114  1
  F  F19  1  0.180267  0.685629  0.043076  1
