# generated using pymatgen
data_Y5Pb3N
_symmetry_space_group_name_H-M   'P 1'
_cell_length_a   9.20308835
_cell_length_b   9.20308768
_cell_length_c   9.20308800
_cell_angle_alpha   126.00145280
_cell_angle_beta   126.00144976
_cell_angle_gamma   79.88575102
_symmetry_Int_Tables_number   1
_chemical_formula_structural   Y5Pb3N
_chemical_formula_sum   'Y10 Pb6 N2'
_cell_volume   492.66258665
_cell_formula_units_Z   2
loop_
 _symmetry_equiv_pos_site_id
 _symmetry_equiv_pos_as_xyz
  1  'x, y, z'
loop_
 _atom_site_type_symbol
 _atom_site_label
 _atom_site_symmetry_multiplicity
 _atom_site_fract_x
 _atom_site_fract_y
 _atom_site_fract_z
 _atom_site_occupancy
  Y  Y0  1  0.506386  0.298219  0.500000  1
  Y  Y1  1  0.798219  0.006386  0.500000  1
  Y  Y2  1  0.006386  0.506386  0.208168  1
  Y  Y3  1  0.298219  0.798219  0.791832  1
  Y  Y4  1  0.496179  0.704307  0.500000  1
  Y  Y5  1  0.204307  0.996179  0.500000  1
  Y  Y6  1  0.996179  0.496179  0.791872  1
  Y  Y7  1  0.704307  0.204307  0.208128  1
  Y  Y8  1  0.501380  0.501380  0.000000  1
  Y  Y9  1  0.001380  0.001380  0.000000  1
  Pb  Pb10  1  0.152871  0.349647  0.500000  1
  Pb  Pb11  1  0.849647  0.652871  0.500000  1
  Pb  Pb12  1  0.652871  0.152871  0.803223  1
  Pb  Pb13  1  0.349647  0.849647  0.196777  1
  Pb  Pb14  1  0.751144  0.751144  0.000000  1
  Pb  Pb15  1  0.251144  0.251144  0.000000  1
  N  N16  1  0.751286  0.251286  0.500000  1
  N  N17  1  0.251286  0.751286  0.500000  1
