# generated using pymatgen
data_SrMn8O16
_symmetry_space_group_name_H-M   'P 1'
_cell_length_a   5.94848088
_cell_length_b   7.16129948
_cell_length_c   7.13692307
_cell_angle_alpha   86.81455247
_cell_angle_beta   77.86083191
_cell_angle_gamma   77.46533799
_symmetry_Int_Tables_number   1
_chemical_formula_structural   SrMn8O16
_chemical_formula_sum   'Sr1 Mn8 O16'
_cell_volume   290.12652096
_cell_formula_units_Z   1
loop_
 _symmetry_equiv_pos_site_id
 _symmetry_equiv_pos_as_xyz
  1  'x, y, z'
loop_
 _atom_site_type_symbol
 _atom_site_label
 _atom_site_symmetry_multiplicity
 _atom_site_fract_x
 _atom_site_fract_y
 _atom_site_fract_z
 _atom_site_occupancy
  Sr  Sr0  1  0.231586  0.000527  0.004628  1
  Mn  Mn1  1  0.081522  0.182087  0.490498  1
  Mn  Mn2  1  0.582870  0.180823  0.476306  1
  Mn  Mn3  1  0.321200  0.513694  0.183511  1
  Mn  Mn4  1  0.816996  0.521929  0.182898  1
  Mn  Mn5  1  0.171858  0.486097  0.816080  1
  Mn  Mn6  1  0.675741  0.477885  0.816850  1
  Mn  Mn7  1  0.413293  0.818277  0.510184  1
  Mn  Mn8  1  0.912480  0.818448  0.522104  1
  O  O9  1  0.380648  0.042634  0.344665  1
  O  O10  1  0.913847  0.044258  0.355672  1
  O  O11  1  0.078498  0.374738  0.287240  1
  O  O12  1  0.583534  0.375463  0.283516  1
  O  O13  1  0.077063  0.649853  0.048218  1
  O  O14  1  0.564042  0.645940  0.048380  1
  O  O15  1  0.265898  0.296370  0.622702  1
  O  O16  1  0.773317  0.294393  0.623102  1
  O  O17  1  0.228195  0.704772  0.376991  1
  O  O18  1  0.719970  0.704828  0.376279  1
  O  O19  1  0.415582  0.351039  0.952670  1
  O  O20  1  0.929280  0.353166  0.951119  1
  O  O21  1  0.415033  0.625263  0.712590  1
  O  O22  1  0.909876  0.623875  0.715760  1
  O  O23  1  0.585333  0.955018  0.641182  1
  O  O24  1  0.114914  0.958621  0.656854  1
