# generated using pymatgen
data_Sm3GeSe2
_symmetry_space_group_name_H-M   'P 1'
_cell_length_a   7.31273910
_cell_length_b   7.31273958
_cell_length_c   7.31273998
_cell_angle_alpha   146.50905658
_cell_angle_beta   132.24640905
_cell_angle_gamma   59.58274631
_symmetry_Int_Tables_number   1
_chemical_formula_structural   Sm3GeSe2
_chemical_formula_sum   'Sm3 Ge1 Se2'
_cell_volume   158.31573997
_cell_formula_units_Z   1
loop_
 _symmetry_equiv_pos_site_id
 _symmetry_equiv_pos_as_xyz
  1  'x, y, z'
loop_
 _atom_site_type_symbol
 _atom_site_label
 _atom_site_symmetry_multiplicity
 _atom_site_fract_x
 _atom_site_fract_y
 _atom_site_fract_z
 _atom_site_occupancy
  Sm  Sm0  1  0.341013  0.341013  0.000000  1
  Sm  Sm1  1  0.000000  0.000000  0.000000  1
  Sm  Sm2  1  0.658987  0.658987  0.000000  1
  Ge  Ge3  1  0.500000  0.000000  0.500000  1
  Se  Se4  1  0.167716  0.667716  0.500000  1
  Se  Se5  1  0.832284  0.332284  0.500000  1
