# generated using pymatgen
data_HoSc3Al17SiIr6
_symmetry_space_group_name_H-M   'P 1'
_cell_length_a   7.49104691
_cell_length_b   7.48763775
_cell_length_c   9.30658900
_cell_angle_alpha   90.00000000
_cell_angle_beta   90.00000000
_cell_angle_gamma   119.74872084
_symmetry_Int_Tables_number   1
_chemical_formula_structural   HoSc3Al17SiIr6
_chemical_formula_sum   'Ho1 Sc3 Al17 Si1 Ir6'
_cell_volume   453.21325898
_cell_formula_units_Z   1
loop_
 _symmetry_equiv_pos_site_id
 _symmetry_equiv_pos_as_xyz
  1  'x, y, z'
loop_
 _atom_site_type_symbol
 _atom_site_label
 _atom_site_symmetry_multiplicity
 _atom_site_fract_x
 _atom_site_fract_y
 _atom_site_fract_z
 _atom_site_occupancy
  Ho  Ho0  1  0.330569  0.003649  0.750000  1
  Sc  Sc1  1  0.994457  0.676994  0.250000  1
  Sc  Sc2  1  0.003645  0.330644  0.750000  1
  Sc  Sc3  1  0.677264  0.994850  0.250000  1
  Al  Al4  1  0.875674  0.877382  0.750000  1
  Al  Al5  1  0.997524  0.336419  0.079407  1
  Al  Al6  1  0.998488  0.662916  0.925862  1
  Al  Al7  1  0.998488  0.662916  0.574138  1
  Al  Al8  1  0.336588  0.997544  0.417607  1
  Al  Al9  1  0.997524  0.336419  0.420593  1
  Al  Al10  1  0.668629  0.001273  0.574032  1
  Al  Al11  1  0.668629  0.001273  0.925968  1
  Al  Al12  1  0.336588  0.997544  0.082393  1
  Al  Al13  1  0.329836  0.332315  0.558675  1
  Al  Al14  1  0.665519  0.665557  0.442840  1
  Al  Al15  1  0.665519  0.665557  0.057160  1
  Al  Al16  1  0.329836  0.332315  0.941325  1
  Al  Al17  1  0.337271  0.553446  0.250000  1
  Al  Al18  1  0.663230  0.452330  0.750000  1
  Al  Al19  1  0.554353  0.338341  0.250000  1
  Al  Al20  1  0.449269  0.659025  0.750000  1
  Si  Si21  1  0.128440  0.129142  0.250000  1
  Ir  Ir22  1  0.669787  0.325993  0.000465  1
  Ir  Ir23  1  0.326403  0.670444  0.000518  1
  Ir  Ir24  1  0.326403  0.670444  0.499482  1
  Ir  Ir25  1  0.669787  0.325993  0.499535  1
  Ir  Ir26  1  0.000139  0.999634  0.008214  1
  Ir  Ir27  1  0.000139  0.999634  0.491786  1
