# generated using pymatgen
data_HoSc(SnPd)2
_symmetry_space_group_name_H-M   'P 1'
_cell_length_a   7.62276200
_cell_length_b   7.62276190
_cell_length_c   7.44803000
_cell_angle_alpha   90.00000000
_cell_angle_beta   90.00000000
_cell_angle_gamma   119.99999176
_symmetry_Int_Tables_number   1
_chemical_formula_structural   HoSc(SnPd)2
_chemical_formula_sum   'Ho3 Sc3 Sn6 Pd6'
_cell_volume   374.79759888
_cell_formula_units_Z   3
loop_
 _symmetry_equiv_pos_site_id
 _symmetry_equiv_pos_as_xyz
  1  'x, y, z'
loop_
 _atom_site_type_symbol
 _atom_site_label
 _atom_site_symmetry_multiplicity
 _atom_site_fract_x
 _atom_site_fract_y
 _atom_site_fract_z
 _atom_site_occupancy
  Ho  Ho0  1  0.395522  0.992986  0.750000  1
  Ho  Ho1  1  0.597463  0.604478  0.750000  1
  Ho  Ho2  1  0.007014  0.402537  0.750000  1
  Sc  Sc3  1  0.394912  0.007251  0.250000  1
  Sc  Sc4  1  0.612339  0.605088  0.250000  1
  Sc  Sc5  1  0.992749  0.387661  0.250000  1
  Sn  Sn6  1  0.728417  0.998354  0.008961  1
  Sn  Sn7  1  0.269938  0.271583  0.491039  1
  Sn  Sn8  1  0.001646  0.730062  0.491039  1
  Sn  Sn9  1  0.001646  0.730062  0.008961  1
  Sn  Sn10  1  0.269938  0.271583  0.008961  1
  Sn  Sn11  1  0.728417  0.998354  0.491039  1
  Pd  Pd12  1  0.333333  0.666667  0.039676  1
  Pd  Pd13  1  0.333333  0.666667  0.460324  1
  Pd  Pd14  1  0.666667  0.333333  0.007219  1
  Pd  Pd15  1  0.666667  0.333333  0.492781  1
  Pd  Pd16  1  0.000000  0.000000  0.250000  1
  Pd  Pd17  1  0.000000  0.000000  0.750000  1
