# generated using pymatgen
data_Ho4Tm6BiPb5
_symmetry_space_group_name_H-M   'P 1'
_cell_length_a   6.49285800
_cell_length_b   9.00540638
_cell_length_c   9.00644443
_cell_angle_alpha   119.99619057
_cell_angle_beta   89.99989372
_cell_angle_gamma   90.00020783
_symmetry_Int_Tables_number   1
_chemical_formula_structural   Ho4Tm6BiPb5
_chemical_formula_sum   'Ho4 Tm6 Bi1 Pb5'
_cell_volume   456.07881102
_cell_formula_units_Z   1
loop_
 _symmetry_equiv_pos_site_id
 _symmetry_equiv_pos_as_xyz
  1  'x, y, z'
loop_
 _atom_site_type_symbol
 _atom_site_label
 _atom_site_symmetry_multiplicity
 _atom_site_fract_x
 _atom_site_fract_y
 _atom_site_fract_z
 _atom_site_occupancy
  Ho  Ho0  1  0.750008  0.235382  0.000000  1
  Ho  Ho1  1  0.749996  0.764157  0.760436  1
  Ho  Ho2  1  0.749996  0.003722  0.239564  1
  Ho  Ho3  1  0.250000  0.763043  0.000000  1
  Tm  Tm4  1  0.499065  0.331381  0.664307  1
  Tm  Tm5  1  0.499065  0.667074  0.335693  1
  Tm  Tm6  1  0.000933  0.667088  0.335705  1
  Tm  Tm7  1  0.000933  0.331383  0.664295  1
  Tm  Tm8  1  0.250003  0.236987  0.237519  1
  Tm  Tm9  1  0.250003  0.999468  0.762481  1
  Bi  Bi10  1  0.749997  0.606463  0.000000  1
  Pb  Pb11  1  0.749995  0.395697  0.395152  1
  Pb  Pb12  1  0.749995  0.000545  0.604848  1
  Pb  Pb13  1  0.249992  0.393593  0.000000  1
  Pb  Pb14  1  0.250008  0.605193  0.606368  1
  Pb  Pb15  1  0.250008  0.998825  0.393632  1
