# generated using pymatgen
data_Be2NiBW3
_symmetry_space_group_name_H-M   'P 1'
_cell_length_a   4.61315105
_cell_length_b   4.61315043
_cell_length_c   11.01823500
_cell_angle_alpha   90.00000000
_cell_angle_beta   90.00000000
_cell_angle_gamma   138.81258878
_symmetry_Int_Tables_number   1
_chemical_formula_structural   Be2NiBW3
_chemical_formula_sum   'Be4 Ni2 B2 W6'
_cell_volume   154.41127648
_cell_formula_units_Z   2
loop_
 _symmetry_equiv_pos_site_id
 _symmetry_equiv_pos_as_xyz
  1  'x, y, z'
loop_
 _atom_site_type_symbol
 _atom_site_label
 _atom_site_symmetry_multiplicity
 _atom_site_fract_x
 _atom_site_fract_y
 _atom_site_fract_z
 _atom_site_occupancy
  Be  Be0  1  0.084283  0.915717  0.601623  1
  Be  Be1  1  0.915717  0.084283  0.398377  1
  Be  Be2  1  0.915717  0.084283  0.101623  1
  Be  Be3  1  0.084283  0.915717  0.898377  1
  Ni  Ni4  1  0.500000  0.500000  0.000000  1
  Ni  Ni5  1  0.500000  0.500000  0.500000  1
  B  B6  1  0.787506  0.212494  0.250000  1
  B  B7  1  0.212494  0.787506  0.750000  1
  W  W8  1  0.504599  0.495401  0.250000  1
  W  W9  1  0.495401  0.504599  0.750000  1
  W  W10  1  0.791655  0.208345  0.609320  1
  W  W11  1  0.208345  0.791655  0.390680  1
  W  W12  1  0.208345  0.791655  0.109320  1
  W  W13  1  0.791655  0.208345  0.890680  1
