# generated using pymatgen
data_Tb2U(InIr)3
_symmetry_space_group_name_H-M   'P 1'
_cell_length_a   7.49259647
_cell_length_b   7.49259740
_cell_length_c   3.87604200
_cell_angle_alpha   90.00000000
_cell_angle_beta   90.00000000
_cell_angle_gamma   117.40814677
_symmetry_Int_Tables_number   1
_chemical_formula_structural   Tb2U(InIr)3
_chemical_formula_sum   'Tb2 U1 In3 Ir3'
_cell_volume   193.17186249
_cell_formula_units_Z   1
loop_
 _symmetry_equiv_pos_site_id
 _symmetry_equiv_pos_as_xyz
  1  'x, y, z'
loop_
 _atom_site_type_symbol
 _atom_site_label
 _atom_site_symmetry_multiplicity
 _atom_site_fract_x
 _atom_site_fract_y
 _atom_site_fract_z
 _atom_site_occupancy
  Tb  Tb0  1  0.595494  0.000544  0.000000  1
  Tb  Tb1  1  0.000544  0.595494  0.000000  1
  U  U2  1  0.416515  0.416515  0.000000  1
  In  In3  1  0.988814  0.258858  0.500000  1
  In  In4  1  0.756883  0.756883  0.500000  1
  In  In5  1  0.258858  0.988814  0.500000  1
  Ir  Ir6  1  0.013345  0.013345  0.000000  1
  Ir  Ir7  1  0.337974  0.631574  0.500000  1
  Ir  Ir8  1  0.631574  0.337974  0.500000  1
