# generated using pymatgen
data_Zr8Co11Si16Pd
_symmetry_space_group_name_H-M   'P 1'
_cell_length_a   5.24902216
_cell_length_b   6.78566993
_cell_length_c   13.82606925
_cell_angle_alpha   89.96583287
_cell_angle_beta   90.00493615
_cell_angle_gamma   89.87859231
_symmetry_Int_Tables_number   1
_chemical_formula_structural   Zr8Co11Si16Pd
_chemical_formula_sum   'Zr8 Co11 Si16 Pd1'
_cell_volume   492.45756179
_cell_formula_units_Z   1
loop_
 _symmetry_equiv_pos_site_id
 _symmetry_equiv_pos_as_xyz
  1  'x, y, z'
loop_
 _atom_site_type_symbol
 _atom_site_label
 _atom_site_symmetry_multiplicity
 _atom_site_fract_x
 _atom_site_fract_y
 _atom_site_fract_z
 _atom_site_occupancy
  Zr  Zr0  1  0.234335  0.399463  0.150641  1
  Zr  Zr1  1  0.730283  0.101221  0.149292  1
  Zr  Zr2  1  0.269782  0.099469  0.644121  1
  Zr  Zr3  1  0.766234  0.400488  0.643876  1
  Zr  Zr4  1  0.231193  0.600643  0.354598  1
  Zr  Zr5  1  0.733111  0.898951  0.354400  1
  Zr  Zr6  1  0.265114  0.899649  0.851873  1
  Zr  Zr7  1  0.770837  0.602242  0.850064  1
  Co  Co8  1  0.506074  0.225457  0.480294  1
  Co  Co9  1  0.772743  0.999212  0.748847  1
  Co  Co10  1  0.491999  0.220712  0.981676  1
  Co  Co11  1  0.724133  0.500852  0.251203  1
  Co  Co12  1  0.495090  0.773849  0.519114  1
  Co  Co13  1  0.005467  0.274224  0.480320  1
  Co  Co14  1  0.004894  0.728910  0.019577  1
  Co  Co15  1  0.225775  0.998995  0.251985  1
  Co  Co16  1  0.277458  0.501395  0.749676  1
  Co  Co17  1  0.505572  0.774950  0.020682  1
  Co  Co18  1  0.995063  0.725552  0.519359  1
  Si  Si19  1  0.227831  0.011326  0.074876  1
  Si  Si20  1  0.718755  0.518929  0.432401  1
  Si  Si21  1  0.782595  0.018205  0.566820  1
  Si  Si22  1  0.481271  0.754513  0.189445  1
  Si  Si23  1  0.020186  0.253536  0.803151  1
  Si  Si24  1  0.518369  0.245849  0.812482  1
  Si  Si25  1  0.218435  0.981237  0.432855  1
  Si  Si26  1  0.295611  0.527828  0.932400  1
  Si  Si27  1  0.980299  0.745996  0.188339  1
  Si  Si28  1  0.710702  0.489600  0.072469  1
  Si  Si29  1  0.281060  0.481269  0.566996  1
  Si  Si30  1  0.481044  0.246144  0.313719  1
  Si  Si31  1  0.019911  0.746292  0.686115  1
  Si  Si32  1  0.767648  0.970942  0.928570  1
  Si  Si33  1  0.519100  0.753997  0.686334  1
  Si  Si34  1  0.980433  0.254067  0.313495  1
  Pd  Pd35  1  0.991596  0.274034  0.977931  1
