# generated using pymatgen
data_Y13Th3Mg2(InIr2)2
_symmetry_space_group_name_H-M   'P 1'
_cell_length_a   9.78774802
_cell_length_b   9.81420112
_cell_length_c   9.83365500
_cell_angle_alpha   59.93436472
_cell_angle_beta   59.84467915
_cell_angle_gamma   59.99344558
_symmetry_Int_Tables_number   1
_chemical_formula_structural   Y13Th3Mg2(InIr2)2
_chemical_formula_sum   'Y13 Th3 Mg2 In2 Ir4'
_cell_volume   666.78909180
_cell_formula_units_Z   1
loop_
 _symmetry_equiv_pos_site_id
 _symmetry_equiv_pos_as_xyz
  1  'x, y, z'
loop_
 _atom_site_type_symbol
 _atom_site_label
 _atom_site_symmetry_multiplicity
 _atom_site_fract_x
 _atom_site_fract_y
 _atom_site_fract_z
 _atom_site_occupancy
  Y  Y0  1  0.200191  0.601581  0.599115  1
  Y  Y1  1  0.060494  0.439203  0.440779  1
  Y  Y2  1  0.438453  0.061289  0.061640  1
  Y  Y3  1  0.438453  0.061290  0.438619  1
  Y  Y4  1  0.060494  0.439203  0.059524  1
  Y  Y5  1  0.437420  0.437231  0.062674  1
  Y  Y6  1  0.059571  0.057399  0.441515  1
  Y  Y7  1  0.187315  0.814188  0.813500  1
  Y  Y8  1  0.813440  0.187613  0.185649  1
  Y  Y9  1  0.813439  0.187615  0.813296  1
  Y  Y10  1  0.187316  0.814186  0.184998  1
  Y  Y11  1  0.812534  0.814364  0.186551  1
  Y  Y12  1  0.187821  0.186199  0.812989  1
  Th  Th13  1  0.594620  0.597831  0.597701  1
  Th  Th14  1  0.594621  0.597829  0.209851  1
  Th  Th15  1  0.596611  0.204523  0.599433  1
  Mg  Mg16  1  0.829583  0.514280  0.828068  1
  Mg  Mg17  1  0.513126  0.828437  0.829219  1
  In  In18  1  0.834382  0.831815  0.833950  1
  In  In19  1  0.834382  0.831815  0.499853  1
  Ir  Ir20  1  0.395326  0.388729  0.393022  1
  Ir  Ir21  1  0.395326  0.388729  0.822923  1
  Ir  Ir22  1  0.396214  0.822235  0.390777  1
  Ir  Ir23  1  0.818869  0.392420  0.394357  1
