# generated using pymatgen
data_Pa9Si16W11
_symmetry_space_group_name_H-M   'P 1'
_cell_length_a   6.97073336
_cell_length_b   6.96408301
_cell_length_c   12.97132920
_cell_angle_alpha   90.12318219
_cell_angle_beta   89.37507151
_cell_angle_gamma   90.07156564
_symmetry_Int_Tables_number   1
_chemical_formula_structural   Pa9Si16W11
_chemical_formula_sum   'Pa9 Si16 W11'
_cell_volume   629.65075450
_cell_formula_units_Z   1
loop_
 _symmetry_equiv_pos_site_id
 _symmetry_equiv_pos_as_xyz
  1  'x, y, z'
loop_
 _atom_site_type_symbol
 _atom_site_label
 _atom_site_symmetry_multiplicity
 _atom_site_fract_x
 _atom_site_fract_y
 _atom_site_fract_z
 _atom_site_occupancy
  Pa  Pa0  1  0.176361  0.983652  0.868925  1
  Pa  Pa1  1  0.005881  0.673292  0.029684  1
  Pa  Pa2  1  0.988578  0.341971  0.524664  1
  Pa  Pa3  1  0.666134  0.001525  0.969682  1
  Pa  Pa4  1  0.166837  0.498261  0.778908  1
  Pa  Pa5  1  0.837800  0.505810  0.279269  1
  Pa  Pa6  1  0.499986  0.165719  0.225599  1
  Pa  Pa7  1  0.485308  0.841637  0.722647  1
  Pa  Pa8  1  0.335702  0.994546  0.468259  1
  Si  Si9  1  0.025550  0.722992  0.435031  1
  Si  Si10  1  0.964303  0.296580  0.937663  1
  Si  Si11  1  0.714692  0.030034  0.564227  1
  Si  Si12  1  0.219727  0.470366  0.185495  1
  Si  Si13  1  0.776743  0.533279  0.686262  1
  Si  Si14  1  0.486810  0.230478  0.813042  1
  Si  Si15  1  0.530535  0.778431  0.314830  1
  Si  Si16  1  0.291788  0.962864  0.076020  1
  Si  Si17  1  0.859600  0.790486  0.811018  1
  Si  Si18  1  0.118258  0.199535  0.316147  1
  Si  Si19  1  0.802141  0.884734  0.183185  1
  Si  Si20  1  0.296480  0.618560  0.566556  1
  Si  Si21  1  0.707393  0.374280  0.069518  1
  Si  Si22  1  0.616148  0.302836  0.431999  1
  Si  Si23  1  0.389187  0.678096  0.939182  1
  Si  Si24  1  0.192945  0.125893  0.668229  1
  W  W25  1  0.321749  0.488343  0.379474  1
  W  W26  1  0.822358  0.013756  0.370108  1
  W  W27  1  0.994209  0.175690  0.126889  1
  W  W28  1  0.006780  0.824254  0.626755  1
  W  W29  1  0.679452  0.504376  0.883614  1
  W  W30  1  0.490952  0.325647  0.618705  1
  W  W31  1  0.522366  0.664047  0.124348  1
  W  W32  1  0.659713  0.669672  0.500715  1
  W  W33  1  0.836188  0.170698  0.747074  1
  W  W34  1  0.168966  0.833507  0.252677  1
  W  W35  1  0.342379  0.324148  0.003599  1
