# generated using pymatgen
data_TbPr5(Tm2Pb3)2
_symmetry_space_group_name_H-M   'P 1'
_cell_length_a   9.24315891
_cell_length_b   9.24315856
_cell_length_c   6.74010400
_cell_angle_alpha   90.00000000
_cell_angle_beta   90.00000000
_cell_angle_gamma   119.78568541
_symmetry_Int_Tables_number   1
_chemical_formula_structural   TbPr5(Tm2Pb3)2
_chemical_formula_sum   'Tb1 Pr5 Tm4 Pb6'
_cell_volume   499.77197454
_cell_formula_units_Z   1
loop_
 _symmetry_equiv_pos_site_id
 _symmetry_equiv_pos_as_xyz
  1  'x, y, z'
loop_
 _atom_site_type_symbol
 _atom_site_label
 _atom_site_symmetry_multiplicity
 _atom_site_fract_x
 _atom_site_fract_y
 _atom_site_fract_z
 _atom_site_occupancy
  Tb  Tb0  1  0.758350  0.758350  0.750000  1
  Pr  Pr1  1  0.239352  0.000097  0.750000  1
  Pr  Pr2  1  0.000097  0.239352  0.750000  1
  Pr  Pr3  1  0.242478  0.242478  0.250000  1
  Pr  Pr4  1  0.760721  0.998670  0.250000  1
  Pr  Pr5  1  0.998670  0.760721  0.250000  1
  Tm  Tm6  1  0.666804  0.333418  0.999516  1
  Tm  Tm7  1  0.333418  0.666804  0.999516  1
  Tm  Tm8  1  0.333418  0.666804  0.500484  1
  Tm  Tm9  1  0.666804  0.333418  0.500484  1
  Pb  Pb10  1  0.403078  0.403078  0.750000  1
  Pb  Pb11  1  0.602066  0.996197  0.750000  1
  Pb  Pb12  1  0.996197  0.602066  0.750000  1
  Pb  Pb13  1  0.600135  0.600135  0.250000  1
  Pb  Pb14  1  0.399098  0.999315  0.250000  1
  Pb  Pb15  1  0.999315  0.399098  0.250000  1
