# generated using pymatgen
data_Ba4Li3AlSi7Ge
_symmetry_space_group_name_H-M   'P 1'
_cell_length_a   4.56592800
_cell_length_b   7.36072966
_cell_length_c   11.55446379
_cell_angle_alpha   88.83025623
_cell_angle_beta   90.00000000
_cell_angle_gamma   90.00000000
_symmetry_Int_Tables_number   1
_chemical_formula_structural   Ba4Li3AlSi7Ge
_chemical_formula_sum   'Ba4 Li3 Al1 Si7 Ge1'
_cell_volume   388.24798213
_cell_formula_units_Z   1
loop_
 _symmetry_equiv_pos_site_id
 _symmetry_equiv_pos_as_xyz
  1  'x, y, z'
loop_
 _atom_site_type_symbol
 _atom_site_label
 _atom_site_symmetry_multiplicity
 _atom_site_fract_x
 _atom_site_fract_y
 _atom_site_fract_z
 _atom_site_occupancy
  Ba  Ba0  1  0.250000  0.132238  0.141711  1
  Ba  Ba1  1  0.750000  0.865153  0.865316  1
  Ba  Ba2  1  0.250000  0.628938  0.362137  1
  Ba  Ba3  1  0.750000  0.369603  0.636087  1
  Li  Li4  1  0.250000  0.120403  0.434152  1
  Li  Li5  1  0.250000  0.615447  0.064901  1
  Li  Li6  1  0.750000  0.386683  0.935273  1
  Al  Al7  1  0.750000  0.883664  0.560898  1
  Si  Si8  1  0.750000  0.466644  0.163824  1
  Si  Si9  1  0.250000  0.536657  0.834282  1
  Si  Si10  1  0.750000  0.969424  0.341291  1
  Si  Si11  1  0.250000  0.032817  0.655171  1
  Si  Si12  1  0.750000  0.293245  0.343875  1
  Si  Si13  1  0.250000  0.705648  0.651521  1
  Si  Si14  1  0.750000  0.789092  0.165641  1
  Ge  Ge15  1  0.250000  0.204344  0.843919  1
