# generated using pymatgen
data_Na5As12Rh19
_symmetry_space_group_name_H-M   'P 1'
_cell_length_a   13.13348600
_cell_length_b   13.13348642
_cell_length_c   3.98197900
_cell_angle_alpha   90.00000000
_cell_angle_beta   90.00000000
_cell_angle_gamma   119.99999894
_symmetry_Int_Tables_number   1
_chemical_formula_structural   Na5As12Rh19
_chemical_formula_sum   'Na5 As12 Rh19'
_cell_volume   594.82559330
_cell_formula_units_Z   1
loop_
 _symmetry_equiv_pos_site_id
 _symmetry_equiv_pos_as_xyz
  1  'x, y, z'
loop_
 _atom_site_type_symbol
 _atom_site_label
 _atom_site_symmetry_multiplicity
 _atom_site_fract_x
 _atom_site_fract_y
 _atom_site_fract_z
 _atom_site_occupancy
  Na  Na0  1  0.000000  0.182847  0.500000  1
  Na  Na1  1  0.817153  0.817153  0.500000  1
  Na  Na2  1  0.182847  0.000000  0.500000  1
  Na  Na3  1  0.666667  0.333333  0.000000  1
  Na  Na4  1  0.333333  0.666667  0.000000  1
  As  As5  1  0.484065  0.316959  0.500000  1
  As  As6  1  0.820852  0.000000  0.000000  1
  As  As7  1  0.179148  0.179148  0.000000  1
  As  As8  1  0.000000  0.820852  0.000000  1
  As  As9  1  0.364769  0.000000  0.000000  1
  As  As10  1  0.683041  0.167106  0.500000  1
  As  As11  1  0.832894  0.515935  0.500000  1
  As  As12  1  0.515935  0.832894  0.500000  1
  As  As13  1  0.167106  0.683041  0.500000  1
  As  As14  1  0.316959  0.484065  0.500000  1
  As  As15  1  0.000000  0.364769  0.000000  1
  As  As16  1  0.635231  0.635231  0.000000  1
  Rh  Rh17  1  0.803775  0.180197  0.000000  1
  Rh  Rh18  1  0.376421  0.196225  0.000000  1
  Rh  Rh19  1  0.643646  0.517084  0.500000  1
  Rh  Rh20  1  0.873438  0.356354  0.500000  1
  Rh  Rh21  1  0.356354  0.873438  0.500000  1
  Rh  Rh22  1  0.517084  0.643646  0.500000  1
  Rh  Rh23  1  0.126562  0.482916  0.500000  1
  Rh  Rh24  1  0.819803  0.623579  0.000000  1
  Rh  Rh25  1  0.623579  0.819803  0.000000  1
  Rh  Rh26  1  0.180197  0.803775  0.000000  1
  Rh  Rh27  1  0.196225  0.376421  0.000000  1
  Rh  Rh28  1  0.000000  0.714426  0.500000  1
  Rh  Rh29  1  0.285574  0.285574  0.500000  1
  Rh  Rh30  1  0.714426  0.000000  0.500000  1
  Rh  Rh31  1  0.000000  0.548677  0.000000  1
  Rh  Rh32  1  0.451323  0.451323  0.000000  1
  Rh  Rh33  1  0.548677  0.000000  0.000000  1
  Rh  Rh34  1  0.000000  0.000000  0.000000  1
  Rh  Rh35  1  0.482916  0.126562  0.500000  1
