# generated using pymatgen
data_Ce3Er3Al17Si7Os8
_symmetry_space_group_name_H-M   'P 1'
_cell_length_a   8.74252101
_cell_length_b   8.73242120
_cell_length_c   9.48002400
_cell_angle_alpha   90.00000000
_cell_angle_beta   90.00000000
_cell_angle_gamma   120.08345107
_symmetry_Int_Tables_number   1
_chemical_formula_structural   Ce3Er3Al17Si7Os8
_chemical_formula_sum   'Ce3 Er3 Al17 Si7 Os8'
_cell_volume   626.24693293
_cell_formula_units_Z   1
loop_
 _symmetry_equiv_pos_site_id
 _symmetry_equiv_pos_as_xyz
  1  'x, y, z'
loop_
 _atom_site_type_symbol
 _atom_site_label
 _atom_site_symmetry_multiplicity
 _atom_site_fract_x
 _atom_site_fract_y
 _atom_site_fract_z
 _atom_site_occupancy
  Ce  Ce0  1  0.807248  0.615274  0.750000  1
  Ce  Ce1  1  0.385873  0.191426  0.750000  1
  Ce  Ce2  1  0.804225  0.191849  0.750000  1
  Er  Er3  1  0.194152  0.389980  0.250000  1
  Er  Er4  1  0.609292  0.805864  0.250000  1
  Er  Er5  1  0.197099  0.804145  0.250000  1
  Al  Al6  1  0.164415  0.330246  0.574702  1
  Al  Al7  1  0.835279  0.672633  0.417865  1
  Al  Al8  1  0.670887  0.835081  0.573765  1
  Al  Al9  1  0.835279  0.672633  0.082135  1
  Al  Al10  1  0.327307  0.164338  0.418746  1
  Al  Al11  1  0.164415  0.330246  0.925298  1
  Al  Al12  1  0.163673  0.834456  0.572532  1
  Al  Al13  1  0.327307  0.164338  0.081254  1
  Al  Al14  1  0.836402  0.163162  0.418429  1
  Al  Al15  1  0.670887  0.835081  0.926235  1
  Al  Al16  1  0.836402  0.163162  0.081571  1
  Al  Al17  1  0.163673  0.834456  0.927468  1
  Al  Al18  1  0.129162  0.568274  0.750000  1
  Al  Al19  1  0.564217  0.435249  0.250000  1
  Al  Al20  1  0.437536  0.569138  0.750000  1
  Al  Al21  1  0.999933  0.998522  0.250000  1
  Al  Al22  1  0.999209  0.001157  0.750000  1
  Si  Si23  1  0.333576  0.664389  0.042135  1
  Si  Si24  1  0.666472  0.335389  0.964844  1
  Si  Si25  1  0.666472  0.335389  0.535156  1
  Si  Si26  1  0.333576  0.664389  0.457865  1
  Si  Si27  1  0.563506  0.122418  0.250000  1
  Si  Si28  1  0.435255  0.871135  0.750000  1
  Si  Si29  1  0.876922  0.436473  0.250000  1
  Os  Os30  1  0.500417  0.999973  0.002736  1
  Os  Os31  1  0.999197  0.499508  0.007532  1
  Os  Os32  1  0.500417  0.999973  0.497264  1
  Os  Os33  1  0.500341  0.500084  0.000999  1
  Os  Os34  1  0.999197  0.499508  0.492468  1
  Os  Os35  1  0.500341  0.500084  0.499001  1
  Os  Os36  1  0.000217  0.000288  0.000540  1
  Os  Os37  1  0.000217  0.000288  0.499460  1
