# generated using pymatgen
data_Rb3CoGe2O7
_symmetry_space_group_name_H-M   'P 1'
_cell_length_a   9.68343440
_cell_length_b   9.68343454
_cell_length_c   7.79959094
_cell_angle_alpha   72.66389022
_cell_angle_beta   72.66388692
_cell_angle_gamma   121.04829963
_symmetry_Int_Tables_number   1
_chemical_formula_structural   Rb3CoGe2O7
_chemical_formula_sum   'Rb6 Co2 Ge4 O14'
_cell_volume   498.62509733
_cell_formula_units_Z   2
loop_
 _symmetry_equiv_pos_site_id
 _symmetry_equiv_pos_as_xyz
  1  'x, y, z'
loop_
 _atom_site_type_symbol
 _atom_site_label
 _atom_site_symmetry_multiplicity
 _atom_site_fract_x
 _atom_site_fract_y
 _atom_site_fract_z
 _atom_site_occupancy
  Rb  Rb0  1  0.585732  0.974788  0.745058  1
  Rb  Rb1  1  0.007507  0.992493  0.750000  1
  Rb  Rb2  1  0.974788  0.585732  0.245058  1
  Rb  Rb3  1  0.992493  0.007507  0.250000  1
  Rb  Rb4  1  0.025212  0.414268  0.754942  1
  Rb  Rb5  1  0.414268  0.025212  0.254942  1
  Co  Co6  1  0.438300  0.561700  0.750000  1
  Co  Co7  1  0.561700  0.438300  0.250000  1
  Ge  Ge8  1  0.774796  0.573531  0.750141  1
  Ge  Ge9  1  0.426469  0.225204  0.749859  1
  Ge  Ge10  1  0.573531  0.774796  0.250141  1
  Ge  Ge11  1  0.225204  0.426469  0.249859  1
  O  O12  1  0.673674  0.685193  0.727937  1
  O  O13  1  0.685193  0.673674  0.227937  1
  O  O14  1  0.515482  0.258969  0.490117  1
  O  O15  1  0.314807  0.326326  0.772063  1
  O  O16  1  0.985337  0.266664  0.457522  1
  O  O17  1  0.484518  0.741031  0.509883  1
  O  O18  1  0.266664  0.985337  0.957522  1
  O  O19  1  0.258969  0.515482  0.990117  1
  O  O20  1  0.355599  0.644401  0.250000  1
  O  O21  1  0.326326  0.314807  0.272063  1
  O  O22  1  0.733336  0.014663  0.042478  1
  O  O23  1  0.644401  0.355599  0.750000  1
  O  O24  1  0.014663  0.733336  0.542478  1
  O  O25  1  0.741031  0.484518  0.009883  1
