# generated using pymatgen
data_Ce3Zn2Pd2PtAu
_symmetry_space_group_name_H-M   'P 1'
_cell_length_a   7.44714607
_cell_length_b   7.64157975
_cell_length_c   3.89384600
_cell_angle_alpha   90.00000000
_cell_angle_beta   90.00000000
_cell_angle_gamma   120.78373511
_symmetry_Int_Tables_number   1
_chemical_formula_structural   Ce3Zn2Pd2PtAu
_chemical_formula_sum   'Ce3 Zn2 Pd2 Pt1 Au1'
_cell_volume   190.36984267
_cell_formula_units_Z   1
loop_
 _symmetry_equiv_pos_site_id
 _symmetry_equiv_pos_as_xyz
  1  'x, y, z'
loop_
 _atom_site_type_symbol
 _atom_site_label
 _atom_site_symmetry_multiplicity
 _atom_site_fract_x
 _atom_site_fract_y
 _atom_site_fract_z
 _atom_site_occupancy
  Ce  Ce0  1  0.996980  0.406630  0.000000  1
  Ce  Ce1  1  0.604851  0.595933  0.000000  1
  Ce  Ce2  1  0.398258  0.997864  0.000000  1
  Zn  Zn3  1  0.253446  0.254133  0.500000  1
  Zn  Zn4  1  0.745729  0.999198  0.500000  1
  Pd  Pd5  1  0.999775  0.027047  0.000000  1
  Pd  Pd6  1  0.345583  0.659512  0.500000  1
  Pt  Pt7  1  0.653352  0.312983  0.500000  1
  Au  Au8  1  0.002026  0.746701  0.500000  1
