# generated using pymatgen
data_CaTm7(B6Ru)4
_symmetry_space_group_name_H-M   'P 1'
_cell_length_a   3.62136100
_cell_length_b   9.07928164
_cell_length_c   11.46205433
_cell_angle_alpha   89.91261615
_cell_angle_beta   90.00000000
_cell_angle_gamma   90.00000000
_symmetry_Int_Tables_number   1
_chemical_formula_structural   CaTm7(B6Ru)4
_chemical_formula_sum   'Ca1 Tm7 B24 Ru4'
_cell_volume   376.86453162
_cell_formula_units_Z   1
loop_
 _symmetry_equiv_pos_site_id
 _symmetry_equiv_pos_as_xyz
  1  'x, y, z'
loop_
 _atom_site_type_symbol
 _atom_site_label
 _atom_site_symmetry_multiplicity
 _atom_site_fract_x
 _atom_site_fract_y
 _atom_site_fract_z
 _atom_site_occupancy
  Ca  Ca0  1  0.000000  0.322412  0.413884  1
  Tm  Tm1  1  0.000000  0.676340  0.584986  1
  Tm  Tm2  1  0.000000  0.822239  0.086253  1
  Tm  Tm3  1  0.000000  0.178323  0.914648  1
  Tm  Tm4  1  0.000000  0.943881  0.371220  1
  Tm  Tm5  1  0.000000  0.057507  0.628272  1
  Tm  Tm6  1  0.000000  0.443182  0.129086  1
  Tm  Tm7  1  0.000000  0.556173  0.872409  1
  B  B8  1  0.500000  0.554906  0.433038  1
  B  B9  1  0.500000  0.446600  0.567816  1
  B  B10  1  0.500000  0.053011  0.065865  1
  B  B11  1  0.500000  0.945975  0.933034  1
  B  B12  1  0.500000  0.749055  0.419615  1
  B  B13  1  0.500000  0.251436  0.581686  1
  B  B14  1  0.500000  0.248092  0.079755  1
  B  B15  1  0.500000  0.751309  0.920001  1
  B  B16  1  0.500000  0.792360  0.265474  1
  B  B17  1  0.500000  0.208753  0.735030  1
  B  B18  1  0.500000  0.290245  0.233027  1
  B  B19  1  0.500000  0.708635  0.765977  1
  B  B20  1  0.500000  0.632152  0.184989  1
  B  B21  1  0.500000  0.368714  0.815945  1
  B  B22  1  0.500000  0.130286  0.313832  1
  B  B23  1  0.500000  0.868544  0.684761  1
  B  B24  1  0.500000  0.982258  0.211700  1
  B  B25  1  0.500000  0.017289  0.787345  1
  B  B26  1  0.500000  0.483945  0.287023  1
  B  B27  1  0.500000  0.517483  0.713120  1
  B  B28  1  0.500000  0.607157  0.029657  1
  B  B29  1  0.500000  0.393209  0.970816  1
  B  B30  1  0.500000  0.102567  0.471615  1
  B  B31  1  0.500000  0.895074  0.529013  1
  Ru  Ru32  1  0.000000  0.640553  0.319891  1
  Ru  Ru33  1  0.000000  0.361970  0.681276  1
  Ru  Ru34  1  0.000000  0.136211  0.176969  1
  Ru  Ru35  1  0.000000  0.862154  0.820972  1
