# generated using pymatgen
data_SmLu3(Ga8Pd3)3
_symmetry_space_group_name_H-M   'P 1'
_cell_length_a   7.51600909
_cell_length_b   7.58270394
_cell_length_c   13.45225500
_cell_angle_alpha   84.85932281
_cell_angle_beta   79.76432587
_cell_angle_gamma   60.22787956
_symmetry_Int_Tables_number   1
_chemical_formula_structural   SmLu3(Ga8Pd3)3
_chemical_formula_sum   'Sm1 Lu3 Ga24 Pd9'
_cell_volume   654.88030397
_cell_formula_units_Z   1
loop_
 _symmetry_equiv_pos_site_id
 _symmetry_equiv_pos_as_xyz
  1  'x, y, z'
loop_
 _atom_site_type_symbol
 _atom_site_label
 _atom_site_symmetry_multiplicity
 _atom_site_fract_x
 _atom_site_fract_y
 _atom_site_fract_z
 _atom_site_occupancy
  Sm  Sm0  1  0.392773  0.168337  0.812609  1
  Lu  Lu1  1  0.605657  0.831200  0.189546  1
  Lu  Lu2  1  0.731609  0.496057  0.811172  1
  Lu  Lu3  1  0.268514  0.504335  0.189609  1
  Ga  Ga4  1  0.687365  0.830446  0.941006  1
  Ga  Ga5  1  0.315107  0.166819  0.064102  1
  Ga  Ga6  1  0.142285  0.835818  0.557326  1
  Ga  Ga7  1  0.858535  0.164057  0.441037  1
  Ga  Ga8  1  0.476815  0.167137  0.555367  1
  Ga  Ga9  1  0.524076  0.832484  0.443267  1
  Ga  Ga10  1  0.225612  0.165291  0.321770  1
  Ga  Ga11  1  0.776992  0.833393  0.675188  1
  Ga  Ga12  1  0.435112  0.504346  0.673381  1
  Ga  Ga13  1  0.565675  0.496676  0.323672  1
  Ga  Ga14  1  0.103813  0.163257  0.673463  1
  Ga  Ga15  1  0.895822  0.836619  0.323123  1
  Ga  Ga16  1  0.356778  0.500729  0.942127  1
  Ga  Ga17  1  0.642036  0.502867  0.060685  1
  Ga  Ga18  1  0.015877  0.168786  0.945974  1
  Ga  Ga19  1  0.979462  0.830072  0.058365  1
  Ga  Ga20  1  0.189027  0.500514  0.442659  1
  Ga  Ga21  1  0.810975  0.499437  0.556279  1
  Ga  Ga22  1  0.731967  0.166211  0.181733  1
  Ga  Ga23  1  0.268607  0.829981  0.818316  1
  Ga  Ga24  1  0.056547  0.631134  0.817134  1
  Ga  Ga25  1  0.938803  0.372534  0.182928  1
  Ga  Ga26  1  0.858556  0.040945  0.816938  1
  Ga  Ga27  1  0.143518  0.961160  0.183198  1
  Pd  Pd28  1  0.113457  0.497320  0.638391  1
  Pd  Pd29  1  0.886957  0.503212  0.360089  1
  Pd  Pd30  1  0.660055  0.168403  0.999539  1
  Pd  Pd31  1  0.338281  0.832897  0.002386  1
  Pd  Pd32  1  0.545523  0.166630  0.359551  1
  Pd  Pd33  1  0.455151  0.832576  0.639125  1
  Pd  Pd34  1  0.776571  0.171393  0.638015  1
  Pd  Pd35  1  0.224397  0.828260  0.360189  1
  Pd  Pd36  1  0.001694  0.498663  0.000740  1
