# generated using pymatgen
data_TbHoSb4(ClO4)2
_symmetry_space_group_name_H-M   'P 1'
_cell_length_a   5.58545900
_cell_length_b   5.55792310
_cell_length_c   8.88166847
_cell_angle_alpha   88.22588479
_cell_angle_beta   90.00000000
_cell_angle_gamma   90.00000000
_symmetry_Int_Tables_number   1
_chemical_formula_structural   TbHoSb4(ClO4)2
_chemical_formula_sum   'Tb1 Ho1 Sb4 Cl2 O8'
_cell_volume   275.58636773
_cell_formula_units_Z   1
loop_
 _symmetry_equiv_pos_site_id
 _symmetry_equiv_pos_as_xyz
  1  'x, y, z'
loop_
 _atom_site_type_symbol
 _atom_site_label
 _atom_site_symmetry_multiplicity
 _atom_site_fract_x
 _atom_site_fract_y
 _atom_site_fract_z
 _atom_site_occupancy
  Tb  Tb0  1  0.778497  0.750000  0.500000  1
  Ho  Ho1  1  0.217684  0.250000  0.500000  1
  Sb  Sb2  1  0.700635  0.298735  0.786202  1
  Sb  Sb3  1  0.700635  0.201265  0.213798  1
  Sb  Sb4  1  0.299245  0.700482  0.213849  1
  Sb  Sb5  1  0.299245  0.799518  0.786151  1
  Cl  Cl6  1  0.764442  0.750000  0.000000  1
  Cl  Cl7  1  0.237566  0.250000  0.000000  1
  O  O8  1  0.069499  0.923120  0.636072  1
  O  O9  1  0.069499  0.576880  0.363928  1
  O  O10  1  0.932293  0.079784  0.363511  1
  O  O11  1  0.932293  0.420216  0.636489  1
  O  O12  1  0.466904  0.533985  0.664325  1
  O  O13  1  0.532329  0.464956  0.335947  1
  O  O14  1  0.466904  0.966015  0.335675  1
  O  O15  1  0.532329  0.035044  0.664053  1
