# generated using pymatgen
data_K2W3SeO12
_symmetry_space_group_name_H-M   'P 1'
_cell_length_a   7.35881600
_cell_length_b   7.35881585
_cell_length_c   12.24797500
_cell_angle_alpha   90.00000000
_cell_angle_beta   90.00000000
_cell_angle_gamma   119.99999169
_symmetry_Int_Tables_number   1
_chemical_formula_structural   K2W3SeO12
_chemical_formula_sum   'K4 W6 Se2 O24'
_cell_volume   574.39524791
_cell_formula_units_Z   2
loop_
 _symmetry_equiv_pos_site_id
 _symmetry_equiv_pos_as_xyz
  1  'x, y, z'
loop_
 _atom_site_type_symbol
 _atom_site_label
 _atom_site_symmetry_multiplicity
 _atom_site_fract_x
 _atom_site_fract_y
 _atom_site_fract_z
 _atom_site_occupancy
  K  K0  1  0.666667  0.333333  0.540907  1
  K  K1  1  0.333333  0.666667  0.040907  1
  K  K2  1  0.666667  0.333333  0.941343  1
  K  K3  1  0.333333  0.666667  0.441343  1
  W  W4  1  0.661083  0.828286  0.763443  1
  W  W5  1  0.167202  0.338917  0.763443  1
  W  W6  1  0.338917  0.171714  0.263443  1
  W  W7  1  0.171714  0.832798  0.763443  1
  W  W8  1  0.832798  0.661083  0.263443  1
  W  W9  1  0.828286  0.167202  0.263443  1
  Se  Se10  1  0.000000  0.000000  0.995361  1
  Se  Se11  1  0.000000  0.000000  0.495361  1
  O  O12  1  0.751203  0.872120  0.935254  1
  O  O13  1  0.120917  0.248797  0.935254  1
  O  O14  1  0.248797  0.127880  0.435254  1
  O  O15  1  0.127880  0.879083  0.935254  1
  O  O16  1  0.879083  0.751203  0.435254  1
  O  O17  1  0.872120  0.120917  0.435254  1
  O  O18  1  0.455675  0.542072  0.809427  1
  O  O19  1  0.086397  0.544325  0.809427  1
  O  O20  1  0.544325  0.457928  0.309427  1
  O  O21  1  0.457928  0.913603  0.809427  1
  O  O22  1  0.913603  0.455675  0.309427  1
  O  O23  1  0.542072  0.086397  0.309427  1
  O  O24  1  0.596278  0.795114  0.622865  1
  O  O25  1  0.198836  0.403722  0.622865  1
  O  O26  1  0.403722  0.204886  0.122865  1
  O  O27  1  0.204886  0.801164  0.622865  1
  O  O28  1  0.801164  0.596278  0.122865  1
  O  O29  1  0.795114  0.198836  0.122865  1
  O  O30  1  0.873722  0.123765  0.751107  1
  O  O31  1  0.250043  0.126278  0.751107  1
  O  O32  1  0.126278  0.876235  0.251107  1
  O  O33  1  0.876235  0.749957  0.751107  1
  O  O34  1  0.749957  0.873722  0.251107  1
  O  O35  1  0.123765  0.250043  0.251107  1
