# generated using pymatgen
data_Y2Th12(FeCo)3
_symmetry_space_group_name_H-M   'P 1'
_cell_length_a   9.74880129
_cell_length_b   9.74880077
_cell_length_c   6.18566849
_cell_angle_alpha   89.89427688
_cell_angle_beta   90.10572625
_cell_angle_gamma   120.11742067
_symmetry_Int_Tables_number   1
_chemical_formula_structural   Y2Th12(FeCo)3
_chemical_formula_sum   'Y2 Th12 Fe3 Co3'
_cell_volume   508.51483010
_cell_formula_units_Z   1
loop_
 _symmetry_equiv_pos_site_id
 _symmetry_equiv_pos_as_xyz
  1  'x, y, z'
loop_
 _atom_site_type_symbol
 _atom_site_label
 _atom_site_symmetry_multiplicity
 _atom_site_fract_x
 _atom_site_fract_y
 _atom_site_fract_z
 _atom_site_occupancy
  Y  Y0  1  0.333040  0.666960  0.046008  1
  Y  Y1  1  0.666416  0.333584  0.547836  1
  Th  Th2  1  0.127390  0.872610  0.242943  1
  Th  Th3  1  0.251992  0.128527  0.743797  1
  Th  Th4  1  0.871473  0.748008  0.743797  1
  Th  Th5  1  0.123491  0.251474  0.242488  1
  Th  Th6  1  0.748526  0.876509  0.242488  1
  Th  Th7  1  0.875280  0.124720  0.742758  1
  Th  Th8  1  0.540763  0.459237  0.071025  1
  Th  Th9  1  0.083351  0.539504  0.570288  1
  Th  Th10  1  0.460496  0.916649  0.570288  1
  Th  Th11  1  0.544119  0.083401  0.069843  1
  Th  Th12  1  0.916599  0.455881  0.069843  1
  Th  Th13  1  0.457242  0.542758  0.570772  1
  Fe  Fe14  1  0.819032  0.180968  0.276413  1
  Fe  Fe15  1  0.638631  0.819322  0.778966  1
  Fe  Fe16  1  0.180678  0.361369  0.778966  1
  Co  Co17  1  0.818706  0.637771  0.283117  1
  Co  Co18  1  0.362229  0.181294  0.283117  1
  Co  Co19  1  0.180547  0.819453  0.785245  1
