# generated using pymatgen
data_Mn4VSi6Tc5
_symmetry_space_group_name_H-M   'P 1'
_cell_length_a   6.96700145
_cell_length_b   6.95921167
_cell_length_c   4.82790900
_cell_angle_alpha   90.00000000
_cell_angle_beta   90.00000000
_cell_angle_gamma   119.96301879
_symmetry_Int_Tables_number   1
_chemical_formula_structural   Mn4VSi6Tc5
_chemical_formula_sum   'Mn4 V1 Si6 Tc5'
_cell_volume   202.79506039
_cell_formula_units_Z   1
loop_
 _symmetry_equiv_pos_site_id
 _symmetry_equiv_pos_as_xyz
  1  'x, y, z'
loop_
 _atom_site_type_symbol
 _atom_site_label
 _atom_site_symmetry_multiplicity
 _atom_site_fract_x
 _atom_site_fract_y
 _atom_site_fract_z
 _atom_site_occupancy
  Mn  Mn0  1  0.331020  0.667586  0.500950  1
  Mn  Mn1  1  0.668980  0.336565  0.999050  1
  Mn  Mn2  1  0.668980  0.336565  0.500950  1
  Mn  Mn3  1  0.331020  0.667586  0.999050  1
  V  V4  1  0.000000  0.762011  0.750000  1
  Si  Si5  1  0.402567  0.000574  0.750000  1
  Si  Si6  1  0.400623  0.400538  0.250000  1
  Si  Si7  1  0.000000  0.597228  0.250000  1
  Si  Si8  1  0.000000  0.401533  0.750000  1
  Si  Si9  1  0.597433  0.598008  0.750000  1
  Si  Si10  1  0.599377  0.999915  0.250000  1
  Tc  Tc11  1  0.000000  0.239604  0.250000  1
  Tc  Tc12  1  0.757071  0.754239  0.250000  1
  Tc  Tc13  1  0.756901  0.998891  0.750000  1
  Tc  Tc14  1  0.243099  0.241990  0.750000  1
  Tc  Tc15  1  0.242929  0.997168  0.250000  1
