# generated using pymatgen
data_DyYHo2(Ga3Ir)6
_symmetry_space_group_name_H-M   'P 1'
_cell_length_a   7.59226591
_cell_length_b   7.59480826
_cell_length_c   9.49485100
_cell_angle_alpha   90.00008712
_cell_angle_beta   89.99999996
_cell_angle_gamma   119.93117253
_symmetry_Int_Tables_number   1
_chemical_formula_structural   DyYHo2(Ga3Ir)6
_chemical_formula_sum   'Dy1 Y1 Ho2 Ga18 Ir6'
_cell_volume   474.46895135
_cell_formula_units_Z   1
loop_
 _symmetry_equiv_pos_site_id
 _symmetry_equiv_pos_as_xyz
  1  'x, y, z'
loop_
 _atom_site_type_symbol
 _atom_site_label
 _atom_site_symmetry_multiplicity
 _atom_site_fract_x
 _atom_site_fract_y
 _atom_site_fract_z
 _atom_site_occupancy
  Dy  Dy0  1  0.997422  0.668485  0.250001  1
  Y  Y1  1  0.002646  0.331526  0.749999  1
  Ho  Ho2  1  0.668518  0.997507  0.250001  1
  Ho  Ho3  1  0.331477  0.002461  0.749999  1
  Ga  Ga4  1  0.127160  0.127321  0.250000  1
  Ga  Ga5  1  0.872843  0.872533  0.750000  1
  Ga  Ga6  1  0.999180  0.333965  0.080646  1
  Ga  Ga7  1  0.000811  0.666162  0.919575  1
  Ga  Ga8  1  0.000808  0.666161  0.580427  1
  Ga  Ga9  1  0.334540  0.999412  0.419741  1
  Ga  Ga10  1  0.999183  0.333967  0.419352  1
  Ga  Ga11  1  0.665347  0.000468  0.580148  1
  Ga  Ga12  1  0.665348  0.000471  0.919854  1
  Ga  Ga13  1  0.334537  0.999410  0.080257  1
  Ga  Ga14  1  0.332525  0.332170  0.563941  1
  Ga  Ga15  1  0.667577  0.667828  0.435919  1
  Ga  Ga16  1  0.667574  0.667827  0.064078  1
  Ga  Ga17  1  0.332528  0.332172  0.936061  1
  Ga  Ga18  1  0.339619  0.546871  0.250000  1
  Ga  Ga19  1  0.660254  0.453103  0.750000  1
  Ga  Ga20  1  0.546404  0.338889  0.250001  1
  Ga  Ga21  1  0.453790  0.661323  0.749999  1
  Ir  Ir22  1  0.671515  0.328512  0.000061  1
  Ir  Ir23  1  0.328471  0.671536  0.000065  1
  Ir  Ir24  1  0.328471  0.671538  0.499934  1
  Ir  Ir25  1  0.671516  0.328510  0.499939  1
  Ir  Ir26  1  0.999968  0.999935  0.000083  1
  Ir  Ir27  1  0.999968  0.999935  0.499917  1
