# generated using pymatgen
data_Ho3Al2Ga3Ni
_symmetry_space_group_name_H-M   'P 1'
_cell_length_a   6.86550308
_cell_length_b   6.86550291
_cell_length_c   4.24765300
_cell_angle_alpha   90.00000000
_cell_angle_beta   90.00000000
_cell_angle_gamma   119.73408966
_symmetry_Int_Tables_number   1
_chemical_formula_structural   Ho3Al2Ga3Ni
_chemical_formula_sum   'Ho3 Al2 Ga3 Ni1'
_cell_volume   173.85286299
_cell_formula_units_Z   1
loop_
 _symmetry_equiv_pos_site_id
 _symmetry_equiv_pos_as_xyz
  1  'x, y, z'
loop_
 _atom_site_type_symbol
 _atom_site_label
 _atom_site_symmetry_multiplicity
 _atom_site_fract_x
 _atom_site_fract_y
 _atom_site_fract_z
 _atom_site_occupancy
  Ho  Ho0  1  0.592813  0.998956  0.000000  1
  Ho  Ho1  1  0.998956  0.592813  0.000000  1
  Ho  Ho2  1  0.408499  0.408499  0.000000  1
  Al  Al3  1  0.231439  0.001036  0.500000  1
  Al  Al4  1  0.001036  0.231439  0.500000  1
  Ga  Ga5  1  0.764079  0.764079  0.500000  1
  Ga  Ga6  1  0.330960  0.666732  0.500000  1
  Ga  Ga7  1  0.666732  0.330960  0.500000  1
  Ni  Ni8  1  0.005485  0.005485  0.000000  1
