# generated using pymatgen
data_Lu3Si2Ni
_symmetry_space_group_name_H-M   'P 1'
_cell_length_a   4.05055700
_cell_length_b   10.98619500
_cell_length_c   11.02227700
_cell_angle_alpha   90.00000000
_cell_angle_beta   90.00000000
_cell_angle_gamma   90.00000000
_symmetry_Int_Tables_number   1
_chemical_formula_structural   Lu3Si2Ni
_chemical_formula_sum   'Lu12 Si8 Ni4'
_cell_volume   490.49363082
_cell_formula_units_Z   4
loop_
 _symmetry_equiv_pos_site_id
 _symmetry_equiv_pos_as_xyz
  1  'x, y, z'
loop_
 _atom_site_type_symbol
 _atom_site_label
 _atom_site_symmetry_multiplicity
 _atom_site_fract_x
 _atom_site_fract_y
 _atom_site_fract_z
 _atom_site_occupancy
  Lu  Lu0  1  0.250000  0.060308  0.881542  1
  Lu  Lu1  1  0.250000  0.439692  0.381542  1
  Lu  Lu2  1  0.750000  0.939692  0.118458  1
  Lu  Lu3  1  0.750000  0.560308  0.618458  1
  Lu  Lu4  1  0.250000  0.124311  0.557082  1
  Lu  Lu5  1  0.250000  0.375689  0.057082  1
  Lu  Lu6  1  0.750000  0.875689  0.442918  1
  Lu  Lu7  1  0.750000  0.624311  0.942918  1
  Lu  Lu8  1  0.250000  0.802463  0.714596  1
  Lu  Lu9  1  0.250000  0.697537  0.214596  1
  Lu  Lu10  1  0.750000  0.197537  0.285404  1
  Lu  Lu11  1  0.750000  0.302463  0.785404  1
  Si  Si12  1  0.250000  0.813321  0.976474  1
  Si  Si13  1  0.250000  0.686679  0.476474  1
  Si  Si14  1  0.750000  0.186679  0.023526  1
  Si  Si15  1  0.750000  0.313321  0.523526  1
  Si  Si16  1  0.250000  0.496114  0.804894  1
  Si  Si17  1  0.250000  0.003886  0.304894  1
  Si  Si18  1  0.750000  0.503886  0.195106  1
  Si  Si19  1  0.750000  0.996114  0.695106  1
  Ni  Ni20  1  0.250000  0.365747  0.630773  1
  Ni  Ni21  1  0.250000  0.134253  0.130773  1
  Ni  Ni22  1  0.750000  0.634253  0.369227  1
  Ni  Ni23  1  0.750000  0.865747  0.869227  1
