# generated using pymatgen
data_Nd2Lu2IrRh3O14
_symmetry_space_group_name_H-M   'P 1'
_cell_length_a   7.26273763
_cell_length_b   7.32387961
_cell_length_c   7.26273762
_cell_angle_alpha   59.83692334
_cell_angle_beta   59.56053902
_cell_angle_gamma   59.83692738
_symmetry_Int_Tables_number   1
_chemical_formula_structural   Nd2Lu2IrRh3O14
_chemical_formula_sum   'Nd2 Lu2 Ir1 Rh3 O14'
_cell_volume   271.57884465
_cell_formula_units_Z   1
loop_
 _symmetry_equiv_pos_site_id
 _symmetry_equiv_pos_as_xyz
  1  'x, y, z'
loop_
 _atom_site_type_symbol
 _atom_site_label
 _atom_site_symmetry_multiplicity
 _atom_site_fract_x
 _atom_site_fract_y
 _atom_site_fract_z
 _atom_site_occupancy
  Nd  Nd0  1  0.125000  0.625000  0.125000  1
  Nd  Nd1  1  0.125000  0.125000  0.125000  1
  Lu  Lu2  1  0.625000  0.125000  0.125000  1
  Lu  Lu3  1  0.125000  0.125000  0.625000  1
  Ir  Ir4  1  0.625000  0.125000  0.625000  1
  Rh  Rh5  1  0.125000  0.625000  0.625000  1
  Rh  Rh6  1  0.625000  0.625000  0.125000  1
  Rh  Rh7  1  0.625000  0.625000  0.625000  1
  O  O8  1  0.699311  0.726479  0.287808  1
  O  O9  1  0.293561  0.287413  0.699626  1
  O  O10  1  0.709349  0.287962  0.709349  1
  O  O11  1  0.288087  0.714136  0.288087  1
  O  O12  1  0.287808  0.726479  0.699311  1
  O  O13  1  0.699626  0.287413  0.293561  1
  O  O14  1  0.550689  0.523521  0.962192  1
  O  O15  1  0.956439  0.962587  0.550374  1
  O  O16  1  0.540651  0.962038  0.540651  1
  O  O17  1  0.961913  0.535864  0.961913  1
  O  O18  1  0.962192  0.523521  0.550689  1
  O  O19  1  0.550374  0.962587  0.956439  1
  O  O20  1  0.261776  0.237342  0.261776  1
  O  O21  1  0.988224  0.012658  0.988224  1
