# generated using pymatgen
data_Cs2RbScIrBr9
_symmetry_space_group_name_H-M   'P 1'
_cell_length_a   7.78138400
_cell_length_b   7.78138381
_cell_length_c   19.51728600
_cell_angle_alpha   90.00000000
_cell_angle_beta   90.00000000
_cell_angle_gamma   120.00000081
_symmetry_Int_Tables_number   1
_chemical_formula_structural   Cs2RbScIrBr9
_chemical_formula_sum   'Cs4 Rb2 Sc2 Ir2 Br18'
_cell_volume   1023.44318624
_cell_formula_units_Z   2
loop_
 _symmetry_equiv_pos_site_id
 _symmetry_equiv_pos_as_xyz
  1  'x, y, z'
loop_
 _atom_site_type_symbol
 _atom_site_label
 _atom_site_symmetry_multiplicity
 _atom_site_fract_x
 _atom_site_fract_y
 _atom_site_fract_z
 _atom_site_occupancy
  Cs  Cs0  1  0.333333  0.666667  0.068187  1
  Cs  Cs1  1  0.666667  0.333333  0.931813  1
  Cs  Cs2  1  0.666667  0.333333  0.569229  1
  Cs  Cs3  1  0.333333  0.666667  0.430771  1
  Rb  Rb4  1  0.000000  0.000000  0.255028  1
  Rb  Rb5  1  0.000000  0.000000  0.744972  1
  Sc  Sc6  1  0.666667  0.333333  0.163128  1
  Sc  Sc7  1  0.333333  0.666667  0.836872  1
  Ir  Ir8  1  0.333333  0.666667  0.668147  1
  Ir  Ir9  1  0.666667  0.333333  0.331853  1
  Br  Br10  1  0.180358  0.360716  0.595589  1
  Br  Br11  1  0.819642  0.639284  0.404411  1
  Br  Br12  1  0.639284  0.819642  0.595589  1
  Br  Br13  1  0.829549  0.659097  0.093203  1
  Br  Br14  1  0.360716  0.180358  0.404411  1
  Br  Br15  1  0.170451  0.340903  0.906797  1
  Br  Br16  1  0.180358  0.819642  0.595589  1
  Br  Br17  1  0.340903  0.170451  0.093203  1
  Br  Br18  1  0.819642  0.180358  0.404411  1
  Br  Br19  1  0.659097  0.829549  0.906797  1
  Br  Br20  1  0.829549  0.170451  0.093203  1
  Br  Br21  1  0.170451  0.829549  0.906797  1
  Br  Br22  1  0.512155  0.024309  0.256079  1
  Br  Br23  1  0.487845  0.975691  0.743921  1
  Br  Br24  1  0.975691  0.487845  0.256079  1
  Br  Br25  1  0.024309  0.512155  0.743921  1
  Br  Br26  1  0.512155  0.487845  0.256079  1
  Br  Br27  1  0.487845  0.512155  0.743921  1
