# generated using pymatgen
data_Ti6Si6OsRu11
_symmetry_space_group_name_H-M   'P 1'
_cell_length_a   4.25731800
_cell_length_b   6.01298600
_cell_length_c   12.71751700
_cell_angle_alpha   90.00000000
_cell_angle_beta   90.00132623
_cell_angle_gamma   90.00000000
_symmetry_Int_Tables_number   1
_chemical_formula_structural   Ti6Si6OsRu11
_chemical_formula_sum   'Ti6 Si6 Os1 Ru11'
_cell_volume   325.55817888
_cell_formula_units_Z   1
loop_
 _symmetry_equiv_pos_site_id
 _symmetry_equiv_pos_as_xyz
  1  'x, y, z'
loop_
 _atom_site_type_symbol
 _atom_site_label
 _atom_site_symmetry_multiplicity
 _atom_site_fract_x
 _atom_site_fract_y
 _atom_site_fract_z
 _atom_site_occupancy
  Ti  Ti0  1  0.000000  0.502060  0.000000  1
  Ti  Ti1  1  0.499786  0.998943  0.167521  1
  Ti  Ti2  1  0.999780  0.499964  0.333434  1
  Ti  Ti3  1  0.500000  0.000005  0.500000  1
  Ti  Ti4  1  0.000220  0.499964  0.666567  1
  Ti  Ti5  1  0.500215  0.998943  0.832480  1
  Si  Si6  1  0.000000  0.000547  0.000000  1
  Si  Si7  1  0.499795  0.499684  0.166511  1
  Si  Si8  1  0.999796  0.000037  0.333398  1
  Si  Si9  1  0.500000  0.500033  0.500000  1
  Si  Si10  1  0.000204  0.000037  0.666601  1
  Si  Si11  1  0.500205  0.499684  0.833489  1
  Os  Os12  1  0.500000  0.250186  0.000000  1
  Ru  Ru13  1  0.500000  0.750452  0.000000  1
  Ru  Ru14  1  0.999798  0.249546  0.166925  1
  Ru  Ru15  1  0.999794  0.750473  0.166859  1
  Ru  Ru16  1  0.499806  0.250662  0.333372  1
  Ru  Ru17  1  0.499808  0.749191  0.333709  1
  Ru  Ru18  1  0.000000  0.249387  0.500000  1
  Ru  Ru19  1  0.000000  0.750332  0.500000  1
  Ru  Ru20  1  0.500195  0.250662  0.666627  1
  Ru  Ru21  1  0.500193  0.749191  0.666290  1
  Ru  Ru22  1  0.000200  0.249546  0.833076  1
  Ru  Ru23  1  0.000204  0.750473  0.833142  1
