# generated using pymatgen
data_Ba2LuAlO5
_symmetry_space_group_name_H-M   'P 1'
_cell_length_a   5.96708400
_cell_length_b   5.96708371
_cell_length_c   20.09147300
_cell_angle_alpha   90.00000000
_cell_angle_beta   90.00000000
_cell_angle_gamma   120.00000159
_symmetry_Int_Tables_number   1
_chemical_formula_structural   Ba2LuAlO5
_chemical_formula_sum   'Ba8 Lu4 Al4 O20'
_cell_volume   619.53619638
_cell_formula_units_Z   4
loop_
 _symmetry_equiv_pos_site_id
 _symmetry_equiv_pos_as_xyz
  1  'x, y, z'
loop_
 _atom_site_type_symbol
 _atom_site_label
 _atom_site_symmetry_multiplicity
 _atom_site_fract_x
 _atom_site_fract_y
 _atom_site_fract_z
 _atom_site_occupancy
  Ba  Ba0  1  0.666667  0.333333  0.893714  1
  Ba  Ba1  1  0.333333  0.666667  0.106286  1
  Ba  Ba2  1  0.333333  0.666667  0.393714  1
  Ba  Ba3  1  0.000000  0.000000  0.000000  1
  Ba  Ba4  1  0.000000  0.000000  0.500000  1
  Ba  Ba5  1  0.666667  0.333333  0.250000  1
  Ba  Ba6  1  0.666667  0.333333  0.606286  1
  Ba  Ba7  1  0.333333  0.666667  0.750000  1
  Lu  Lu8  1  0.333333  0.666667  0.566767  1
  Lu  Lu9  1  0.666667  0.333333  0.066767  1
  Lu  Lu10  1  0.333333  0.666667  0.933233  1
  Lu  Lu11  1  0.666667  0.333333  0.433233  1
  Al  Al12  1  0.000000  0.000000  0.836176  1
  Al  Al13  1  0.000000  0.000000  0.163824  1
  Al  Al14  1  0.000000  0.000000  0.663824  1
  Al  Al15  1  0.000000  0.000000  0.336176  1
  O  O16  1  0.675644  0.837823  0.634225  1
  O  O17  1  0.000000  0.500000  0.500000  1
  O  O18  1  0.000000  0.000000  0.250000  1
  O  O19  1  0.837823  0.675644  0.365775  1
  O  O20  1  0.837823  0.162177  0.134225  1
  O  O21  1  0.162177  0.324356  0.634225  1
  O  O22  1  0.675644  0.837823  0.865775  1
  O  O23  1  0.324356  0.162177  0.134225  1
  O  O24  1  0.000000  0.000000  0.750000  1
  O  O25  1  0.837823  0.162177  0.365775  1
  O  O26  1  0.162177  0.324356  0.865775  1
  O  O27  1  0.500000  0.000000  0.000000  1
  O  O28  1  0.324356  0.162177  0.365775  1
  O  O29  1  0.500000  0.000000  0.500000  1
  O  O30  1  0.837823  0.675644  0.134225  1
  O  O31  1  0.162177  0.837823  0.634225  1
  O  O32  1  0.500000  0.500000  0.000000  1
  O  O33  1  0.000000  0.500000  0.000000  1
  O  O34  1  0.500000  0.500000  0.500000  1
  O  O35  1  0.162177  0.837823  0.865775  1
