# generated using pymatgen
data_K4Zr6IrI18
_symmetry_space_group_name_H-M   'P 1'
_cell_length_a   11.38894555
_cell_length_b   11.52508908
_cell_length_c   11.63429408
_cell_angle_alpha   118.59056342
_cell_angle_beta   100.04096822
_cell_angle_gamma   103.72991632
_symmetry_Int_Tables_number   1
_chemical_formula_structural   K4Zr6IrI18
_chemical_formula_sum   'K4 Zr6 Ir1 I18'
_cell_volume   1226.11566243
_cell_formula_units_Z   1
loop_
 _symmetry_equiv_pos_site_id
 _symmetry_equiv_pos_as_xyz
  1  'x, y, z'
loop_
 _atom_site_type_symbol
 _atom_site_label
 _atom_site_symmetry_multiplicity
 _atom_site_fract_x
 _atom_site_fract_y
 _atom_site_fract_z
 _atom_site_occupancy
  K  K0  1  0.649106  0.537897  0.225017  1
  K  K1  1  0.350894  0.462103  0.774983  1
  K  K2  1  0.683542  0.224767  0.564426  1
  K  K3  1  0.316458  0.775233  0.435574  1
  Zr  Zr4  1  0.151277  0.056160  0.232207  1
  Zr  Zr5  1  0.848723  0.943840  0.767793  1
  Zr  Zr6  1  0.860643  0.128500  0.134929  1
  Zr  Zr7  1  0.139357  0.871500  0.865071  1
  Zr  Zr8  1  0.146040  0.240175  0.045330  1
  Zr  Zr9  1  0.853960  0.759825  0.954670  1
  Ir  Ir10  1  0.000000  0.000000  0.000000  1
  I  I11  1  0.008501  0.413127  0.198528  1
  I  I12  1  0.991499  0.586873  0.801472  1
  I  I13  1  0.330232  0.335420  0.312963  1
  I  I14  1  0.669768  0.664580  0.687037  1
  I  I15  1  0.323625  0.524234  0.100410  1
  I  I16  1  0.676375  0.475766  0.899590  1
  I  I17  1  0.003601  0.793666  0.210283  1
  I  I18  1  0.996399  0.206334  0.789717  1
  I  I19  1  0.700959  0.279161  0.291564  1
  I  I20  1  0.299041  0.720839  0.708436  1
  I  I21  1  0.318598  0.127829  0.901937  1
  I  I22  1  0.681402  0.872171  0.098063  1
  I  I23  1  0.014554  0.206274  0.411442  1
  I  I24  1  0.985446  0.793726  0.588558  1
  I  I25  1  0.322890  0.921478  0.110006  1
  I  I26  1  0.677110  0.078522  0.889994  1
  I  I27  1  0.335006  0.121434  0.505252  1
  I  I28  1  0.664994  0.878566  0.494748  1
