# generated using pymatgen
data_Yb2Pa2(Al8Pt3)3
_symmetry_space_group_name_H-M   'P 1'
_cell_length_a   7.56441417
_cell_length_b   7.56251393
_cell_length_c   13.14507118
_cell_angle_alpha   84.49895280
_cell_angle_beta   101.07078786
_cell_angle_gamma   119.88595111
_symmetry_Int_Tables_number   1
_chemical_formula_structural   Yb2Pa2(Al8Pt3)3
_chemical_formula_sum   'Yb2 Pa2 Al24 Pt9'
_cell_volume   639.84524268
_cell_formula_units_Z   1
loop_
 _symmetry_equiv_pos_site_id
 _symmetry_equiv_pos_as_xyz
  1  'x, y, z'
loop_
 _atom_site_type_symbol
 _atom_site_label
 _atom_site_symmetry_multiplicity
 _atom_site_fract_x
 _atom_site_fract_y
 _atom_site_fract_z
 _atom_site_occupancy
  Yb  Yb0  1  0.767773  0.501268  0.807731  1
  Yb  Yb1  1  0.232227  0.498732  0.192269  1
  Pa  Pa2  1  0.435332  0.830784  0.804977  1
  Pa  Pa3  1  0.564668  0.169216  0.195023  1
  Al  Al4  1  0.482464  0.167001  0.944169  1
  Al  Al5  1  0.517536  0.832999  0.055831  1
  Al  Al6  1  0.021920  0.167834  0.560651  1
  Al  Al7  1  0.978080  0.832166  0.439349  1
  Al  Al8  1  0.352338  0.832366  0.557932  1
  Al  Al9  1  0.647662  0.167634  0.442068  1
  Al  Al10  1  0.616319  0.830775  0.330338  1
  Al  Al11  1  0.383681  0.169225  0.669662  1
  Al  Al12  1  0.051933  0.490073  0.670428  1
  Al  Al13  1  0.948067  0.509927  0.329572  1
  Al  Al14  1  0.732950  0.839262  0.669014  1
  Al  Al15  1  0.267050  0.160738  0.330986  1
  Al  Al16  1  0.147037  0.500005  0.945250  1
  Al  Al17  1  0.852963  0.499995  0.054750  1
  Al  Al18  1  0.816600  0.831717  0.952971  1
  Al  Al19  1  0.183400  0.168283  0.047029  1
  Al  Al20  1  0.314542  0.499662  0.441105  1
  Al  Al21  1  0.685458  0.500338  0.558895  1
  Al  Al22  1  0.102840  0.840546  0.182359  1
  Al  Al23  1  0.897160  0.159454  0.817641  1
  Al  Al24  1  0.304476  0.370034  0.816484  1
  Al  Al25  1  0.695524  0.629966  0.183516  1
  Al  Al26  1  0.106786  0.961629  0.817462  1
  Al  Al27  1  0.893214  0.038371  0.182538  1
  Pt  Pt28  1  0.387202  0.508488  0.639278  1
  Pt  Pt29  1  0.612798  0.491512  0.360722  1
  Pt  Pt30  1  0.172558  0.829097  0.999988  1
  Pt  Pt31  1  0.827442  0.170903  0.000012  1
  Pt  Pt32  1  0.295658  0.834263  0.361274  1
  Pt  Pt33  1  0.704342  0.165737  0.638726  1
  Pt  Pt34  1  0.047482  0.825840  0.638339  1
  Pt  Pt35  1  0.952518  0.174160  0.361661  1
  Pt  Pt36  1  0.500000  0.500000  0.000000  1
