# generated using pymatgen
data_Y9Tm3(TcRh)2
_symmetry_space_group_name_H-M   'P 1'
_cell_length_a   6.31319712
_cell_length_b   7.37288649
_cell_length_c   9.20511756
_cell_angle_alpha   90.14393257
_cell_angle_beta   90.77123095
_cell_angle_gamma   89.96758500
_symmetry_Int_Tables_number   1
_chemical_formula_structural   Y9Tm3(TcRh)2
_chemical_formula_sum   'Y9 Tm3 Tc2 Rh2'
_cell_volume   428.42564584
_cell_formula_units_Z   1
loop_
 _symmetry_equiv_pos_site_id
 _symmetry_equiv_pos_as_xyz
  1  'x, y, z'
loop_
 _atom_site_type_symbol
 _atom_site_label
 _atom_site_symmetry_multiplicity
 _atom_site_fract_x
 _atom_site_fract_y
 _atom_site_fract_z
 _atom_site_occupancy
  Y  Y0  1  0.635032  0.040189  0.247161  1
  Y  Y1  1  0.365891  0.961228  0.751597  1
  Y  Y2  1  0.129013  0.460587  0.751493  1
  Y  Y3  1  0.870252  0.538411  0.248500  1
  Y  Y4  1  0.828619  0.823065  0.569047  1
  Y  Y5  1  0.336441  0.675057  0.060174  1
  Y  Y6  1  0.174222  0.178336  0.430677  1
  Y  Y7  1  0.335081  0.672888  0.437507  1
  Y  Y8  1  0.667170  0.325867  0.562581  1
  Tm  Tm9  1  0.168473  0.177430  0.063352  1
  Tm  Tm10  1  0.828253  0.821221  0.936430  1
  Tm  Tm11  1  0.661966  0.326127  0.938175  1
  Tc  Tc12  1  0.458722  0.381798  0.247081  1
  Tc  Tc13  1  0.543574  0.616743  0.750057  1
  Rh  Rh14  1  0.953805  0.115097  0.766479  1
  Rh  Rh15  1  0.043488  0.885956  0.239692  1
