# generated using pymatgen
data_Tm2Fe3(CoB2)2
_symmetry_space_group_name_H-M   'P 1'
_cell_length_a   7.12774761
_cell_length_b   5.95953938
_cell_length_c   5.25626409
_cell_angle_alpha   78.63797003
_cell_angle_beta   55.05842620
_cell_angle_gamma   46.37633464
_symmetry_Int_Tables_number   1
_chemical_formula_structural   Tm2Fe3(CoB2)2
_chemical_formula_sum   'Tm2 Fe3 Co2 B4'
_cell_volume   124.88724527
_cell_formula_units_Z   1
loop_
 _symmetry_equiv_pos_site_id
 _symmetry_equiv_pos_as_xyz
  1  'x, y, z'
loop_
 _atom_site_type_symbol
 _atom_site_label
 _atom_site_symmetry_multiplicity
 _atom_site_fract_x
 _atom_site_fract_y
 _atom_site_fract_z
 _atom_site_occupancy
  Tm  Tm0  1  0.855139  0.855246  0.144820  1
  Tm  Tm1  1  0.144766  0.144826  0.855191  1
  Fe  Fe2  1  0.500002  0.500080  0.999992  1
  Fe  Fe3  1  0.000161  0.999840  0.499932  1
  Fe  Fe4  1  0.500019  0.499947  0.500063  1
  Co  Co5  1  0.249854  0.249898  0.250130  1
  Co  Co6  1  0.750107  0.750140  0.749878  1
  B  B7  1  0.480106  0.785822  0.214125  1
  B  B8  1  0.214171  0.519891  0.480057  1
  B  B9  1  0.785878  0.480166  0.519856  1
  B  B10  1  0.519799  0.214143  0.785962  1
