# generated using pymatgen
data_TbSc4Ni16(P4W)3
_symmetry_space_group_name_H-M   'P 1'
_cell_length_a   11.94482400
_cell_length_b   11.94482498
_cell_length_c   3.63169500
_cell_angle_alpha   90.00000000
_cell_angle_beta   90.00000000
_cell_angle_gamma   120.00000837
_symmetry_Int_Tables_number   1
_chemical_formula_structural   TbSc4Ni16(P4W)3
_chemical_formula_sum   'Tb1 Sc4 Ni16 P12 W3'
_cell_volume   448.74488234
_cell_formula_units_Z   1
loop_
 _symmetry_equiv_pos_site_id
 _symmetry_equiv_pos_as_xyz
  1  'x, y, z'
loop_
 _atom_site_type_symbol
 _atom_site_label
 _atom_site_symmetry_multiplicity
 _atom_site_fract_x
 _atom_site_fract_y
 _atom_site_fract_z
 _atom_site_occupancy
  Tb  Tb0  1  0.666667  0.333333  0.000000  1
  Sc  Sc1  1  0.181261  0.180412  0.500000  1
  Sc  Sc2  1  0.819588  0.000849  0.500000  1
  Sc  Sc3  1  0.999151  0.818739  0.500000  1
  Sc  Sc4  1  0.333333  0.666667  0.000000  1
  Ni  Ni5  1  0.720778  0.724546  0.500000  1
  Ni  Ni6  1  0.275454  0.996232  0.500000  1
  Ni  Ni7  1  0.003768  0.279222  0.500000  1
  Ni  Ni8  1  0.182667  0.373376  0.000000  1
  Ni  Ni9  1  0.626624  0.809292  0.000000  1
  Ni  Ni10  1  0.190708  0.817333  0.000000  1
  Ni  Ni11  1  0.808988  0.630183  0.000000  1
  Ni  Ni12  1  0.821195  0.191012  0.000000  1
  Ni  Ni13  1  0.369817  0.178805  0.000000  1
  Ni  Ni14  1  0.356274  0.483678  0.500000  1
  Ni  Ni15  1  0.516322  0.872598  0.500000  1
  Ni  Ni16  1  0.127402  0.643726  0.500000  1
  Ni  Ni17  1  0.875807  0.519666  0.500000  1
  Ni  Ni18  1  0.643860  0.124193  0.500000  1
  Ni  Ni19  1  0.480334  0.356140  0.500000  1
  Ni  Ni20  1  0.000000  0.000000  0.000000  1
  P  P21  1  0.824645  0.826453  0.000000  1
  P  P22  1  0.173547  0.998192  0.000000  1
  P  P23  1  0.001808  0.175355  0.000000  1
  P  P24  1  0.169740  0.484326  0.500000  1
  P  P25  1  0.515674  0.685414  0.500000  1
  P  P26  1  0.314586  0.830260  0.500000  1
  P  P27  1  0.684815  0.521610  0.500000  1
  P  P28  1  0.836796  0.315185  0.500000  1
  P  P29  1  0.478390  0.163204  0.500000  1
  P  P30  1  0.357693  0.356923  0.000000  1
  P  P31  1  0.643077  0.000771  0.000000  1
  P  P32  1  0.999229  0.642307  0.000000  1
  W  W33  1  0.555120  0.557263  0.000000  1
  W  W34  1  0.442737  0.997857  0.000000  1
  W  W35  1  0.002143  0.444880  0.000000  1
