# generated using pymatgen
data_Sm6ScFe(Co4P3)4
_symmetry_space_group_name_H-M   'P 1'
_cell_length_a   3.76296000
_cell_length_b   10.69796800
_cell_length_c   12.43321600
_cell_angle_alpha   90.00000000
_cell_angle_beta   90.00000000
_cell_angle_gamma   90.00000000
_symmetry_Int_Tables_number   1
_chemical_formula_structural   Sm6ScFe(Co4P3)4
_chemical_formula_sum   'Sm6 Sc1 Fe1 Co16 P12'
_cell_volume   500.51186240
_cell_formula_units_Z   1
loop_
 _symmetry_equiv_pos_site_id
 _symmetry_equiv_pos_as_xyz
  1  'x, y, z'
loop_
 _atom_site_type_symbol
 _atom_site_label
 _atom_site_symmetry_multiplicity
 _atom_site_fract_x
 _atom_site_fract_y
 _atom_site_fract_z
 _atom_site_occupancy
  Sm  Sm0  1  0.000000  0.500000  0.527242  1
  Sm  Sm1  1  0.500000  0.000000  0.478677  1
  Sm  Sm2  1  0.500000  0.820831  0.207038  1
  Sm  Sm3  1  0.500000  0.179169  0.207038  1
  Sm  Sm4  1  0.000000  0.682585  0.795432  1
  Sm  Sm5  1  0.000000  0.317415  0.795432  1
  Sc  Sc6  1  0.500000  0.500000  0.151459  1
  Fe  Fe7  1  0.000000  0.000000  0.841170  1
  Co  Co8  1  0.500000  0.500000  0.703789  1
  Co  Co9  1  0.000000  0.000000  0.295854  1
  Co  Co10  1  0.000000  0.500000  0.984730  1
  Co  Co11  1  0.500000  0.000000  0.011324  1
  Co  Co12  1  0.500000  0.326866  0.990271  1
  Co  Co13  1  0.500000  0.673134  0.990271  1
  Co  Co14  1  0.000000  0.162397  0.001192  1
  Co  Co15  1  0.000000  0.837603  0.001192  1
  Co  Co16  1  0.500000  0.294900  0.433776  1
  Co  Co17  1  0.500000  0.705100  0.433776  1
  Co  Co18  1  0.000000  0.202395  0.570474  1
  Co  Co19  1  0.000000  0.797605  0.570474  1
  Co  Co20  1  0.500000  0.881170  0.708271  1
  Co  Co21  1  0.500000  0.118830  0.708271  1
  Co  Co22  1  0.000000  0.621177  0.297172  1
  Co  Co23  1  0.000000  0.378823  0.297172  1
  P  P24  1  0.500000  0.500000  0.884700  1
  P  P25  1  0.000000  0.000000  0.114040  1
  P  P26  1  0.500000  0.500000  0.355179  1
  P  P27  1  0.000000  0.000000  0.658548  1
  P  P28  1  0.500000  0.306041  0.616544  1
  P  P29  1  0.500000  0.693959  0.616544  1
  P  P30  1  0.000000  0.191756  0.387521  1
  P  P31  1  0.000000  0.808244  0.387521  1
  P  P32  1  0.500000  0.851995  0.889757  1
  P  P33  1  0.500000  0.148005  0.889757  1
  P  P34  1  0.000000  0.662157  0.099194  1
  P  P35  1  0.000000  0.337843  0.099194  1
