# generated using pymatgen
data_NdTl(PSe3)2
_symmetry_space_group_name_H-M   'P 1'
_cell_length_a   12.83880358
_cell_length_b   7.65438800
_cell_length_c   12.56493800
_cell_angle_alpha   90.00000000
_cell_angle_beta   113.32920068
_cell_angle_gamma   90.00000000
_symmetry_Int_Tables_number   1
_chemical_formula_structural   NdTl(PSe3)2
_chemical_formula_sum   'Nd4 Tl4 P8 Se24'
_cell_volume   1133.84527647
_cell_formula_units_Z   4
loop_
 _symmetry_equiv_pos_site_id
 _symmetry_equiv_pos_as_xyz
  1  'x, y, z'
loop_
 _atom_site_type_symbol
 _atom_site_label
 _atom_site_symmetry_multiplicity
 _atom_site_fract_x
 _atom_site_fract_y
 _atom_site_fract_z
 _atom_site_occupancy
  Nd  Nd0  1  0.903708  0.622845  0.162598  1
  Nd  Nd1  1  0.096292  0.122846  0.337401  1
  Nd  Nd2  1  0.903709  0.877155  0.662599  1
  Nd  Nd3  1  0.096292  0.377155  0.837402  1
  Tl  Tl4  1  0.417194  0.919122  0.146020  1
  Tl  Tl5  1  0.582806  0.419123  0.353980  1
  Tl  Tl6  1  0.417195  0.580878  0.646020  1
  Tl  Tl7  1  0.582806  0.080878  0.853979  1
  P  P8  1  0.765080  0.126722  0.190788  1
  P  P9  1  0.231177  0.404892  0.188900  1
  P  P10  1  0.768823  0.904893  0.311100  1
  P  P11  1  0.234920  0.626721  0.309212  1
  P  P12  1  0.765080  0.373278  0.690788  1
  P  P13  1  0.231177  0.095108  0.688900  1
  P  P14  1  0.768823  0.595107  0.811100  1
  P  P15  1  0.234920  0.873279  0.809212  1
  Se  Se16  1  0.846932  0.010452  0.080479  1
  Se  Se17  1  0.295502  0.496000  0.060012  1
  Se  Se18  1  0.593413  0.225121  0.104812  1
  Se  Se19  1  0.049285  0.319060  0.110548  1
  Se  Se20  1  0.673086  0.698644  0.191309  1
  Se  Se21  1  0.114898  0.820968  0.188647  1
  Se  Se22  1  0.885103  0.320968  0.311354  1
  Se  Se23  1  0.326914  0.198644  0.308691  1
  Se  Se24  1  0.950716  0.819061  0.389452  1
  Se  Se25  1  0.406585  0.725122  0.395188  1
  Se  Se26  1  0.704497  0.996000  0.439988  1
  Se  Se27  1  0.153068  0.510453  0.419522  1
  Se  Se28  1  0.846932  0.489547  0.580478  1
  Se  Se29  1  0.295502  0.004001  0.560012  1
  Se  Se30  1  0.593414  0.274879  0.604812  1
  Se  Se31  1  0.049285  0.180939  0.610549  1
  Se  Se32  1  0.673086  0.801356  0.691310  1
  Se  Se33  1  0.114898  0.679032  0.688646  1
  Se  Se34  1  0.885102  0.179031  0.811353  1
  Se  Se35  1  0.326914  0.301357  0.808691  1
  Se  Se36  1  0.950715  0.680939  0.889452  1
  Se  Se37  1  0.406586  0.774878  0.895188  1
  Se  Se38  1  0.704498  0.504000  0.939988  1
  Se  Se39  1  0.153068  0.989547  0.919521  1
