# generated using pymatgen
data_Ta2CdHg3(SbO7)2
_symmetry_space_group_name_H-M   'P 1'
_cell_length_a   7.40036817
_cell_length_b   7.43605940
_cell_length_c   7.49239913
_cell_angle_alpha   60.51931743
_cell_angle_beta   60.40549829
_cell_angle_gamma   60.15864810
_symmetry_Int_Tables_number   1
_chemical_formula_structural   Ta2CdHg3(SbO7)2
_chemical_formula_sum   'Ta2 Cd1 Hg3 Sb2 O14'
_cell_volume   293.91836238
_cell_formula_units_Z   1
loop_
 _symmetry_equiv_pos_site_id
 _symmetry_equiv_pos_as_xyz
  1  'x, y, z'
loop_
 _atom_site_type_symbol
 _atom_site_label
 _atom_site_symmetry_multiplicity
 _atom_site_fract_x
 _atom_site_fract_y
 _atom_site_fract_z
 _atom_site_occupancy
  Ta  Ta0  1  0.625000  0.125000  0.625000  1
  Ta  Ta1  1  0.625000  0.625000  0.125000  1
  Cd  Cd2  1  0.125000  0.125000  0.625000  1
  Hg  Hg3  1  0.625000  0.125000  0.125000  1
  Hg  Hg4  1  0.125000  0.625000  0.125000  1
  Hg  Hg5  1  0.125000  0.125000  0.125000  1
  Sb  Sb6  1  0.125000  0.625000  0.625000  1
  Sb  Sb7  1  0.625000  0.625000  0.625000  1
  O  O8  1  0.690591  0.690932  0.310743  1
  O  O9  1  0.306468  0.307992  0.688972  1
  O  O10  1  0.696568  0.307992  0.688972  1
  O  O11  1  0.307735  0.690932  0.310743  1
  O  O12  1  0.299278  0.706148  0.695295  1
  O  O13  1  0.684920  0.314237  0.315923  1
  O  O14  1  0.559409  0.559068  0.939257  1
  O  O15  1  0.943532  0.942008  0.561028  1
  O  O16  1  0.553432  0.942008  0.561028  1
  O  O17  1  0.942265  0.559068  0.939257  1
  O  O18  1  0.950722  0.543852  0.554705  1
  O  O19  1  0.565080  0.935763  0.934077  1
  O  O20  1  0.253820  0.246305  0.246055  1
  O  O21  1  0.996180  0.003695  0.003945  1
