# generated using pymatgen
data_Tm4Mn3Fe6P12Ir11
_symmetry_space_group_name_H-M   'P 1'
_cell_length_a   3.82545900
_cell_length_b   10.56096732
_cell_length_c   12.37933456
_cell_angle_alpha   90.14311638
_cell_angle_beta   90.00000000
_cell_angle_gamma   90.00000000
_symmetry_Int_Tables_number   1
_chemical_formula_structural   Tm4Mn3Fe6P12Ir11
_chemical_formula_sum   'Tm4 Mn3 Fe6 P12 Ir11'
_cell_volume   500.13033337
_cell_formula_units_Z   1
loop_
 _symmetry_equiv_pos_site_id
 _symmetry_equiv_pos_as_xyz
  1  'x, y, z'
loop_
 _atom_site_type_symbol
 _atom_site_label
 _atom_site_symmetry_multiplicity
 _atom_site_fract_x
 _atom_site_fract_y
 _atom_site_fract_z
 _atom_site_occupancy
  Tm  Tm0  1  0.250000  0.576109  0.716175  1
  Tm  Tm1  1  0.250000  0.922313  0.210609  1
  Tm  Tm2  1  0.750000  0.415449  0.288333  1
  Tm  Tm3  1  0.750000  0.084385  0.790408  1
  Mn  Mn4  1  0.250000  0.713082  0.986291  1
  Mn  Mn5  1  0.750000  0.292126  0.006748  1
  Mn  Mn6  1  0.750000  0.209371  0.507973  1
  Fe  Fe7  1  0.750000  0.124727  0.304081  1
  Fe  Fe8  1  0.750000  0.377990  0.805737  1
  Fe  Fe9  1  0.250000  0.461732  0.935631  1
  Fe  Fe10  1  0.250000  0.037204  0.433814  1
  Fe  Fe11  1  0.750000  0.539180  0.065191  1
  Fe  Fe12  1  0.750000  0.955836  0.561943  1
  P  P13  1  0.250000  0.427109  0.106024  1
  P  P14  1  0.250000  0.074130  0.605018  1
  P  P15  1  0.750000  0.562469  0.891999  1
  P  P16  1  0.750000  0.942408  0.386164  1
  P  P17  1  0.250000  0.275326  0.864627  1
  P  P18  1  0.250000  0.225036  0.363917  1
  P  P19  1  0.750000  0.731722  0.127760  1
  P  P20  1  0.750000  0.766909  0.634818  1
  P  P21  1  0.250000  0.595363  0.387199  1
  P  P22  1  0.250000  0.897370  0.891979  1
  P  P23  1  0.750000  0.401340  0.624652  1
  P  P24  1  0.750000  0.100199  0.120989  1
  Ir  Ir25  1  0.250000  0.784713  0.486687  1
  Ir  Ir26  1  0.250000  0.402315  0.475113  1
  Ir  Ir27  1  0.250000  0.097758  0.974958  1
  Ir  Ir28  1  0.750000  0.590772  0.523789  1
  Ir  Ir29  1  0.750000  0.908055  0.020899  1
  Ir  Ir30  1  0.250000  0.224997  0.174633  1
  Ir  Ir31  1  0.250000  0.275694  0.674973  1
  Ir  Ir32  1  0.750000  0.764569  0.826174  1
  Ir  Ir33  1  0.750000  0.738486  0.323457  1
  Ir  Ir34  1  0.250000  0.885600  0.701117  1
  Ir  Ir35  1  0.250000  0.618161  0.200120  1
