# generated using pymatgen
data_K3RuO5
_symmetry_space_group_name_H-M   'P 1'
_cell_length_a   8.31514900
_cell_length_b   8.42944500
_cell_length_c   9.15544100
_cell_angle_alpha   90.00000000
_cell_angle_beta   90.00000000
_cell_angle_gamma   90.00000000
_symmetry_Int_Tables_number   1
_chemical_formula_structural   K3RuO5
_chemical_formula_sum   'K12 Ru4 O20'
_cell_volume   641.72400520
_cell_formula_units_Z   4
loop_
 _symmetry_equiv_pos_site_id
 _symmetry_equiv_pos_as_xyz
  1  'x, y, z'
loop_
 _atom_site_type_symbol
 _atom_site_label
 _atom_site_symmetry_multiplicity
 _atom_site_fract_x
 _atom_site_fract_y
 _atom_site_fract_z
 _atom_site_occupancy
  K  K0  1  0.250000  0.000000  0.486312  1
  K  K1  1  0.750000  0.000000  0.513688  1
  K  K2  1  0.250000  0.500000  0.013688  1
  K  K3  1  0.750000  0.500000  0.986312  1
  K  K4  1  0.250000  0.000000  0.017104  1
  K  K5  1  0.750000  0.000000  0.982896  1
  K  K6  1  0.250000  0.500000  0.482896  1
  K  K7  1  0.750000  0.500000  0.517104  1
  K  K8  1  0.552634  0.250000  0.250000  1
  K  K9  1  0.447366  0.750000  0.750000  1
  K  K10  1  0.947366  0.750000  0.250000  1
  K  K11  1  0.052634  0.250000  0.750000  1
  Ru  Ru12  1  0.015932  0.250000  0.250000  1
  Ru  Ru13  1  0.984068  0.750000  0.750000  1
  Ru  Ru14  1  0.484068  0.750000  0.250000  1
  Ru  Ru15  1  0.515932  0.250000  0.750000  1
  O  O16  1  0.234416  0.250000  0.250000  1
  O  O17  1  0.765584  0.750000  0.750000  1
  O  O18  1  0.265584  0.750000  0.250000  1
  O  O19  1  0.734416  0.250000  0.750000  1
  O  O20  1  0.590718  0.563672  0.253181  1
  O  O21  1  0.409282  0.436328  0.746819  1
  O  O22  1  0.909282  0.436328  0.253181  1
  O  O23  1  0.909282  0.063672  0.246819  1
  O  O24  1  0.090718  0.563672  0.746819  1
  O  O25  1  0.090718  0.936328  0.753181  1
  O  O26  1  0.590718  0.936328  0.246819  1
  O  O27  1  0.409282  0.063672  0.753181  1
  O  O28  1  0.515900  0.246099  0.542743  1
  O  O29  1  0.484100  0.753901  0.457257  1
  O  O30  1  0.984100  0.753901  0.542743  1
  O  O31  1  0.984100  0.746099  0.957257  1
  O  O32  1  0.015900  0.246099  0.457257  1
  O  O33  1  0.015900  0.253901  0.042743  1
  O  O34  1  0.515900  0.253901  0.957257  1
  O  O35  1  0.484100  0.746099  0.042743  1
