# generated using pymatgen
data_Sc4In2Hg3Rh
_symmetry_space_group_name_H-M   'P 1'
_cell_length_a   7.84849574
_cell_length_b   7.84849572
_cell_length_c   7.06161200
_cell_angle_alpha   90.00000000
_cell_angle_beta   90.00000000
_cell_angle_gamma   90.71940042
_symmetry_Int_Tables_number   1
_chemical_formula_structural   Sc4In2Hg3Rh
_chemical_formula_sum   'Sc8 In4 Hg6 Rh2'
_cell_volume   434.95313972
_cell_formula_units_Z   2
loop_
 _symmetry_equiv_pos_site_id
 _symmetry_equiv_pos_as_xyz
  1  'x, y, z'
loop_
 _atom_site_type_symbol
 _atom_site_label
 _atom_site_symmetry_multiplicity
 _atom_site_fract_x
 _atom_site_fract_y
 _atom_site_fract_z
 _atom_site_occupancy
  Sc  Sc0  1  0.170608  0.121987  0.000000  1
  Sc  Sc1  1  0.878013  0.829392  0.000000  1
  Sc  Sc2  1  0.650805  0.349195  0.500000  1
  Sc  Sc3  1  0.318314  0.681686  0.500000  1
  Sc  Sc4  1  0.676076  0.323924  0.000000  1
  Sc  Sc5  1  0.297049  0.702951  0.000000  1
  Sc  Sc6  1  0.859355  0.810205  0.500000  1
  Sc  Sc7  1  0.189795  0.140645  0.500000  1
  In  In8  1  0.493851  0.999624  0.252348  1
  In  In9  1  0.493851  0.999624  0.747652  1
  In  In10  1  0.000376  0.506149  0.252348  1
  In  In11  1  0.000376  0.506149  0.747652  1
  Hg  Hg12  1  0.359760  0.374121  0.225925  1
  Hg  Hg13  1  0.625879  0.640240  0.774075  1
  Hg  Hg14  1  0.625879  0.640240  0.225925  1
  Hg  Hg15  1  0.870215  0.129785  0.726633  1
  Hg  Hg16  1  0.870215  0.129785  0.273367  1
  Hg  Hg17  1  0.359760  0.374121  0.774075  1
  Rh  Rh18  1  0.129910  0.870090  0.268032  1
  Rh  Rh19  1  0.129910  0.870090  0.731968  1
