# generated using pymatgen
data_YbTh2Cu4Ni9B2
_symmetry_space_group_name_H-M   'P 1'
_cell_length_a   5.02585200
_cell_length_b   5.02585156
_cell_length_c   11.11281600
_cell_angle_alpha   90.00000000
_cell_angle_beta   90.00000000
_cell_angle_gamma   120.00000289
_symmetry_Int_Tables_number   1
_chemical_formula_structural   YbTh2Cu4Ni9B2
_chemical_formula_sum   'Yb1 Th2 Cu4 Ni9 B2'
_cell_volume   243.09391925
_cell_formula_units_Z   1
loop_
 _symmetry_equiv_pos_site_id
 _symmetry_equiv_pos_as_xyz
  1  'x, y, z'
loop_
 _atom_site_type_symbol
 _atom_site_label
 _atom_site_symmetry_multiplicity
 _atom_site_fract_x
 _atom_site_fract_y
 _atom_site_fract_z
 _atom_site_occupancy
  Yb  Yb0  1  0.000000  0.000000  0.999107  1
  Th  Th1  1  0.000000  0.000000  0.309320  1
  Th  Th2  1  0.000000  0.000000  0.690042  1
  Cu  Cu3  1  0.666667  0.333333  0.313257  1
  Cu  Cu4  1  0.000583  0.500292  0.500779  1
  Cu  Cu5  1  0.499708  0.999417  0.500779  1
  Cu  Cu6  1  0.499708  0.500292  0.500779  1
  Ni  Ni7  1  0.499456  0.500544  0.126481  1
  Ni  Ni8  1  0.001088  0.500544  0.126481  1
  Ni  Ni9  1  0.499456  0.998912  0.126481  1
  Ni  Ni10  1  0.333333  0.666667  0.314151  1
  Ni  Ni11  1  0.333333  0.666667  0.686763  1
  Ni  Ni12  1  0.666667  0.333333  0.686741  1
  Ni  Ni13  1  0.500014  0.000029  0.873191  1
  Ni  Ni14  1  0.999971  0.499986  0.873191  1
  Ni  Ni15  1  0.500014  0.499986  0.873191  1
  B  B16  1  0.333333  0.666667  0.999706  1
  B  B17  1  0.666667  0.333333  0.999564  1
