# generated using pymatgen
data_NaU2InI12
_symmetry_space_group_name_H-M   'P 1'
_cell_length_a   8.05409355
_cell_length_b   8.05409382
_cell_length_c   14.94261547
_cell_angle_alpha   83.92570374
_cell_angle_beta   83.92569279
_cell_angle_gamma   119.82911393
_symmetry_Int_Tables_number   1
_chemical_formula_structural   NaU2InI12
_chemical_formula_sum   'Na1 U2 In1 I12'
_cell_volume   821.93542859
_cell_formula_units_Z   1
loop_
 _symmetry_equiv_pos_site_id
 _symmetry_equiv_pos_as_xyz
  1  'x, y, z'
loop_
 _atom_site_type_symbol
 _atom_site_label
 _atom_site_symmetry_multiplicity
 _atom_site_fract_x
 _atom_site_fract_y
 _atom_site_fract_z
 _atom_site_occupancy
  Na  Na0  1  0.915633  0.084367  0.750000  1
  U  U1  1  0.418749  0.581251  0.250000  1
  U  U2  1  0.581051  0.418949  0.750000  1
  In  In3  1  0.084552  0.915448  0.250000  1
  I  I4  1  0.325408  0.462701  0.635117  1
  I  I5  1  0.460520  0.324338  0.135520  1
  I  I6  1  0.238156  0.076552  0.867350  1
  I  I7  1  0.077678  0.236778  0.367232  1
  I  I8  1  0.170064  0.632271  0.132617  1
  I  I9  1  0.629983  0.169155  0.632630  1
  I  I10  1  0.367729  0.829936  0.367383  1
  I  I11  1  0.830845  0.370017  0.867370  1
  I  I12  1  0.763222  0.922322  0.132768  1
  I  I13  1  0.923448  0.761844  0.632650  1
  I  I14  1  0.537299  0.674592  0.864883  1
  I  I15  1  0.675662  0.539480  0.364480  1
