# generated using pymatgen
data_La5Tb3(CuP)12
_symmetry_space_group_name_H-M   'P 1'
_cell_length_a   4.01813700
_cell_length_b   10.93577612
_cell_length_c   13.00255109
_cell_angle_alpha   89.85117056
_cell_angle_beta   90.00000000
_cell_angle_gamma   90.00000000
_symmetry_Int_Tables_number   1
_chemical_formula_structural   La5Tb3(CuP)12
_chemical_formula_sum   'La5 Tb3 Cu12 P12'
_cell_volume   571.34897752
_cell_formula_units_Z   1
loop_
 _symmetry_equiv_pos_site_id
 _symmetry_equiv_pos_as_xyz
  1  'x, y, z'
loop_
 _atom_site_type_symbol
 _atom_site_label
 _atom_site_symmetry_multiplicity
 _atom_site_fract_x
 _atom_site_fract_y
 _atom_site_fract_z
 _atom_site_occupancy
  La  La0  1  0.250000  0.935497  0.800392  1
  La  La1  1  0.750000  0.432241  0.705680  1
  La  La2  1  0.250000  0.565021  0.292582  1
  La  La3  1  0.750000  0.064275  0.206055  1
  La  La4  1  0.250000  0.846029  0.499513  1
  Tb  Tb5  1  0.750000  0.345026  0.999765  1
  Tb  Tb6  1  0.250000  0.654332  0.999497  1
  Tb  Tb7  1  0.750000  0.158114  0.500959  1
  Cu  Cu8  1  0.250000  0.390454  0.512181  1
  Cu  Cu9  1  0.750000  0.888821  0.988696  1
  Cu  Cu10  1  0.250000  0.112802  0.012799  1
  Cu  Cu11  1  0.750000  0.603560  0.488397  1
  Cu  Cu12  1  0.250000  0.272106  0.333800  1
  Cu  Cu13  1  0.750000  0.765695  0.161820  1
  Cu  Cu14  1  0.250000  0.232966  0.834677  1
  Cu  Cu15  1  0.750000  0.731940  0.670417  1
  Cu  Cu16  1  0.250000  0.852781  0.268831  1
  Cu  Cu17  1  0.750000  0.356449  0.222940  1
  Cu  Cu18  1  0.250000  0.641594  0.776135  1
  Cu  Cu19  1  0.750000  0.143931  0.726146  1
  P  P20  1  0.250000  0.233486  0.647240  1
  P  P21  1  0.750000  0.730846  0.854983  1
  P  P22  1  0.250000  0.268420  0.146125  1
  P  P23  1  0.750000  0.765807  0.346231  1
  P  P24  1  0.250000  0.600063  0.594487  1
  P  P25  1  0.750000  0.106888  0.908086  1
  P  P26  1  0.250000  0.896357  0.090091  1
  P  P27  1  0.750000  0.395274  0.405519  1
  P  P28  1  0.250000  0.064176  0.371742  1
  P  P29  1  0.750000  0.555786  0.126091  1
  P  P30  1  0.250000  0.443027  0.872841  1
  P  P31  1  0.750000  0.946235  0.635281  1
