# generated using pymatgen
data_ZrIn(Ni7B2)3
_symmetry_space_group_name_H-M   'P 1'
_cell_length_a   7.49161310
_cell_length_b   7.49161281
_cell_length_c   7.49161300
_cell_angle_alpha   59.99999475
_cell_angle_beta   59.99999603
_cell_angle_gamma   59.99999862
_symmetry_Int_Tables_number   1
_chemical_formula_structural   ZrIn(Ni7B2)3
_chemical_formula_sum   'Zr1 In1 Ni21 B6'
_cell_volume   297.31099199
_cell_formula_units_Z   1
loop_
 _symmetry_equiv_pos_site_id
 _symmetry_equiv_pos_as_xyz
  1  'x, y, z'
loop_
 _atom_site_type_symbol
 _atom_site_label
 _atom_site_symmetry_multiplicity
 _atom_site_fract_x
 _atom_site_fract_y
 _atom_site_fract_z
 _atom_site_occupancy
  Zr  Zr0  1  0.250000  0.250000  0.250000  1
  In  In1  1  0.750000  0.750000  0.750000  1
  Ni  Ni2  1  0.000000  0.000000  0.000000  1
  Ni  Ni3  1  0.613879  0.613879  0.158364  1
  Ni  Ni4  1  0.613879  0.158364  0.613879  1
  Ni  Ni5  1  0.158364  0.613879  0.613879  1
  Ni  Ni6  1  0.613879  0.613879  0.613879  1
  Ni  Ni7  1  0.386401  0.386401  0.840796  1
  Ni  Ni8  1  0.386401  0.840796  0.386401  1
  Ni  Ni9  1  0.840796  0.386401  0.386401  1
  Ni  Ni10  1  0.386401  0.386401  0.386401  1
  Ni  Ni11  1  0.001333  0.001333  0.336776  1
  Ni  Ni12  1  0.660559  0.001333  0.336776  1
  Ni  Ni13  1  0.001333  0.660559  0.336776  1
  Ni  Ni14  1  0.660559  0.336776  0.001333  1
  Ni  Ni15  1  0.001333  0.336776  0.001333  1
  Ni  Ni16  1  0.001333  0.336776  0.660559  1
  Ni  Ni17  1  0.336776  0.660559  0.001333  1
  Ni  Ni18  1  0.336776  0.001333  0.660559  1
  Ni  Ni19  1  0.336776  0.001333  0.001333  1
  Ni  Ni20  1  0.001333  0.001333  0.660559  1
  Ni  Ni21  1  0.001333  0.660559  0.001333  1
  Ni  Ni22  1  0.660559  0.001333  0.001333  1
  B  B23  1  0.729139  0.729139  0.270861  1
  B  B24  1  0.270861  0.729139  0.270861  1
  B  B25  1  0.729139  0.270861  0.270861  1
  B  B26  1  0.270861  0.270861  0.729139  1
  B  B27  1  0.729139  0.270861  0.729139  1
  B  B28  1  0.270861  0.729139  0.729139  1
