# generated using pymatgen
data_Gd12Ga8Si11Ge
_symmetry_space_group_name_H-M   'P 1'
_cell_length_a   5.97416770
_cell_length_b   9.44661800
_cell_length_c   11.57340700
_cell_angle_alpha   90.00000000
_cell_angle_beta   89.92810894
_cell_angle_gamma   90.00000000
_symmetry_Int_Tables_number   1
_chemical_formula_structural   Gd12Ga8Si11Ge
_chemical_formula_sum   'Gd12 Ga8 Si11 Ge1'
_cell_volume   653.15258162
_cell_formula_units_Z   1
loop_
 _symmetry_equiv_pos_site_id
 _symmetry_equiv_pos_as_xyz
  1  'x, y, z'
loop_
 _atom_site_type_symbol
 _atom_site_label
 _atom_site_symmetry_multiplicity
 _atom_site_fract_x
 _atom_site_fract_y
 _atom_site_fract_z
 _atom_site_occupancy
  Gd  Gd0  1  0.859897  0.750000  0.078438  1
  Gd  Gd1  1  0.635625  0.750000  0.581310  1
  Gd  Gd2  1  0.136030  0.250000  0.919135  1
  Gd  Gd3  1  0.364212  0.250000  0.418575  1
  Gd  Gd4  1  0.875236  0.497152  0.350320  1
  Gd  Gd5  1  0.624078  0.000559  0.849661  1
  Gd  Gd6  1  0.124175  0.999636  0.650590  1
  Gd  Gd7  1  0.377501  0.498995  0.149715  1
  Gd  Gd8  1  0.124175  0.500364  0.650590  1
  Gd  Gd9  1  0.377501  0.001005  0.149715  1
  Gd  Gd10  1  0.875236  0.002848  0.350320  1
  Gd  Gd11  1  0.624078  0.499441  0.849661  1
  Ga  Ga12  1  0.866571  0.054577  0.088278  1
  Ga  Ga13  1  0.633767  0.444792  0.588636  1
  Ga  Ga14  1  0.133845  0.555593  0.911923  1
  Ga  Ga15  1  0.366823  0.944553  0.412493  1
  Ga  Ga16  1  0.133845  0.944407  0.911923  1
  Ga  Ga17  1  0.366823  0.555447  0.412493  1
  Ga  Ga18  1  0.866571  0.445423  0.088278  1
  Ga  Ga19  1  0.633767  0.055208  0.588636  1
  Si  Si20  1  0.336187  0.750000  0.777747  1
  Si  Si21  1  0.836300  0.250000  0.722495  1
  Si  Si22  1  0.664215  0.250000  0.221731  1
  Si  Si23  1  0.394777  0.750000  0.990605  1
  Si  Si24  1  0.105280  0.750000  0.493545  1
  Si  Si25  1  0.603634  0.250000  0.008764  1
  Si  Si26  1  0.896772  0.250000  0.509703  1
  Si  Si27  1  0.586446  0.750000  0.299326  1
  Si  Si28  1  0.917883  0.750000  0.797588  1
  Si  Si29  1  0.418445  0.250000  0.702429  1
  Si  Si30  1  0.082069  0.250000  0.201868  1
  Ge  Ge31  1  0.158235  0.750000  0.273508  1
