# generated using pymatgen
data_Hf18MnRe6NiMo2
_symmetry_space_group_name_H-M   'P 1'
_cell_length_a   8.60794300
_cell_length_b   8.60794248
_cell_length_c   8.48658300
_cell_angle_alpha   90.00000000
_cell_angle_beta   90.00000000
_cell_angle_gamma   119.99999816
_symmetry_Int_Tables_number   1
_chemical_formula_structural   Hf18MnRe6NiMo2
_chemical_formula_sum   'Hf18 Mn1 Re6 Ni1 Mo2'
_cell_volume   544.58069468
_cell_formula_units_Z   1
loop_
 _symmetry_equiv_pos_site_id
 _symmetry_equiv_pos_as_xyz
  1  'x, y, z'
loop_
 _atom_site_type_symbol
 _atom_site_label
 _atom_site_symmetry_multiplicity
 _atom_site_fract_x
 _atom_site_fract_y
 _atom_site_fract_z
 _atom_site_occupancy
  Hf  Hf0  1  0.201216  0.798784  0.442023  1
  Hf  Hf1  1  0.201216  0.402431  0.442023  1
  Hf  Hf2  1  0.597569  0.798784  0.442023  1
  Hf  Hf3  1  0.801480  0.198520  0.558073  1
  Hf  Hf4  1  0.801480  0.602962  0.558073  1
  Hf  Hf5  1  0.397038  0.198520  0.558073  1
  Hf  Hf6  1  0.801480  0.198520  0.941927  1
  Hf  Hf7  1  0.801480  0.602962  0.941927  1
  Hf  Hf8  1  0.397038  0.198520  0.941927  1
  Hf  Hf9  1  0.201216  0.798784  0.057977  1
  Hf  Hf10  1  0.201216  0.402431  0.057977  1
  Hf  Hf11  1  0.597569  0.798784  0.057977  1
  Hf  Hf12  1  0.540129  0.459871  0.250000  1
  Hf  Hf13  1  0.540129  0.080258  0.250000  1
  Hf  Hf14  1  0.919742  0.459871  0.250000  1
  Hf  Hf15  1  0.458926  0.541074  0.750000  1
  Hf  Hf16  1  0.458926  0.917852  0.750000  1
  Hf  Hf17  1  0.082148  0.541074  0.750000  1
  Mn  Mn18  1  0.333333  0.666667  0.250000  1
  Re  Re19  1  0.888514  0.111486  0.250000  1
  Re  Re20  1  0.888514  0.777025  0.250000  1
  Re  Re21  1  0.222975  0.111486  0.250000  1
  Re  Re22  1  0.111416  0.888584  0.750000  1
  Re  Re23  1  0.111416  0.222832  0.750000  1
  Re  Re24  1  0.777168  0.888584  0.750000  1
  Ni  Ni25  1  0.666667  0.333333  0.750000  1
  Mo  Mo26  1  0.000000  0.000000  0.498418  1
  Mo  Mo27  1  0.000000  0.000000  0.001582  1
