# generated using pymatgen
data_Mn4Si6Tc5W
_symmetry_space_group_name_H-M   'P 1'
_cell_length_a   6.98667100
_cell_length_b   7.01101618
_cell_length_c   4.83222300
_cell_angle_alpha   90.00000000
_cell_angle_beta   90.00000000
_cell_angle_gamma   119.88519496
_symmetry_Int_Tables_number   1
_chemical_formula_structural   Mn4Si6Tc5W
_chemical_formula_sum   'Mn4 Si6 Tc5 W1'
_cell_volume   205.22492932
_cell_formula_units_Z   1
loop_
 _symmetry_equiv_pos_site_id
 _symmetry_equiv_pos_as_xyz
  1  'x, y, z'
loop_
 _atom_site_type_symbol
 _atom_site_label
 _atom_site_symmetry_multiplicity
 _atom_site_fract_x
 _atom_site_fract_y
 _atom_site_fract_z
 _atom_site_occupancy
  Mn  Mn0  1  0.331979  0.669147  0.500032  1
  Mn  Mn1  1  0.662833  0.330853  0.999968  1
  Mn  Mn2  1  0.662833  0.330853  0.500032  1
  Mn  Mn3  1  0.331979  0.669147  0.999968  1
  Si  Si4  1  0.405187  0.000000  0.750000  1
  Si  Si5  1  0.403512  0.409169  0.250000  1
  Si  Si6  1  0.994343  0.590831  0.250000  1
  Si  Si7  1  0.000255  0.400221  0.750000  1
  Si  Si8  1  0.600034  0.599779  0.750000  1
  Si  Si9  1  0.602546  0.000000  0.250000  1
  Tc  Tc10  1  0.002101  0.756428  0.750000  1
  Tc  Tc11  1  0.000731  0.243117  0.250000  1
  Tc  Tc12  1  0.757614  0.756883  0.250000  1
  Tc  Tc13  1  0.760496  0.000000  0.750000  1
  Tc  Tc14  1  0.245673  0.243572  0.750000  1
  W  W15  1  0.237883  0.000000  0.250000  1
