# generated using pymatgen
data_Ca3TbReTc3B16
_symmetry_space_group_name_H-M   'P 1'
_cell_length_a   3.58020800
_cell_length_b   6.00842706
_cell_length_c   11.61726401
_cell_angle_alpha   89.95470065
_cell_angle_beta   90.00000000
_cell_angle_gamma   90.00000000
_symmetry_Int_Tables_number   1
_chemical_formula_structural   Ca3TbReTc3B16
_chemical_formula_sum   'Ca3 Tb1 Re1 Tc3 B16'
_cell_volume   249.90375141
_cell_formula_units_Z   1
loop_
 _symmetry_equiv_pos_site_id
 _symmetry_equiv_pos_as_xyz
  1  'x, y, z'
loop_
 _atom_site_type_symbol
 _atom_site_label
 _atom_site_symmetry_multiplicity
 _atom_site_fract_x
 _atom_site_fract_y
 _atom_site_fract_z
 _atom_site_occupancy
  Ca  Ca0  1  0.000000  0.627171  0.349358  1
  Ca  Ca1  1  0.000000  0.372546  0.649526  1
  Ca  Ca2  1  0.000000  0.127595  0.151567  1
  Tb  Tb3  1  0.000000  0.871922  0.849616  1
  Re  Re4  1  0.000000  0.870486  0.583781  1
  Tc  Tc5  1  0.000000  0.630913  0.082471  1
  Tc  Tc6  1  0.000000  0.371140  0.915872  1
  Tc  Tc7  1  0.000000  0.130186  0.417138  1
  B  B8  1  0.500000  0.783662  0.184995  1
  B  B9  1  0.500000  0.215605  0.815669  1
  B  B10  1  0.500000  0.284552  0.315388  1
  B  B11  1  0.500000  0.714559  0.684859  1
  B  B12  1  0.500000  0.863911  0.031980  1
  B  B13  1  0.500000  0.135842  0.968190  1
  B  B14  1  0.500000  0.364731  0.467586  1
  B  B15  1  0.500000  0.634526  0.531744  1
  B  B16  1  0.500000  0.886245  0.452618  1
  B  B17  1  0.500000  0.114293  0.547339  1
  B  B18  1  0.500000  0.385984  0.047491  1
  B  B19  1  0.500000  0.611928  0.952802  1
  B  B20  1  0.500000  0.977230  0.307559  1
  B  B21  1  0.500000  0.024197  0.692408  1
  B  B22  1  0.500000  0.477268  0.192241  1
  B  B23  1  0.500000  0.523507  0.807803  1
