# generated using pymatgen
data_LaReSb12Os2Rh
_symmetry_space_group_name_H-M   'P 1'
_cell_length_a   8.21526039
_cell_length_b   8.17196088
_cell_length_c   8.17871533
_cell_angle_alpha   109.51509990
_cell_angle_beta   109.63885796
_cell_angle_gamma   109.58768324
_symmetry_Int_Tables_number   1
_chemical_formula_structural   LaReSb12Os2Rh
_chemical_formula_sum   'La1 Re1 Sb12 Os2 Rh1'
_cell_volume   420.95919678
_cell_formula_units_Z   1
loop_
 _symmetry_equiv_pos_site_id
 _symmetry_equiv_pos_as_xyz
  1  'x, y, z'
loop_
 _atom_site_type_symbol
 _atom_site_label
 _atom_site_symmetry_multiplicity
 _atom_site_fract_x
 _atom_site_fract_y
 _atom_site_fract_z
 _atom_site_occupancy
  La  La0  1  0.000000  0.000000  0.000000  1
  Re  Re1  1  0.500000  0.500000  0.500000  1
  Sb  Sb2  1  0.339076  0.183583  0.843174  1
  Sb  Sb3  1  0.660924  0.816417  0.156826  1
  Sb  Sb4  1  0.661736  0.503127  0.842889  1
  Sb  Sb5  1  0.338264  0.496873  0.157111  1
  Sb  Sb6  1  0.180620  0.843097  0.339084  1
  Sb  Sb7  1  0.819380  0.156903  0.660916  1
  Sb  Sb8  1  0.503402  0.843649  0.659115  1
  Sb  Sb9  1  0.496598  0.156351  0.340885  1
  Sb  Sb10  1  0.844950  0.340306  0.183395  1
  Sb  Sb11  1  0.155050  0.659694  0.816605  1
  Sb  Sb12  1  0.842265  0.660998  0.503558  1
  Sb  Sb13  1  0.157735  0.339002  0.496442  1
  Os  Os14  1  0.000000  0.000000  0.500000  1
  Os  Os15  1  0.000000  0.500000  0.000000  1
  Rh  Rh16  1  0.500000  0.000000  0.000000  1
