# generated using pymatgen
data_Y3ErInPt
_symmetry_space_group_name_H-M   'P 1'
_cell_length_a   9.73619916
_cell_length_b   9.73593673
_cell_length_c   9.73592944
_cell_angle_alpha   59.90582000
_cell_angle_beta   59.90487250
_cell_angle_gamma   59.90207486
_symmetry_Int_Tables_number   1
_chemical_formula_structural   Y3ErInPt
_chemical_formula_sum   'Y12 Er4 In4 Pt4'
_cell_volume   651.15633364
_cell_formula_units_Z   4
loop_
 _symmetry_equiv_pos_site_id
 _symmetry_equiv_pos_as_xyz
  1  'x, y, z'
loop_
 _atom_site_type_symbol
 _atom_site_label
 _atom_site_symmetry_multiplicity
 _atom_site_fract_x
 _atom_site_fract_y
 _atom_site_fract_z
 _atom_site_occupancy
  Y  Y0  1  0.810522  0.190528  0.190574  1
  Y  Y1  1  0.192370  0.808794  0.808770  1
  Y  Y2  1  0.190540  0.810520  0.190572  1
  Y  Y3  1  0.808789  0.192361  0.808772  1
  Y  Y4  1  0.190557  0.190555  0.810531  1
  Y  Y5  1  0.808798  0.808793  0.192373  1
  Y  Y6  1  0.936312  0.562439  0.562442  1
  Y  Y7  1  0.560836  0.939152  0.939150  1
  Y  Y8  1  0.562446  0.936305  0.562449  1
  Y  Y9  1  0.939152  0.560828  0.939153  1
  Y  Y10  1  0.562470  0.562458  0.936281  1
  Y  Y11  1  0.939168  0.939161  0.560818  1
  Er  Er12  1  0.349719  0.349719  0.349638  1
  Er  Er13  1  0.350129  0.350135  0.947542  1
  Er  Er14  1  0.350154  0.947500  0.350120  1
  Er  Er15  1  0.947481  0.350166  0.350125  1
  In  In16  1  0.584345  0.584360  0.584376  1
  In  In17  1  0.582882  0.582884  0.251474  1
  In  In18  1  0.582878  0.251473  0.582883  1
  In  In19  1  0.251472  0.582878  0.582884  1
  Pt  Pt20  1  0.144452  0.144464  0.144504  1
  Pt  Pt21  1  0.143101  0.143108  0.568330  1
  Pt  Pt22  1  0.143088  0.568335  0.143119  1
  Pt  Pt23  1  0.568339  0.143083  0.143119  1
