# generated using pymatgen
data_BaCeCuS3
_symmetry_space_group_name_H-M   'P 1'
_cell_length_a   10.68314000
_cell_length_b   4.11444400
_cell_length_c   13.51812500
_cell_angle_alpha   90.00000000
_cell_angle_beta   90.00000000
_cell_angle_gamma   90.00000000
_symmetry_Int_Tables_number   1
_chemical_formula_structural   BaCeCuS3
_chemical_formula_sum   'Ba4 Ce4 Cu4 S12'
_cell_volume   594.19163486
_cell_formula_units_Z   4
loop_
 _symmetry_equiv_pos_site_id
 _symmetry_equiv_pos_as_xyz
  1  'x, y, z'
loop_
 _atom_site_type_symbol
 _atom_site_label
 _atom_site_symmetry_multiplicity
 _atom_site_fract_x
 _atom_site_fract_y
 _atom_site_fract_z
 _atom_site_occupancy
  Ba  Ba0  1  0.272227  0.250001  0.005058  1
  Ba  Ba1  1  0.772226  0.250001  0.494942  1
  Ba  Ba2  1  0.227773  0.750001  0.505059  1
  Ba  Ba3  1  0.727774  0.750001  0.994941  1
  Ce  Ce4  1  0.989636  0.750001  0.240449  1
  Ce  Ce5  1  0.489636  0.750001  0.259551  1
  Ce  Ce6  1  0.510364  0.250001  0.740449  1
  Ce  Ce7  1  0.010363  0.250001  0.759550  1
  Cu  Cu8  1  0.739194  0.250001  0.220227  1
  Cu  Cu9  1  0.239194  0.250001  0.279774  1
  Cu  Cu10  1  0.760806  0.750001  0.720227  1
  Cu  Cu11  1  0.260806  0.750001  0.779774  1
  S  S12  1  0.909552  0.250001  0.110976  1
  S  S13  1  0.557946  0.250001  0.121811  1
  S  S14  1  0.243607  0.750001  0.184009  1
  S  S15  1  0.743606  0.750001  0.315990  1
  S  S16  1  0.057946  0.250001  0.378189  1
  S  S17  1  0.409552  0.250001  0.389024  1
  S  S18  1  0.590448  0.750001  0.610976  1
  S  S19  1  0.942054  0.750001  0.621811  1
  S  S20  1  0.256394  0.250001  0.684010  1
  S  S21  1  0.756394  0.250001  0.815990  1
  S  S22  1  0.442054  0.750001  0.878189  1
  S  S23  1  0.090448  0.750001  0.889024  1
