# generated using pymatgen
data_Gd5Dy3(ErIn3)2
_symmetry_space_group_name_H-M   'P 1'
_cell_length_a   9.15901857
_cell_length_b   9.15901725
_cell_length_c   9.16048800
_cell_angle_alpha   96.46137977
_cell_angle_beta   96.41551703
_cell_angle_gamma   140.86786761
_symmetry_Int_Tables_number   1
_chemical_formula_structural   Gd5Dy3(ErIn3)2
_chemical_formula_sum   'Gd5 Dy3 Er2 In6'
_cell_volume   456.98268978
_cell_formula_units_Z   1
loop_
 _symmetry_equiv_pos_site_id
 _symmetry_equiv_pos_as_xyz
  1  'x, y, z'
loop_
 _atom_site_type_symbol
 _atom_site_label
 _atom_site_symmetry_multiplicity
 _atom_site_fract_x
 _atom_site_fract_y
 _atom_site_fract_z
 _atom_site_occupancy
  Gd  Gd0  1  0.718878  0.417898  0.136776  1
  Gd  Gd1  1  0.281606  0.582255  0.863861  1
  Gd  Gd2  1  0.582693  0.718349  0.301043  1
  Gd  Gd3  1  0.219666  0.082873  0.302539  1
  Gd  Gd4  1  0.916306  0.218718  0.135022  1
  Dy  Dy5  1  0.783133  0.916902  0.700036  1
  Dy  Dy6  1  0.416237  0.281056  0.697293  1
  Dy  Dy7  1  0.082042  0.782263  0.864305  1
  Er  Er8  1  0.750327  0.250493  0.500558  1
  Er  Er9  1  0.250065  0.750229  0.500558  1
  In  In10  1  0.840532  0.661328  0.501861  1
  In  In11  1  0.338521  0.840947  0.179468  1
  In  In12  1  0.750554  0.748763  0.998764  1
  In  In13  1  0.658924  0.160345  0.819269  1
  In  In14  1  0.160516  0.339371  0.499886  1
  In  In15  1  0.250001  0.248208  0.998764  1
