# generated using pymatgen
data_Zr4BeSiH2
_symmetry_space_group_name_H-M   'P 1'
_cell_length_a   5.42278234
_cell_length_b   5.42278158
_cell_length_c   5.42278174
_cell_angle_alpha   104.35479821
_cell_angle_beta   104.35478983
_cell_angle_gamma   120.27484366
_symmetry_Int_Tables_number   1
_chemical_formula_structural   Zr4BeSiH2
_chemical_formula_sum   'Zr4 Be1 Si1 H2'
_cell_volume   119.43126438
_cell_formula_units_Z   1
loop_
 _symmetry_equiv_pos_site_id
 _symmetry_equiv_pos_as_xyz
  1  'x, y, z'
loop_
 _atom_site_type_symbol
 _atom_site_label
 _atom_site_symmetry_multiplicity
 _atom_site_fract_x
 _atom_site_fract_y
 _atom_site_fract_z
 _atom_site_occupancy
  Zr  Zr0  1  0.164800  0.664800  0.829602  1
  Zr  Zr1  1  0.835200  0.335200  0.170398  1
  Zr  Zr2  1  0.335200  0.164800  0.500000  1
  Zr  Zr3  1  0.664800  0.835200  0.500000  1
  Be  Be4  1  0.250000  0.250000  0.000000  1
  Si  Si5  1  0.750000  0.750000  0.000000  1
  H  H6  1  0.750000  0.250000  0.500000  1
  H  H7  1  0.250000  0.750000  0.500000  1
