# generated using pymatgen
data_Er10Bi3Ru2Pb
_symmetry_space_group_name_H-M   'P 1'
_cell_length_a   7.87656630
_cell_length_b   9.00998846
_cell_length_c   12.34033181
_cell_angle_alpha   90.00373108
_cell_angle_beta   90.19962871
_cell_angle_gamma   90.03630668
_symmetry_Int_Tables_number   1
_chemical_formula_structural   Er10Bi3Ru2Pb
_chemical_formula_sum   'Er20 Bi6 Ru4 Pb2'
_cell_volume   875.76035377
_cell_formula_units_Z   2
loop_
 _symmetry_equiv_pos_site_id
 _symmetry_equiv_pos_as_xyz
  1  'x, y, z'
loop_
 _atom_site_type_symbol
 _atom_site_label
 _atom_site_symmetry_multiplicity
 _atom_site_fract_x
 _atom_site_fract_y
 _atom_site_fract_z
 _atom_site_occupancy
  Er  Er0  1  0.660223  0.752443  0.707458  1
  Er  Er1  1  0.339777  0.247557  0.292542  1
  Er  Er2  1  0.155957  0.248063  0.791679  1
  Er  Er3  1  0.844043  0.751937  0.208321  1
  Er  Er4  1  0.121372  0.752198  0.809334  1
  Er  Er5  1  0.878628  0.247802  0.190666  1
  Er  Er6  1  0.627111  0.248251  0.689468  1
  Er  Er7  1  0.372889  0.751749  0.310532  1
  Er  Er8  1  0.554196  0.749618  0.995507  1
  Er  Er9  1  0.445804  0.250382  0.004493  1
  Er  Er10  1  0.052783  0.245947  0.504597  1
  Er  Er11  1  0.947217  0.754053  0.495403  1
  Er  Er12  1  0.825642  0.457965  0.934319  1
  Er  Er13  1  0.174358  0.542035  0.065681  1
  Er  Er14  1  0.326236  0.540929  0.566404  1
  Er  Er15  1  0.173044  0.959023  0.068468  1
  Er  Er16  1  0.673764  0.459071  0.433596  1
  Er  Er17  1  0.826956  0.040977  0.931532  1
  Er  Er18  1  0.676612  0.040199  0.434534  1
  Er  Er19  1  0.323388  0.959801  0.565466  1
  Bi  Bi20  1  0.432085  0.993987  0.828334  1
  Bi  Bi21  1  0.067735  0.505527  0.328757  1
  Bi  Bi22  1  0.567915  0.006013  0.171666  1
  Bi  Bi23  1  0.932265  0.494473  0.671243  1
  Bi  Bi24  1  0.567733  0.494007  0.173146  1
  Bi  Bi25  1  0.432267  0.505993  0.826854  1
  Ru  Ru26  1  0.925747  0.749594  0.990844  1
  Ru  Ru27  1  0.074253  0.250406  0.009156  1
  Ru  Ru28  1  0.428815  0.250013  0.508789  1
  Ru  Ru29  1  0.571185  0.749987  0.491211  1
  Pb  Pb30  1  0.931959  0.005330  0.672313  1
  Pb  Pb31  1  0.068041  0.994670  0.327687  1
