# generated using pymatgen
data_CaLa2(SnRh)2
_symmetry_space_group_name_H-M   'P 1'
_cell_length_a   5.84146100
_cell_length_b   8.63594100
_cell_length_c   14.29981300
_cell_angle_alpha   90.00000000
_cell_angle_beta   90.00000000
_cell_angle_gamma   90.00000000
_symmetry_Int_Tables_number   1
_chemical_formula_structural   CaLa2(SnRh)2
_chemical_formula_sum   'Ca4 La8 Sn8 Rh8'
_cell_volume   721.37569596
_cell_formula_units_Z   4
loop_
 _symmetry_equiv_pos_site_id
 _symmetry_equiv_pos_as_xyz
  1  'x, y, z'
loop_
 _atom_site_type_symbol
 _atom_site_label
 _atom_site_symmetry_multiplicity
 _atom_site_fract_x
 _atom_site_fract_y
 _atom_site_fract_z
 _atom_site_occupancy
  Ca  Ca0  1  0.644460  0.257596  0.250000  1
  Ca  Ca1  1  0.355540  0.742404  0.750000  1
  Ca  Ca2  1  0.355540  0.757596  0.250000  1
  Ca  Ca3  1  0.644460  0.242404  0.750000  1
  La  La4  1  0.173146  0.400666  0.095230  1
  La  La5  1  0.826854  0.599334  0.904770  1
  La  La6  1  0.826854  0.599334  0.595230  1
  La  La7  1  0.826854  0.900666  0.404770  1
  La  La8  1  0.173146  0.400666  0.404770  1
  La  La9  1  0.173146  0.099334  0.595230  1
  La  La10  1  0.173146  0.099334  0.904770  1
  La  La11  1  0.826854  0.900666  0.095230  1
  Sn  Sn12  1  0.145645  0.101801  0.250000  1
  Sn  Sn13  1  0.854355  0.898199  0.750000  1
  Sn  Sn14  1  0.854355  0.601801  0.250000  1
  Sn  Sn15  1  0.145645  0.398199  0.750000  1
  Sn  Sn16  1  0.658159  0.250000  0.000000  1
  Sn  Sn17  1  0.341841  0.750000  0.000000  1
  Sn  Sn18  1  0.341841  0.750000  0.500000  1
  Sn  Sn19  1  0.658159  0.250000  0.500000  1
  Rh  Rh20  1  0.369624  0.039717  0.087715  1
  Rh  Rh21  1  0.630376  0.960283  0.912285  1
  Rh  Rh22  1  0.630376  0.960283  0.587715  1
  Rh  Rh23  1  0.630376  0.539717  0.412285  1
  Rh  Rh24  1  0.369624  0.039717  0.412285  1
  Rh  Rh25  1  0.369624  0.460283  0.587715  1
  Rh  Rh26  1  0.369624  0.460283  0.912285  1
  Rh  Rh27  1  0.630376  0.539717  0.087715  1
