# generated using pymatgen
data_Tb2ErPa(ReB6)2
_symmetry_space_group_name_H-M   'P 1'
_cell_length_a   3.70473800
_cell_length_b   9.18546015
_cell_length_c   11.54718958
_cell_angle_alpha   90.41765520
_cell_angle_beta   90.00000000
_cell_angle_gamma   90.00000000
_symmetry_Int_Tables_number   1
_chemical_formula_structural   Tb2ErPa(ReB6)2
_chemical_formula_sum   'Tb4 Er2 Pa2 Re4 B24'
_cell_volume   392.93722597
_cell_formula_units_Z   2
loop_
 _symmetry_equiv_pos_site_id
 _symmetry_equiv_pos_as_xyz
  1  'x, y, z'
loop_
 _atom_site_type_symbol
 _atom_site_label
 _atom_site_symmetry_multiplicity
 _atom_site_fract_x
 _atom_site_fract_y
 _atom_site_fract_z
 _atom_site_occupancy
  Tb  Tb0  1  0.000000  0.823568  0.085697  1
  Tb  Tb1  1  0.000000  0.176432  0.914303  1
  Tb  Tb2  1  0.000000  0.944909  0.372794  1
  Tb  Tb3  1  0.000000  0.055091  0.627206  1
  Er  Er4  1  0.000000  0.443885  0.126444  1
  Er  Er5  1  0.000000  0.556115  0.873556  1
  Pa  Pa6  1  0.000000  0.322466  0.412839  1
  Pa  Pa7  1  0.000000  0.677534  0.587161  1
  Re  Re8  1  0.000000  0.634310  0.324491  1
  Re  Re9  1  0.000000  0.365690  0.675509  1
  Re  Re10  1  0.000000  0.141774  0.181499  1
  Re  Re11  1  0.000000  0.858226  0.818501  1
  B  B12  1  0.500000  0.552831  0.432767  1
  B  B13  1  0.500000  0.447169  0.567233  1
  B  B14  1  0.500000  0.054074  0.067465  1
  B  B15  1  0.500000  0.945926  0.932535  1
  B  B16  1  0.500000  0.746603  0.419626  1
  B  B17  1  0.500000  0.253397  0.580374  1
  B  B18  1  0.500000  0.248914  0.080451  1
  B  B19  1  0.500000  0.751086  0.919549  1
  B  B20  1  0.500000  0.790414  0.265722  1
  B  B21  1  0.500000  0.209586  0.734278  1
  B  B22  1  0.500000  0.293127  0.233375  1
  B  B23  1  0.500000  0.706873  0.766625  1
  B  B24  1  0.500000  0.630473  0.185393  1
  B  B25  1  0.500000  0.369527  0.814607  1
  B  B26  1  0.500000  0.133739  0.313478  1
  B  B27  1  0.500000  0.866261  0.686522  1
  B  B28  1  0.500000  0.983361  0.212082  1
  B  B29  1  0.500000  0.016639  0.787918  1
  B  B30  1  0.500000  0.482653  0.286315  1
  B  B31  1  0.500000  0.517347  0.713685  1
  B  B32  1  0.500000  0.602862  0.028977  1
  B  B33  1  0.500000  0.397138  0.971023  1
  B  B34  1  0.500000  0.115409  0.468235  1
  B  B35  1  0.500000  0.884591  0.531765  1
