# generated using pymatgen
data_Pr2Tc2Br
_symmetry_space_group_name_H-M   'P 1'
_cell_length_a   4.14826900
_cell_length_b   4.14826846
_cell_length_c   17.83122700
_cell_angle_alpha   90.00000000
_cell_angle_beta   90.00000000
_cell_angle_gamma   119.99999634
_symmetry_Int_Tables_number   1
_chemical_formula_structural   Pr2Tc2Br
_chemical_formula_sum   'Pr4 Tc4 Br2'
_cell_volume   265.73309267
_cell_formula_units_Z   2
loop_
 _symmetry_equiv_pos_site_id
 _symmetry_equiv_pos_as_xyz
  1  'x, y, z'
loop_
 _atom_site_type_symbol
 _atom_site_label
 _atom_site_symmetry_multiplicity
 _atom_site_fract_x
 _atom_site_fract_y
 _atom_site_fract_z
 _atom_site_occupancy
  Pr  Pr0  1  0.000000  0.000000  0.118817  1
  Pr  Pr1  1  0.000000  0.000000  0.381183  1
  Pr  Pr2  1  0.000000  0.000000  0.618817  1
  Pr  Pr3  1  0.000000  0.000000  0.881183  1
  Tc  Tc4  1  0.333334  0.666668  0.016132  1
  Tc  Tc5  1  0.333334  0.666668  0.483868  1
  Tc  Tc6  1  0.666667  0.333332  0.516132  1
  Tc  Tc7  1  0.666667  0.333332  0.983868  1
  Br  Br8  1  0.666667  0.333332  0.250000  1
  Br  Br9  1  0.333334  0.666668  0.750000  1
