# generated using pymatgen
data_Nd3Er2P12Ru15Rh4
_symmetry_space_group_name_H-M   'P 1'
_cell_length_a   12.59423897
_cell_length_b   12.63826691
_cell_length_c   3.99628800
_cell_angle_alpha   90.00000000
_cell_angle_beta   90.00000000
_cell_angle_gamma   120.00878791
_symmetry_Int_Tables_number   1
_chemical_formula_structural   Nd3Er2P12Ru15Rh4
_chemical_formula_sum   'Nd3 Er2 P12 Ru15 Rh4'
_cell_volume   550.81834820
_cell_formula_units_Z   1
loop_
 _symmetry_equiv_pos_site_id
 _symmetry_equiv_pos_as_xyz
  1  'x, y, z'
loop_
 _atom_site_type_symbol
 _atom_site_label
 _atom_site_symmetry_multiplicity
 _atom_site_fract_x
 _atom_site_fract_y
 _atom_site_fract_z
 _atom_site_occupancy
  Nd  Nd0  1  0.183263  0.182359  0.500000  1
  Nd  Nd1  1  0.815167  0.998489  0.500000  1
  Nd  Nd2  1  0.999622  0.816071  0.500000  1
  Er  Er3  1  0.333484  0.667271  0.000000  1
  Er  Er4  1  0.667125  0.332969  0.000000  1
  P  P5  1  0.811027  0.810658  0.000000  1
  P  P6  1  0.188918  0.999969  0.000000  1
  P  P7  1  0.997425  0.185514  0.000000  1
  P  P8  1  0.175114  0.482620  0.500000  1
  P  P9  1  0.519007  0.696999  0.500000  1
  P  P10  1  0.303146  0.823639  0.500000  1
  P  P11  1  0.697451  0.519675  0.500000  1
  P  P12  1  0.823134  0.302854  0.500000  1
  P  P13  1  0.480787  0.178048  0.500000  1
  P  P14  1  0.375004  0.371210  0.000000  1
  P  P15  1  0.628396  0.000189  0.000000  1
  P  P16  1  0.000076  0.628212  0.000000  1
  Ru  Ru17  1  0.710781  0.710773  0.500000  1
  Ru  Ru18  1  0.289028  0.000650  0.500000  1
  Ru  Ru19  1  0.002071  0.288991  0.500000  1
  Ru  Ru20  1  0.618157  0.804348  0.000000  1
  Ru  Ru21  1  0.195638  0.814590  0.000000  1
  Ru  Ru22  1  0.803700  0.617528  0.000000  1
  Ru  Ru23  1  0.815303  0.196482  0.000000  1
  Ru  Ru24  1  0.381911  0.185582  0.000000  1
  Ru  Ru25  1  0.365558  0.493745  0.500000  1
  Ru  Ru26  1  0.505978  0.874687  0.500000  1
  Ru  Ru27  1  0.125447  0.633264  0.500000  1
  Ru  Ru28  1  0.874717  0.505294  0.500000  1
  Ru  Ru29  1  0.631802  0.125776  0.500000  1
  Ru  Ru30  1  0.493294  0.369074  0.500000  1
  Ru  Ru31  1  0.999758  0.999662  0.000000  1
  Rh  Rh32  1  0.551208  0.553830  0.000000  1
  Rh  Rh33  1  0.447693  0.000506  0.000000  1
  Rh  Rh34  1  0.003138  0.449118  0.000000  1
  Rh  Rh35  1  0.186672  0.379353  0.000000  1
