# generated using pymatgen
data_CaY6FeI12
_symmetry_space_group_name_H-M   'P 1'
_cell_length_a   9.76161109
_cell_length_b   9.76160977
_cell_length_c   9.76161062
_cell_angle_alpha   106.98587930
_cell_angle_beta   106.98587918
_cell_angle_gamma   106.98587917
_symmetry_Int_Tables_number   1
_chemical_formula_structural   CaY6FeI12
_chemical_formula_sum   'Ca1 Y6 Fe1 I12'
_cell_volume   774.95641999
_cell_formula_units_Z   1
loop_
 _symmetry_equiv_pos_site_id
 _symmetry_equiv_pos_as_xyz
  1  'x, y, z'
loop_
 _atom_site_type_symbol
 _atom_site_label
 _atom_site_symmetry_multiplicity
 _atom_site_fract_x
 _atom_site_fract_y
 _atom_site_fract_z
 _atom_site_occupancy
  Ca  Ca0  1  0.500000  0.500000  0.500000  1
  Y  Y1  1  0.708228  0.976031  0.906189  1
  Y  Y2  1  0.976031  0.906189  0.708228  1
  Y  Y3  1  0.093811  0.291772  0.023969  1
  Y  Y4  1  0.291772  0.023969  0.093811  1
  Y  Y5  1  0.906189  0.708228  0.976031  1
  Y  Y6  1  0.023969  0.093811  0.291772  1
  Fe  Fe7  1  0.000000  0.000000  0.000000  1
  I  I8  1  0.072283  0.224400  0.681140  1
  I  I9  1  0.378203  0.149358  0.455946  1
  I  I10  1  0.621797  0.850642  0.544054  1
  I  I11  1  0.224400  0.681140  0.072283  1
  I  I12  1  0.775600  0.318860  0.927717  1
  I  I13  1  0.681140  0.072283  0.224400  1
  I  I14  1  0.544054  0.621797  0.850642  1
  I  I15  1  0.850642  0.544054  0.621797  1
  I  I16  1  0.927717  0.775600  0.318860  1
  I  I17  1  0.318860  0.927717  0.775600  1
  I  I18  1  0.455946  0.378203  0.149358  1
  I  I19  1  0.149358  0.455946  0.378203  1
