# generated using pymatgen
data_Yb3YTm4(B6Ru)4
_symmetry_space_group_name_H-M   'P 1'
_cell_length_a   3.63239700
_cell_length_b   9.10791687
_cell_length_c   11.49728501
_cell_angle_alpha   89.93898444
_cell_angle_beta   90.00000000
_cell_angle_gamma   90.00000000
_symmetry_Int_Tables_number   1
_chemical_formula_structural   Yb3YTm4(B6Ru)4
_chemical_formula_sum   'Yb3 Y1 Tm4 B24 Ru4'
_cell_volume   380.37101660
_cell_formula_units_Z   1
loop_
 _symmetry_equiv_pos_site_id
 _symmetry_equiv_pos_as_xyz
  1  'x, y, z'
loop_
 _atom_site_type_symbol
 _atom_site_label
 _atom_site_symmetry_multiplicity
 _atom_site_fract_x
 _atom_site_fract_y
 _atom_site_fract_z
 _atom_site_occupancy
  Yb  Yb0  1  0.000000  0.324793  0.414682  1
  Yb  Yb1  1  0.000000  0.675095  0.584766  1
  Yb  Yb2  1  0.000000  0.823424  0.085893  1
  Y  Y3  1  0.000000  0.176013  0.915221  1
  Tm  Tm4  1  0.000000  0.941124  0.366792  1
  Tm  Tm5  1  0.000000  0.057907  0.631259  1
  Tm  Tm6  1  0.000000  0.443202  0.132793  1
  Tm  Tm7  1  0.000000  0.558735  0.868129  1
  B  B8  1  0.500000  0.553545  0.432892  1
  B  B9  1  0.500000  0.445814  0.567853  1
  B  B10  1  0.500000  0.053876  0.067110  1
  B  B11  1  0.500000  0.945542  0.933146  1
  B  B12  1  0.500000  0.749041  0.417382  1
  B  B13  1  0.500000  0.250776  0.582678  1
  B  B14  1  0.500000  0.249641  0.082266  1
  B  B15  1  0.500000  0.751132  0.917826  1
  B  B16  1  0.500000  0.791086  0.264099  1
  B  B17  1  0.500000  0.208426  0.735936  1
  B  B18  1  0.500000  0.291395  0.235133  1
  B  B19  1  0.500000  0.709600  0.764681  1
  B  B20  1  0.500000  0.630717  0.185448  1
  B  B21  1  0.500000  0.369495  0.815405  1
  B  B22  1  0.500000  0.130726  0.313948  1
  B  B23  1  0.500000  0.869646  0.684928  1
  B  B24  1  0.500000  0.982881  0.210811  1
  B  B25  1  0.500000  0.016864  0.788363  1
  B  B26  1  0.500000  0.483387  0.288891  1
  B  B27  1  0.500000  0.516497  0.711858  1
  B  B28  1  0.500000  0.598556  0.027182  1
  B  B29  1  0.500000  0.401245  0.973006  1
  B  B30  1  0.500000  0.096542  0.472913  1
  B  B31  1  0.500000  0.903183  0.526084  1
  Ru  Ru32  1  0.000000  0.639142  0.320085  1
  Ru  Ru33  1  0.000000  0.359763  0.681230  1
  Ru  Ru34  1  0.000000  0.138957  0.179570  1
  Ru  Ru35  1  0.000000  0.862231  0.819740  1
