# generated using pymatgen
data_Zr7ScSi16Mo11W
_symmetry_space_group_name_H-M   'P 1'
_cell_length_a   6.61166132
_cell_length_b   6.76730701
_cell_length_c   12.69519413
_cell_angle_alpha   90.00251937
_cell_angle_beta   90.00427195
_cell_angle_gamma   90.01711147
_symmetry_Int_Tables_number   1
_chemical_formula_structural   Zr7ScSi16Mo11W
_chemical_formula_sum   'Zr7 Sc1 Si16 Mo11 W1'
_cell_volume   568.02284701
_cell_formula_units_Z   1
loop_
 _symmetry_equiv_pos_site_id
 _symmetry_equiv_pos_as_xyz
  1  'x, y, z'
loop_
 _atom_site_type_symbol
 _atom_site_label
 _atom_site_symmetry_multiplicity
 _atom_site_fract_x
 _atom_site_fract_y
 _atom_site_fract_z
 _atom_site_occupancy
  Zr  Zr0  1  0.496781  0.671029  0.592875  1
  Zr  Zr1  1  0.996777  0.827891  0.907345  1
  Zr  Zr2  1  0.505017  0.327475  0.093563  1
  Zr  Zr3  1  0.003640  0.172565  0.405951  1
  Zr  Zr4  1  0.504832  0.327663  0.406575  1
  Zr  Zr5  1  0.003068  0.170751  0.094093  1
  Zr  Zr6  1  0.495272  0.671689  0.907177  1
  Sc  Sc7  1  0.994911  0.829871  0.591670  1
  Si  Si8  1  0.666781  0.958509  0.457569  1
  Si  Si9  1  0.166398  0.541613  0.043563  1
  Si  Si10  1  0.333075  0.042526  0.957552  1
  Si  Si11  1  0.834621  0.460164  0.543508  1
  Si  Si12  1  0.331595  0.040056  0.543042  1
  Si  Si13  1  0.833385  0.457990  0.957607  1
  Si  Si14  1  0.666585  0.957802  0.042504  1
  Si  Si15  1  0.166250  0.542648  0.456752  1
  Si  Si16  1  0.466127  0.376337  0.750234  1
  Si  Si17  1  0.967011  0.123168  0.749261  1
  Si  Si18  1  0.533116  0.622163  0.249768  1
  Si  Si19  1  0.034808  0.874890  0.250764  1
  Si  Si20  1  0.701076  0.861528  0.749097  1
  Si  Si21  1  0.197797  0.639742  0.748669  1
  Si  Si22  1  0.299747  0.137863  0.249892  1
  Si  Si23  1  0.799986  0.362995  0.250259  1
  Mo  Mo24  1  0.666738  0.164841  0.623937  1
  Mo  Mo25  1  0.167637  0.336428  0.876213  1
  Mo  Mo26  1  0.333454  0.836330  0.123992  1
  Mo  Mo27  1  0.830724  0.664953  0.376035  1
  Mo  Mo28  1  0.335133  0.836151  0.375688  1
  Mo  Mo29  1  0.831031  0.665328  0.124366  1
  Mo  Mo30  1  0.667345  0.163771  0.876180  1
  Mo  Mo31  1  0.168358  0.335942  0.623622  1
  Mo  Mo32  1  0.833454  0.508792  0.750441  1
  Mo  Mo33  1  0.333177  0.990313  0.750008  1
  Mo  Mo34  1  0.166934  0.488444  0.250425  1
  W  W35  1  0.667361  0.009775  0.249798  1
