# generated using pymatgen
data_Er8Hf3Si16W9
_symmetry_space_group_name_H-M   'P 1'
_cell_length_a   6.94900535
_cell_length_b   6.94900535
_cell_length_c   12.85916600
_cell_angle_alpha   89.92187645
_cell_angle_beta   90.07812355
_cell_angle_gamma   89.89836356
_symmetry_Int_Tables_number   1
_chemical_formula_structural   Er8Hf3Si16W9
_chemical_formula_sum   'Er8 Hf3 Si16 W9'
_cell_volume   620.94995816
_cell_formula_units_Z   1
loop_
 _symmetry_equiv_pos_site_id
 _symmetry_equiv_pos_as_xyz
  1  'x, y, z'
loop_
 _atom_site_type_symbol
 _atom_site_label
 _atom_site_symmetry_multiplicity
 _atom_site_fract_x
 _atom_site_fract_y
 _atom_site_fract_z
 _atom_site_occupancy
  Er  Er0  1  0.339208  0.998534  0.469316  1
  Er  Er1  1  0.501565  0.836646  0.717491  1
  Er  Er2  1  0.502467  0.162051  0.220816  1
  Er  Er3  1  0.836646  0.501565  0.282509  1
  Er  Er4  1  0.162051  0.502467  0.779184  1
  Er  Er5  1  0.662236  0.998784  0.968725  1
  Er  Er6  1  0.998534  0.339208  0.530684  1
  Er  Er7  1  0.998784  0.662236  0.031275  1
  Hf  Hf8  1  0.333143  0.333143  0.000000  1
  Hf  Hf9  1  0.167747  0.831554  0.252061  1
  Hf  Hf10  1  0.831554  0.167747  0.747939  1
  Si  Si11  1  0.207007  0.126716  0.681055  1
  Si  Si12  1  0.372353  0.705910  0.930525  1
  Si  Si13  1  0.626150  0.300584  0.432161  1
  Si  Si14  1  0.705910  0.372353  0.069475  1
  Si  Si15  1  0.300584  0.626150  0.567839  1
  Si  Si16  1  0.794088  0.871953  0.181327  1
  Si  Si17  1  0.126716  0.207007  0.318945  1
  Si  Si18  1  0.871953  0.794088  0.818673  1
  Si  Si19  1  0.293098  0.958855  0.062388  1
  Si  Si20  1  0.544073  0.789974  0.316062  1
  Si  Si21  1  0.460116  0.207395  0.811161  1
  Si  Si22  1  0.789974  0.544073  0.683938  1
  Si  Si23  1  0.207395  0.460116  0.188839  1
  Si  Si24  1  0.708358  0.032974  0.559613  1
  Si  Si25  1  0.958855  0.293098  0.937612  1
  Si  Si26  1  0.032974  0.708358  0.440387  1
  W  W27  1  0.666306  0.666306  0.500000  1
  W  W28  1  0.161015  0.005613  0.873216  1
  W  W29  1  0.496589  0.662152  0.124159  1
  W  W30  1  0.503084  0.333425  0.621540  1
  W  W31  1  0.662152  0.496589  0.875841  1
  W  W32  1  0.333425  0.503084  0.378460  1
  W  W33  1  0.841111  0.997165  0.374132  1
  W  W34  1  0.005613  0.161015  0.126784  1
  W  W35  1  0.997165  0.841111  0.625868  1
