# generated using pymatgen
data_Y6TmTh(CdNi)2
_symmetry_space_group_name_H-M   'P 1'
_cell_length_a   9.61145075
_cell_length_b   9.61145189
_cell_length_c   9.62926000
_cell_angle_alpha   59.93869090
_cell_angle_beta   59.93868694
_cell_angle_gamma   59.95517865
_symmetry_Int_Tables_number   1
_chemical_formula_structural   Y6TmTh(CdNi)2
_chemical_formula_sum   'Y12 Tm2 Th2 Cd4 Ni4'
_cell_volume   628.21125390
_cell_formula_units_Z   2
loop_
 _symmetry_equiv_pos_site_id
 _symmetry_equiv_pos_as_xyz
  1  'x, y, z'
loop_
 _atom_site_type_symbol
 _atom_site_label
 _atom_site_symmetry_multiplicity
 _atom_site_fract_x
 _atom_site_fract_y
 _atom_site_fract_z
 _atom_site_occupancy
  Y  Y0  1  0.062061  0.440453  0.437952  1
  Y  Y1  1  0.440453  0.062061  0.059534  1
  Y  Y2  1  0.440453  0.062061  0.437952  1
  Y  Y3  1  0.062061  0.440453  0.059534  1
  Y  Y4  1  0.439024  0.439024  0.060976  1
  Y  Y5  1  0.061140  0.061140  0.438860  1
  Y  Y6  1  0.186957  0.813792  0.815150  1
  Y  Y7  1  0.813792  0.186957  0.184101  1
  Y  Y8  1  0.813792  0.186957  0.815150  1
  Y  Y9  1  0.186957  0.813792  0.184101  1
  Y  Y10  1  0.813717  0.813717  0.186283  1
  Y  Y11  1  0.186558  0.186558  0.813442  1
  Tm  Tm12  1  0.598068  0.202021  0.599955  1
  Tm  Tm13  1  0.202021  0.598068  0.599955  1
  Th  Th14  1  0.592856  0.592856  0.600796  1
  Th  Th15  1  0.592856  0.592856  0.213493  1
  Cd  Cd16  1  0.832621  0.832621  0.829494  1
  Cd  Cd17  1  0.832621  0.832621  0.505262  1
  Cd  Cd18  1  0.833434  0.505452  0.830557  1
  Cd  Cd19  1  0.505452  0.833434  0.830557  1
  Ni  Ni20  1  0.394284  0.394284  0.393130  1
  Ni  Ni21  1  0.394284  0.394284  0.818302  1
  Ni  Ni22  1  0.397296  0.817239  0.392733  1
  Ni  Ni23  1  0.817239  0.397296  0.392733  1
