# generated using pymatgen
data_Pr7Dy9Cd4(OsPt)2
_symmetry_space_group_name_H-M   'P 1'
_cell_length_a   9.82861446
_cell_length_b   9.82861347
_cell_length_c   9.86465100
_cell_angle_alpha   59.87863240
_cell_angle_beta   59.87863573
_cell_angle_gamma   60.06561747
_symmetry_Int_Tables_number   1
_chemical_formula_structural   Pr7Dy9Cd4(OsPt)2
_chemical_formula_sum   'Pr7 Dy9 Cd4 Os2 Pt2'
_cell_volume   672.92437999
_cell_formula_units_Z   1
loop_
 _symmetry_equiv_pos_site_id
 _symmetry_equiv_pos_as_xyz
  1  'x, y, z'
loop_
 _atom_site_type_symbol
 _atom_site_label
 _atom_site_symmetry_multiplicity
 _atom_site_fract_x
 _atom_site_fract_y
 _atom_site_fract_z
 _atom_site_occupancy
  Pr  Pr0  1  0.809899  0.809899  0.190101  1
  Pr  Pr1  1  0.941800  0.552248  0.564391  1
  Pr  Pr2  1  0.552248  0.941800  0.941560  1
  Pr  Pr3  1  0.552248  0.941800  0.564391  1
  Pr  Pr4  1  0.941800  0.552248  0.941560  1
  Pr  Pr5  1  0.559671  0.559671  0.940329  1
  Pr  Pr6  1  0.942207  0.942207  0.557793  1
  Dy  Dy7  1  0.347061  0.347061  0.353230  1
  Dy  Dy8  1  0.347061  0.347061  0.952649  1
  Dy  Dy9  1  0.341348  0.962903  0.347875  1
  Dy  Dy10  1  0.962903  0.341348  0.347875  1
  Dy  Dy11  1  0.816438  0.188529  0.188485  1
  Dy  Dy12  1  0.188529  0.816438  0.806548  1
  Dy  Dy13  1  0.188529  0.816438  0.188485  1
  Dy  Dy14  1  0.816438  0.188529  0.806548  1
  Dy  Dy15  1  0.186051  0.186051  0.813949  1
  Cd  Cd16  1  0.577910  0.577910  0.581086  1
  Cd  Cd17  1  0.577910  0.577910  0.263094  1
  Cd  Cd18  1  0.580099  0.260779  0.579560  1
  Cd  Cd19  1  0.260779  0.580099  0.579560  1
  Os  Os20  1  0.142829  0.142829  0.137582  1
  Os  Os21  1  0.142829  0.142829  0.576762  1
  Pt  Pt22  1  0.151719  0.571694  0.138293  1
  Pt  Pt23  1  0.571694  0.151719  0.138293  1
