# generated using pymatgen
data_SmAl4(AuO4)3
_symmetry_space_group_name_H-M   'P 1'
_cell_length_a   6.46386603
_cell_length_b   6.46384302
_cell_length_c   6.46385000
_cell_angle_alpha   70.52833128
_cell_angle_beta   70.52892990
_cell_angle_gamma   109.47139631
_symmetry_Int_Tables_number   1
_chemical_formula_structural   SmAl4(AuO4)3
_chemical_formula_sum   'Sm1 Al4 Au3 O12'
_cell_volume   207.89784617
_cell_formula_units_Z   1
loop_
 _symmetry_equiv_pos_site_id
 _symmetry_equiv_pos_as_xyz
  1  'x, y, z'
loop_
 _atom_site_type_symbol
 _atom_site_label
 _atom_site_symmetry_multiplicity
 _atom_site_fract_x
 _atom_site_fract_y
 _atom_site_fract_z
 _atom_site_occupancy
  Sm  Sm0  1  0.000019  0.000106  0.999960  1
  Al  Al1  1  0.000016  0.500006  0.999989  1
  Al  Al2  1  0.500018  0.500019  0.499990  1
  Al  Al3  1  0.499992  0.999988  0.000013  1
  Al  Al4  1  0.999986  0.000002  0.500004  1
  Au  Au5  1  0.500080  0.000034  0.499900  1
  Au  Au6  1  0.499858  0.499878  0.000012  1
  Au  Au7  1  0.999996  0.499812  0.500193  1
  O  O8  1  0.889616  0.708015  0.818417  1
  O  O9  1  0.473589  0.292022  0.818443  1
  O  O10  1  0.526421  0.707990  0.181593  1
  O  O11  1  0.110503  0.292046  0.181548  1
  O  O12  1  0.818455  0.110482  0.707972  1
  O  O13  1  0.818414  0.526454  0.291957  1
  O  O14  1  0.181547  0.473593  0.707940  1
  O  O15  1  0.181580  0.889589  0.291981  1
  O  O16  1  0.292019  0.181580  0.526404  1
  O  O17  1  0.707941  0.181552  0.110495  1
  O  O18  1  0.291971  0.818407  0.889608  1
  O  O19  1  0.707980  0.818423  0.473577  1
