# generated using pymatgen
data_LiZr(VPd6)2
_symmetry_space_group_name_H-M   'P 1'
_cell_length_a   5.59477700
_cell_length_b   5.59477761
_cell_length_c   8.98046400
_cell_angle_alpha   90.00000000
_cell_angle_beta   90.00000000
_cell_angle_gamma   119.99999050
_symmetry_Int_Tables_number   1
_chemical_formula_structural   LiZr(VPd6)2
_chemical_formula_sum   'Li1 Zr1 V2 Pd12'
_cell_volume   243.44174831
_cell_formula_units_Z   1
loop_
 _symmetry_equiv_pos_site_id
 _symmetry_equiv_pos_as_xyz
  1  'x, y, z'
loop_
 _atom_site_type_symbol
 _atom_site_label
 _atom_site_symmetry_multiplicity
 _atom_site_fract_x
 _atom_site_fract_y
 _atom_site_fract_z
 _atom_site_occupancy
  Li  Li0  1  0.333333  0.666667  0.250000  1
  Zr  Zr1  1  0.666667  0.333333  0.750000  1
  V  V2  1  0.000000  0.000000  0.493169  1
  V  V3  1  0.000000  0.000000  0.006831  1
  Pd  Pd4  1  0.499423  0.500577  0.497571  1
  Pd  Pd5  1  0.499423  0.998845  0.497571  1
  Pd  Pd6  1  0.001155  0.500577  0.497571  1
  Pd  Pd7  1  0.499423  0.500577  0.002429  1
  Pd  Pd8  1  0.499423  0.998845  0.002429  1
  Pd  Pd9  1  0.001155  0.500577  0.002429  1
  Pd  Pd10  1  0.835836  0.164164  0.250000  1
  Pd  Pd11  1  0.835836  0.671671  0.250000  1
  Pd  Pd12  1  0.328329  0.164164  0.250000  1
  Pd  Pd13  1  0.164653  0.835347  0.750000  1
  Pd  Pd14  1  0.164653  0.329306  0.750000  1
  Pd  Pd15  1  0.670694  0.835347  0.750000  1
