# generated using pymatgen
data_PrNdY4CoI10
_symmetry_space_group_name_H-M   'P 1'
_cell_length_a   7.78566379
_cell_length_b   9.80294451
_cell_length_c   9.76814825
_cell_angle_alpha   106.91878966
_cell_angle_beta   96.32515829
_cell_angle_gamma   105.20508841
_symmetry_Int_Tables_number   1
_chemical_formula_structural   PrNdY4CoI10
_chemical_formula_sum   'Pr1 Nd1 Y4 Co1 I10'
_cell_volume   674.10242878
_cell_formula_units_Z   1
loop_
 _symmetry_equiv_pos_site_id
 _symmetry_equiv_pos_as_xyz
  1  'x, y, z'
loop_
 _atom_site_type_symbol
 _atom_site_label
 _atom_site_symmetry_multiplicity
 _atom_site_fract_x
 _atom_site_fract_y
 _atom_site_fract_z
 _atom_site_occupancy
  Pr  Pr0  1  0.887043  0.958355  0.232041  1
  Nd  Nd1  1  0.112514  0.041425  0.768960  1
  Y  Y2  1  0.029598  0.717723  0.914835  1
  Y  Y3  1  0.970537  0.282302  0.084585  1
  Y  Y4  1  0.656100  0.876867  0.837024  1
  Y  Y5  1  0.344172  0.123336  0.162722  1
  Co  Co6  1  0.000016  0.999957  0.999841  1
  I  I7  1  0.650292  0.551878  0.729696  1
  I  I8  1  0.349653  0.448171  0.270341  1
  I  I9  1  0.734322  0.910634  0.541985  1
  I  I10  1  0.267395  0.090042  0.459450  1
  I  I11  1  0.083985  0.376236  0.822396  1
  I  I12  1  0.916317  0.622223  0.176880  1
  I  I13  1  0.447869  0.815795  0.089880  1
  I  I14  1  0.550603  0.183644  0.909374  1
  I  I15  1  0.224241  0.739420  0.656469  1
  I  I16  1  0.775344  0.261993  0.343522  1
