# generated using pymatgen
data_Hf7Zr3ZnSn6P
_symmetry_space_group_name_H-M   'P 1'
_cell_length_a   8.61019900
_cell_length_b   8.61017631
_cell_length_c   5.87439800
_cell_angle_alpha   89.99996279
_cell_angle_beta   90.00014147
_cell_angle_gamma   120.00011866
_symmetry_Int_Tables_number   1
_chemical_formula_structural   Hf7Zr3ZnSn6P
_chemical_formula_sum   'Hf7 Zr3 Zn1 Sn6 P1'
_cell_volume   377.15399590
_cell_formula_units_Z   1
loop_
 _symmetry_equiv_pos_site_id
 _symmetry_equiv_pos_as_xyz
  1  'x, y, z'
loop_
 _atom_site_type_symbol
 _atom_site_label
 _atom_site_symmetry_multiplicity
 _atom_site_fract_x
 _atom_site_fract_y
 _atom_site_fract_z
 _atom_site_occupancy
  Hf  Hf0  1  0.666666  0.333333  0.999743  1
  Hf  Hf1  1  0.333334  0.666667  0.999743  1
  Hf  Hf2  1  0.333333  0.666666  0.500974  1
  Hf  Hf3  1  0.666667  0.333333  0.500975  1
  Hf  Hf4  1  0.738620  0.738621  0.737742  1
  Hf  Hf5  1  0.261380  0.000000  0.737741  1
  Hf  Hf6  1  0.000000  0.261380  0.737742  1
  Zr  Zr7  1  0.258342  0.258343  0.261566  1
  Zr  Zr8  1  0.741657  0.999999  0.261565  1
  Zr  Zr9  1  0.000000  0.741657  0.261567  1
  Zn  Zn10  1  0.000001  0.000000  0.995035  1
  Sn  Sn11  1  0.391363  0.391362  0.755470  1
  Sn  Sn12  1  0.608638  0.000001  0.755470  1
  Sn  Sn13  1  0.999999  0.608638  0.755470  1
  Sn  Sn14  1  0.607464  0.607463  0.244570  1
  Sn  Sn15  1  0.392536  0.000000  0.244570  1
  Sn  Sn16  1  0.000000  0.392536  0.244570  1
  P  P17  1  0.000000  0.000000  0.505488  1
