# generated using pymatgen
data_NaInP7Ru12
_symmetry_space_group_name_H-M   'P 1'
_cell_length_a   9.46031100
_cell_length_b   9.46031005
_cell_length_c   3.90234600
_cell_angle_alpha   90.00000000
_cell_angle_beta   90.00000000
_cell_angle_gamma   119.99999190
_symmetry_Int_Tables_number   1
_chemical_formula_structural   NaInP7Ru12
_chemical_formula_sum   'Na1 In1 P7 Ru12'
_cell_volume   302.45949611
_cell_formula_units_Z   1
loop_
 _symmetry_equiv_pos_site_id
 _symmetry_equiv_pos_as_xyz
  1  'x, y, z'
loop_
 _atom_site_type_symbol
 _atom_site_label
 _atom_site_symmetry_multiplicity
 _atom_site_fract_x
 _atom_site_fract_y
 _atom_site_fract_z
 _atom_site_occupancy
  Na  Na0  1  0.333333  0.666667  0.000000  1
  In  In1  1  0.666667  0.333333  0.500000  1
  P  P2  1  0.600370  0.713763  0.500000  1
  P  P3  1  0.000000  0.000000  0.000000  1
  P  P4  1  0.286237  0.886609  0.500000  1
  P  P5  1  0.113391  0.399630  0.500000  1
  P  P6  1  0.911752  0.600255  0.000000  1
  P  P7  1  0.399745  0.311496  0.000000  1
  P  P8  1  0.688504  0.088248  0.000000  1
  Ru  Ru9  1  0.555602  0.949825  0.500000  1
  Ru  Ru10  1  0.394224  0.444398  0.500000  1
  Ru  Ru11  1  0.909034  0.117171  0.500000  1
  Ru  Ru12  1  0.208137  0.090966  0.500000  1
  Ru  Ru13  1  0.882829  0.791863  0.500000  1
  Ru  Ru14  1  0.724244  0.868195  0.000000  1
  Ru  Ru15  1  0.131805  0.856048  0.000000  1
  Ru  Ru16  1  0.143952  0.275756  0.000000  1
  Ru  Ru17  1  0.446533  0.096251  0.000000  1
  Ru  Ru18  1  0.903749  0.350283  0.000000  1
  Ru  Ru19  1  0.649717  0.553467  0.000000  1
  Ru  Ru20  1  0.050175  0.605776  0.500000  1
