# generated using pymatgen
data_LiAlBr4
_symmetry_space_group_name_H-M   'P 1'
_cell_length_a   7.34239500
_cell_length_b   7.49115499
_cell_length_c   13.98437901
_cell_angle_alpha   87.39078063
_cell_angle_beta   90.00000000
_cell_angle_gamma   90.00000000
_symmetry_Int_Tables_number   1
_chemical_formula_structural   LiAlBr4
_chemical_formula_sum   'Li4 Al4 Br16'
_cell_volume   768.38561908
_cell_formula_units_Z   4
loop_
 _symmetry_equiv_pos_site_id
 _symmetry_equiv_pos_as_xyz
  1  'x, y, z'
loop_
 _atom_site_type_symbol
 _atom_site_label
 _atom_site_symmetry_multiplicity
 _atom_site_fract_x
 _atom_site_fract_y
 _atom_site_fract_z
 _atom_site_occupancy
  Li  Li0  1  0.521969  0.849637  0.869952  1
  Li  Li1  1  0.021969  0.150363  0.630048  1
  Li  Li2  1  0.478031  0.150363  0.130048  1
  Li  Li3  1  0.978031  0.849637  0.369952  1
  Al  Al4  1  0.171662  0.294656  0.399107  1
  Al  Al5  1  0.671662  0.705344  0.100893  1
  Al  Al6  1  0.828338  0.705344  0.600893  1
  Al  Al7  1  0.328338  0.294656  0.899107  1
  Br  Br8  1  0.190439  0.308314  0.048013  1
  Br  Br9  1  0.690439  0.691686  0.451987  1
  Br  Br10  1  0.809561  0.691686  0.951987  1
  Br  Br11  1  0.309561  0.308314  0.548013  1
  Br  Br12  1  0.624345  0.186227  0.927356  1
  Br  Br13  1  0.124345  0.813773  0.572644  1
  Br  Br14  1  0.375655  0.813773  0.072644  1
  Br  Br15  1  0.875655  0.186227  0.427356  1
  Br  Br16  1  0.187856  0.073754  0.810439  1
  Br  Br17  1  0.687856  0.926246  0.689561  1
  Br  Br18  1  0.812144  0.926246  0.189561  1
  Br  Br19  1  0.312144  0.073754  0.310439  1
  Br  Br20  1  0.321612  0.566566  0.813164  1
  Br  Br21  1  0.821612  0.433434  0.686836  1
  Br  Br22  1  0.678388  0.433434  0.186836  1
  Br  Br23  1  0.178388  0.566566  0.313164  1
