# generated using pymatgen
data_La8Tb9Lu3Pt16
_symmetry_space_group_name_H-M   'P 1'
_cell_length_a   7.66285000
_cell_length_b   7.82018822
_cell_length_c   14.79236600
_cell_angle_alpha   90.00000000
_cell_angle_beta   90.00000000
_cell_angle_gamma   89.96800452
_symmetry_Int_Tables_number   1
_chemical_formula_structural   La8Tb9Lu3Pt16
_chemical_formula_sum   'La8 Tb9 Lu3 Pt16'
_cell_volume   886.43134846
_cell_formula_units_Z   1
loop_
 _symmetry_equiv_pos_site_id
 _symmetry_equiv_pos_as_xyz
  1  'x, y, z'
loop_
 _atom_site_type_symbol
 _atom_site_label
 _atom_site_symmetry_multiplicity
 _atom_site_fract_x
 _atom_site_fract_y
 _atom_site_fract_z
 _atom_site_occupancy
  La  La0  1  0.512973  0.325793  0.900296  1
  La  La1  1  0.013960  0.173368  0.600110  1
  La  La2  1  0.488642  0.672376  0.401452  1
  La  La3  1  0.985088  0.825290  0.098768  1
  La  La4  1  0.488642  0.672376  0.098548  1
  La  La5  1  0.985088  0.825290  0.401232  1
  La  La6  1  0.512973  0.325793  0.599704  1
  La  La7  1  0.013960  0.173368  0.899890  1
  Tb  Tb8  1  0.355341  0.833806  0.876782  1
  Tb  Tb9  1  0.855521  0.666567  0.623244  1
  Tb  Tb10  1  0.645815  0.167805  0.377457  1
  Tb  Tb11  1  0.143788  0.334514  0.122290  1
  Tb  Tb12  1  0.645815  0.167805  0.122543  1
  Tb  Tb13  1  0.143788  0.334514  0.377710  1
  Tb  Tb14  1  0.355341  0.833806  0.623218  1
  Tb  Tb15  1  0.855521  0.666567  0.876756  1
  Tb  Tb16  1  0.307124  0.993878  0.250000  1
  Lu  Lu17  1  0.193317  0.494899  0.750000  1
  Lu  Lu18  1  0.693146  0.004643  0.750000  1
  Lu  Lu19  1  0.807218  0.505218  0.250000  1
  Pt  Pt20  1  0.311509  0.032471  0.045260  1
  Pt  Pt21  1  0.811474  0.468115  0.454348  1
  Pt  Pt22  1  0.688198  0.968129  0.546749  1
  Pt  Pt23  1  0.188365  0.532209  0.952838  1
  Pt  Pt24  1  0.688198  0.968129  0.953251  1
  Pt  Pt25  1  0.188365  0.532209  0.547162  1
  Pt  Pt26  1  0.311509  0.032471  0.454740  1
  Pt  Pt27  1  0.811474  0.468115  0.045652  1
  Pt  Pt28  1  0.559410  0.626902  0.750000  1
  Pt  Pt29  1  0.059299  0.873638  0.750000  1
  Pt  Pt30  1  0.441424  0.375467  0.250000  1
  Pt  Pt31  1  0.937740  0.129008  0.250000  1
  Pt  Pt32  1  0.329022  0.138483  0.750000  1
  Pt  Pt33  1  0.827927  0.362104  0.750000  1
  Pt  Pt34  1  0.674381  0.860297  0.250000  1
  Pt  Pt35  1  0.168648  0.634580  0.250000  1
