# generated using pymatgen
data_Ce8Si15GeMo12
_symmetry_space_group_name_H-M   'P 1'
_cell_length_a   6.79998600
_cell_length_b   6.96290571
_cell_length_c   13.10257600
_cell_angle_alpha   90.00000000
_cell_angle_beta   90.00000000
_cell_angle_gamma   90.05058193
_symmetry_Int_Tables_number   1
_chemical_formula_structural   Ce8Si15GeMo12
_chemical_formula_sum   'Ce8 Si15 Ge1 Mo12'
_cell_volume   620.37608977
_cell_formula_units_Z   1
loop_
 _symmetry_equiv_pos_site_id
 _symmetry_equiv_pos_as_xyz
  1  'x, y, z'
loop_
 _atom_site_type_symbol
 _atom_site_label
 _atom_site_symmetry_multiplicity
 _atom_site_fract_x
 _atom_site_fract_y
 _atom_site_fract_z
 _atom_site_occupancy
  Ce  Ce0  1  0.495512  0.662874  0.593500  1
  Ce  Ce1  1  0.995439  0.837227  0.906378  1
  Ce  Ce2  1  0.502771  0.338208  0.092483  1
  Ce  Ce3  1  0.006888  0.159880  0.408874  1
  Ce  Ce4  1  0.502771  0.338208  0.407517  1
  Ce  Ce5  1  0.006888  0.159880  0.091126  1
  Ce  Ce6  1  0.495512  0.662874  0.906500  1
  Ce  Ce7  1  0.995439  0.837227  0.593622  1
  Si  Si8  1  0.655733  0.956411  0.454145  1
  Si  Si9  1  0.154645  0.545260  0.046190  1
  Si  Si10  1  0.345067  0.044552  0.953014  1
  Si  Si11  1  0.843928  0.455461  0.546329  1
  Si  Si12  1  0.345067  0.044552  0.546986  1
  Si  Si13  1  0.843928  0.455461  0.953671  1
  Si  Si14  1  0.655733  0.956411  0.045855  1
  Si  Si15  1  0.154645  0.545260  0.453810  1
  Si  Si16  1  0.460465  0.362109  0.750000  1
  Si  Si17  1  0.960771  0.138256  0.750000  1
  Si  Si18  1  0.538083  0.640627  0.250000  1
  Si  Si19  1  0.038750  0.861506  0.250000  1
  Si  Si20  1  0.692278  0.875890  0.750000  1
  Si  Si21  1  0.193115  0.624109  0.750000  1
  Si  Si22  1  0.307337  0.124446  0.250000  1
  Ge  Ge23  1  0.810542  0.367854  0.250000  1
  Mo  Mo24  1  0.667673  0.167140  0.625261  1
  Mo  Mo25  1  0.167027  0.333458  0.875080  1
  Mo  Mo26  1  0.332702  0.834314  0.124586  1
  Mo  Mo27  1  0.830676  0.668811  0.376013  1
  Mo  Mo28  1  0.332702  0.834314  0.375414  1
  Mo  Mo29  1  0.830676  0.668811  0.123987  1
  Mo  Mo30  1  0.667673  0.167140  0.874739  1
  Mo  Mo31  1  0.167027  0.333458  0.624920  1
  Mo  Mo32  1  0.831334  0.503562  0.750000  1
  Mo  Mo33  1  0.331397  0.996499  0.750000  1
  Mo  Mo34  1  0.172660  0.498456  0.250000  1
  Mo  Mo35  1  0.667143  0.999497  0.250000  1
