# generated using pymatgen
data_Ce3Zn3NiIrPt
_symmetry_space_group_name_H-M   'P 1'
_cell_length_a   7.24119100
_cell_length_b   7.24119094
_cell_length_c   3.92272000
_cell_angle_alpha   90.00000000
_cell_angle_beta   90.00000000
_cell_angle_gamma   120.00000485
_symmetry_Int_Tables_number   1
_chemical_formula_structural   Ce3Zn3NiIrPt
_chemical_formula_sum   'Ce3 Zn3 Ni1 Ir1 Pt1'
_cell_volume   178.13035049
_cell_formula_units_Z   1
loop_
 _symmetry_equiv_pos_site_id
 _symmetry_equiv_pos_as_xyz
  1  'x, y, z'
loop_
 _atom_site_type_symbol
 _atom_site_label
 _atom_site_symmetry_multiplicity
 _atom_site_fract_x
 _atom_site_fract_y
 _atom_site_fract_z
 _atom_site_occupancy
  Ce  Ce0  1  0.993858  0.407861  0.500000  1
  Ce  Ce1  1  0.592139  0.585997  0.500000  1
  Ce  Ce2  1  0.414003  0.006142  0.500000  1
  Zn  Zn3  1  0.999728  0.768433  0.000000  1
  Zn  Zn4  1  0.231567  0.231295  0.000000  1
  Zn  Zn5  1  0.768705  0.000272  0.000000  1
  Ni  Ni6  1  0.000000  0.000000  0.500000  1
  Ir  Ir7  1  0.666667  0.333333  0.000000  1
  Pt  Pt8  1  0.333333  0.666667  0.000000  1
