# generated using pymatgen
data_Cs2TlIn(AsS2)6
_symmetry_space_group_name_H-M   'P 1'
_cell_length_a   9.58844300
_cell_length_b   9.58844219
_cell_length_c   8.20396800
_cell_angle_alpha   90.00000000
_cell_angle_beta   90.00000000
_cell_angle_gamma   120.00000623
_symmetry_Int_Tables_number   1
_chemical_formula_structural   Cs2TlIn(AsS2)6
_chemical_formula_sum   'Cs2 Tl1 In1 As6 S12'
_cell_volume   653.20681521
_cell_formula_units_Z   1
loop_
 _symmetry_equiv_pos_site_id
 _symmetry_equiv_pos_as_xyz
  1  'x, y, z'
loop_
 _atom_site_type_symbol
 _atom_site_label
 _atom_site_symmetry_multiplicity
 _atom_site_fract_x
 _atom_site_fract_y
 _atom_site_fract_z
 _atom_site_occupancy
  Cs  Cs0  1  0.333333  0.666667  0.843544  1
  Cs  Cs1  1  0.666667  0.333333  0.156456  1
  Tl  Tl2  1  0.000000  0.000000  0.000000  1
  In  In3  1  0.000000  0.000000  0.500000  1
  As  As4  1  0.278796  0.830026  0.384186  1
  As  As5  1  0.169974  0.448770  0.384186  1
  As  As6  1  0.551230  0.721204  0.384186  1
  As  As7  1  0.721204  0.169974  0.615814  1
  As  As8  1  0.830026  0.551230  0.615814  1
  As  As9  1  0.448770  0.278796  0.615814  1
  S  S10  1  0.231999  0.022481  0.297842  1
  S  S11  1  0.977519  0.209519  0.297842  1
  S  S12  1  0.790481  0.768001  0.297842  1
  S  S13  1  0.768001  0.977519  0.702158  1
  S  S14  1  0.022481  0.790481  0.702158  1
  S  S15  1  0.209519  0.231999  0.702158  1
  S  S16  1  0.510457  0.904539  0.232970  1
  S  S17  1  0.095461  0.605919  0.232970  1
  S  S18  1  0.394081  0.489543  0.232970  1
  S  S19  1  0.489543  0.095461  0.767030  1
  S  S20  1  0.904539  0.394081  0.767030  1
  S  S21  1  0.605919  0.510457  0.767030  1
