# generated using pymatgen
data_Sc4Al14Ga(SiRh2)3
_symmetry_space_group_name_H-M   'P 1'
_cell_length_a   7.41543164
_cell_length_b   7.45308964
_cell_length_c   9.18234300
_cell_angle_alpha   90.00000000
_cell_angle_beta   90.00000000
_cell_angle_gamma   119.78640517
_symmetry_Int_Tables_number   1
_chemical_formula_structural   Sc4Al14Ga(SiRh2)3
_chemical_formula_sum   'Sc4 Al14 Ga1 Si3 Rh6'
_cell_volume   440.44090608
_cell_formula_units_Z   1
loop_
 _symmetry_equiv_pos_site_id
 _symmetry_equiv_pos_as_xyz
  1  'x, y, z'
loop_
 _atom_site_type_symbol
 _atom_site_label
 _atom_site_symmetry_multiplicity
 _atom_site_fract_x
 _atom_site_fract_y
 _atom_site_fract_z
 _atom_site_occupancy
  Sc  Sc0  1  0.004533  0.673208  0.250000  1
  Sc  Sc1  1  0.998051  0.322502  0.750000  1
  Sc  Sc2  1  0.661705  0.989499  0.250000  1
  Sc  Sc3  1  0.333545  0.012669  0.750000  1
  Al  Al4  1  0.994507  0.331076  0.078040  1
  Al  Al5  1  0.006549  0.666732  0.920391  1
  Al  Al6  1  0.006549  0.666732  0.579609  1
  Al  Al7  1  0.335349  0.001936  0.424768  1
  Al  Al8  1  0.994507  0.331076  0.421960  1
  Al  Al9  1  0.662478  0.998936  0.577653  1
  Al  Al10  1  0.662478  0.998936  0.922347  1
  Al  Al11  1  0.335349  0.001936  0.075232  1
  Al  Al12  1  0.332349  0.335292  0.564735  1
  Al  Al13  1  0.672046  0.669586  0.432909  1
  Al  Al14  1  0.672046  0.669586  0.067091  1
  Al  Al15  1  0.332349  0.335292  0.935265  1
  Al  Al16  1  0.559658  0.340152  0.250000  1
  Al  Al17  1  0.438641  0.662009  0.750000  1
  Ga  Ga18  1  0.115738  0.118333  0.250000  1
  Si  Si19  1  0.875736  0.870772  0.750000  1
  Si  Si20  1  0.336476  0.544980  0.250000  1
  Si  Si21  1  0.667450  0.455539  0.750000  1
  Rh  Rh22  1  0.672163  0.332038  0.992207  1
  Rh  Rh23  1  0.329828  0.670561  0.007400  1
  Rh  Rh24  1  0.329828  0.670561  0.492600  1
  Rh  Rh25  1  0.672163  0.332038  0.507793  1
  Rh  Rh26  1  0.998965  0.999012  0.989888  1
  Rh  Rh27  1  0.998965  0.999012  0.510112  1
