# generated using pymatgen
data_HoErFe8(P3W)2
_symmetry_space_group_name_H-M   'P 1'
_cell_length_a   3.69783400
_cell_length_b   10.43724200
_cell_length_c   11.95099800
_cell_angle_alpha   90.00000000
_cell_angle_beta   90.00000000
_cell_angle_gamma   90.00000000
_symmetry_Int_Tables_number   1
_chemical_formula_structural   HoErFe8(P3W)2
_chemical_formula_sum   'Ho2 Er2 Fe16 P12 W4'
_cell_volume   461.25101859
_cell_formula_units_Z   2
loop_
 _symmetry_equiv_pos_site_id
 _symmetry_equiv_pos_as_xyz
  1  'x, y, z'
loop_
 _atom_site_type_symbol
 _atom_site_label
 _atom_site_symmetry_multiplicity
 _atom_site_fract_x
 _atom_site_fract_y
 _atom_site_fract_z
 _atom_site_occupancy
  Ho  Ho0  1  0.750000  0.417938  0.293337  1
  Ho  Ho1  1  0.750000  0.082062  0.793337  1
  Er  Er2  1  0.250000  0.581970  0.706670  1
  Er  Er3  1  0.250000  0.918030  0.206670  1
  Fe  Fe4  1  0.250000  0.407115  0.491705  1
  Fe  Fe5  1  0.250000  0.092885  0.991705  1
  Fe  Fe6  1  0.750000  0.592923  0.508544  1
  Fe  Fe7  1  0.750000  0.907077  0.008544  1
  Fe  Fe8  1  0.250000  0.218534  0.176927  1
  Fe  Fe9  1  0.250000  0.281466  0.676927  1
  Fe  Fe10  1  0.750000  0.781279  0.823071  1
  Fe  Fe11  1  0.750000  0.718721  0.323071  1
  Fe  Fe12  1  0.250000  0.877235  0.701052  1
  Fe  Fe13  1  0.250000  0.622765  0.201052  1
  Fe  Fe14  1  0.750000  0.122510  0.298840  1
  Fe  Fe15  1  0.750000  0.377490  0.798840  1
  Fe  Fe16  1  0.250000  0.462814  0.933309  1
  Fe  Fe17  1  0.250000  0.037186  0.433309  1
  Fe  Fe18  1  0.750000  0.537271  0.066543  1
  Fe  Fe19  1  0.750000  0.962729  0.566543  1
  P  P20  1  0.250000  0.425350  0.115078  1
  P  P21  1  0.250000  0.074650  0.615078  1
  P  P22  1  0.750000  0.574661  0.884691  1
  P  P23  1  0.750000  0.925339  0.384691  1
  P  P24  1  0.250000  0.265281  0.866213  1
  P  P25  1  0.250000  0.234719  0.366213  1
  P  P26  1  0.750000  0.734972  0.133853  1
  P  P27  1  0.750000  0.765028  0.633853  1
  P  P28  1  0.250000  0.592683  0.390291  1
  P  P29  1  0.250000  0.907317  0.890291  1
  P  P30  1  0.750000  0.407518  0.609847  1
  P  P31  1  0.750000  0.092482  0.109847  1
  W  W32  1  0.250000  0.704205  0.988213  1
  W  W33  1  0.250000  0.795795  0.488213  1
  W  W34  1  0.750000  0.295818  0.011816  1
  W  W35  1  0.750000  0.204182  0.511816  1
