# generated using pymatgen
data_Hf3ZrCN3
_symmetry_space_group_name_H-M   'P 1'
_cell_length_a   10.74947398
_cell_length_b   10.74947387
_cell_length_c   10.74947401
_cell_angle_alpha   17.36827111
_cell_angle_beta   17.36827484
_cell_angle_gamma   17.36826426
_symmetry_Int_Tables_number   1
_chemical_formula_structural   Hf3ZrCN3
_chemical_formula_sum   'Hf3 Zr1 C1 N3'
_cell_volume   96.58932685
_cell_formula_units_Z   1
loop_
 _symmetry_equiv_pos_site_id
 _symmetry_equiv_pos_as_xyz
  1  'x, y, z'
loop_
 _atom_site_type_symbol
 _atom_site_label
 _atom_site_symmetry_multiplicity
 _atom_site_fract_x
 _atom_site_fract_y
 _atom_site_fract_z
 _atom_site_occupancy
  Hf  Hf0  1  0.126105  0.126105  0.126105  1
  Hf  Hf1  1  0.374572  0.374572  0.374572  1
  Hf  Hf2  1  0.625321  0.625321  0.625321  1
  Zr  Zr3  1  0.874099  0.874099  0.874099  1
  C  C4  1  0.000387  0.000387  0.000387  1
  N  N5  1  0.250930  0.250930  0.250930  1
  N  N6  1  0.497632  0.497632  0.497632  1
  N  N7  1  0.750955  0.750955  0.750955  1
