# generated using pymatgen
data_La16Sm3YSn16
_symmetry_space_group_name_H-M   'P 1'
_cell_length_a   8.44530000
_cell_length_b   8.54401501
_cell_length_c   16.31614200
_cell_angle_alpha   90.00000000
_cell_angle_beta   90.00000000
_cell_angle_gamma   89.99800163
_symmetry_Int_Tables_number   1
_chemical_formula_structural   La16Sm3YSn16
_chemical_formula_sum   'La16 Sm3 Y1 Sn16'
_cell_volume   1177.32010362
_cell_formula_units_Z   1
loop_
 _symmetry_equiv_pos_site_id
 _symmetry_equiv_pos_as_xyz
  1  'x, y, z'
loop_
 _atom_site_type_symbol
 _atom_site_label
 _atom_site_symmetry_multiplicity
 _atom_site_fract_x
 _atom_site_fract_y
 _atom_site_fract_z
 _atom_site_occupancy
  La  La0  1  0.972458  0.818972  0.899970  1
  La  La1  1  0.472356  0.680933  0.600144  1
  La  La2  1  0.527955  0.318676  0.100565  1
  La  La3  1  0.027481  0.180758  0.399362  1
  La  La4  1  0.972458  0.818972  0.600030  1
  La  La5  1  0.472356  0.680933  0.899856  1
  La  La6  1  0.527955  0.318676  0.399435  1
  La  La7  1  0.027481  0.180758  0.100638  1
  La  La8  1  0.878818  0.660125  0.382087  1
  La  La9  1  0.379665  0.840185  0.117969  1
  La  La10  1  0.620773  0.160019  0.617193  1
  La  La11  1  0.120850  0.340038  0.882665  1
  La  La12  1  0.120850  0.340038  0.617335  1
  La  La13  1  0.620773  0.160019  0.882807  1
  La  La14  1  0.379665  0.840185  0.382031  1
  La  La15  1  0.878818  0.660125  0.117913  1
  Sm  Sm16  1  0.288955  0.002668  0.750000  1
  Sm  Sm17  1  0.789057  0.497268  0.750000  1
  Sm  Sm18  1  0.210961  0.502185  0.250000  1
  Y  Y19  1  0.712156  0.997136  0.250000  1
  Sn  Sn20  1  0.781131  0.469836  0.545506  1
  Sn  Sn21  1  0.280957  0.030139  0.954418  1
  Sn  Sn22  1  0.718814  0.970377  0.453378  1
  Sn  Sn23  1  0.218733  0.530235  0.045743  1
  Sn  Sn24  1  0.218733  0.530235  0.454257  1
  Sn  Sn25  1  0.718814  0.970377  0.046622  1
  Sn  Sn26  1  0.280957  0.030139  0.545582  1
  Sn  Sn27  1  0.781131  0.469836  0.954494  1
  Sn  Sn28  1  0.167892  0.643949  0.750000  1
  Sn  Sn29  1  0.667972  0.856482  0.750000  1
  Sn  Sn30  1  0.332333  0.143514  0.250000  1
  Sn  Sn31  1  0.831708  0.354847  0.250000  1
  Sn  Sn32  1  0.922403  0.117419  0.750000  1
  Sn  Sn33  1  0.422651  0.382372  0.750000  1
  Sn  Sn34  1  0.577749  0.618563  0.250000  1
  Sn  Sn35  1  0.076179  0.883006  0.250000  1
