# generated using pymatgen
data_YU2(GaIr)3
_symmetry_space_group_name_H-M   'P 1'
_cell_length_a   7.16920023
_cell_length_b   7.16919984
_cell_length_c   3.91426800
_cell_angle_alpha   90.00000000
_cell_angle_beta   90.00000000
_cell_angle_gamma   121.01554571
_symmetry_Int_Tables_number   1
_chemical_formula_structural   YU2(GaIr)3
_chemical_formula_sum   'Y1 U2 Ga3 Ir3'
_cell_volume   172.41963630
_cell_formula_units_Z   1
loop_
 _symmetry_equiv_pos_site_id
 _symmetry_equiv_pos_as_xyz
  1  'x, y, z'
loop_
 _atom_site_type_symbol
 _atom_site_label
 _atom_site_symmetry_multiplicity
 _atom_site_fract_x
 _atom_site_fract_y
 _atom_site_fract_z
 _atom_site_occupancy
  Y  Y0  1  0.411141  0.411141  0.500000  1
  U  U1  1  0.586169  0.003314  0.500000  1
  U  U2  1  0.003314  0.586169  0.500000  1
  Ga  Ga3  1  0.740714  0.740714  0.000000  1
  Ga  Ga4  1  0.244864  0.011798  0.000000  1
  Ga  Ga5  1  0.011798  0.244864  0.000000  1
  Ir  Ir6  1  0.693338  0.330153  0.000000  1
  Ir  Ir7  1  0.330153  0.693338  0.000000  1
  Ir  Ir8  1  0.978510  0.978510  0.500000  1
