# generated using pymatgen
data_V10Ga3SiRh2
_symmetry_space_group_name_H-M   'P 1'
_cell_length_a   4.71797400
_cell_length_b   4.73477500
_cell_length_c   9.64968900
_cell_angle_alpha   90.00000000
_cell_angle_beta   90.00000000
_cell_angle_gamma   90.00000000
_symmetry_Int_Tables_number   1
_chemical_formula_structural   V10Ga3SiRh2
_chemical_formula_sum   'V10 Ga3 Si1 Rh2'
_cell_volume   215.56001530
_cell_formula_units_Z   1
loop_
 _symmetry_equiv_pos_site_id
 _symmetry_equiv_pos_as_xyz
  1  'x, y, z'
loop_
 _atom_site_type_symbol
 _atom_site_label
 _atom_site_symmetry_multiplicity
 _atom_site_fract_x
 _atom_site_fract_y
 _atom_site_fract_z
 _atom_site_occupancy
  V  V0  1  0.753925  0.500000  0.001919  1
  V  V1  1  0.757465  0.500000  0.501741  1
  V  V2  1  0.000000  0.750849  0.252303  1
  V  V3  1  0.000000  0.750099  0.743297  1
  V  V4  1  0.500000  0.000000  0.125309  1
  V  V5  1  0.500000  0.000000  0.623828  1
  V  V6  1  0.246075  0.500000  0.001919  1
  V  V7  1  0.242535  0.500000  0.501741  1
  V  V8  1  0.000000  0.249151  0.252303  1
  V  V9  1  0.000000  0.249901  0.743297  1
  Ga  Ga10  1  0.500000  0.500000  0.247862  1
  Ga  Ga11  1  0.500000  0.500000  0.747384  1
  Ga  Ga12  1  0.000000  0.000000  0.002229  1
  Si  Si13  1  0.000000  0.000000  0.503746  1
  Rh  Rh14  1  0.500000  0.000000  0.376808  1
  Rh  Rh15  1  0.500000  0.000000  0.874314  1
