# generated using pymatgen
data_CdSi2(AsRh3)2
_symmetry_space_group_name_H-M   'P 1'
_cell_length_a   7.16538600
_cell_length_b   7.16165422
_cell_length_c   3.72466000
_cell_angle_alpha   90.00000000
_cell_angle_beta   90.00000000
_cell_angle_gamma   120.01722012
_symmetry_Int_Tables_number   1
_chemical_formula_structural   CdSi2(AsRh3)2
_chemical_formula_sum   'Cd1 Si2 As2 Rh6'
_cell_volume   165.49878915
_cell_formula_units_Z   1
loop_
 _symmetry_equiv_pos_site_id
 _symmetry_equiv_pos_as_xyz
  1  'x, y, z'
loop_
 _atom_site_type_symbol
 _atom_site_label
 _atom_site_symmetry_multiplicity
 _atom_site_fract_x
 _atom_site_fract_y
 _atom_site_fract_z
 _atom_site_occupancy
  Cd  Cd0  1  0.988168  0.976335  0.000000  1
  Si  Si1  1  0.803697  0.607394  0.500000  1
  Si  Si2  1  0.334323  0.668648  0.000000  1
  As  As3  1  0.383508  0.195089  0.500000  1
  As  As4  1  0.811582  0.195089  0.500000  1
  Rh  Rh5  1  0.532918  0.065836  0.000000  1
  Rh  Rh6  1  0.613604  0.803764  0.500000  1
  Rh  Rh7  1  0.201192  0.402385  0.500000  1
  Rh  Rh8  1  0.542837  0.474181  0.000000  1
  Rh  Rh9  1  0.190160  0.803764  0.500000  1
  Rh  Rh10  1  0.931343  0.474181  0.000000  1
