# generated using pymatgen
data_Sc4Bi2Os
_symmetry_space_group_name_H-M   'P 1'
_cell_length_a   8.37083368
_cell_length_b   8.37080888
_cell_length_c   8.37083358
_cell_angle_alpha   96.33680116
_cell_angle_beta   96.33315899
_cell_angle_gamma   141.19837414
_symmetry_Int_Tables_number   1
_chemical_formula_structural   Sc4Bi2Os
_chemical_formula_sum   'Sc8 Bi4 Os2'
_cell_volume   346.67671202
_cell_formula_units_Z   2
loop_
 _symmetry_equiv_pos_site_id
 _symmetry_equiv_pos_as_xyz
  1  'x, y, z'
loop_
 _atom_site_type_symbol
 _atom_site_label
 _atom_site_symmetry_multiplicity
 _atom_site_fract_x
 _atom_site_fract_y
 _atom_site_fract_z
 _atom_site_occupancy
  Sc  Sc0  1  0.696361  0.581049  0.277410  1
  Sc  Sc1  1  0.581049  0.303639  0.884688  1
  Sc  Sc2  1  0.081049  0.196361  0.277411  1
  Sc  Sc3  1  0.918951  0.803639  0.722589  1
  Sc  Sc4  1  0.196362  0.918951  0.115313  1
  Sc  Sc5  1  0.803638  0.081049  0.884687  1
  Sc  Sc6  1  0.303639  0.418951  0.722590  1
  Sc  Sc7  1  0.418951  0.696361  0.115312  1
  Bi  Bi8  1  0.139271  0.639272  0.778542  1
  Bi  Bi9  1  0.360732  0.139272  0.500001  1
  Bi  Bi10  1  0.639268  0.860728  0.499999  1
  Bi  Bi11  1  0.860729  0.360728  0.221458  1
  Os  Os12  1  0.250002  0.250000  0.000002  1
  Os  Os13  1  0.749998  0.750000  0.999998  1
