# generated using pymatgen
data_HoEr5LuRh3
_symmetry_space_group_name_H-M   'P 1'
_cell_length_a   9.70134857
_cell_length_b   9.70134783
_cell_length_c   6.12235247
_cell_angle_alpha   89.96116241
_cell_angle_beta   90.03884011
_cell_angle_gamma   120.00520909
_symmetry_Int_Tables_number   1
_chemical_formula_structural   HoEr5LuRh3
_chemical_formula_sum   'Ho2 Er10 Lu2 Rh6'
_cell_volume   498.98812884
_cell_formula_units_Z   2
loop_
 _symmetry_equiv_pos_site_id
 _symmetry_equiv_pos_as_xyz
  1  'x, y, z'
loop_
 _atom_site_type_symbol
 _atom_site_label
 _atom_site_symmetry_multiplicity
 _atom_site_fract_x
 _atom_site_fract_y
 _atom_site_fract_z
 _atom_site_occupancy
  Ho  Ho0  1  0.081444  0.540616  0.947838  1
  Ho  Ho1  1  0.459384  0.918556  0.947838  1
  Er  Er2  1  0.123587  0.876413  0.254342  1
  Er  Er3  1  0.752848  0.876443  0.254304  1
  Er  Er4  1  0.123557  0.247152  0.254304  1
  Er  Er5  1  0.876359  0.123641  0.754252  1
  Er  Er6  1  0.247289  0.123675  0.754327  1
  Er  Er7  1  0.876325  0.752711  0.754327  1
  Er  Er8  1  0.541013  0.458987  0.447508  1
  Er  Er9  1  0.917793  0.458948  0.447411  1
  Er  Er10  1  0.541052  0.082207  0.447411  1
  Er  Er11  1  0.459278  0.540722  0.947364  1
  Lu  Lu12  1  0.333397  0.666603  0.457719  1
  Lu  Lu13  1  0.666604  0.333396  0.958166  1
  Rh  Rh14  1  0.809591  0.190409  0.179731  1
  Rh  Rh15  1  0.380871  0.190589  0.179670  1
  Rh  Rh16  1  0.809411  0.619129  0.179670  1
  Rh  Rh17  1  0.190203  0.809797  0.678777  1
  Rh  Rh18  1  0.619369  0.809377  0.679291  1
  Rh  Rh19  1  0.190623  0.380631  0.679291  1
