# generated using pymatgen
data_NdY4HoTa2O14
_symmetry_space_group_name_H-M   'P 1'
_cell_length_a   6.51384191
_cell_length_b   6.52226463
_cell_length_c   7.54061410
_cell_angle_alpha   89.87901546
_cell_angle_beta   90.10010178
_cell_angle_gamma   108.79037209
_symmetry_Int_Tables_number   1
_chemical_formula_structural   NdY4HoTa2O14
_chemical_formula_sum   'Nd1 Y4 Ho1 Ta2 O14'
_cell_volume   303.28786818
_cell_formula_units_Z   1
loop_
 _symmetry_equiv_pos_site_id
 _symmetry_equiv_pos_as_xyz
  1  'x, y, z'
loop_
 _atom_site_type_symbol
 _atom_site_label
 _atom_site_symmetry_multiplicity
 _atom_site_fract_x
 _atom_site_fract_y
 _atom_site_fract_z
 _atom_site_occupancy
  Nd  Nd0  1  0.520054  0.520252  0.499481  1
  Y  Y1  1  0.462096  0.461336  0.000266  1
  Y  Y2  1  0.999492  0.534600  0.240114  1
  Y  Y3  1  0.999204  0.465846  0.744742  1
  Y  Y4  1  0.534187  0.999454  0.759759  1
  Ho  Ho5  1  0.465736  0.998782  0.255106  1
  Ta  Ta6  1  0.001803  0.001906  0.499614  1
  Ta  Ta7  1  0.997297  0.997433  0.000397  1
  O  O8  1  0.933810  0.065008  0.749633  1
  O  O9  1  0.067309  0.934356  0.250440  1
  O  O10  1  0.359118  0.643289  0.241615  1
  O  O11  1  0.641052  0.358427  0.758189  1
  O  O12  1  0.367734  0.631669  0.758023  1
  O  O13  1  0.630654  0.365591  0.242220  1
  O  O14  1  0.326580  0.080053  0.976522  1
  O  O15  1  0.674799  0.924745  0.472585  1
  O  O16  1  0.312204  0.057742  0.540681  1
  O  O17  1  0.693585  0.952842  0.044696  1
  O  O18  1  0.058732  0.312114  0.458515  1
  O  O19  1  0.950551  0.693370  0.957545  1
  O  O20  1  0.923010  0.674957  0.525356  1
  O  O21  1  0.080993  0.326228  0.024500  1
