# generated using pymatgen
data_Nd3Ho(CuP2)4
_symmetry_space_group_name_H-M   'P 1'
_cell_length_a   3.75880400
_cell_length_b   3.84585515
_cell_length_c   19.87982365
_cell_angle_alpha   89.95408527
_cell_angle_beta   90.00000000
_cell_angle_gamma   90.00000000
_symmetry_Int_Tables_number   1
_chemical_formula_structural   Nd3Ho(CuP2)4
_chemical_formula_sum   'Nd3 Ho1 Cu4 P8'
_cell_volume   287.37897504
_cell_formula_units_Z   1
loop_
 _symmetry_equiv_pos_site_id
 _symmetry_equiv_pos_as_xyz
  1  'x, y, z'
loop_
 _atom_site_type_symbol
 _atom_site_label
 _atom_site_symmetry_multiplicity
 _atom_site_fract_x
 _atom_site_fract_y
 _atom_site_fract_z
 _atom_site_occupancy
  Nd  Nd0  1  0.250000  0.711443  0.378687  1
  Nd  Nd1  1  0.250000  0.788084  0.885640  1
  Nd  Nd2  1  0.750000  0.289280  0.618937  1
  Ho  Ho3  1  0.750000  0.210186  0.118795  1
  Cu  Cu4  1  0.250000  0.212378  0.244889  1
  Cu  Cu5  1  0.750000  0.788358  0.752343  1
  Cu  Cu6  1  0.250000  0.288244  0.752087  1
  Cu  Cu7  1  0.750000  0.711927  0.245917  1
  P  P8  1  0.750000  0.816041  0.501304  1
  P  P9  1  0.750000  0.684262  0.007904  1
  P  P10  1  0.250000  0.184437  0.496432  1
  P  P11  1  0.250000  0.314675  0.002913  1
  P  P12  1  0.250000  0.711034  0.170301  1
  P  P13  1  0.750000  0.211450  0.319452  1
  P  P14  1  0.750000  0.288971  0.826113  1
  P  P15  1  0.250000  0.789230  0.678284  1
