# generated using pymatgen
data_SmY5Co14(P3Rh)4
_symmetry_space_group_name_H-M   'P 1'
_cell_length_a   3.73604100
_cell_length_b   10.67065100
_cell_length_c   12.40269400
_cell_angle_alpha   90.00000000
_cell_angle_beta   90.00000000
_cell_angle_gamma   90.00000000
_symmetry_Int_Tables_number   1
_chemical_formula_structural   SmY5Co14(P3Rh)4
_chemical_formula_sum   'Sm1 Y5 Co14 P12 Rh4'
_cell_volume   494.44567042
_cell_formula_units_Z   1
loop_
 _symmetry_equiv_pos_site_id
 _symmetry_equiv_pos_as_xyz
  1  'x, y, z'
loop_
 _atom_site_type_symbol
 _atom_site_label
 _atom_site_symmetry_multiplicity
 _atom_site_fract_x
 _atom_site_fract_y
 _atom_site_fract_z
 _atom_site_occupancy
  Sm  Sm0  1  0.000000  0.500000  0.521224  1
  Y  Y1  1  0.500000  0.000000  0.479800  1
  Y  Y2  1  0.500000  0.813805  0.205694  1
  Y  Y3  1  0.500000  0.186195  0.205694  1
  Y  Y4  1  0.000000  0.686480  0.794458  1
  Y  Y5  1  0.000000  0.313520  0.794458  1
  Co  Co6  1  0.000000  0.500000  0.988193  1
  Co  Co7  1  0.500000  0.000000  0.011830  1
  Co  Co8  1  0.500000  0.332126  0.993749  1
  Co  Co9  1  0.500000  0.667874  0.993749  1
  Co  Co10  1  0.000000  0.167830  0.006263  1
  Co  Co11  1  0.000000  0.832170  0.006263  1
  Co  Co12  1  0.500000  0.298898  0.429194  1
  Co  Co13  1  0.500000  0.701102  0.429194  1
  Co  Co14  1  0.000000  0.199441  0.570354  1
  Co  Co15  1  0.000000  0.800559  0.570354  1
  Co  Co16  1  0.500000  0.880812  0.709865  1
  Co  Co17  1  0.500000  0.119188  0.709865  1
  Co  Co18  1  0.000000  0.619624  0.289686  1
  Co  Co19  1  0.000000  0.380376  0.289686  1
  P  P20  1  0.500000  0.500000  0.890597  1
  P  P21  1  0.000000  0.000000  0.109960  1
  P  P22  1  0.500000  0.500000  0.347696  1
  P  P23  1  0.000000  0.000000  0.650646  1
  P  P24  1  0.500000  0.300733  0.613594  1
  P  P25  1  0.500000  0.699267  0.613594  1
  P  P26  1  0.000000  0.197964  0.386679  1
  P  P27  1  0.000000  0.802036  0.386679  1
  P  P28  1  0.500000  0.844934  0.894988  1
  P  P29  1  0.500000  0.155066  0.894988  1
  P  P30  1  0.000000  0.655210  0.104895  1
  P  P31  1  0.000000  0.344790  0.104895  1
  Rh  Rh32  1  0.500000  0.500000  0.159396  1
  Rh  Rh33  1  0.000000  0.000000  0.840171  1
  Rh  Rh34  1  0.500000  0.500000  0.705204  1
  Rh  Rh35  1  0.000000  0.000000  0.296442  1
