# generated using pymatgen
data_Dy5HoCo16(MoP6)2
_symmetry_space_group_name_H-M   'P 1'
_cell_length_a   3.72193400
_cell_length_b   10.56164704
_cell_length_c   12.24365204
_cell_angle_alpha   89.99020643
_cell_angle_beta   90.00000000
_cell_angle_gamma   90.00000000
_symmetry_Int_Tables_number   1
_chemical_formula_structural   Dy5HoCo16(MoP6)2
_chemical_formula_sum   'Dy5 Ho1 Co16 Mo2 P12'
_cell_volume   481.29493322
_cell_formula_units_Z   1
loop_
 _symmetry_equiv_pos_site_id
 _symmetry_equiv_pos_as_xyz
  1  'x, y, z'
loop_
 _atom_site_type_symbol
 _atom_site_label
 _atom_site_symmetry_multiplicity
 _atom_site_fract_x
 _atom_site_fract_y
 _atom_site_fract_z
 _atom_site_occupancy
  Dy  Dy0  1  0.000000  0.499980  0.524815  1
  Dy  Dy1  1  0.500000  0.000007  0.475241  1
  Dy  Dy2  1  0.500000  0.818963  0.205023  1
  Dy  Dy3  1  0.500000  0.181009  0.205099  1
  Dy  Dy4  1  0.000000  0.680998  0.794972  1
  Ho  Ho5  1  0.000000  0.318894  0.794950  1
  Co  Co6  1  0.000000  0.499796  0.986327  1
  Co  Co7  1  0.500000  0.000212  0.013454  1
  Co  Co8  1  0.500000  0.295757  0.431570  1
  Co  Co9  1  0.500000  0.704240  0.431486  1
  Co  Co10  1  0.000000  0.204288  0.568696  1
  Co  Co11  1  0.000000  0.795758  0.568518  1
  Co  Co12  1  0.500000  0.878294  0.706696  1
  Co  Co13  1  0.500000  0.122034  0.706838  1
  Co  Co14  1  0.000000  0.621770  0.293336  1
  Co  Co15  1  0.000000  0.378216  0.293349  1
  Co  Co16  1  0.500000  0.332391  0.990029  1
  Co  Co17  1  0.500000  0.667460  0.990184  1
  Co  Co18  1  0.000000  0.167691  0.009612  1
  Co  Co19  1  0.000000  0.832445  0.009718  1
  Co  Co20  1  0.500000  0.499726  0.701361  1
  Co  Co21  1  0.000000  0.000014  0.298770  1
  Mo  Mo22  1  0.500000  0.500014  0.156348  1
  Mo  Mo23  1  0.000000  0.000075  0.843610  1
  P  P24  1  0.500000  0.311235  0.616114  1
  P  P25  1  0.500000  0.688743  0.615816  1
  P  P26  1  0.000000  0.188819  0.384281  1
  P  P27  1  0.000000  0.811217  0.384218  1
  P  P28  1  0.500000  0.499803  0.880720  1
  P  P29  1  0.000000  0.999969  0.119072  1
  P  P30  1  0.500000  0.844695  0.893021  1
  P  P31  1  0.500000  0.155483  0.892688  1
  P  P32  1  0.000000  0.655293  0.106934  1
  P  P33  1  0.000000  0.344742  0.107106  1
  P  P34  1  0.500000  0.500003  0.349287  1
  P  P35  1  0.000000  0.999965  0.650743  1
