# generated using pymatgen
data_NdTh3(Al8Pt3)3
_symmetry_space_group_name_H-M   'P 1'
_cell_length_a   7.62982346
_cell_length_b   7.64635586
_cell_length_c   13.25660206
_cell_angle_alpha   84.51087872
_cell_angle_beta   78.96686965
_cell_angle_gamma   59.94683955
_symmetry_Int_Tables_number   1
_chemical_formula_structural   NdTh3(Al8Pt3)3
_chemical_formula_sum   'Nd1 Th3 Al24 Pt9'
_cell_volume   657.04729530
_cell_formula_units_Z   1
loop_
 _symmetry_equiv_pos_site_id
 _symmetry_equiv_pos_as_xyz
  1  'x, y, z'
loop_
 _atom_site_type_symbol
 _atom_site_label
 _atom_site_symmetry_multiplicity
 _atom_site_fract_x
 _atom_site_fract_y
 _atom_site_fract_z
 _atom_site_occupancy
  Nd  Nd0  1  0.394345  0.167713  0.808493  1
  Th  Th1  1  0.605039  0.832236  0.193367  1
  Th  Th2  1  0.733510  0.498936  0.806156  1
  Th  Th3  1  0.266328  0.501301  0.193531  1
  Al  Al4  1  0.686284  0.835229  0.944436  1
  Al  Al5  1  0.312979  0.166346  0.053566  1
  Al  Al6  1  0.145490  0.833315  0.561659  1
  Al  Al7  1  0.853670  0.166577  0.439633  1
  Al  Al8  1  0.480502  0.166845  0.559074  1
  Al  Al9  1  0.518566  0.833516  0.442786  1
  Al  Al10  1  0.211387  0.165389  0.335795  1
  Al  Al11  1  0.784864  0.837641  0.664602  1
  Al  Al12  1  0.435844  0.506880  0.664667  1
  Al  Al13  1  0.564618  0.489379  0.335988  1
  Al  Al14  1  0.114878  0.156297  0.663508  1
  Al  Al15  1  0.887931  0.844411  0.337429  1
  Al  Al16  1  0.349243  0.501188  0.944374  1
  Al  Al17  1  0.651616  0.496929  0.053746  1
  Al  Al18  1  0.016353  0.164859  0.954372  1
  Al  Al19  1  0.985564  0.835244  0.043627  1
  Al  Al20  1  0.186585  0.499569  0.442893  1
  Al  Al21  1  0.813447  0.500261  0.557704  1
  Al  Al22  1  0.738479  0.163809  0.183777  1
  Al  Al23  1  0.262864  0.836728  0.815980  1
  Al  Al24  1  0.061834  0.633487  0.814548  1
  Al  Al25  1  0.938461  0.364809  0.185137  1
  Al  Al26  1  0.858676  0.038310  0.815456  1
  Al  Al27  1  0.139848  0.963042  0.184086  1
  Pt  Pt28  1  0.118626  0.493213  0.637909  1
  Pt  Pt29  1  0.880138  0.508920  0.360770  1
  Pt  Pt30  1  0.656801  0.171515  0.001002  1
  Pt  Pt31  1  0.343157  0.827532  0.001171  1
  Pt  Pt32  1  0.537086  0.166732  0.361200  1
  Pt  Pt33  1  0.462942  0.831508  0.637821  1
  Pt  Pt34  1  0.780699  0.175405  0.636574  1
  Pt  Pt35  1  0.222082  0.824192  0.362015  1
  Pt  Pt36  1  0.999266  0.500738  0.001148  1
