# generated using pymatgen
data_HoErTh2(Ga3Ir)6
_symmetry_space_group_name_H-M   'P 1'
_cell_length_a   7.65770007
_cell_length_b   7.66502878
_cell_length_c   9.49059700
_cell_angle_alpha   90.00000000
_cell_angle_beta   90.00000000
_cell_angle_gamma   119.82767611
_symmetry_Int_Tables_number   1
_chemical_formula_structural   HoErTh2(Ga3Ir)6
_chemical_formula_sum   'Ho1 Er1 Th2 Ga18 Ir6'
_cell_volume   483.26775729
_cell_formula_units_Z   1
loop_
 _symmetry_equiv_pos_site_id
 _symmetry_equiv_pos_as_xyz
  1  'x, y, z'
loop_
 _atom_site_type_symbol
 _atom_site_label
 _atom_site_symmetry_multiplicity
 _atom_site_fract_x
 _atom_site_fract_y
 _atom_site_fract_z
 _atom_site_occupancy
  Ho  Ho0  1  0.331792  0.003787  0.750000  1
  Er  Er1  1  0.668220  0.996237  0.250000  1
  Th  Th2  1  0.996432  0.668699  0.250000  1
  Th  Th3  1  0.003572  0.331306  0.750000  1
  Ga  Ga4  1  0.128441  0.129858  0.250000  1
  Ga  Ga5  1  0.871461  0.870105  0.750000  1
  Ga  Ga6  1  0.998490  0.328973  0.081932  1
  Ga  Ga7  1  0.001365  0.670886  0.918146  1
  Ga  Ga8  1  0.001365  0.670886  0.581854  1
  Ga  Ga9  1  0.339688  0.003198  0.421899  1
  Ga  Ga10  1  0.998490  0.328973  0.418068  1
  Ga  Ga11  1  0.660456  0.996809  0.577933  1
  Ga  Ga12  1  0.660456  0.996809  0.922067  1
  Ga  Ga13  1  0.339688  0.003198  0.078101  1
  Ga  Ga14  1  0.336058  0.331487  0.564160  1
  Ga  Ga15  1  0.663943  0.668629  0.435756  1
  Ga  Ga16  1  0.663943  0.668629  0.064244  1
  Ga  Ga17  1  0.336058  0.331487  0.935840  1
  Ga  Ga18  1  0.341963  0.546394  0.250000  1
  Ga  Ga19  1  0.658122  0.453723  0.750000  1
  Ga  Ga20  1  0.542119  0.335751  0.250000  1
  Ga  Ga21  1  0.457923  0.664219  0.750000  1
  Ir  Ir22  1  0.674274  0.330693  0.000058  1
  Ir  Ir23  1  0.325759  0.669298  0.000036  1
  Ir  Ir24  1  0.325759  0.669298  0.499964  1
  Ir  Ir25  1  0.674274  0.330693  0.499942  1
  Ir  Ir26  1  0.999944  0.999986  0.000057  1
  Ir  Ir27  1  0.999944  0.999986  0.499943  1
