# generated using pymatgen
data_La2Al20ReIr2Ru
_symmetry_space_group_name_H-M   'P 1'
_cell_length_a   6.93321399
_cell_length_b   6.93204542
_cell_length_c   9.24029020
_cell_angle_alpha   89.94483404
_cell_angle_beta   89.72589947
_cell_angle_gamma   96.90507375
_symmetry_Int_Tables_number   1
_chemical_formula_structural   La2Al20ReIr2Ru
_chemical_formula_sum   'La2 Al20 Re1 Ir2 Ru1'
_cell_volume   440.87408950
_cell_formula_units_Z   1
loop_
 _symmetry_equiv_pos_site_id
 _symmetry_equiv_pos_as_xyz
  1  'x, y, z'
loop_
 _atom_site_type_symbol
 _atom_site_label
 _atom_site_symmetry_multiplicity
 _atom_site_fract_x
 _atom_site_fract_y
 _atom_site_fract_z
 _atom_site_occupancy
  La  La0  1  0.873151  0.121416  0.750338  1
  La  La1  1  0.126849  0.878584  0.249662  1
  Al  Al2  1  0.620188  0.376891  0.551322  1
  Al  Al3  1  0.379812  0.623109  0.448678  1
  Al  Al4  1  0.380170  0.623706  0.050880  1
  Al  Al5  1  0.619830  0.376294  0.949120  1
  Al  Al6  1  0.228625  0.225749  0.498946  1
  Al  Al7  1  0.771375  0.774251  0.501054  1
  Al  Al8  1  0.772751  0.774445  0.999024  1
  Al  Al9  1  0.227249  0.225555  0.000976  1
  Al  Al10  1  0.838773  0.160712  0.102862  1
  Al  Al11  1  0.161227  0.839288  0.897138  1
  Al  Al12  1  0.162016  0.839301  0.603353  1
  Al  Al13  1  0.837984  0.160699  0.396647  1
  Al  Al14  1  0.857870  0.589557  0.749735  1
  Al  Al15  1  0.142130  0.410443  0.250265  1
  Al  Al16  1  0.411320  0.140513  0.749263  1
  Al  Al17  1  0.588680  0.859487  0.250737  1
  Al  Al18  1  0.223592  0.482955  0.749319  1
  Al  Al19  1  0.776408  0.517045  0.250681  1
  Al  Al20  1  0.516916  0.778418  0.750290  1
  Al  Al21  1  0.483084  0.221582  0.249710  1
  Re  Re22  1  0.500000  0.000000  0.000000  1
  Ir  Ir23  1  0.000000  0.500000  0.500000  1
  Ir  Ir24  1  0.000000  0.500000  0.000000  1
  Ru  Ru25  1  0.500000  0.000000  0.500000  1
