# generated using pymatgen
data_Ti20Si12P
_symmetry_space_group_name_H-M   'P 1'
_cell_length_a   5.18317206
_cell_length_b   7.51579211
_cell_length_c   12.98854700
_cell_angle_alpha   90.00017330
_cell_angle_beta   90.00017664
_cell_angle_gamma   89.99910486
_symmetry_Int_Tables_number   1
_chemical_formula_structural   Ti20Si12P
_chemical_formula_sum   'Ti20 Si12 P1'
_cell_volume   505.97720874
_cell_formula_units_Z   1
loop_
 _symmetry_equiv_pos_site_id
 _symmetry_equiv_pos_as_xyz
  1  'x, y, z'
loop_
 _atom_site_type_symbol
 _atom_site_label
 _atom_site_symmetry_multiplicity
 _atom_site_fract_x
 _atom_site_fract_y
 _atom_site_fract_z
 _atom_site_occupancy
  Ti  Ti0  1  0.499999  0.000007  0.334602  1
  Ti  Ti1  1  0.500001  0.499994  0.832230  1
  Ti  Ti2  1  0.499999  0.499993  0.167766  1
  Ti  Ti3  1  0.500001  0.000008  0.665391  1
  Ti  Ti4  1  0.000002  0.499995  0.166096  1
  Ti  Ti5  1  0.000001  0.000006  0.666983  1
  Ti  Ti6  1  0.000003  0.000006  0.333019  1
  Ti  Ti7  1  0.000000  0.499994  0.833900  1
  Ti  Ti8  1  0.739089  0.260392  0.999970  1
  Ti  Ti9  1  0.749615  0.753522  0.499980  1
  Ti  Ti10  1  0.749379  0.376246  0.376799  1
  Ti  Ti11  1  0.739309  0.868877  0.868332  1
  Ti  Ti12  1  0.739319  0.868952  0.131703  1
  Ti  Ti13  1  0.749372  0.376325  0.623233  1
  Ti  Ti14  1  0.260900  0.739609  0.999971  1
  Ti  Ti15  1  0.250386  0.246473  0.499980  1
  Ti  Ti16  1  0.260674  0.131053  0.131703  1
  Ti  Ti17  1  0.250627  0.623668  0.623232  1
  Ti  Ti18  1  0.250620  0.623750  0.376798  1
  Ti  Ti19  1  0.260687  0.131127  0.868332  1
  Si  Si20  1  0.748625  0.607263  0.999951  1
  Si  Si21  1  0.752180  0.109678  0.499959  1
  Si  Si22  1  0.750595  0.198606  0.199288  1
  Si  Si23  1  0.750503  0.694427  0.694101  1
  Si  Si24  1  0.750519  0.694577  0.305953  1
  Si  Si25  1  0.750565  0.198736  0.800747  1
  Si  Si26  1  0.251375  0.392727  0.999951  1
  Si  Si27  1  0.247821  0.890339  0.499957  1
  Si  Si28  1  0.249480  0.305414  0.305948  1
  Si  Si29  1  0.249438  0.801271  0.800752  1
  Si  Si30  1  0.249407  0.801399  0.199286  1
  Si  Si31  1  0.249496  0.305562  0.694106  1
  P  P32  1  0.000014  0.000006  0.999978  1
