# generated using pymatgen
data_DyCdSnSbO7
_symmetry_space_group_name_H-M   'P 1'
_cell_length_a   7.42252300
_cell_length_b   7.42252300
_cell_length_c   10.45478900
_cell_angle_alpha   90.00000000
_cell_angle_beta   90.00000000
_cell_angle_gamma   90.00000000
_symmetry_Int_Tables_number   1
_chemical_formula_structural   DyCdSnSbO7
_chemical_formula_sum   'Dy4 Cd4 Sn4 Sb4 O28'
_cell_volume   575.99455275
_cell_formula_units_Z   4
loop_
 _symmetry_equiv_pos_site_id
 _symmetry_equiv_pos_as_xyz
  1  'x, y, z'
loop_
 _atom_site_type_symbol
 _atom_site_label
 _atom_site_symmetry_multiplicity
 _atom_site_fract_x
 _atom_site_fract_y
 _atom_site_fract_z
 _atom_site_occupancy
  Dy  Dy0  1  0.000000  0.742837  0.000000  1
  Dy  Dy1  1  0.000000  0.257163  0.500000  1
  Dy  Dy2  1  0.257163  0.000000  0.250000  1
  Dy  Dy3  1  0.742837  0.000000  0.750000  1
  Cd  Cd4  1  0.500000  0.740810  0.000000  1
  Cd  Cd5  1  0.259190  0.500000  0.250000  1
  Cd  Cd6  1  0.500000  0.259190  0.500000  1
  Cd  Cd7  1  0.740810  0.500000  0.750000  1
  Sn  Sn8  1  0.757497  0.000000  0.250000  1
  Sn  Sn9  1  0.000000  0.757497  0.500000  1
  Sn  Sn10  1  0.242503  0.000000  0.750000  1
  Sn  Sn11  1  0.000000  0.242503  0.000000  1
  Sb  Sb12  1  0.244779  0.500000  0.750000  1
  Sb  Sb13  1  0.500000  0.755221  0.500000  1
  Sb  Sb14  1  0.500000  0.244779  0.000000  1
  Sb  Sb15  1  0.755221  0.500000  0.250000  1
  O  O16  1  0.252618  0.747382  0.125000  1
  O  O17  1  0.542837  0.949082  0.370754  1
  O  O18  1  0.763835  0.743364  0.170879  1
  O  O19  1  0.747382  0.252618  0.625000  1
  O  O20  1  0.970699  0.970699  0.375000  1
  O  O21  1  0.029301  0.029301  0.875000  1
  O  O22  1  0.050918  0.457163  0.879246  1
  O  O23  1  0.029301  0.970699  0.625000  1
  O  O24  1  0.256636  0.236165  0.079121  1
  O  O25  1  0.236165  0.256636  0.670879  1
  O  O26  1  0.256636  0.763835  0.420879  1
  O  O27  1  0.457163  0.949082  0.629246  1
  O  O28  1  0.457163  0.050918  0.870754  1
  O  O29  1  0.445332  0.445332  0.875000  1
  O  O30  1  0.554668  0.554668  0.375000  1
  O  O31  1  0.542837  0.050918  0.129246  1
  O  O32  1  0.554668  0.445332  0.125000  1
  O  O33  1  0.743364  0.763835  0.579121  1
  O  O34  1  0.763835  0.256636  0.329121  1
  O  O35  1  0.747382  0.747382  0.875000  1
  O  O36  1  0.743364  0.236165  0.920879  1
  O  O37  1  0.949082  0.542837  0.379246  1
  O  O38  1  0.970699  0.029301  0.125000  1
  O  O39  1  0.949082  0.457163  0.120754  1
  O  O40  1  0.050918  0.542837  0.620754  1
  O  O41  1  0.236165  0.743364  0.829121  1
  O  O42  1  0.252618  0.252618  0.375000  1
  O  O43  1  0.445332  0.554668  0.625000  1
