# generated using pymatgen
data_Lu10Sn5Hg3Pt4
_symmetry_space_group_name_H-M   'P 1'
_cell_length_a   3.61065300
_cell_length_b   7.95607039
_cell_length_c   17.83040995
_cell_angle_alpha   90.32484209
_cell_angle_beta   90.00000000
_cell_angle_gamma   90.00000000
_symmetry_Int_Tables_number   1
_chemical_formula_structural   Lu10Sn5Hg3Pt4
_chemical_formula_sum   'Lu10 Sn5 Hg3 Pt4'
_cell_volume   512.19899026
_cell_formula_units_Z   1
loop_
 _symmetry_equiv_pos_site_id
 _symmetry_equiv_pos_as_xyz
  1  'x, y, z'
loop_
 _atom_site_type_symbol
 _atom_site_label
 _atom_site_symmetry_multiplicity
 _atom_site_fract_x
 _atom_site_fract_y
 _atom_site_fract_z
 _atom_site_occupancy
  Lu  Lu0  1  0.000000  0.109702  0.415023  1
  Lu  Lu1  1  0.000000  0.889602  0.585020  1
  Lu  Lu2  1  0.000000  0.388969  0.914866  1
  Lu  Lu3  1  0.000000  0.617345  0.085087  1
  Lu  Lu4  1  0.000000  0.243474  0.218778  1
  Lu  Lu5  1  0.000000  0.753852  0.782302  1
  Lu  Lu6  1  0.000000  0.253994  0.717358  1
  Lu  Lu7  1  0.000000  0.745120  0.282981  1
  Lu  Lu8  1  0.000000  0.998916  0.999480  1
  Lu  Lu9  1  0.000000  0.499668  0.499447  1
  Sn  Sn10  1  0.500000  0.421963  0.352763  1
  Sn  Sn11  1  0.500000  0.576199  0.647152  1
  Sn  Sn12  1  0.500000  0.077083  0.852577  1
  Sn  Sn13  1  0.500000  0.919868  0.147771  1
  Sn  Sn14  1  0.500000  0.293277  0.063572  1
  Hg  Hg15  1  0.500000  0.709696  0.936567  1
  Hg  Hg16  1  0.500000  0.208591  0.562993  1
  Hg  Hg17  1  0.500000  0.791967  0.436821  1
  Pt  Pt18  1  0.500000  0.030136  0.301065  1
  Pt  Pt19  1  0.500000  0.970278  0.698651  1
  Pt  Pt20  1  0.500000  0.470914  0.802312  1
  Pt  Pt21  1  0.500000  0.529387  0.197416  1
