# generated using pymatgen
data_Hf3Ti2Ge3
_symmetry_space_group_name_H-M   'P 1'
_cell_length_a   7.85072300
_cell_length_b   7.85072313
_cell_length_c   5.34055800
_cell_angle_alpha   90.00000000
_cell_angle_beta   90.00000000
_cell_angle_gamma   119.99999522
_symmetry_Int_Tables_number   1
_chemical_formula_structural   Hf3Ti2Ge3
_chemical_formula_sum   'Hf6 Ti4 Ge6'
_cell_volume   285.06021250
_cell_formula_units_Z   2
loop_
 _symmetry_equiv_pos_site_id
 _symmetry_equiv_pos_as_xyz
  1  'x, y, z'
loop_
 _atom_site_type_symbol
 _atom_site_label
 _atom_site_symmetry_multiplicity
 _atom_site_fract_x
 _atom_site_fract_y
 _atom_site_fract_z
 _atom_site_occupancy
  Hf  Hf0  1  0.000000  0.749716  0.750000  1
  Hf  Hf1  1  0.250284  0.250284  0.750000  1
  Hf  Hf2  1  0.000000  0.250284  0.250000  1
  Hf  Hf3  1  0.749716  0.000000  0.750000  1
  Hf  Hf4  1  0.749716  0.749716  0.250000  1
  Hf  Hf5  1  0.250284  0.000000  0.250000  1
  Ti  Ti6  1  0.333333  0.666667  0.500000  1
  Ti  Ti7  1  0.333333  0.666667  0.000000  1
  Ti  Ti8  1  0.666667  0.333333  0.500000  1
  Ti  Ti9  1  0.666667  0.333333  0.000000  1
  Ge  Ge10  1  0.604057  0.604057  0.750000  1
  Ge  Ge11  1  0.395943  0.000000  0.750000  1
  Ge  Ge12  1  0.000000  0.604057  0.250000  1
  Ge  Ge13  1  0.604057  0.000000  0.250000  1
  Ge  Ge14  1  0.000000  0.395943  0.750000  1
  Ge  Ge15  1  0.395943  0.395943  0.250000  1
