# generated using pymatgen
data_Tm2ZnB2Ir3Rh2
_symmetry_space_group_name_H-M   'P 1'
_cell_length_a   9.50864400
_cell_length_b   9.54161400
_cell_length_c   3.15821900
_cell_angle_alpha   90.00000000
_cell_angle_beta   90.00000000
_cell_angle_gamma   90.00000000
_symmetry_Int_Tables_number   1
_chemical_formula_structural   Tm2ZnB2Ir3Rh2
_chemical_formula_sum   'Tm4 Zn2 B4 Ir6 Rh4'
_cell_volume   286.53829562
_cell_formula_units_Z   2
loop_
 _symmetry_equiv_pos_site_id
 _symmetry_equiv_pos_as_xyz
  1  'x, y, z'
loop_
 _atom_site_type_symbol
 _atom_site_label
 _atom_site_symmetry_multiplicity
 _atom_site_fract_x
 _atom_site_fract_y
 _atom_site_fract_z
 _atom_site_occupancy
  Tm  Tm0  1  0.322441  0.823060  0.000000  1
  Tm  Tm1  1  0.677559  0.176940  0.000000  1
  Tm  Tm2  1  0.177559  0.323060  0.000000  1
  Tm  Tm3  1  0.822441  0.676940  0.000000  1
  Zn  Zn4  1  0.500000  0.500000  0.000000  1
  Zn  Zn5  1  0.000000  0.000000  0.000000  1
  B  B6  1  0.124905  0.621714  0.000000  1
  B  B7  1  0.875095  0.378286  0.000000  1
  B  B8  1  0.375095  0.121714  0.000000  1
  B  B9  1  0.624905  0.878286  0.000000  1
  Ir  Ir10  1  0.780494  0.929981  0.500000  1
  Ir  Ir11  1  0.219506  0.070019  0.500000  1
  Ir  Ir12  1  0.280494  0.570019  0.500000  1
  Ir  Ir13  1  0.719506  0.429981  0.500000  1
  Ir  Ir14  1  0.000000  0.500000  0.500000  1
  Ir  Ir15  1  0.500000  0.000000  0.500000  1
  Rh  Rh16  1  0.568257  0.719727  0.500000  1
  Rh  Rh17  1  0.431743  0.280273  0.500000  1
  Rh  Rh18  1  0.931743  0.219727  0.500000  1
  Rh  Rh19  1  0.068257  0.780273  0.500000  1
