# generated using pymatgen
data_HoHf(GaNi)2
_symmetry_space_group_name_H-M   'P 1'
_cell_length_a   6.96858600
_cell_length_b   6.96858470
_cell_length_c   7.15786300
_cell_angle_alpha   90.00000000
_cell_angle_beta   90.00000000
_cell_angle_gamma   120.00000618
_symmetry_Int_Tables_number   1
_chemical_formula_structural   HoHf(GaNi)2
_chemical_formula_sum   'Ho3 Hf3 Ga6 Ni6'
_cell_volume   301.02546326
_cell_formula_units_Z   3
loop_
 _symmetry_equiv_pos_site_id
 _symmetry_equiv_pos_as_xyz
  1  'x, y, z'
loop_
 _atom_site_type_symbol
 _atom_site_label
 _atom_site_symmetry_multiplicity
 _atom_site_fract_x
 _atom_site_fract_y
 _atom_site_fract_z
 _atom_site_occupancy
  Ho  Ho0  1  0.590520  0.999844  0.750000  1
  Ho  Ho1  1  0.409323  0.409480  0.750000  1
  Ho  Ho2  1  0.000156  0.590677  0.750000  1
  Hf  Hf3  1  0.401833  0.401636  0.250000  1
  Hf  Hf4  1  0.999802  0.598167  0.250000  1
  Hf  Hf5  1  0.598364  0.000198  0.250000  1
  Ga  Ga6  1  0.257456  0.000021  0.010816  1
  Ga  Ga7  1  0.257456  0.000021  0.489184  1
  Ga  Ga8  1  0.999979  0.257436  0.489184  1
  Ga  Ga9  1  0.999979  0.257436  0.010816  1
  Ga  Ga10  1  0.742564  0.742544  0.010816  1
  Ga  Ga11  1  0.742564  0.742544  0.489184  1
  Ni  Ni12  1  0.666667  0.333333  0.468446  1
  Ni  Ni13  1  0.000000  0.000000  0.750000  1
  Ni  Ni14  1  0.666667  0.333333  0.031554  1
  Ni  Ni15  1  0.333333  0.666667  0.032169  1
  Ni  Ni16  1  0.333333  0.666667  0.467831  1
  Ni  Ni17  1  0.000000  0.000000  0.250000  1
