# generated using pymatgen
data_NaHo6Sn23Rh6
_symmetry_space_group_name_H-M   'P 1'
_cell_length_a   9.87228000
_cell_length_b   9.87227840
_cell_length_c   10.07385400
_cell_angle_alpha   90.00000000
_cell_angle_beta   90.00000000
_cell_angle_gamma   119.99999867
_symmetry_Int_Tables_number   1
_chemical_formula_structural   NaHo6Sn23Rh6
_chemical_formula_sum   'Na1 Ho6 Sn23 Rh6'
_cell_volume   850.27840311
_cell_formula_units_Z   1
loop_
 _symmetry_equiv_pos_site_id
 _symmetry_equiv_pos_as_xyz
  1  'x, y, z'
loop_
 _atom_site_type_symbol
 _atom_site_label
 _atom_site_symmetry_multiplicity
 _atom_site_fract_x
 _atom_site_fract_y
 _atom_site_fract_z
 _atom_site_occupancy
  Na  Na0  1  0.000000  0.000000  0.000000  1
  Ho  Ho1  1  0.519295  0.480705  0.694009  1
  Ho  Ho2  1  0.519295  0.038590  0.694009  1
  Ho  Ho3  1  0.961410  0.480705  0.694009  1
  Ho  Ho4  1  0.038590  0.519295  0.305991  1
  Ho  Ho5  1  0.480705  0.961410  0.305991  1
  Ho  Ho6  1  0.480705  0.519295  0.305991  1
  Sn  Sn7  1  0.666667  0.333333  0.182105  1
  Sn  Sn8  1  0.666667  0.333333  0.880030  1
  Sn  Sn9  1  0.333333  0.666667  0.119970  1
  Sn  Sn10  1  0.348936  0.348936  0.000000  1
  Sn  Sn11  1  0.000000  0.651064  0.000000  1
  Sn  Sn12  1  0.651064  0.000000  0.000000  1
  Sn  Sn13  1  0.651064  0.651064  0.000000  1
  Sn  Sn14  1  0.333333  0.666667  0.817895  1
  Sn  Sn15  1  0.443887  0.221944  0.459686  1
  Sn  Sn16  1  0.221944  0.778056  0.540314  1
  Sn  Sn17  1  0.221944  0.443887  0.540314  1
  Sn  Sn18  1  0.556113  0.778056  0.540314  1
  Sn  Sn19  1  0.117859  0.882141  0.278398  1
  Sn  Sn20  1  0.778056  0.556113  0.459686  1
  Sn  Sn21  1  0.778056  0.221944  0.459686  1
  Sn  Sn22  1  0.348936  0.000000  0.000000  1
  Sn  Sn23  1  0.117859  0.235718  0.278398  1
  Sn  Sn24  1  0.764282  0.882141  0.278398  1
  Sn  Sn25  1  0.235718  0.117859  0.721602  1
  Sn  Sn26  1  0.882141  0.764282  0.721602  1
  Sn  Sn27  1  0.882141  0.117859  0.721602  1
  Sn  Sn28  1  0.000000  0.000000  0.500000  1
  Sn  Sn29  1  0.000000  0.348936  0.000000  1
  Rh  Rh30  1  0.171783  0.828217  0.796950  1
  Rh  Rh31  1  0.171783  0.343567  0.796950  1
  Rh  Rh32  1  0.656433  0.828217  0.796950  1
  Rh  Rh33  1  0.343567  0.171783  0.203050  1
  Rh  Rh34  1  0.828217  0.656433  0.203050  1
  Rh  Rh35  1  0.828217  0.171783  0.203050  1
