# generated using pymatgen
data_Nd3FeCo7P6W
_symmetry_space_group_name_H-M   'P 1'
_cell_length_a   3.78203900
_cell_length_b   10.70964000
_cell_length_c   12.39843400
_cell_angle_alpha   90.00000000
_cell_angle_beta   90.00000000
_cell_angle_gamma   90.00000000
_symmetry_Int_Tables_number   1
_chemical_formula_structural   Nd3FeCo7P6W
_chemical_formula_sum   'Nd6 Fe2 Co14 P12 W2'
_cell_volume   502.18959464
_cell_formula_units_Z   2
loop_
 _symmetry_equiv_pos_site_id
 _symmetry_equiv_pos_as_xyz
  1  'x, y, z'
loop_
 _atom_site_type_symbol
 _atom_site_label
 _atom_site_symmetry_multiplicity
 _atom_site_fract_x
 _atom_site_fract_y
 _atom_site_fract_z
 _atom_site_occupancy
  Nd  Nd0  1  0.000000  0.500000  0.523640  1
  Nd  Nd1  1  0.500000  0.000000  0.476360  1
  Nd  Nd2  1  0.500000  0.819365  0.204184  1
  Nd  Nd3  1  0.500000  0.180635  0.204184  1
  Nd  Nd4  1  0.000000  0.680635  0.795816  1
  Nd  Nd5  1  0.000000  0.319365  0.795816  1
  Fe  Fe6  1  0.000000  0.500000  0.988843  1
  Fe  Fe7  1  0.500000  0.000000  0.011157  1
  Co  Co8  1  0.500000  0.500000  0.700212  1
  Co  Co9  1  0.000000  0.000000  0.299788  1
  Co  Co10  1  0.500000  0.331557  0.992798  1
  Co  Co11  1  0.500000  0.668443  0.992798  1
  Co  Co12  1  0.000000  0.168443  0.007202  1
  Co  Co13  1  0.000000  0.831557  0.007202  1
  Co  Co14  1  0.500000  0.295287  0.430980  1
  Co  Co15  1  0.500000  0.704713  0.430980  1
  Co  Co16  1  0.000000  0.204713  0.569020  1
  Co  Co17  1  0.000000  0.795287  0.569020  1
  Co  Co18  1  0.500000  0.880724  0.709021  1
  Co  Co19  1  0.500000  0.119276  0.709021  1
  Co  Co20  1  0.000000  0.619276  0.290979  1
  Co  Co21  1  0.000000  0.380724  0.290979  1
  P  P22  1  0.500000  0.500000  0.886442  1
  P  P23  1  0.000000  0.000000  0.113558  1
  P  P24  1  0.500000  0.500000  0.344952  1
  P  P25  1  0.000000  0.000000  0.655048  1
  P  P26  1  0.500000  0.306161  0.614629  1
  P  P27  1  0.500000  0.693839  0.614629  1
  P  P28  1  0.000000  0.193839  0.385371  1
  P  P29  1  0.000000  0.806161  0.385371  1
  P  P30  1  0.500000  0.846612  0.896138  1
  P  P31  1  0.500000  0.153388  0.896138  1
  P  P32  1  0.000000  0.653388  0.103862  1
  P  P33  1  0.000000  0.346612  0.103862  1
  W  W34  1  0.500000  0.500000  0.153448  1
  W  W35  1  0.000000  0.000000  0.846552  1
