# generated using pymatgen
data_VPPd3S8
_symmetry_space_group_name_H-M   'P 1'
_cell_length_a   7.41220000
_cell_length_b   7.41219907
_cell_length_c   7.10969300
_cell_angle_alpha   90.00000000
_cell_angle_beta   90.00000000
_cell_angle_gamma   119.99999523
_symmetry_Int_Tables_number   1
_chemical_formula_structural   VPPd3S8
_chemical_formula_sum   'V1 P1 Pd3 S8'
_cell_volume   338.27951904
_cell_formula_units_Z   1
loop_
 _symmetry_equiv_pos_site_id
 _symmetry_equiv_pos_as_xyz
  1  'x, y, z'
loop_
 _atom_site_type_symbol
 _atom_site_label
 _atom_site_symmetry_multiplicity
 _atom_site_fract_x
 _atom_site_fract_y
 _atom_site_fract_z
 _atom_site_occupancy
  V  V0  1  0.666667  0.333333  0.714773  1
  P  P1  1  0.333333  0.666667  0.312375  1
  Pd  Pd2  1  0.502411  0.497589  0.990911  1
  Pd  Pd3  1  0.995179  0.497589  0.990911  1
  Pd  Pd4  1  0.502411  0.004821  0.990911  1
  S  S5  1  0.189221  0.810779  0.165938  1
  S  S6  1  0.333333  0.666667  0.581476  1
  S  S7  1  0.666667  0.333333  0.426245  1
  S  S8  1  0.825755  0.174245  0.831529  1
  S  S9  1  0.825755  0.651510  0.831529  1
  S  S10  1  0.348490  0.174245  0.831529  1
  S  S11  1  0.621558  0.810779  0.165938  1
  S  S12  1  0.189221  0.378442  0.165938  1
