# generated using pymatgen
data_Dy3TmFe5Os3
_symmetry_space_group_name_H-M   'P 1'
_cell_length_a   5.24468805
_cell_length_b   5.22967132
_cell_length_c   9.04360705
_cell_angle_alpha   72.76386911
_cell_angle_beta   90.78163874
_cell_angle_gamma   120.20152733
_symmetry_Int_Tables_number   1
_chemical_formula_structural   Dy3TmFe5Os3
_chemical_formula_sum   'Dy3 Tm1 Fe5 Os3'
_cell_volume   201.97697871
_cell_formula_units_Z   1
loop_
 _symmetry_equiv_pos_site_id
 _symmetry_equiv_pos_as_xyz
  1  'x, y, z'
loop_
 _atom_site_type_symbol
 _atom_site_label
 _atom_site_symmetry_multiplicity
 _atom_site_fract_x
 _atom_site_fract_y
 _atom_site_fract_z
 _atom_site_occupancy
  Dy  Dy0  1  0.376402  0.749769  0.873686  1
  Dy  Dy1  1  0.998786  0.999201  0.998814  1
  Dy  Dy2  1  0.498756  0.000144  0.501263  1
  Tm  Tm3  1  0.876661  0.750511  0.376137  1
  Fe  Fe4  1  0.937205  0.875782  0.686249  1
  Fe  Fe5  1  0.184780  0.369768  0.443343  1
  Fe  Fe6  1  0.690232  0.380272  0.931357  1
  Fe  Fe7  1  0.937777  0.373932  0.189085  1
  Fe  Fe8  1  0.437663  0.376345  0.686031  1
  Os  Os9  1  0.437584  0.373799  0.188784  1
  Os  Os10  1  0.936682  0.376700  0.686339  1
  Os  Os11  1  0.437470  0.873775  0.188909  1
