# generated using pymatgen
data_CeTm(ZnRh)2
_symmetry_space_group_name_H-M   'P 1'
_cell_length_a   3.92004600
_cell_length_b   7.01565084
_cell_length_c   8.33259140
_cell_angle_alpha   91.07472124
_cell_angle_beta   90.00000000
_cell_angle_gamma   90.00000000
_symmetry_Int_Tables_number   1
_chemical_formula_structural   CeTm(ZnRh)2
_chemical_formula_sum   'Ce2 Tm2 Zn4 Rh4'
_cell_volume   229.11989962
_cell_formula_units_Z   2
loop_
 _symmetry_equiv_pos_site_id
 _symmetry_equiv_pos_as_xyz
  1  'x, y, z'
loop_
 _atom_site_type_symbol
 _atom_site_label
 _atom_site_symmetry_multiplicity
 _atom_site_fract_x
 _atom_site_fract_y
 _atom_site_fract_z
 _atom_site_occupancy
  Ce  Ce0  1  0.250000  0.543673  0.190094  1
  Ce  Ce1  1  0.750000  0.456327  0.809906  1
  Tm  Tm2  1  0.750000  0.952051  0.681806  1
  Tm  Tm3  1  0.250000  0.047949  0.318194  1
  Zn  Zn4  1  0.250000  0.637476  0.558645  1
  Zn  Zn5  1  0.750000  0.362524  0.441355  1
  Zn  Zn6  1  0.750000  0.879269  0.061996  1
  Zn  Zn7  1  0.250000  0.120731  0.938004  1
  Rh  Rh8  1  0.250000  0.738227  0.872442  1
  Rh  Rh9  1  0.750000  0.261773  0.127558  1
  Rh  Rh10  1  0.750000  0.750551  0.364667  1
  Rh  Rh11  1  0.250000  0.249449  0.635333  1
