# generated using pymatgen
data_Er3Tm(ScPt)4
_symmetry_space_group_name_H-M   'P 1'
_cell_length_a   4.61442100
_cell_length_b   6.93343985
_cell_length_c   8.37297257
_cell_angle_alpha   90.53045802
_cell_angle_beta   90.00000000
_cell_angle_gamma   90.00000000
_symmetry_Int_Tables_number   1
_chemical_formula_structural   Er3Tm(ScPt)4
_chemical_formula_sum   'Er3 Tm1 Sc4 Pt4'
_cell_volume   267.87181660
_cell_formula_units_Z   1
loop_
 _symmetry_equiv_pos_site_id
 _symmetry_equiv_pos_as_xyz
  1  'x, y, z'
loop_
 _atom_site_type_symbol
 _atom_site_label
 _atom_site_symmetry_multiplicity
 _atom_site_fract_x
 _atom_site_fract_y
 _atom_site_fract_z
 _atom_site_occupancy
  Er  Er0  1  0.250000  0.985713  0.323088  1
  Er  Er1  1  0.750000  0.019608  0.676623  1
  Er  Er2  1  0.250000  0.481933  0.175544  1
  Tm  Tm3  1  0.750000  0.514006  0.826042  1
  Sc  Sc4  1  0.750000  0.643424  0.427867  1
  Sc  Sc5  1  0.250000  0.363081  0.575218  1
  Sc  Sc6  1  0.750000  0.139418  0.072085  1
  Sc  Sc7  1  0.250000  0.852339  0.925623  1
  Pt  Pt8  1  0.250000  0.243828  0.900112  1
  Pt  Pt9  1  0.750000  0.750844  0.098671  1
  Pt  Pt10  1  0.250000  0.751099  0.596663  1
  Pt  Pt11  1  0.750000  0.254703  0.402464  1
