# generated using pymatgen
data_Pr8Tm9Sc3Si16
_symmetry_space_group_name_H-M   'P 1'
_cell_length_a   7.39311361
_cell_length_b   7.73414963
_cell_length_c   14.64792900
_cell_angle_alpha   90.00000000
_cell_angle_beta   90.00000000
_cell_angle_gamma   89.95360488
_symmetry_Int_Tables_number   1
_chemical_formula_structural   Pr8Tm9Sc3Si16
_chemical_formula_sum   'Pr8 Tm9 Sc3 Si16'
_cell_volume   837.56020370
_cell_formula_units_Z   1
loop_
 _symmetry_equiv_pos_site_id
 _symmetry_equiv_pos_as_xyz
  1  'x, y, z'
loop_
 _atom_site_type_symbol
 _atom_site_label
 _atom_site_symmetry_multiplicity
 _atom_site_fract_x
 _atom_site_fract_y
 _atom_site_fract_z
 _atom_site_occupancy
  Pr  Pr0  1  0.016487  0.176978  0.400856  1
  Pr  Pr1  1  0.516553  0.322922  0.400762  1
  Pr  Pr2  1  0.481932  0.676100  0.902101  1
  Pr  Pr3  1  0.481932  0.676100  0.597899  1
  Pr  Pr4  1  0.984258  0.821720  0.597554  1
  Pr  Pr5  1  0.984258  0.821720  0.902446  1
  Pr  Pr6  1  0.516553  0.322922  0.099238  1
  Pr  Pr7  1  0.016487  0.176978  0.099144  1
  Tm  Tm8  1  0.323974  0.178690  0.623615  1
  Tm  Tm9  1  0.675421  0.822910  0.374632  1
  Tm  Tm10  1  0.657190  0.991407  0.750000  1
  Tm  Tm11  1  0.175492  0.677141  0.374767  1
  Tm  Tm12  1  0.825466  0.323830  0.876210  1
  Tm  Tm13  1  0.825466  0.323830  0.623790  1
  Tm  Tm14  1  0.323974  0.178690  0.876385  1
  Tm  Tm15  1  0.175492  0.677141  0.125233  1
  Tm  Tm16  1  0.675421  0.822910  0.125368  1
  Sc  Sc17  1  0.843745  0.492795  0.250000  1
  Sc  Sc18  1  0.343303  0.007159  0.250000  1
  Sc  Sc19  1  0.156224  0.507957  0.750000  1
  Si  Si20  1  0.277871  0.875909  0.750000  1
  Si  Si21  1  0.473989  0.612153  0.250000  1
  Si  Si22  1  0.030723  0.115818  0.750000  1
  Si  Si23  1  0.526652  0.387470  0.750000  1
  Si  Si24  1  0.148489  0.466917  0.538922  1
  Si  Si25  1  0.974362  0.888214  0.250000  1
  Si  Si26  1  0.717227  0.124366  0.250000  1
  Si  Si27  1  0.851120  0.532885  0.040673  1
  Si  Si28  1  0.351325  0.967143  0.040429  1
  Si  Si29  1  0.148489  0.466917  0.961078  1
  Si  Si30  1  0.648956  0.033148  0.538267  1
  Si  Si31  1  0.351325  0.967143  0.459571  1
  Si  Si32  1  0.851120  0.532885  0.459327  1
  Si  Si33  1  0.782745  0.620350  0.750000  1
  Si  Si34  1  0.217020  0.375634  0.250000  1
  Si  Si35  1  0.648956  0.033148  0.961733  1
