# generated using pymatgen
data_Rb4UBiTe6
_symmetry_space_group_name_H-M   'P 1'
_cell_length_a   8.29797046
_cell_length_b   8.29797002
_cell_length_c   8.97804692
_cell_angle_alpha   80.89514831
_cell_angle_beta   80.89514830
_cell_angle_gamma   120.15676710
_symmetry_Int_Tables_number   1
_chemical_formula_structural   Rb4UBiTe6
_chemical_formula_sum   'Rb4 U1 Bi1 Te6'
_cell_volume   506.91510261
_cell_formula_units_Z   1
loop_
 _symmetry_equiv_pos_site_id
 _symmetry_equiv_pos_as_xyz
  1  'x, y, z'
loop_
 _atom_site_type_symbol
 _atom_site_label
 _atom_site_symmetry_multiplicity
 _atom_site_fract_x
 _atom_site_fract_y
 _atom_site_fract_z
 _atom_site_occupancy
  Rb  Rb0  1  0.500099  0.499901  0.000000  1
  Rb  Rb1  1  0.655153  0.344847  0.500000  1
  Rb  Rb2  1  0.348364  0.651636  0.500000  1
  Rb  Rb3  1  0.995983  0.004017  0.500000  1
  U  U4  1  0.167767  0.832233  0.000000  1
  Bi  Bi5  1  0.830616  0.169384  0.000000  1
  Te  Te6  1  0.815044  0.799429  0.200209  1
  Te  Te7  1  0.200571  0.184956  0.799791  1
  Te  Te8  1  0.415572  0.045930  0.203596  1
  Te  Te9  1  0.554634  0.937872  0.795791  1
  Te  Te10  1  0.954070  0.584428  0.796404  1
  Te  Te11  1  0.062128  0.445366  0.204209  1
