# generated using pymatgen
data_Er6C2I7
_symmetry_space_group_name_H-M   'P 1'
_cell_length_a   10.93446036
_cell_length_b   10.93446014
_cell_length_c   12.74707649
_cell_angle_alpha   58.20147068
_cell_angle_beta   58.20147209
_cell_angle_gamma   20.71694585
_symmetry_Int_Tables_number   1
_chemical_formula_structural   Er6C2I7
_chemical_formula_sum   'Er6 C2 I7'
_cell_volume   455.26869898
_cell_formula_units_Z   1
loop_
 _symmetry_equiv_pos_site_id
 _symmetry_equiv_pos_as_xyz
  1  'x, y, z'
loop_
 _atom_site_type_symbol
 _atom_site_label
 _atom_site_symmetry_multiplicity
 _atom_site_fract_x
 _atom_site_fract_y
 _atom_site_fract_z
 _atom_site_occupancy
  Er  Er0  1  0.237547  0.237547  0.805974  1
  Er  Er1  1  0.307153  0.307153  0.377186  1
  Er  Er2  1  0.136997  0.136997  0.446212  1
  Er  Er3  1  0.863003  0.863003  0.553788  1
  Er  Er4  1  0.692847  0.692847  0.622814  1
  Er  Er5  1  0.762453  0.762453  0.194026  1
  C  C6  1  0.280753  0.280753  0.595179  1
  C  C7  1  0.719247  0.719247  0.404821  1
  I  I8  1  0.159381  0.159381  0.178574  1
  I  I9  1  0.840619  0.840619  0.821426  1
  I  I10  1  0.058399  0.058399  0.720879  1
  I  I11  1  0.941601  0.941601  0.279121  1
  I  I12  1  0.500000  0.500000  0.500000  1
  I  I13  1  0.386720  0.386720  0.073607  1
  I  I14  1  0.613280  0.613280  0.926393  1
