# generated using pymatgen
data_YTmBe4(B5O11)2
_symmetry_space_group_name_H-M   'P 1'
_cell_length_a   4.36072211
_cell_length_b   6.72182700
_cell_length_c   25.72194706
_cell_angle_alpha   90.00000000
_cell_angle_beta   89.76539986
_cell_angle_gamma   90.00000000
_symmetry_Int_Tables_number   1
_chemical_formula_structural   YTmBe4(B5O11)2
_chemical_formula_sum   'Y2 Tm2 Be8 B20 O44'
_cell_volume   753.95589705
_cell_formula_units_Z   2
loop_
 _symmetry_equiv_pos_site_id
 _symmetry_equiv_pos_as_xyz
  1  'x, y, z'
loop_
 _atom_site_type_symbol
 _atom_site_label
 _atom_site_symmetry_multiplicity
 _atom_site_fract_x
 _atom_site_fract_y
 _atom_site_fract_z
 _atom_site_occupancy
  Y  Y0  1  0.364688  0.868321  0.580745  1
  Y  Y1  1  0.635312  0.368321  0.419255  1
  Tm  Tm2  1  0.872569  0.365629  0.919804  1
  Tm  Tm3  1  0.127431  0.865629  0.080196  1
  Be  Be4  1  0.165846  0.452479  0.791537  1
  Be  Be5  1  0.834154  0.952479  0.208463  1
  Be  Be6  1  0.668566  0.952159  0.709580  1
  Be  Be7  1  0.331434  0.452159  0.290420  1
  Be  Be8  1  0.663762  0.228183  0.793963  1
  Be  Be9  1  0.336238  0.728183  0.206037  1
  Be  Be10  1  0.164999  0.727963  0.707111  1
  Be  Be11  1  0.835001  0.227963  0.292889  1
  B  B12  1  0.373078  0.040375  0.870904  1
  B  B13  1  0.626922  0.540375  0.129096  1
  B  B14  1  0.873941  0.539842  0.630233  1
  B  B15  1  0.126059  0.039842  0.369767  1
  B  B16  1  0.144173  0.709318  0.872032  1
  B  B17  1  0.855827  0.209318  0.127968  1
  B  B18  1  0.646826  0.209514  0.629401  1
  B  B19  1  0.353174  0.709514  0.370599  1
  B  B20  1  0.021524  0.938885  0.944762  1
  B  B21  1  0.978476  0.438885  0.055238  1
  B  B22  1  0.525235  0.438388  0.556711  1
  B  B23  1  0.474765  0.938388  0.443289  1
  B  B24  1  0.533132  0.959038  0.999507  1
  B  B25  1  0.466868  0.459038  0.000493  1
  B  B26  1  0.037772  0.458713  0.501920  1
  B  B27  1  0.962228  0.958713  0.498080  1
  B  B28  1  0.179314  0.087548  0.752122  1
  B  B29  1  0.820686  0.587548  0.247878  1
  B  B30  1  0.678440  0.587527  0.748785  1
  B  B31  1  0.321560  0.087527  0.251215  1
  O  O32  1  0.348831  0.846816  0.850924  1
  O  O33  1  0.651169  0.346816  0.149076  1
  O  O34  1  0.852780  0.346166  0.650041  1
  O  O35  1  0.147220  0.846166  0.349959  1
  O  O36  1  0.621921  0.924918  0.049087  1
  O  O37  1  0.378079  0.424918  0.950913  1
  O  O38  1  0.129087  0.427714  0.452223  1
  O  O39  1  0.870913  0.927714  0.547777  1
  O  O40  1  0.991674  0.744978  0.918775  1
  O  O41  1  0.008326  0.244978  0.081225  1
  O  O42  1  0.492926  0.245395  0.582990  1
  O  O43  1  0.507074  0.745395  0.417010  1
  O  O44  1  0.216010  0.928253  0.992179  1
  O  O45  1  0.783990  0.428253  0.007821  1
  O  O46  1  0.721333  0.426762  0.509373  1
  O  O47  1  0.278667  0.926762  0.490627  1
  O  O48  1  0.152327  0.088148  0.908698  1
  O  O49  1  0.847673  0.588148  0.091302  1
  O  O50  1  0.655890  0.587365  0.592474  1
  O  O51  1  0.344110  0.087365  0.407526  1
  O  O52  1  0.082772  0.527006  0.850834  1
  O  O53  1  0.917228  0.027006  0.149166  1
  O  O54  1  0.586780  0.028047  0.650831  1
  O  O55  1  0.413220  0.528047  0.349169  1
  O  O56  1  0.580780  0.178737  0.855187  1
  O  O57  1  0.419220  0.678737  0.144813  1
  O  O58  1  0.078987  0.678556  0.646259  1
  O  O59  1  0.921013  0.178556  0.353741  1
  O  O60  1  0.719362  0.019631  0.958566  1
  O  O61  1  0.280638  0.519631  0.041434  1
  O  O62  1  0.222616  0.518038  0.542860  1
  O  O63  1  0.777384  0.018038  0.457140  1
  O  O64  1  0.028888  0.223551  0.783678  1
  O  O65  1  0.971112  0.723551  0.216322  1
  O  O66  1  0.530090  0.722776  0.716980  1
  O  O67  1  0.469910  0.222776  0.283020  1
  O  O68  1  0.494337  0.085931  0.752695  1
  O  O69  1  0.505663  0.585931  0.247305  1
  O  O70  1  0.993490  0.587012  0.748663  1
  O  O71  1  0.006510  0.087012  0.251337  1
  O  O72  1  0.030007  0.953976  0.720756  1
  O  O73  1  0.969993  0.453976  0.279244  1
  O  O74  1  0.527317  0.453563  0.780039  1
  O  O75  1  0.472683  0.953563  0.219961  1
