# generated using pymatgen
data_Nd16Dy3ErPb16
_symmetry_space_group_name_H-M   'P 1'
_cell_length_a   8.35978700
_cell_length_b   8.46406801
_cell_length_c   16.12157900
_cell_angle_alpha   90.00000000
_cell_angle_beta   90.00000000
_cell_angle_gamma   89.99800983
_symmetry_Int_Tables_number   1
_chemical_formula_structural   Nd16Dy3ErPb16
_chemical_formula_sum   'Nd16 Dy3 Er1 Pb16'
_cell_volume   1140.72755339
_cell_formula_units_Z   1
loop_
 _symmetry_equiv_pos_site_id
 _symmetry_equiv_pos_as_xyz
  1  'x, y, z'
loop_
 _atom_site_type_symbol
 _atom_site_label
 _atom_site_symmetry_multiplicity
 _atom_site_fract_x
 _atom_site_fract_y
 _atom_site_fract_z
 _atom_site_occupancy
  Nd  Nd0  1  0.376674  0.841852  0.880703  1
  Nd  Nd1  1  0.876712  0.658168  0.619277  1
  Nd  Nd2  1  0.623365  0.158180  0.380323  1
  Nd  Nd3  1  0.123189  0.341935  0.119642  1
  Nd  Nd4  1  0.623365  0.158180  0.119677  1
  Nd  Nd5  1  0.123189  0.341935  0.380358  1
  Nd  Nd6  1  0.376674  0.841852  0.619297  1
  Nd  Nd7  1  0.876712  0.658168  0.880723  1
  Nd  Nd8  1  0.533678  0.322246  0.899855  1
  Nd  Nd9  1  0.033702  0.177738  0.600154  1
  Nd  Nd10  1  0.466324  0.677687  0.399526  1
  Nd  Nd11  1  0.966226  0.822234  0.100453  1
  Nd  Nd12  1  0.466324  0.677687  0.100474  1
  Nd  Nd13  1  0.966226  0.822234  0.399547  1
  Nd  Nd14  1  0.533678  0.322246  0.600145  1
  Nd  Nd15  1  0.033702  0.177738  0.899846  1
  Dy  Dy16  1  0.208043  0.504082  0.750000  1
  Dy  Dy17  1  0.708027  0.995980  0.750000  1
  Dy  Dy18  1  0.791946  0.496000  0.250000  1
  Er  Er19  1  0.291766  0.004144  0.250000  1
  Pb  Pb20  1  0.281204  0.031066  0.046019  1
  Pb  Pb21  1  0.781190  0.468874  0.454168  1
  Pb  Pb22  1  0.718833  0.968827  0.545396  1
  Pb  Pb23  1  0.218806  0.531117  0.954589  1
  Pb  Pb24  1  0.718833  0.968827  0.954604  1
  Pb  Pb25  1  0.218806  0.531117  0.545411  1
  Pb  Pb26  1  0.281204  0.031066  0.453981  1
  Pb  Pb27  1  0.781190  0.468874  0.045832  1
  Pb  Pb28  1  0.571382  0.624922  0.750000  1
  Pb  Pb29  1  0.071322  0.875053  0.750000  1
  Pb  Pb30  1  0.428412  0.374793  0.250000  1
  Pb  Pb31  1  0.929103  0.124629  0.250000  1
  Pb  Pb32  1  0.342996  0.152786  0.750000  1
  Pb  Pb33  1  0.843023  0.347150  0.750000  1
  Pb  Pb34  1  0.656987  0.847338  0.250000  1
  Pb  Pb35  1  0.157189  0.653276  0.250000  1
