# generated using pymatgen
data_Ca6CdAg2Pb3
_symmetry_space_group_name_H-M   'P 1'
_cell_length_a   5.45524668
_cell_length_b   7.63436300
_cell_length_c   16.30701944
_cell_angle_alpha   90.00000000
_cell_angle_beta   90.15624924
_cell_angle_gamma   90.00000000
_symmetry_Int_Tables_number   1
_chemical_formula_structural   Ca6CdAg2Pb3
_chemical_formula_sum   'Ca12 Cd2 Ag4 Pb6'
_cell_volume   679.14135029
_cell_formula_units_Z   2
loop_
 _symmetry_equiv_pos_site_id
 _symmetry_equiv_pos_as_xyz
  1  'x, y, z'
loop_
 _atom_site_type_symbol
 _atom_site_label
 _atom_site_symmetry_multiplicity
 _atom_site_fract_x
 _atom_site_fract_y
 _atom_site_fract_z
 _atom_site_occupancy
  Ca  Ca0  1  0.499914  0.253110  0.996876  1
  Ca  Ca1  1  0.499914  0.746891  0.996876  1
  Ca  Ca2  1  0.000074  0.246875  0.169785  1
  Ca  Ca3  1  0.000074  0.753126  0.169785  1
  Ca  Ca4  1  0.499977  0.245792  0.337120  1
  Ca  Ca5  1  0.499977  0.754208  0.337120  1
  Ca  Ca6  1  0.000099  0.250200  0.500906  1
  Ca  Ca7  1  0.000099  0.749800  0.500906  1
  Ca  Ca8  1  0.499902  0.249791  0.665765  1
  Ca  Ca9  1  0.499902  0.750209  0.665765  1
  Ca  Ca10  1  0.000018  0.254199  0.829549  1
  Ca  Ca11  1  0.000018  0.745802  0.829549  1
  Cd  Cd12  1  0.000071  0.000000  0.997840  1
  Cd  Cd13  1  0.499918  0.500000  0.168820  1
  Ag  Ag14  1  0.000175  0.000000  0.335493  1
  Ag  Ag15  1  0.499957  0.500000  0.500202  1
  Ag  Ag16  1  0.000048  0.000000  0.666463  1
  Ag  Ag17  1  0.499829  0.500000  0.831172  1
  Pb  Pb18  1  0.999934  0.500000  0.000487  1
  Pb  Pb19  1  0.500065  0.000000  0.166172  1
  Pb  Pb20  1  0.000109  0.500000  0.333667  1
  Pb  Pb21  1  0.499976  0.000000  0.500565  1
  Pb  Pb22  1  0.000073  0.500000  0.666117  1
  Pb  Pb23  1  0.499875  0.000000  0.833000  1
