# generated using pymatgen
data_Tm5FeCoB6
_symmetry_space_group_name_H-M   'P 1'
_cell_length_a   5.38291461
_cell_length_b   5.38291465
_cell_length_c   8.18657210
_cell_angle_alpha   70.80617511
_cell_angle_beta   70.80617341
_cell_angle_gamma   59.99999546
_symmetry_Int_Tables_number   1
_chemical_formula_structural   Tm5FeCoB6
_chemical_formula_sum   'Tm5 Fe1 Co1 B6'
_cell_volume   190.05327809
_cell_formula_units_Z   1
loop_
 _symmetry_equiv_pos_site_id
 _symmetry_equiv_pos_as_xyz
  1  'x, y, z'
loop_
 _atom_site_type_symbol
 _atom_site_label
 _atom_site_symmetry_multiplicity
 _atom_site_fract_x
 _atom_site_fract_y
 _atom_site_fract_z
 _atom_site_occupancy
  Tm  Tm0  1  0.000474  0.000474  0.998578  1
  Tm  Tm1  1  0.748413  0.748413  0.754762  1
  Tm  Tm2  1  0.251760  0.251760  0.244718  1
  Tm  Tm3  1  0.583861  0.583861  0.248417  1
  Tm  Tm4  1  0.416235  0.416235  0.751295  1
  Fe  Fe5  1  0.118467  0.118467  0.644600  1
  Co  Co6  1  0.881561  0.881561  0.355316  1
  B  B7  1  0.499574  0.168979  0.500385  1
  B  B8  1  0.831061  0.499574  0.500385  1
  B  B9  1  0.168979  0.831061  0.500385  1
  B  B10  1  0.168979  0.499574  0.500385  1
  B  B11  1  0.831061  0.168979  0.500385  1
  B  B12  1  0.499574  0.831061  0.500385  1
