# generated using pymatgen
data_TbLuBe23Cu3
_symmetry_space_group_name_H-M   'P 1'
_cell_length_a   7.27794328
_cell_length_b   7.25633754
_cell_length_c   7.32733600
_cell_angle_alpha   59.87288030
_cell_angle_beta   59.58455596
_cell_angle_gamma   60.06306854
_symmetry_Int_Tables_number   1
_chemical_formula_structural   TbLuBe23Cu3
_chemical_formula_sum   'Tb1 Lu1 Be23 Cu3'
_cell_volume   272.62369855
_cell_formula_units_Z   1
loop_
 _symmetry_equiv_pos_site_id
 _symmetry_equiv_pos_as_xyz
  1  'x, y, z'
loop_
 _atom_site_type_symbol
 _atom_site_label
 _atom_site_symmetry_multiplicity
 _atom_site_fract_x
 _atom_site_fract_y
 _atom_site_fract_z
 _atom_site_occupancy
  Tb  Tb0  1  0.247932  0.248661  0.251413  1
  Lu  Lu1  1  0.751268  0.752078  0.748056  1
  Be  Be2  1  0.062819  0.936432  0.296489  1
  Be  Be3  1  0.705837  0.933232  0.067571  1
  Be  Be4  1  0.704680  0.058105  0.301638  1
  Be  Be5  1  0.066232  0.294629  0.707108  1
  Be  Be6  1  0.941278  0.295812  0.063956  1
  Be  Be7  1  0.933599  0.708719  0.294626  1
  Be  Be8  1  0.299314  0.939475  0.699516  1
  Be  Be9  1  0.291793  0.065974  0.936395  1
  Be  Be10  1  0.059946  0.701209  0.937725  1
  Be  Be11  1  0.789936  0.440954  0.559930  1
  Be  Be12  1  0.559567  0.209468  0.790330  1
  Be  Be13  1  0.207920  0.564252  0.439633  1
  Be  Be14  1  0.436223  0.791514  0.211436  1
  Be  Be15  1  0.785096  0.214398  0.430230  1
  Be  Be16  1  0.788029  0.564530  0.214608  1
  Be  Be17  1  0.430217  0.570185  0.778156  1
  Be  Be18  1  0.566250  0.786732  0.432954  1
  Be  Be19  1  0.568207  0.432191  0.221334  1
  Be  Be20  1  0.212854  0.434089  0.785705  1
  Be  Be21  1  0.215495  0.783939  0.563244  1
  Be  Be22  1  0.435821  0.211494  0.567499  1
  Be  Be23  1  0.999861  0.000085  0.000007  1
  Be  Be24  1  0.500929  0.499049  0.500393  1
  Cu  Cu25  1  0.694213  0.307526  0.943840  1
  Cu  Cu26  1  0.940060  0.058214  0.698271  1
  Cu  Cu27  1  0.304628  0.697054  0.057935  1
