# generated using pymatgen
data_Dy3TmZn4(IrRh)2
_symmetry_space_group_name_H-M   'P 1'
_cell_length_a   4.05588300
_cell_length_b   6.97832844
_cell_length_c   8.09613567
_cell_angle_alpha   89.78324153
_cell_angle_beta   90.00000000
_cell_angle_gamma   90.00000000
_symmetry_Int_Tables_number   1
_chemical_formula_structural   Dy3TmZn4(IrRh)2
_chemical_formula_sum   'Dy3 Tm1 Zn4 Ir2 Rh2'
_cell_volume   229.14558471
_cell_formula_units_Z   1
loop_
 _symmetry_equiv_pos_site_id
 _symmetry_equiv_pos_as_xyz
  1  'x, y, z'
loop_
 _atom_site_type_symbol
 _atom_site_label
 _atom_site_symmetry_multiplicity
 _atom_site_fract_x
 _atom_site_fract_y
 _atom_site_fract_z
 _atom_site_occupancy
  Dy  Dy0  1  0.250000  0.534870  0.183368  1
  Dy  Dy1  1  0.750000  0.465169  0.817116  1
  Dy  Dy2  1  0.750000  0.962714  0.683808  1
  Tm  Tm3  1  0.250000  0.037837  0.315282  1
  Zn  Zn4  1  0.250000  0.638046  0.564689  1
  Zn  Zn5  1  0.750000  0.361668  0.434621  1
  Zn  Zn6  1  0.750000  0.861915  0.066163  1
  Zn  Zn7  1  0.250000  0.138524  0.934961  1
  Ir  Ir8  1  0.250000  0.757601  0.876923  1
  Ir  Ir9  1  0.750000  0.240645  0.124466  1
  Rh  Rh10  1  0.750000  0.745543  0.378906  1
  Rh  Rh11  1  0.250000  0.255467  0.619697  1
