# generated using pymatgen
data_DyPa3(Co5P3)4
_symmetry_space_group_name_H-M   'P 1'
_cell_length_a   11.65672589
_cell_length_b   3.66642900
_cell_length_c   10.32218865
_cell_angle_alpha   90.00000000
_cell_angle_beta   89.93494876
_cell_angle_gamma   90.00000000
_symmetry_Int_Tables_number   1
_chemical_formula_structural   DyPa3(Co5P3)4
_chemical_formula_sum   'Dy1 Pa3 Co20 P12'
_cell_volume   441.15517253
_cell_formula_units_Z   1
loop_
 _symmetry_equiv_pos_site_id
 _symmetry_equiv_pos_as_xyz
  1  'x, y, z'
loop_
 _atom_site_type_symbol
 _atom_site_label
 _atom_site_symmetry_multiplicity
 _atom_site_fract_x
 _atom_site_fract_y
 _atom_site_fract_z
 _atom_site_occupancy
  Dy  Dy0  1  0.201971  0.249999  0.916121  1
  Pa  Pa1  1  0.796875  0.749999  0.083840  1
  Pa  Pa2  1  0.298264  0.749999  0.416493  1
  Pa  Pa3  1  0.702002  0.249999  0.582633  1
  Co  Co4  1  0.430596  0.249999  0.027108  1
  Co  Co5  1  0.981397  0.249999  0.092567  1
  Co  Co6  1  0.301326  0.749999  0.117375  1
  Co  Co7  1  0.510560  0.749999  0.213836  1
  Co  Co8  1  0.176359  0.249999  0.220082  1
  Co  Co9  1  0.678044  0.249999  0.280450  1
  Co  Co10  1  0.010321  0.749999  0.283369  1
  Co  Co11  1  0.800968  0.749999  0.384419  1
  Co  Co12  1  0.479729  0.249999  0.408378  1
  Co  Co13  1  0.930378  0.249999  0.472796  1
  Co  Co14  1  0.070714  0.749999  0.530430  1
  Co  Co15  1  0.518963  0.749999  0.590733  1
  Co  Co16  1  0.199964  0.249999  0.614037  1
  Co  Co17  1  0.993273  0.249999  0.715479  1
  Co  Co18  1  0.324289  0.749999  0.719190  1
  Co  Co19  1  0.821107  0.749999  0.779781  1
  Co  Co20  1  0.494406  0.249999  0.783618  1
  Co  Co21  1  0.699517  0.249999  0.886237  1
  Co  Co22  1  0.011876  0.749999  0.907642  1
  Co  Co23  1  0.569534  0.749999  0.971425  1
  P  P24  1  0.608442  0.249999  0.086013  1
  P  P25  1  0.108861  0.749999  0.101099  1
  P  P26  1  0.370537  0.249999  0.222264  1
  P  P27  1  0.872232  0.249999  0.276296  1
  P  P28  1  0.607812  0.749999  0.392785  1
  P  P29  1  0.110546  0.249999  0.415508  1
  P  P30  1  0.889559  0.749999  0.584885  1
  P  P31  1  0.391634  0.249999  0.607485  1
  P  P32  1  0.130302  0.749999  0.728568  1
  P  P33  1  0.628368  0.749999  0.776353  1
  P  P34  1  0.892465  0.249999  0.894082  1
  P  P35  1  0.386810  0.749999  0.916623  1
