# generated using pymatgen
data_Ho9ScPb8
_symmetry_space_group_name_H-M   'P 1'
_cell_length_a   8.39026773
_cell_length_b   8.32185966
_cell_length_c   8.02361410
_cell_angle_alpha   90.07376254
_cell_angle_beta   112.07306194
_cell_angle_gamma   90.02259951
_symmetry_Int_Tables_number   1
_chemical_formula_structural   Ho9ScPb8
_chemical_formula_sum   'Ho9 Sc1 Pb8'
_cell_volume   519.16736462
_cell_formula_units_Z   1
loop_
 _symmetry_equiv_pos_site_id
 _symmetry_equiv_pos_as_xyz
  1  'x, y, z'
loop_
 _atom_site_type_symbol
 _atom_site_label
 _atom_site_symmetry_multiplicity
 _atom_site_fract_x
 _atom_site_fract_y
 _atom_site_fract_z
 _atom_site_occupancy
  Ho  Ho0  1  0.000000  0.000000  0.000000  1
  Ho  Ho1  1  0.692841  0.320853  0.048344  1
  Ho  Ho2  1  0.745636  0.840849  0.236796  1
  Ho  Ho3  1  0.255420  0.341806  0.266258  1
  Ho  Ho4  1  0.306856  0.819049  0.452204  1
  Ho  Ho5  1  0.693144  0.180952  0.547797  1
  Ho  Ho6  1  0.744580  0.658195  0.733742  1
  Ho  Ho7  1  0.254364  0.159151  0.763204  1
  Ho  Ho8  1  0.307159  0.679146  0.951656  1
  Sc  Sc9  1  0.000000  0.500000  0.500000  1
  Pb  Pb10  1  0.015430  0.643058  0.148251  1
  Pb  Pb11  1  0.413248  0.035300  0.178085  1
  Pb  Pb12  1  0.590600  0.534552  0.323537  1
  Pb  Pb13  1  0.982848  0.149933  0.356676  1
  Pb  Pb14  1  0.017152  0.850067  0.643323  1
  Pb  Pb15  1  0.409400  0.465448  0.676462  1
  Pb  Pb16  1  0.586753  0.964700  0.821915  1
  Pb  Pb17  1  0.984569  0.356943  0.851748  1
