# generated using pymatgen
data_Pr12Ga3GeI12
_symmetry_space_group_name_H-M   'P 1'
_cell_length_a   10.96111120
_cell_length_b   10.95154263
_cell_length_c   10.95154252
_cell_angle_alpha   109.45351428
_cell_angle_beta   109.48891560
_cell_angle_gamma   109.48892415
_symmetry_Int_Tables_number   1
_chemical_formula_structural   Pr12Ga3GeI12
_chemical_formula_sum   'Pr12 Ga3 Ge1 I12'
_cell_volume   1011.78533695
_cell_formula_units_Z   1
loop_
 _symmetry_equiv_pos_site_id
 _symmetry_equiv_pos_as_xyz
  1  'x, y, z'
loop_
 _atom_site_type_symbol
 _atom_site_label
 _atom_site_symmetry_multiplicity
 _atom_site_fract_x
 _atom_site_fract_y
 _atom_site_fract_z
 _atom_site_occupancy
  Pr  Pr0  1  0.470815  0.485386  0.235002  1
  Pr  Pr1  1  0.750000  0.235924  0.264076  1
  Pr  Pr2  1  0.750000  0.014042  0.485958  1
  Pr  Pr3  1  0.235958  0.471915  0.485958  1
  Pr  Pr4  1  0.264186  0.749616  0.235002  1
  Pr  Pr5  1  0.029185  0.264998  0.014614  1
  Pr  Pr6  1  0.014076  0.028152  0.264076  1
  Pr  Pr7  1  0.485430  0.749616  0.014614  1
  Pr  Pr8  1  0.485924  0.235924  0.471848  1
  Pr  Pr9  1  0.014570  0.485386  0.750384  1
  Pr  Pr10  1  0.264042  0.014042  0.028085  1
  Pr  Pr11  1  0.235814  0.264998  0.750384  1
  Ga  Ga12  1  0.250000  0.250184  0.249816  1
  Ga  Ga13  1  0.499816  0.999632  0.249816  1
  Ga  Ga14  1  0.000184  0.250184  0.500368  1
  Ge  Ge15  1  0.250000  0.500000  0.000000  1
  I  I16  1  0.250000  0.756828  0.743172  1
  I  I17  1  0.513998  0.507098  0.757371  1
  I  I18  1  0.986002  0.742629  0.992902  1
  I  I19  1  0.743370  0.250273  0.757371  1
  I  I20  1  0.993172  0.986347  0.743172  1
  I  I21  1  0.250000  0.992876  0.507124  1
  I  I22  1  0.757124  0.514246  0.507124  1
  I  I23  1  0.506902  0.250273  0.992902  1
  I  I24  1  0.756630  0.742629  0.249727  1
  I  I25  1  0.742876  0.992876  0.985754  1
  I  I26  1  0.993098  0.507098  0.249727  1
  I  I27  1  0.506828  0.756828  0.513653  1
