# generated using pymatgen
data_Y5Tm(Si3Ru)8
_symmetry_space_group_name_H-M   'P 1'
_cell_length_a   10.12709751
_cell_length_b   10.12709862
_cell_length_c   8.14226121
_cell_angle_alpha   90.02513046
_cell_angle_beta   90.02512686
_cell_angle_gamma   132.61284791
_symmetry_Int_Tables_number   1
_chemical_formula_structural   Y5Tm(Si3Ru)8
_chemical_formula_sum   'Y5 Tm1 Si24 Ru8'
_cell_volume   614.55439897
_cell_formula_units_Z   1
loop_
 _symmetry_equiv_pos_site_id
 _symmetry_equiv_pos_as_xyz
  1  'x, y, z'
loop_
 _atom_site_type_symbol
 _atom_site_label
 _atom_site_symmetry_multiplicity
 _atom_site_fract_x
 _atom_site_fract_y
 _atom_site_fract_z
 _atom_site_occupancy
  Y  Y0  1  0.500000  0.500000  0.500000  1
  Y  Y1  1  0.002507  0.502338  0.249651  1
  Y  Y2  1  0.497662  0.997493  0.750349  1
  Y  Y3  1  0.997493  0.497662  0.750349  1
  Y  Y4  1  0.502338  0.002507  0.249651  1
  Tm  Tm5  1  0.000000  0.000000  0.000000  1
  Si  Si6  1  0.294253  0.705747  0.000000  1
  Si  Si7  1  0.794802  0.205198  0.500000  1
  Si  Si8  1  0.705747  0.294253  0.000000  1
  Si  Si9  1  0.205198  0.794802  0.500000  1
  Si  Si10  1  0.831919  0.831919  0.333117  1
  Si  Si11  1  0.168081  0.168081  0.666883  1
  Si  Si12  1  0.667282  0.667282  0.832655  1
  Si  Si13  1  0.332718  0.332718  0.167345  1
  Si  Si14  1  0.621244  0.386913  0.227872  1
  Si  Si15  1  0.613087  0.378756  0.772128  1
  Si  Si16  1  0.111581  0.877862  0.728661  1
  Si  Si17  1  0.122138  0.888419  0.271339  1
  Si  Si18  1  0.378756  0.613087  0.772128  1
  Si  Si19  1  0.386913  0.621244  0.227872  1
  Si  Si20  1  0.888419  0.122138  0.271339  1
  Si  Si21  1  0.877862  0.111581  0.728661  1
  Si  Si22  1  0.844932  0.611671  0.004728  1
  Si  Si23  1  0.388329  0.155068  0.995272  1
  Si  Si24  1  0.888098  0.654894  0.504666  1
  Si  Si25  1  0.345106  0.111902  0.495334  1
  Si  Si26  1  0.155068  0.388329  0.995272  1
  Si  Si27  1  0.611671  0.844932  0.004728  1
  Si  Si28  1  0.111902  0.345106  0.495334  1
  Si  Si29  1  0.654894  0.888098  0.504666  1
  Ru  Ru30  1  0.168169  0.831831  0.000000  1
  Ru  Ru31  1  0.669038  0.330962  0.500000  1
  Ru  Ru32  1  0.831831  0.168169  0.000000  1
  Ru  Ru33  1  0.330962  0.669038  0.500000  1
  Ru  Ru34  1  0.627037  0.627037  0.125741  1
  Ru  Ru35  1  0.372963  0.372963  0.874259  1
  Ru  Ru36  1  0.874548  0.874548  0.628320  1
  Ru  Ru37  1  0.125452  0.125452  0.371680  1
