# generated using pymatgen
data_Hf2CuPd3
_symmetry_space_group_name_H-M   'P 1'
_cell_length_a   4.93107546
_cell_length_b   4.92064252
_cell_length_c   4.82164400
_cell_angle_alpha   90.00000000
_cell_angle_beta   90.00000000
_cell_angle_gamma   120.87451922
_symmetry_Int_Tables_number   1
_chemical_formula_structural   Hf2CuPd3
_chemical_formula_sum   'Hf2 Cu1 Pd3'
_cell_volume   100.41400266
_cell_formula_units_Z   1
loop_
 _symmetry_equiv_pos_site_id
 _symmetry_equiv_pos_as_xyz
  1  'x, y, z'
loop_
 _atom_site_type_symbol
 _atom_site_label
 _atom_site_symmetry_multiplicity
 _atom_site_fract_x
 _atom_site_fract_y
 _atom_site_fract_z
 _atom_site_occupancy
  Hf  Hf0  1  0.761834  0.758583  0.250000  1
  Hf  Hf1  1  0.236584  0.241962  0.750000  1
  Cu  Cu2  1  0.441881  0.101050  0.250000  1
  Pd  Pd3  1  0.112767  0.426583  0.250000  1
  Pd  Pd4  1  0.558313  0.900539  0.750000  1
  Pd  Pd5  1  0.888620  0.571283  0.750000  1
