# generated using pymatgen
data_NpCd6IO12
_symmetry_space_group_name_H-M   'P 1'
_cell_length_a   5.79963838
_cell_length_b   5.66669256
_cell_length_c   10.09020968
_cell_angle_alpha   56.31741620
_cell_angle_beta   89.12521501
_cell_angle_gamma   89.71343094
_symmetry_Int_Tables_number   1
_chemical_formula_structural   NpCd6IO12
_chemical_formula_sum   'Np1 Cd6 I1 O12'
_cell_volume   275.90766102
_cell_formula_units_Z   1
loop_
 _symmetry_equiv_pos_site_id
 _symmetry_equiv_pos_as_xyz
  1  'x, y, z'
loop_
 _atom_site_type_symbol
 _atom_site_label
 _atom_site_symmetry_multiplicity
 _atom_site_fract_x
 _atom_site_fract_y
 _atom_site_fract_z
 _atom_site_occupancy
  Np  Np0  1  0.000000  0.000000  0.000000  1
  Cd  Cd1  1  0.962557  0.250281  0.246835  1
  Cd  Cd2  1  0.452619  0.747550  0.263626  1
  Cd  Cd3  1  0.037443  0.749719  0.753165  1
  Cd  Cd4  1  0.547381  0.252450  0.736374  1
  Cd  Cd5  1  0.000000  0.500000  0.500000  1
  Cd  Cd6  1  0.500000  0.500000  0.000000  1
  I  I7  1  0.500000  0.000000  0.500000  1
  O  O8  1  0.299504  0.918356  0.920372  1
  O  O9  1  0.776306  0.083245  0.585319  1
  O  O10  1  0.700496  0.081644  0.079628  1
  O  O11  1  0.223694  0.916755  0.414681  1
  O  O12  1  0.172852  0.260397  0.049724  1
  O  O13  1  0.680058  0.767333  0.444834  1
  O  O14  1  0.827148  0.739603  0.950276  1
  O  O15  1  0.319942  0.232667  0.555166  1
  O  O16  1  0.414697  0.655413  0.718419  1
  O  O17  1  0.921857  0.352810  0.764398  1
  O  O18  1  0.585303  0.344587  0.281581  1
  O  O19  1  0.078143  0.647190  0.235602  1
