# generated using pymatgen
data_CaCd(PO3)4
_symmetry_space_group_name_H-M   'P 1'
_cell_length_a   7.72913891
_cell_length_b   7.72913938
_cell_length_c   10.72692636
_cell_angle_alpha   66.14786303
_cell_angle_beta   66.14786017
_cell_angle_gamma   70.24194353
_symmetry_Int_Tables_number   1
_chemical_formula_structural   CaCd(PO3)4
_chemical_formula_sum   'Ca2 Cd2 P8 O24'
_cell_volume   524.23667142
_cell_formula_units_Z   2
loop_
 _symmetry_equiv_pos_site_id
 _symmetry_equiv_pos_as_xyz
  1  'x, y, z'
loop_
 _atom_site_type_symbol
 _atom_site_label
 _atom_site_symmetry_multiplicity
 _atom_site_fract_x
 _atom_site_fract_y
 _atom_site_fract_z
 _atom_site_occupancy
  Ca  Ca0  1  0.961936  0.038064  0.750000  1
  Ca  Ca1  1  0.038064  0.961936  0.250000  1
  Cd  Cd2  1  0.500000  0.000000  0.000000  1
  Cd  Cd3  1  0.000000  0.500000  0.500000  1
  P  P4  1  0.320070  0.303939  0.688950  1
  P  P5  1  0.696061  0.679930  0.811050  1
  P  P6  1  0.679930  0.696061  0.311050  1
  P  P7  1  0.303939  0.320070  0.188950  1
  P  P8  1  0.718302  0.266063  0.480095  1
  P  P9  1  0.733937  0.281698  0.019905  1
  P  P10  1  0.281698  0.733937  0.519905  1
  P  P11  1  0.266063  0.718302  0.980095  1
  O  O12  1  0.316417  0.530715  0.643540  1
  O  O13  1  0.469285  0.683583  0.856460  1
  O  O14  1  0.683583  0.469285  0.356460  1
  O  O15  1  0.530715  0.316417  0.143540  1
  O  O16  1  0.501149  0.231492  0.564831  1
  O  O17  1  0.768508  0.498851  0.935169  1
  O  O18  1  0.498851  0.768508  0.435169  1
  O  O19  1  0.231492  0.501149  0.064831  1
  O  O20  1  0.350438  0.207322  0.831610  1
  O  O21  1  0.792678  0.649562  0.668390  1
  O  O22  1  0.649562  0.792678  0.168390  1
  O  O23  1  0.207322  0.350438  0.331610  1
  O  O24  1  0.143116  0.281191  0.672649  1
  O  O25  1  0.718809  0.856884  0.827351  1
  O  O26  1  0.856884  0.718809  0.327351  1
  O  O27  1  0.281191  0.143116  0.172649  1
  O  O28  1  0.797999  0.289643  0.579611  1
  O  O29  1  0.710357  0.202001  0.920389  1
  O  O30  1  0.202001  0.710357  0.420389  1
  O  O31  1  0.289643  0.797999  0.079611  1
  O  O32  1  0.826940  0.112514  0.411036  1
  O  O33  1  0.887486  0.173060  0.088964  1
  O  O34  1  0.173060  0.887486  0.588964  1
  O  O35  1  0.112514  0.826940  0.911036  1
