# generated using pymatgen
data_Sm2Ho5Tm(Si3Rh)4
_symmetry_space_group_name_H-M   'P 1'
_cell_length_a   8.17515315
_cell_length_b   8.17515301
_cell_length_c   7.93370200
_cell_angle_alpha   90.00000000
_cell_angle_beta   90.00000000
_cell_angle_gamma   119.97776267
_symmetry_Int_Tables_number   1
_chemical_formula_structural   Sm2Ho5Tm(Si3Rh)4
_chemical_formula_sum   'Sm2 Ho5 Tm1 Si12 Rh4'
_cell_volume   459.29907952
_cell_formula_units_Z   1
loop_
 _symmetry_equiv_pos_site_id
 _symmetry_equiv_pos_as_xyz
  1  'x, y, z'
loop_
 _atom_site_type_symbol
 _atom_site_label
 _atom_site_symmetry_multiplicity
 _atom_site_fract_x
 _atom_site_fract_y
 _atom_site_fract_z
 _atom_site_occupancy
  Sm  Sm0  1  0.000050  0.999950  0.250000  1
  Sm  Sm1  1  0.999945  0.000055  0.750000  1
  Ho  Ho2  1  0.508829  0.017847  0.250000  1
  Ho  Ho3  1  0.982153  0.491171  0.250000  1
  Ho  Ho4  1  0.491156  0.508844  0.750000  1
  Ho  Ho5  1  0.491176  0.982302  0.750000  1
  Ho  Ho6  1  0.017698  0.508824  0.750000  1
  Tm  Tm7  1  0.508692  0.491308  0.250000  1
  Si  Si8  1  0.167822  0.832178  0.500184  1
  Si  Si9  1  0.167924  0.335640  0.500093  1
  Si  Si10  1  0.664360  0.832076  0.500093  1
  Si  Si11  1  0.832224  0.167776  0.499728  1
  Si  Si12  1  0.831986  0.664320  0.499402  1
  Si  Si13  1  0.335680  0.168014  0.499402  1
  Si  Si14  1  0.832224  0.167776  0.000272  1
  Si  Si15  1  0.831986  0.664320  0.000598  1
  Si  Si16  1  0.335680  0.168014  0.000598  1
  Si  Si17  1  0.167822  0.832178  0.999816  1
  Si  Si18  1  0.167924  0.335640  0.999907  1
  Si  Si19  1  0.664360  0.832076  0.999907  1
  Rh  Rh20  1  0.333616  0.666384  0.465213  1
  Rh  Rh21  1  0.666540  0.333460  0.533734  1
  Rh  Rh22  1  0.666540  0.333460  0.966266  1
  Rh  Rh23  1  0.333616  0.666384  0.034787  1
