# generated using pymatgen
data_Y6Er4In7HgPd4
_symmetry_space_group_name_H-M   'P 1'
_cell_length_a   3.62140500
_cell_length_b   8.14565462
_cell_length_c   18.21052825
_cell_angle_alpha   90.05780639
_cell_angle_beta   90.00000000
_cell_angle_gamma   90.00000000
_symmetry_Int_Tables_number   1
_chemical_formula_structural   Y6Er4In7HgPd4
_chemical_formula_sum   'Y6 Er4 In7 Hg1 Pd4'
_cell_volume   537.18689809
_cell_formula_units_Z   1
loop_
 _symmetry_equiv_pos_site_id
 _symmetry_equiv_pos_as_xyz
  1  'x, y, z'
loop_
 _atom_site_type_symbol
 _atom_site_label
 _atom_site_symmetry_multiplicity
 _atom_site_fract_x
 _atom_site_fract_y
 _atom_site_fract_z
 _atom_site_occupancy
  Y  Y0  1  0.000000  0.499367  0.500664  1
  Y  Y1  1  0.000000  0.996261  0.997362  1
  Y  Y2  1  0.000000  0.738907  0.281889  1
  Y  Y3  1  0.000000  0.260766  0.716884  1
  Y  Y4  1  0.000000  0.760287  0.786038  1
  Y  Y5  1  0.000000  0.239701  0.218148  1
  Er  Er6  1  0.000000  0.617280  0.083382  1
  Er  Er7  1  0.000000  0.390118  0.915535  1
  Er  Er8  1  0.000000  0.881277  0.584745  1
  Er  Er9  1  0.000000  0.117317  0.415677  1
  In  In10  1  0.500000  0.291822  0.065933  1
  In  In11  1  0.500000  0.794447  0.434354  1
  In  In12  1  0.500000  0.204102  0.565796  1
  In  In13  1  0.500000  0.583154  0.651554  1
  In  In14  1  0.500000  0.419747  0.349605  1
  In  In15  1  0.500000  0.919206  0.149826  1
  In  In16  1  0.500000  0.085759  0.849236  1
  Hg  Hg17  1  0.500000  0.705617  0.935261  1
  Pd  Pd18  1  0.500000  0.524925  0.194227  1
  Pd  Pd19  1  0.500000  0.472067  0.803552  1
  Pd  Pd20  1  0.500000  0.973461  0.695343  1
  Pd  Pd21  1  0.500000  0.024413  0.304988  1
