# generated using pymatgen
data_Hf5Mn16(MoP4)3
_symmetry_space_group_name_H-M   'P 1'
_cell_length_a   12.43778300
_cell_length_b   12.43778358
_cell_length_c   3.54922700
_cell_angle_alpha   90.00000000
_cell_angle_beta   90.00000000
_cell_angle_gamma   119.99999581
_symmetry_Int_Tables_number   1
_chemical_formula_structural   Hf5Mn16(MoP4)3
_chemical_formula_sum   'Hf5 Mn16 Mo3 P12'
_cell_volume   475.49986484
_cell_formula_units_Z   1
loop_
 _symmetry_equiv_pos_site_id
 _symmetry_equiv_pos_as_xyz
  1  'x, y, z'
loop_
 _atom_site_type_symbol
 _atom_site_label
 _atom_site_symmetry_multiplicity
 _atom_site_fract_x
 _atom_site_fract_y
 _atom_site_fract_z
 _atom_site_occupancy
  Hf  Hf0  1  0.666667  0.333333  0.000000  1
  Hf  Hf1  1  0.333333  0.666667  0.000000  1
  Hf  Hf2  1  0.823294  0.823294  0.500000  1
  Hf  Hf3  1  0.176706  0.000000  0.500000  1
  Hf  Hf4  1  0.000000  0.176706  0.500000  1
  Mn  Mn5  1  0.200089  0.375089  0.000000  1
  Mn  Mn6  1  0.175000  0.799911  0.000000  1
  Mn  Mn7  1  0.825000  0.624911  0.000000  1
  Mn  Mn8  1  0.799911  0.175000  0.000000  1
  Mn  Mn9  1  0.375089  0.200089  0.000000  1
  Mn  Mn10  1  0.128480  0.472565  0.500000  1
  Mn  Mn11  1  0.344085  0.871520  0.500000  1
  Mn  Mn12  1  0.527435  0.655915  0.500000  1
  Mn  Mn13  1  0.655915  0.527435  0.500000  1
  Mn  Mn14  1  0.871520  0.344085  0.500000  1
  Mn  Mn15  1  0.472565  0.128480  0.500000  1
  Mn  Mn16  1  0.000000  0.000000  0.000000  1
  Mn  Mn17  1  0.714670  0.000000  0.500000  1
  Mn  Mn18  1  0.000000  0.714670  0.500000  1
  Mn  Mn19  1  0.624911  0.825000  0.000000  1
  Mn  Mn20  1  0.285330  0.285330  0.500000  1
  Mo  Mo21  1  0.456043  0.456043  0.000000  1
  Mo  Mo22  1  0.543957  0.000000  0.000000  1
  Mo  Mo23  1  0.000000  0.543957  0.000000  1
  P  P24  1  0.654469  0.654469  0.000000  1
  P  P25  1  0.345531  0.000000  0.000000  1
  P  P26  1  0.000000  0.345531  0.000000  1
  P  P27  1  0.491440  0.325772  0.500000  1
  P  P28  1  0.674228  0.165669  0.500000  1
  P  P29  1  0.834331  0.508560  0.500000  1
  P  P30  1  0.508560  0.834331  0.500000  1
  P  P31  1  0.165669  0.674228  0.500000  1
  P  P32  1  0.827034  0.000000  0.000000  1
  P  P33  1  0.000000  0.827034  0.000000  1
  P  P34  1  0.325772  0.491440  0.500000  1
  P  P35  1  0.172966  0.172966  0.000000  1
