# generated using pymatgen
data_Tb8HoTmIr4
_symmetry_space_group_name_H-M   'P 1'
_cell_length_a   6.50638622
_cell_length_b   7.20398331
_cell_length_c   8.55859038
_cell_angle_alpha   96.48134598
_cell_angle_beta   112.34040845
_cell_angle_gamma   89.99999956
_symmetry_Int_Tables_number   1
_chemical_formula_structural   Tb8HoTmIr4
_chemical_formula_sum   'Tb8 Ho1 Tm1 Ir4'
_cell_volume   368.27375001
_cell_formula_units_Z   1
loop_
 _symmetry_equiv_pos_site_id
 _symmetry_equiv_pos_as_xyz
  1  'x, y, z'
loop_
 _atom_site_type_symbol
 _atom_site_label
 _atom_site_symmetry_multiplicity
 _atom_site_fract_x
 _atom_site_fract_y
 _atom_site_fract_z
 _atom_site_occupancy
  Tb  Tb0  1  0.970928  0.919097  0.181705  1
  Tb  Tb1  1  0.789222  0.580903  0.818295  1
  Tb  Tb2  1  0.028859  0.081420  0.818464  1
  Tb  Tb3  1  0.210397  0.418580  0.181536  1
  Tb  Tb4  1  0.652797  0.816772  0.440057  1
  Tb  Tb5  1  0.212741  0.683228  0.559943  1
  Tb  Tb6  1  0.347687  0.183437  0.560446  1
  Tb  Tb7  1  0.787240  0.316563  0.439554  1
  Ho  Ho8  1  0.429596  0.750000  0.000000  1
  Tm  Tm9  1  0.570077  0.250000  0.000000  1
  Ir  Ir10  1  0.822284  0.572104  0.217326  1
  Ir  Ir11  1  0.604957  0.927896  0.782674  1
  Ir  Ir12  1  0.177933  0.426920  0.782650  1
  Ir  Ir13  1  0.395283  0.073080  0.217350  1
