# generated using pymatgen
data_Lu4ReTc3B8
_symmetry_space_group_name_H-M   'P 1'
_cell_length_a   5.23236900
_cell_length_b   5.87625650
_cell_length_c   6.38975219
_cell_angle_alpha   90.10435769
_cell_angle_beta   90.00000000
_cell_angle_gamma   90.00000000
_symmetry_Int_Tables_number   1
_chemical_formula_structural   Lu4ReTc3B8
_chemical_formula_sum   'Lu4 Re1 Tc3 B8'
_cell_volume   196.46373828
_cell_formula_units_Z   1
loop_
 _symmetry_equiv_pos_site_id
 _symmetry_equiv_pos_as_xyz
  1  'x, y, z'
loop_
 _atom_site_type_symbol
 _atom_site_label
 _atom_site_symmetry_multiplicity
 _atom_site_fract_x
 _atom_site_fract_y
 _atom_site_fract_z
 _atom_site_occupancy
  Lu  Lu0  1  0.250000  0.515533  0.663143  1
  Lu  Lu1  1  0.750000  0.483730  0.337124  1
  Lu  Lu2  1  0.250000  0.015964  0.836585  1
  Lu  Lu3  1  0.750000  0.984331  0.163206  1
  Re  Re4  1  0.250000  0.682421  0.185859  1
  Tc  Tc5  1  0.750000  0.818153  0.684824  1
  Tc  Tc6  1  0.750000  0.318287  0.815010  1
  Tc  Tc7  1  0.250000  0.182706  0.315034  1
  B  B8  1  0.922234  0.132815  0.533506  1
  B  B9  1  0.423101  0.866100  0.465962  1
  B  B10  1  0.577373  0.633833  0.966745  1
  B  B11  1  0.077342  0.366688  0.033394  1
  B  B12  1  0.076899  0.866100  0.465962  1
  B  B13  1  0.922627  0.633833  0.966745  1
  B  B14  1  0.422658  0.366688  0.033394  1
  B  B15  1  0.577766  0.132815  0.533506  1
