# generated using pymatgen
data_Ho4Tm4VOs3C8
_symmetry_space_group_name_H-M   'P 1'
_cell_length_a   5.04112500
_cell_length_b   6.49778272
_cell_length_c   9.70276900
_cell_angle_alpha   89.80408688
_cell_angle_beta   90.00000000
_cell_angle_gamma   90.00000000
_symmetry_Int_Tables_number   1
_chemical_formula_structural   Ho4Tm4VOs3C8
_chemical_formula_sum   'Ho4 Tm4 V1 Os3 C8'
_cell_volume   317.82335258
_cell_formula_units_Z   1
loop_
 _symmetry_equiv_pos_site_id
 _symmetry_equiv_pos_as_xyz
  1  'x, y, z'
loop_
 _atom_site_type_symbol
 _atom_site_label
 _atom_site_symmetry_multiplicity
 _atom_site_fract_x
 _atom_site_fract_y
 _atom_site_fract_z
 _atom_site_occupancy
  Ho  Ho0  1  0.250000  0.535111  0.211546  1
  Ho  Ho1  1  0.750000  0.465139  0.781440  1
  Ho  Ho2  1  0.750000  0.970882  0.714731  1
  Ho  Ho3  1  0.250000  0.031789  0.285075  1
  Tm  Tm4  1  0.250000  0.679410  0.558575  1
  Tm  Tm5  1  0.750000  0.325631  0.443988  1
  Tm  Tm6  1  0.750000  0.823635  0.055981  1
  Tm  Tm7  1  0.250000  0.171731  0.941786  1
  V  V8  1  0.250000  0.720936  0.867425  1
  Os  Os9  1  0.750000  0.279906  0.133138  1
  Os  Os10  1  0.750000  0.778882  0.365845  1
  Os  Os11  1  0.250000  0.223505  0.633798  1
  C  C12  1  0.250000  0.456020  0.762986  1
  C  C13  1  0.750000  0.545196  0.241487  1
  C  C14  1  0.750000  0.045813  0.259527  1
  C  C15  1  0.250000  0.952637  0.740707  1
  C  C16  1  0.250000  0.823331  0.052248  1
  C  C17  1  0.750000  0.171059  0.949075  1
  C  C18  1  0.750000  0.672913  0.552975  1
  C  C19  1  0.250000  0.326473  0.447665  1
