# generated using pymatgen
data_Ni6BiPb3S4
_symmetry_space_group_name_H-M   'P 1'
_cell_length_a   6.87550027
_cell_length_b   6.87550096
_cell_length_c   7.91992337
_cell_angle_alpha   56.72250122
_cell_angle_beta   56.72250002
_cell_angle_gamma   73.01972136
_symmetry_Int_Tables_number   1
_chemical_formula_structural   Ni6BiPb3S4
_chemical_formula_sum   'Ni6 Bi1 Pb3 S4'
_cell_volume   261.65545107
_cell_formula_units_Z   1
loop_
 _symmetry_equiv_pos_site_id
 _symmetry_equiv_pos_as_xyz
  1  'x, y, z'
loop_
 _atom_site_type_symbol
 _atom_site_label
 _atom_site_symmetry_multiplicity
 _atom_site_fract_x
 _atom_site_fract_y
 _atom_site_fract_z
 _atom_site_occupancy
  Ni  Ni0  1  0.737746  0.737746  0.276942  1
  Ni  Ni1  1  0.498876  0.007005  0.995972  1
  Ni  Ni2  1  0.743802  0.258798  0.993397  1
  Ni  Ni3  1  0.258798  0.743802  0.993397  1
  Ni  Ni4  1  0.255427  0.255427  0.744996  1
  Ni  Ni5  1  0.007005  0.498876  0.995972  1
  Bi  Bi6  1  0.499631  0.499631  0.752072  1
  Pb  Pb7  1  0.003007  0.003007  0.253688  1
  Pb  Pb8  1  0.996631  0.996631  0.745615  1
  Pb  Pb9  1  0.494969  0.494969  0.254540  1
  S  S10  1  0.472524  0.999224  0.284492  1
  S  S11  1  0.999224  0.472524  0.284492  1
  S  S12  1  0.529585  0.002775  0.712212  1
  S  S13  1  0.002775  0.529585  0.712212  1
