# generated using pymatgen
data_Rb2LuZr3S8
_symmetry_space_group_name_H-M   'P 1'
_cell_length_a   6.49447700
_cell_length_b   7.54154500
_cell_length_c   16.03055500
_cell_angle_alpha   90.00000000
_cell_angle_beta   90.00000000
_cell_angle_gamma   90.00000000
_symmetry_Int_Tables_number   1
_chemical_formula_structural   Rb2LuZr3S8
_chemical_formula_sum   'Rb4 Lu2 Zr6 S16'
_cell_volume   785.15078347
_cell_formula_units_Z   2
loop_
 _symmetry_equiv_pos_site_id
 _symmetry_equiv_pos_as_xyz
  1  'x, y, z'
loop_
 _atom_site_type_symbol
 _atom_site_label
 _atom_site_symmetry_multiplicity
 _atom_site_fract_x
 _atom_site_fract_y
 _atom_site_fract_z
 _atom_site_occupancy
  Rb  Rb0  1  0.328571  0.000000  0.000000  1
  Rb  Rb1  1  0.641387  0.500000  0.500000  1
  Rb  Rb2  1  0.018852  0.000000  0.500000  1
  Rb  Rb3  1  0.977720  0.500000  0.000000  1
  Lu  Lu4  1  0.002358  0.000000  0.247145  1
  Lu  Lu5  1  0.002358  0.000000  0.752855  1
  Zr  Zr6  1  0.999408  0.500000  0.253403  1
  Zr  Zr7  1  0.999408  0.500000  0.746597  1
  Zr  Zr8  1  0.500853  0.248974  0.250759  1
  Zr  Zr9  1  0.500853  0.751026  0.749241  1
  Zr  Zr10  1  0.500853  0.751026  0.250759  1
  Zr  Zr11  1  0.500853  0.248974  0.749241  1
  S  S12  1  0.832431  0.253378  0.343105  1
  S  S13  1  0.832431  0.746622  0.656895  1
  S  S14  1  0.171941  0.740334  0.157997  1
  S  S15  1  0.171941  0.259666  0.842003  1
  S  S16  1  0.171941  0.259666  0.157997  1
  S  S17  1  0.171941  0.740334  0.842003  1
  S  S18  1  0.832431  0.746622  0.343105  1
  S  S19  1  0.832431  0.253378  0.656895  1
  S  S20  1  0.658669  0.000000  0.158014  1
  S  S21  1  0.658669  0.000000  0.841986  1
  S  S22  1  0.332014  0.500000  0.341753  1
  S  S23  1  0.332014  0.500000  0.658247  1
  S  S24  1  0.345524  0.000000  0.342330  1
  S  S25  1  0.345524  0.000000  0.657670  1
  S  S26  1  0.668313  0.500000  0.161320  1
  S  S27  1  0.668313  0.500000  0.838680  1
