# generated using pymatgen
data_Pd(RhSe3)2
_symmetry_space_group_name_H-M   'P 1'
_cell_length_a   9.89503993
_cell_length_b   9.89503967
_cell_length_c   4.96171635
_cell_angle_alpha   88.26361463
_cell_angle_beta   88.26361425
_cell_angle_gamma   21.94061581
_symmetry_Int_Tables_number   1
_chemical_formula_structural   Pd(RhSe3)2
_chemical_formula_sum   'Pd1 Rh2 Se6'
_cell_volume   181.43443425
_cell_formula_units_Z   1
loop_
 _symmetry_equiv_pos_site_id
 _symmetry_equiv_pos_as_xyz
  1  'x, y, z'
loop_
 _atom_site_type_symbol
 _atom_site_label
 _atom_site_symmetry_multiplicity
 _atom_site_fract_x
 _atom_site_fract_y
 _atom_site_fract_z
 _atom_site_occupancy
  Pd  Pd0  1  0.338154  0.338154  0.471432  1
  Rh  Rh1  1  0.005498  0.005498  0.019498  1
  Rh  Rh2  1  0.659520  0.659520  0.511487  1
  Se  Se3  1  0.880714  0.880714  0.179986  1
  Se  Se4  1  0.208851  0.208851  0.231796  1
  Se  Se5  1  0.541952  0.541952  0.317342  1
  Se  Se6  1  0.462992  0.462992  0.731655  1
  Se  Se7  1  0.777625  0.777625  0.716544  1
  Se  Se8  1  0.124696  0.124696  0.820264  1
