# generated using pymatgen
data_Er4Tm12Cd4Co3Ni
_symmetry_space_group_name_H-M   'P 1'
_cell_length_a   9.40193323
_cell_length_b   9.38569648
_cell_length_c   9.38569600
_cell_angle_alpha   60.00000169
_cell_angle_beta   60.05711261
_cell_angle_gamma   60.05712084
_symmetry_Int_Tables_number   1
_chemical_formula_structural   Er4Tm12Cd4Co3Ni
_chemical_formula_sum   'Er4 Tm12 Cd4 Co3 Ni1'
_cell_volume   586.15106076
_cell_formula_units_Z   1
loop_
 _symmetry_equiv_pos_site_id
 _symmetry_equiv_pos_as_xyz
  1  'x, y, z'
loop_
 _atom_site_type_symbol
 _atom_site_label
 _atom_site_symmetry_multiplicity
 _atom_site_fract_x
 _atom_site_fract_y
 _atom_site_fract_z
 _atom_site_occupancy
  Er  Er0  1  0.344468  0.348051  0.348051  1
  Er  Er1  1  0.344468  0.348051  0.959430  1
  Er  Er2  1  0.344468  0.959430  0.348051  1
  Er  Er3  1  0.961108  0.346298  0.346298  1
  Tm  Tm4  1  0.815798  0.187865  0.187865  1
  Tm  Tm5  1  0.187281  0.812542  0.812542  1
  Tm  Tm6  1  0.187281  0.812542  0.187636  1
  Tm  Tm7  1  0.815798  0.187865  0.808470  1
  Tm  Tm8  1  0.187281  0.187636  0.812542  1
  Tm  Tm9  1  0.815798  0.808470  0.187865  1
  Tm  Tm10  1  0.936912  0.562486  0.562486  1
  Tm  Tm11  1  0.561263  0.937406  0.937406  1
  Tm  Tm12  1  0.561263  0.937406  0.563924  1
  Tm  Tm13  1  0.936912  0.562486  0.938116  1
  Tm  Tm14  1  0.561263  0.563924  0.937406  1
  Tm  Tm15  1  0.936912  0.938116  0.562486  1
  Cd  Cd16  1  0.580811  0.580610  0.580610  1
  Cd  Cd17  1  0.580811  0.580610  0.257970  1
  Cd  Cd18  1  0.580811  0.257970  0.580610  1
  Cd  Cd19  1  0.256919  0.581028  0.581028  1
  Co  Co20  1  0.141525  0.141263  0.141263  1
  Co  Co21  1  0.141525  0.141263  0.575949  1
  Co  Co22  1  0.141525  0.575949  0.141263  1
  Ni  Ni23  1  0.577802  0.140733  0.140733  1
