# generated using pymatgen
data_Yb2Th(SnRh)3
_symmetry_space_group_name_H-M   'P 1'
_cell_length_a   7.44682839
_cell_length_b   7.61055305
_cell_length_c   4.04580800
_cell_angle_alpha   90.00000000
_cell_angle_beta   90.00000000
_cell_angle_gamma   120.72999064
_symmetry_Int_Tables_number   1
_chemical_formula_structural   Yb2Th(SnRh)3
_chemical_formula_sum   'Yb2 Th1 Sn3 Rh3'
_cell_volume   197.09772837
_cell_formula_units_Z   1
loop_
 _symmetry_equiv_pos_site_id
 _symmetry_equiv_pos_as_xyz
  1  'x, y, z'
loop_
 _atom_site_type_symbol
 _atom_site_label
 _atom_site_symmetry_multiplicity
 _atom_site_fract_x
 _atom_site_fract_y
 _atom_site_fract_z
 _atom_site_occupancy
  Yb  Yb0  1  0.408155  0.408197  0.500000  1
  Yb  Yb1  1  0.591845  0.000043  0.500000  1
  Th  Th2  1  0.000000  0.585721  0.500000  1
  Sn  Sn3  1  0.728104  0.744163  0.000000  1
  Sn  Sn4  1  0.271896  0.016059  0.000000  1
  Sn  Sn5  1  0.000000  0.240167  0.000000  1
  Rh  Rh6  1  0.690435  0.354863  0.000000  1
  Rh  Rh7  1  0.309565  0.664429  0.000000  1
  Rh  Rh8  1  0.000000  0.986358  0.500000  1
