# generated using pymatgen
data_Dy2ErNb3(B2Ru5)2
_symmetry_space_group_name_H-M   'P 1'
_cell_length_a   9.59072477
_cell_length_b   9.59072507
_cell_length_c   3.12846900
_cell_angle_alpha   90.00000000
_cell_angle_beta   90.00000000
_cell_angle_gamma   90.51336297
_symmetry_Int_Tables_number   1
_chemical_formula_structural   Dy2ErNb3(B2Ru5)2
_chemical_formula_sum   'Dy2 Er1 Nb3 B4 Ru10'
_cell_volume   287.75129903
_cell_formula_units_Z   1
loop_
 _symmetry_equiv_pos_site_id
 _symmetry_equiv_pos_as_xyz
  1  'x, y, z'
loop_
 _atom_site_type_symbol
 _atom_site_label
 _atom_site_symmetry_multiplicity
 _atom_site_fract_x
 _atom_site_fract_y
 _atom_site_fract_z
 _atom_site_occupancy
  Dy  Dy0  1  0.823877  0.675119  0.000000  1
  Dy  Dy1  1  0.175119  0.323877  0.000000  1
  Er  Er2  1  0.325575  0.825575  0.000000  1
  Nb  Nb3  1  0.675679  0.175679  0.000000  1
  Nb  Nb4  1  0.497729  0.503594  0.000000  1
  Nb  Nb5  1  0.003594  0.997729  0.000000  1
  B  B6  1  0.623341  0.881476  0.000000  1
  B  B7  1  0.381476  0.123341  0.000000  1
  B  B8  1  0.119252  0.619252  0.000000  1
  B  B9  1  0.875728  0.375728  0.000000  1
  Ru  Ru10  1  0.570409  0.723083  0.500000  1
  Ru  Ru11  1  0.440680  0.280122  0.500000  1
  Ru  Ru12  1  0.070247  0.780258  0.500000  1
  Ru  Ru13  1  0.915525  0.213355  0.500000  1
  Ru  Ru14  1  0.280258  0.570247  0.500000  1
  Ru  Ru15  1  0.713355  0.415525  0.500000  1
  Ru  Ru16  1  0.223083  0.070409  0.500000  1
  Ru  Ru17  1  0.780122  0.940680  0.500000  1
  Ru  Ru18  1  0.509109  0.009109  0.500000  1
  Ru  Ru19  1  0.995843  0.495843  0.500000  1
