# generated using pymatgen
data_Ca2Tm2As6Ir7
_symmetry_space_group_name_H-M   'P 1'
_cell_length_a   7.28278467
_cell_length_b   7.26425611
_cell_length_c   7.26425636
_cell_angle_alpha   109.43492846
_cell_angle_beta   109.43778513
_cell_angle_gamma   109.43779691
_symmetry_Int_Tables_number   1
_chemical_formula_structural   Ca2Tm2As6Ir7
_chemical_formula_sum   'Ca2 Tm2 As6 Ir7'
_cell_volume   296.21669168
_cell_formula_units_Z   1
loop_
 _symmetry_equiv_pos_site_id
 _symmetry_equiv_pos_as_xyz
  1  'x, y, z'
loop_
 _atom_site_type_symbol
 _atom_site_label
 _atom_site_symmetry_multiplicity
 _atom_site_fract_x
 _atom_site_fract_y
 _atom_site_fract_z
 _atom_site_occupancy
  Ca  Ca0  1  0.000000  0.000000  0.500000  1
  Ca  Ca1  1  0.000000  0.500000  0.000000  1
  Tm  Tm2  1  0.500000  0.000000  0.000000  1
  Tm  Tm3  1  0.500000  0.500000  0.500000  1
  As  As4  1  0.682592  0.680402  0.002190  1
  As  As5  1  0.317408  0.319598  0.997810  1
  As  As6  1  0.000000  0.679741  0.679741  1
  As  As7  1  0.000000  0.320259  0.320259  1
  As  As8  1  0.682592  0.002190  0.680402  1
  As  As9  1  0.317408  0.997810  0.319598  1
  Ir  Ir10  1  0.000000  0.000000  0.000000  1
  Ir  Ir11  1  0.255973  0.505585  0.750388  1
  Ir  Ir12  1  0.744027  0.249612  0.494415  1
  Ir  Ir13  1  0.500000  0.250000  0.750000  1
  Ir  Ir14  1  0.500000  0.750000  0.250000  1
  Ir  Ir15  1  0.744027  0.494415  0.249612  1
  Ir  Ir16  1  0.255973  0.750388  0.505585  1
