# generated using pymatgen
data_TmLu3Ga2(B2Ir5)2
_symmetry_space_group_name_H-M   'P 1'
_cell_length_a   9.51814028
_cell_length_b   9.51924028
_cell_length_c   3.14654600
_cell_angle_alpha   90.00000000
_cell_angle_beta   90.00000000
_cell_angle_gamma   89.94064977
_symmetry_Int_Tables_number   1
_chemical_formula_structural   TmLu3Ga2(B2Ir5)2
_chemical_formula_sum   'Tm1 Lu3 Ga2 B4 Ir10'
_cell_volume   285.09410826
_cell_formula_units_Z   1
loop_
 _symmetry_equiv_pos_site_id
 _symmetry_equiv_pos_as_xyz
  1  'x, y, z'
loop_
 _atom_site_type_symbol
 _atom_site_label
 _atom_site_symmetry_multiplicity
 _atom_site_fract_x
 _atom_site_fract_y
 _atom_site_fract_z
 _atom_site_occupancy
  Tm  Tm0  1  0.676027  0.176048  0.000000  1
  Lu  Lu1  1  0.323918  0.823890  0.000000  1
  Lu  Lu2  1  0.176029  0.324039  0.000000  1
  Lu  Lu3  1  0.824068  0.676051  0.000000  1
  Ga  Ga4  1  0.999884  0.999986  0.000000  1
  Ga  Ga5  1  0.499985  0.499893  0.000000  1
  B  B6  1  0.123662  0.623684  0.000000  1
  B  B7  1  0.876810  0.376791  0.000000  1
  B  B8  1  0.623219  0.876286  0.000000  1
  B  B9  1  0.376308  0.123238  0.000000  1
  Ir  Ir10  1  0.217984  0.069480  0.500000  1
  Ir  Ir11  1  0.781892  0.929831  0.500000  1
  Ir  Ir12  1  0.069636  0.781712  0.500000  1
  Ir  Ir13  1  0.718672  0.431247  0.500000  1
  Ir  Ir14  1  0.931225  0.218671  0.500000  1
  Ir  Ir15  1  0.281715  0.569618  0.500000  1
  Ir  Ir16  1  0.569495  0.717991  0.500000  1
  Ir  Ir17  1  0.429810  0.281888  0.500000  1
  Ir  Ir18  1  0.499482  0.999479  0.500000  1
  Ir  Ir19  1  0.000179  0.500176  0.500000  1
