# generated using pymatgen
data_Tb3YZr4(NiP)12
_symmetry_space_group_name_H-M   'P 1'
_cell_length_a   3.75966900
_cell_length_b   10.21571711
_cell_length_c   12.38198313
_cell_angle_alpha   89.98333640
_cell_angle_beta   90.00000000
_cell_angle_gamma   90.00000000
_symmetry_Int_Tables_number   1
_chemical_formula_structural   Tb3YZr4(NiP)12
_chemical_formula_sum   'Tb3 Y1 Zr4 Ni12 P12'
_cell_volume   475.56365817
_cell_formula_units_Z   1
loop_
 _symmetry_equiv_pos_site_id
 _symmetry_equiv_pos_as_xyz
  1  'x, y, z'
loop_
 _atom_site_type_symbol
 _atom_site_label
 _atom_site_symmetry_multiplicity
 _atom_site_fract_x
 _atom_site_fract_y
 _atom_site_fract_z
 _atom_site_occupancy
  Tb  Tb0  1  0.750000  0.928718  0.792784  1
  Tb  Tb1  1  0.750000  0.571271  0.292736  1
  Tb  Tb2  1  0.250000  0.428709  0.707261  1
  Y  Y3  1  0.250000  0.071552  0.207241  1
  Zr  Zr4  1  0.250000  0.159234  0.497437  1
  Zr  Zr5  1  0.750000  0.840659  0.502584  1
  Zr  Zr6  1  0.750000  0.659365  0.002530  1
  Zr  Zr7  1  0.250000  0.340542  0.997439  1
  Ni  Ni8  1  0.250000  0.727933  0.664284  1
  Ni  Ni9  1  0.750000  0.272034  0.335639  1
  Ni  Ni10  1  0.750000  0.227884  0.835764  1
  Ni  Ni11  1  0.250000  0.772102  0.164349  1
  Ni  Ni12  1  0.250000  0.365677  0.219192  1
  Ni  Ni13  1  0.750000  0.634356  0.780811  1
  Ni  Ni14  1  0.750000  0.865765  0.280763  1
  Ni  Ni15  1  0.250000  0.134357  0.719105  1
  Ni  Ni16  1  0.250000  0.598192  0.483768  1
  Ni  Ni17  1  0.750000  0.401774  0.516244  1
  Ni  Ni18  1  0.750000  0.098139  0.016331  1
  Ni  Ni19  1  0.250000  0.901859  0.983819  1
  P  P20  1  0.250000  0.944782  0.623559  1
  P  P21  1  0.750000  0.055164  0.376135  1
  P  P22  1  0.750000  0.444723  0.876435  1
  P  P23  1  0.250000  0.555290  0.123596  1
  P  P24  1  0.250000  0.394029  0.402430  1
  P  P25  1  0.750000  0.605942  0.597560  1
  P  P26  1  0.750000  0.894128  0.097736  1
  P  P27  1  0.250000  0.106033  0.902347  1
  P  P28  1  0.250000  0.770993  0.354076  1
  P  P29  1  0.750000  0.228962  0.645920  1
  P  P30  1  0.750000  0.270839  0.146096  1
  P  P31  1  0.250000  0.728993  0.854030  1
