# generated using pymatgen
data_Hf4Ta4Si3P
_symmetry_space_group_name_H-M   'P 1'
_cell_length_a   3.60330400
_cell_length_b   6.94249911
_cell_length_c   8.39354717
_cell_angle_alpha   89.74658330
_cell_angle_beta   90.00000000
_cell_angle_gamma   90.00000000
_symmetry_Int_Tables_number   1
_chemical_formula_structural   Hf4Ta4Si3P
_chemical_formula_sum   'Hf4 Ta4 Si3 P1'
_cell_volume   209.97037522
_cell_formula_units_Z   1
loop_
 _symmetry_equiv_pos_site_id
 _symmetry_equiv_pos_as_xyz
  1  'x, y, z'
loop_
 _atom_site_type_symbol
 _atom_site_label
 _atom_site_symmetry_multiplicity
 _atom_site_fract_x
 _atom_site_fract_y
 _atom_site_fract_z
 _atom_site_occupancy
  Hf  Hf0  1  0.250000  0.041045  0.668882  1
  Hf  Hf1  1  0.250000  0.537504  0.833941  1
  Hf  Hf2  1  0.750000  0.461417  0.168031  1
  Hf  Hf3  1  0.750000  0.958723  0.333496  1
  Ta  Ta4  1  0.750000  0.865865  0.939346  1
  Ta  Ta5  1  0.250000  0.633141  0.440078  1
  Ta  Ta6  1  0.750000  0.362989  0.561971  1
  Ta  Ta7  1  0.250000  0.139136  0.055823  1
  Si  Si8  1  0.250000  0.255433  0.357682  1
  Si  Si9  1  0.250000  0.759282  0.141878  1
  Si  Si10  1  0.750000  0.743038  0.641696  1
  P  P11  1  0.750000  0.242427  0.857176  1
