# generated using pymatgen
data_Dy7Er(ZrGa5)4
_symmetry_space_group_name_H-M   'P 1'
_cell_length_a   5.96980661
_cell_length_b   9.42695218
_cell_length_c   11.38583100
_cell_angle_alpha   90.03535497
_cell_angle_beta   89.97417287
_cell_angle_gamma   89.98356315
_symmetry_Int_Tables_number   1
_chemical_formula_structural   Dy7Er(ZrGa5)4
_chemical_formula_sum   'Dy7 Er1 Zr4 Ga20'
_cell_volume   640.76112476
_cell_formula_units_Z   1
loop_
 _symmetry_equiv_pos_site_id
 _symmetry_equiv_pos_as_xyz
  1  'x, y, z'
loop_
 _atom_site_type_symbol
 _atom_site_label
 _atom_site_symmetry_multiplicity
 _atom_site_fract_x
 _atom_site_fract_y
 _atom_site_fract_z
 _atom_site_occupancy
  Dy  Dy0  1  0.885781  0.507028  0.352369  1
  Dy  Dy1  1  0.613913  0.992777  0.852150  1
  Dy  Dy2  1  0.114064  0.007025  0.647745  1
  Dy  Dy3  1  0.386040  0.492935  0.147032  1
  Dy  Dy4  1  0.113929  0.492951  0.647839  1
  Dy  Dy5  1  0.386322  0.007088  0.147578  1
  Dy  Dy6  1  0.885903  0.993101  0.352520  1
  Er  Er7  1  0.613735  0.507234  0.852618  1
  Zr  Zr8  1  0.857882  0.749921  0.075065  1
  Zr  Zr9  1  0.641806  0.749943  0.575364  1
  Zr  Zr10  1  0.142522  0.249838  0.924598  1
  Zr  Zr11  1  0.358300  0.250169  0.424872  1
  Ga  Ga12  1  0.875062  0.053067  0.088733  1
  Ga  Ga13  1  0.624665  0.447380  0.589375  1
  Ga  Ga14  1  0.125251  0.552653  0.911029  1
  Ga  Ga15  1  0.375191  0.947171  0.411400  1
  Ga  Ga16  1  0.124943  0.946791  0.911149  1
  Ga  Ga17  1  0.375306  0.552827  0.411323  1
  Ga  Ga18  1  0.875231  0.447126  0.088293  1
  Ga  Ga19  1  0.624700  0.052904  0.588705  1
  Ga  Ga20  1  0.161741  0.749988  0.254029  1
  Ga  Ga21  1  0.338648  0.749475  0.754512  1
  Ga  Ga22  1  0.837444  0.250690  0.746583  1
  Ga  Ga23  1  0.661732  0.249976  0.245757  1
  Ga  Ga24  1  0.389527  0.749780  0.001765  1
  Ga  Ga25  1  0.110751  0.750008  0.502174  1
  Ga  Ga26  1  0.611417  0.250641  0.997067  1
  Ga  Ga27  1  0.888866  0.250137  0.498004  1
  Ga  Ga28  1  0.604376  0.749968  0.293956  1
  Ga  Ga29  1  0.894742  0.749163  0.794122  1
  Ga  Ga30  1  0.395657  0.250146  0.706082  1
  Ga  Ga31  1  0.104553  0.250100  0.206192  1
