# generated using pymatgen
data_DyPaReB6
_symmetry_space_group_name_H-M   'P 1'
_cell_length_a   3.72048000
_cell_length_b   9.18366800
_cell_length_c   11.52355400
_cell_angle_alpha   90.00000000
_cell_angle_beta   90.00000000
_cell_angle_gamma   90.00000000
_symmetry_Int_Tables_number   1
_chemical_formula_structural   DyPaReB6
_chemical_formula_sum   'Dy4 Pa4 Re4 B24'
_cell_volume   393.73279579
_cell_formula_units_Z   4
loop_
 _symmetry_equiv_pos_site_id
 _symmetry_equiv_pos_as_xyz
  1  'x, y, z'
loop_
 _atom_site_type_symbol
 _atom_site_label
 _atom_site_symmetry_multiplicity
 _atom_site_fract_x
 _atom_site_fract_y
 _atom_site_fract_z
 _atom_site_occupancy
  Dy  Dy0  1  0.000000  0.944954  0.374717  1
  Dy  Dy1  1  0.000000  0.055046  0.625283  1
  Dy  Dy2  1  0.000000  0.444954  0.125283  1
  Dy  Dy3  1  0.000000  0.555046  0.874717  1
  Pa  Pa4  1  0.000000  0.323412  0.413101  1
  Pa  Pa5  1  0.000000  0.676588  0.586899  1
  Pa  Pa6  1  0.000000  0.823412  0.086899  1
  Pa  Pa7  1  0.000000  0.176588  0.913101  1
  Re  Re8  1  0.000000  0.638340  0.321951  1
  Re  Re9  1  0.000000  0.361660  0.678049  1
  Re  Re10  1  0.000000  0.138340  0.178049  1
  Re  Re11  1  0.000000  0.861660  0.821951  1
  B  B12  1  0.500000  0.552380  0.433413  1
  B  B13  1  0.500000  0.447620  0.566587  1
  B  B14  1  0.500000  0.052380  0.066587  1
  B  B15  1  0.500000  0.947620  0.933413  1
  B  B16  1  0.500000  0.747458  0.420398  1
  B  B17  1  0.500000  0.252542  0.579602  1
  B  B18  1  0.500000  0.247458  0.079602  1
  B  B19  1  0.500000  0.752542  0.920398  1
  B  B20  1  0.500000  0.792887  0.266212  1
  B  B21  1  0.500000  0.207113  0.733788  1
  B  B22  1  0.500000  0.292887  0.233788  1
  B  B23  1  0.500000  0.707113  0.766212  1
  B  B24  1  0.500000  0.633432  0.185581  1
  B  B25  1  0.500000  0.366568  0.814419  1
  B  B26  1  0.500000  0.133432  0.314419  1
  B  B27  1  0.500000  0.866568  0.685581  1
  B  B28  1  0.500000  0.982617  0.213353  1
  B  B29  1  0.500000  0.017383  0.786647  1
  B  B30  1  0.500000  0.482617  0.286647  1
  B  B31  1  0.500000  0.517383  0.713353  1
  B  B32  1  0.500000  0.613997  0.031503  1
  B  B33  1  0.500000  0.386003  0.968497  1
  B  B34  1  0.500000  0.113997  0.468497  1
  B  B35  1  0.500000  0.886003  0.531503  1
