# generated using pymatgen
data_Zr4Fe3Co(SiAs)2
_symmetry_space_group_name_H-M   'P 1'
_cell_length_a   3.92225300
_cell_length_b   6.48305743
_cell_length_c   7.18700492
_cell_angle_alpha   89.86597544
_cell_angle_beta   90.00147146
_cell_angle_gamma   89.99940821
_symmetry_Int_Tables_number   1
_chemical_formula_structural   Zr4Fe3Co(SiAs)2
_chemical_formula_sum   'Zr4 Fe3 Co1 Si2 As2'
_cell_volume   182.75203707
_cell_formula_units_Z   1
loop_
 _symmetry_equiv_pos_site_id
 _symmetry_equiv_pos_as_xyz
  1  'x, y, z'
loop_
 _atom_site_type_symbol
 _atom_site_label
 _atom_site_symmetry_multiplicity
 _atom_site_fract_x
 _atom_site_fract_y
 _atom_site_fract_z
 _atom_site_occupancy
  Zr  Zr0  1  0.250008  0.009007  0.307985  1
  Zr  Zr1  1  0.250001  0.504891  0.192057  1
  Zr  Zr2  1  0.749994  0.992030  0.694843  1
  Zr  Zr3  1  0.749998  0.489208  0.806322  1
  Fe  Fe4  1  0.249991  0.148383  0.938644  1
  Fe  Fe5  1  0.250013  0.651552  0.559760  1
  Fe  Fe6  1  0.749989  0.354866  0.428562  1
  Co  Co7  1  0.750005  0.856798  0.072369  1
  Si  Si8  1  0.750010  0.715594  0.392275  1
  Si  Si9  1  0.750000  0.216484  0.109366  1
  As  As10  1  0.249991  0.282325  0.607873  1
  As  As11  1  0.249999  0.778861  0.889945  1
