# generated using pymatgen
data_Rb3Na2TiSb3
_symmetry_space_group_name_H-M   'P 1'
_cell_length_a   11.67094500
_cell_length_b   11.67094481
_cell_length_c   16.99079600
_cell_angle_alpha   90.00000000
_cell_angle_beta   90.00000000
_cell_angle_gamma   142.62228019
_symmetry_Int_Tables_number   1
_chemical_formula_structural   Rb3Na2TiSb3
_chemical_formula_sum   'Rb12 Na8 Ti4 Sb12'
_cell_volume   1404.95462937
_cell_formula_units_Z   4
loop_
 _symmetry_equiv_pos_site_id
 _symmetry_equiv_pos_as_xyz
  1  'x, y, z'
loop_
 _atom_site_type_symbol
 _atom_site_label
 _atom_site_symmetry_multiplicity
 _atom_site_fract_x
 _atom_site_fract_y
 _atom_site_fract_z
 _atom_site_occupancy
  Rb  Rb0  1  0.940366  0.604786  0.828380  1
  Rb  Rb1  1  0.559634  0.895214  0.328380  1
  Rb  Rb2  1  0.395214  0.059634  0.171620  1
  Rb  Rb3  1  0.059634  0.395214  0.171620  1
  Rb  Rb4  1  0.895214  0.559634  0.328380  1
  Rb  Rb5  1  0.440366  0.104786  0.671620  1
  Rb  Rb6  1  0.604786  0.940366  0.828380  1
  Rb  Rb7  1  0.270836  0.270836  0.320954  1
  Rb  Rb8  1  0.770836  0.770836  0.179046  1
  Rb  Rb9  1  0.229164  0.229164  0.820954  1
  Rb  Rb10  1  0.729164  0.729164  0.679046  1
  Rb  Rb11  1  0.104786  0.440366  0.671620  1
  Na  Na12  1  0.920129  0.079871  0.000000  1
  Na  Na13  1  0.579871  0.420129  0.500000  1
  Na  Na14  1  0.079871  0.920129  0.000000  1
  Na  Na15  1  0.420129  0.579871  0.500000  1
  Na  Na16  1  0.754335  0.245665  0.000000  1
  Na  Na17  1  0.745665  0.254335  0.500000  1
  Na  Na18  1  0.245665  0.754335  0.000000  1
  Na  Na19  1  0.254335  0.745665  0.500000  1
  Ti  Ti20  1  0.584773  0.415227  0.000000  1
  Ti  Ti21  1  0.915227  0.084773  0.500000  1
  Ti  Ti22  1  0.415227  0.584773  0.000000  1
  Ti  Ti23  1  0.084773  0.915227  0.500000  1
  Sb  Sb24  1  0.864167  0.555257  0.095613  1
  Sb  Sb25  1  0.444743  0.135833  0.904387  1
  Sb  Sb26  1  0.635833  0.944743  0.595613  1
  Sb  Sb27  1  0.944743  0.635833  0.595613  1
  Sb  Sb28  1  0.135833  0.444743  0.904387  1
  Sb  Sb29  1  0.555257  0.864167  0.095613  1
  Sb  Sb30  1  0.364167  0.055257  0.404387  1
  Sb  Sb31  1  0.193119  0.193119  0.586503  1
  Sb  Sb32  1  0.693119  0.693119  0.913497  1
  Sb  Sb33  1  0.306881  0.306881  0.086503  1
  Sb  Sb34  1  0.055257  0.364167  0.404387  1
  Sb  Sb35  1  0.806881  0.806881  0.413497  1
