# generated using pymatgen
data_Tb3Sc3ReGe2
_symmetry_space_group_name_H-M   'P 1'
_cell_length_a   7.49423100
_cell_length_b   7.49423088
_cell_length_c   4.30893700
_cell_angle_alpha   90.00000000
_cell_angle_beta   90.00000000
_cell_angle_gamma   120.00000495
_symmetry_Int_Tables_number   1
_chemical_formula_structural   Tb3Sc3ReGe2
_chemical_formula_sum   'Tb3 Sc3 Re1 Ge2'
_cell_volume   209.58244306
_cell_formula_units_Z   1
loop_
 _symmetry_equiv_pos_site_id
 _symmetry_equiv_pos_as_xyz
  1  'x, y, z'
loop_
 _atom_site_type_symbol
 _atom_site_label
 _atom_site_symmetry_multiplicity
 _atom_site_fract_x
 _atom_site_fract_y
 _atom_site_fract_z
 _atom_site_occupancy
  Tb  Tb0  1  0.416256  0.000000  0.000000  1
  Tb  Tb1  1  0.000000  0.416256  0.000000  1
  Tb  Tb2  1  0.583744  0.583745  0.000000  1
  Sc  Sc3  1  0.759636  0.000000  0.500000  1
  Sc  Sc4  1  0.240364  0.240364  0.500000  1
  Sc  Sc5  1  0.000000  0.759635  0.500000  1
  Re  Re6  1  0.000000  0.000000  0.000000  1
  Ge  Ge7  1  0.666666  0.333333  0.500000  1
  Ge  Ge8  1  0.333333  0.666666  0.500000  1
