# generated using pymatgen
data_Ce6Sb6HAu3
_symmetry_space_group_name_H-M   'P 1'
_cell_length_a   4.81393000
_cell_length_b   4.81392942
_cell_length_c   25.51487600
_cell_angle_alpha   90.00000000
_cell_angle_beta   90.00000000
_cell_angle_gamma   120.00000400
_symmetry_Int_Tables_number   1
_chemical_formula_structural   Ce6Sb6HAu3
_chemical_formula_sum   'Ce6 Sb6 H1 Au3'
_cell_volume   512.06319946
_cell_formula_units_Z   1
loop_
 _symmetry_equiv_pos_site_id
 _symmetry_equiv_pos_as_xyz
  1  'x, y, z'
loop_
 _atom_site_type_symbol
 _atom_site_label
 _atom_site_symmetry_multiplicity
 _atom_site_fract_x
 _atom_site_fract_y
 _atom_site_fract_z
 _atom_site_occupancy
  Ce  Ce0  1  0.666667  0.333333  0.978580  1
  Ce  Ce1  1  0.333333  0.666667  0.112377  1
  Ce  Ce2  1  0.333333  0.666667  0.365496  1
  Ce  Ce3  1  0.666667  0.333333  0.554501  1
  Ce  Ce4  1  0.333333  0.666667  0.221489  1
  Ce  Ce5  1  0.666667  0.333333  0.784139  1
  Sb  Sb6  1  0.333333  0.666667  0.659930  1
  Sb  Sb7  1  0.000000  0.000000  0.482442  1
  Sb  Sb8  1  0.666667  0.333333  0.321027  1
  Sb  Sb9  1  0.333333  0.666667  0.867743  1
  Sb  Sb10  1  0.666667  0.333333  0.160889  1
  Sb  Sb11  1  0.000000  0.000000  0.025608  1
  H  H12  1  0.000000  0.000000  0.816261  1
  Au  Au13  1  0.000000  0.000000  0.172830  1
  Au  Au14  1  0.000000  0.000000  0.276248  1
  Au  Au15  1  0.000000  0.000000  0.700440  1
