# generated using pymatgen
data_Pr3Sc7Si20(IrPt)4
_symmetry_space_group_name_H-M   'P 1'
_cell_length_a   12.50263603
_cell_length_b   12.54994059
_cell_length_c   4.21592000
_cell_angle_alpha   90.00000000
_cell_angle_beta   90.00000000
_cell_angle_gamma   90.20414913
_symmetry_Int_Tables_number   1
_chemical_formula_structural   Pr3Sc7Si20(IrPt)4
_chemical_formula_sum   'Pr3 Sc7 Si20 Ir4 Pt4'
_cell_volume   661.50459120
_cell_formula_units_Z   1
loop_
 _symmetry_equiv_pos_site_id
 _symmetry_equiv_pos_as_xyz
  1  'x, y, z'
loop_
 _atom_site_type_symbol
 _atom_site_label
 _atom_site_symmetry_multiplicity
 _atom_site_fract_x
 _atom_site_fract_y
 _atom_site_fract_z
 _atom_site_occupancy
  Pr  Pr0  1  0.114917  0.614380  0.500000  1
  Pr  Pr1  1  0.885808  0.384941  0.500000  1
  Pr  Pr2  1  0.613409  0.886539  0.500000  1
  Sc  Sc3  1  0.385461  0.115125  0.500000  1
  Sc  Sc4  1  0.674495  0.174430  0.500000  1
  Sc  Sc5  1  0.325262  0.825751  0.500000  1
  Sc  Sc6  1  0.178185  0.324298  0.500000  1
  Sc  Sc7  1  0.823489  0.673889  0.500000  1
  Sc  Sc8  1  0.997210  0.000160  0.000000  1
  Sc  Sc9  1  0.499709  0.502668  0.000000  1
  Si  Si10  1  0.567012  0.066942  0.000000  1
  Si  Si11  1  0.432585  0.933130  0.000000  1
  Si  Si12  1  0.070500  0.432865  0.000000  1
  Si  Si13  1  0.929805  0.566447  0.000000  1
  Si  Si14  1  0.206894  0.165646  0.000000  1
  Si  Si15  1  0.796096  0.835508  0.000000  1
  Si  Si16  1  0.168325  0.796966  0.000000  1
  Si  Si17  1  0.701054  0.336033  0.000000  1
  Si  Si18  1  0.833318  0.200520  0.000000  1
  Si  Si19  1  0.301440  0.662098  0.000000  1
  Si  Si20  1  0.662793  0.699321  0.000000  1
  Si  Si21  1  0.336184  0.298927  0.000000  1
  Si  Si22  1  0.009652  0.147645  0.500000  1
  Si  Si23  1  0.992201  0.852457  0.500000  1
  Si  Si24  1  0.149564  0.995756  0.500000  1
  Si  Si25  1  0.504922  0.349113  0.500000  1
  Si  Si26  1  0.848834  0.010076  0.500000  1
  Si  Si27  1  0.489290  0.651913  0.500000  1
  Si  Si28  1  0.650195  0.507634  0.500000  1
  Si  Si29  1  0.349767  0.490907  0.500000  1
  Ir  Ir30  1  0.759267  0.023813  0.000000  1
  Ir  Ir31  1  0.475629  0.742336  0.000000  1
  Ir  Ir32  1  0.738988  0.523186  0.000000  1
  Ir  Ir33  1  0.261004  0.474441  0.000000  1
  Pt  Pt34  1  0.025471  0.239160  0.000000  1
  Pt  Pt35  1  0.976949  0.760501  0.000000  1
  Pt  Pt36  1  0.243356  0.979391  0.000000  1
  Pt  Pt37  1  0.520963  0.255085  0.000000  1
