# generated using pymatgen
data_Ba4Ti2MnO10
_symmetry_space_group_name_H-M   'P 1'
_cell_length_a   7.33728581
_cell_length_b   7.33728714
_cell_length_c   13.10371500
_cell_angle_alpha   90.00000000
_cell_angle_beta   90.00000000
_cell_angle_gamma   132.98732368
_symmetry_Int_Tables_number   1
_chemical_formula_structural   Ba4Ti2MnO10
_chemical_formula_sum   'Ba8 Ti4 Mn2 O20'
_cell_volume   516.03889346
_cell_formula_units_Z   2
loop_
 _symmetry_equiv_pos_site_id
 _symmetry_equiv_pos_as_xyz
  1  'x, y, z'
loop_
 _atom_site_type_symbol
 _atom_site_label
 _atom_site_symmetry_multiplicity
 _atom_site_fract_x
 _atom_site_fract_y
 _atom_site_fract_z
 _atom_site_occupancy
  Ba  Ba0  1  0.469446  0.530554  0.140940  1
  Ba  Ba1  1  0.235399  0.764601  0.898903  1
  Ba  Ba2  1  0.735399  0.264601  0.601097  1
  Ba  Ba3  1  0.030554  0.969446  0.640940  1
  Ba  Ba4  1  0.969446  0.030554  0.359060  1
  Ba  Ba5  1  0.264601  0.735399  0.398903  1
  Ba  Ba6  1  0.530554  0.469446  0.859060  1
  Ba  Ba7  1  0.764601  0.235399  0.101097  1
  Ti  Ti8  1  0.135232  0.864768  0.153444  1
  Ti  Ti9  1  0.364768  0.635232  0.653444  1
  Ti  Ti10  1  0.864768  0.135232  0.846556  1
  Ti  Ti11  1  0.635232  0.364768  0.346556  1
  Mn  Mn12  1  0.000000  0.000000  0.000000  1
  Mn  Mn13  1  0.500000  0.500000  0.500000  1
  O  O14  1  0.535644  0.464356  0.644506  1
  O  O15  1  0.731286  0.268714  0.860466  1
  O  O16  1  0.382835  0.177502  0.463549  1
  O  O17  1  0.882835  0.677502  0.036451  1
  O  O18  1  0.625097  0.874903  0.750000  1
  O  O19  1  0.125097  0.374903  0.750000  1
  O  O20  1  0.268714  0.731286  0.139534  1
  O  O21  1  0.035644  0.964356  0.855494  1
  O  O22  1  0.374903  0.125097  0.250000  1
  O  O23  1  0.822498  0.617165  0.463549  1
  O  O24  1  0.768714  0.231286  0.360466  1
  O  O25  1  0.464356  0.535644  0.355494  1
  O  O26  1  0.874903  0.625097  0.250000  1
  O  O27  1  0.117165  0.322498  0.963549  1
  O  O28  1  0.617165  0.822498  0.536451  1
  O  O29  1  0.231286  0.768714  0.639534  1
  O  O30  1  0.677502  0.882835  0.963549  1
  O  O31  1  0.177502  0.382835  0.536451  1
  O  O32  1  0.964356  0.035644  0.144506  1
  O  O33  1  0.322498  0.117165  0.036451  1
