# generated using pymatgen
data_CaSm5YCoBr12
_symmetry_space_group_name_H-M   'P 1'
_cell_length_a   9.32391417
_cell_length_b   9.24378582
_cell_length_c   9.27667000
_cell_angle_alpha   106.33080038
_cell_angle_beta   106.76635030
_cell_angle_gamma   105.66246399
_symmetry_Int_Tables_number   1
_chemical_formula_structural   CaSm5YCoBr12
_chemical_formula_sum   'Ca1 Sm5 Y1 Co1 Br12'
_cell_volume   678.92307475
_cell_formula_units_Z   1
loop_
 _symmetry_equiv_pos_site_id
 _symmetry_equiv_pos_as_xyz
  1  'x, y, z'
loop_
 _atom_site_type_symbol
 _atom_site_label
 _atom_site_symmetry_multiplicity
 _atom_site_fract_x
 _atom_site_fract_y
 _atom_site_fract_z
 _atom_site_occupancy
  Ca  Ca0  1  0.499753  0.502108  0.497266  1
  Sm  Sm1  1  0.311153  0.018976  0.105827  1
  Sm  Sm2  1  0.022482  0.101143  0.298663  1
  Sm  Sm3  1  0.978772  0.901524  0.703571  1
  Sm  Sm4  1  0.688731  0.979355  0.895833  1
  Sm  Sm5  1  0.895275  0.686401  0.978495  1
  Y  Y6  1  0.103227  0.308276  0.022684  1
  Co  Co7  1  0.000263  0.999379  0.001245  1
  Br  Br8  1  0.219179  0.669611  0.068590  1
  Br  Br9  1  0.450631  0.371976  0.153472  1
  Br  Br10  1  0.680777  0.074270  0.221461  1
  Br  Br11  1  0.929710  0.781090  0.322986  1
  Br  Br12  1  0.157429  0.457661  0.370450  1
  Br  Br13  1  0.375674  0.160077  0.457895  1
  Br  Br14  1  0.625863  0.845356  0.543501  1
  Br  Br15  1  0.840476  0.543303  0.623759  1
  Br  Br16  1  0.073470  0.223880  0.684812  1
  Br  Br17  1  0.320085  0.927830  0.780665  1
  Br  Br18  1  0.543460  0.625158  0.839916  1
  Br  Br19  1  0.783596  0.322627  0.928913  1
