# generated using pymatgen
data_Cs4Zr6SiI18
_symmetry_space_group_name_H-M   'P 1'
_cell_length_a   11.62060683
_cell_length_b   11.93977072
_cell_length_c   12.06014316
_cell_angle_alpha   118.36888018
_cell_angle_beta   100.42527315
_cell_angle_gamma   104.28549603
_symmetry_Int_Tables_number   1
_chemical_formula_structural   Cs4Zr6SiI18
_chemical_formula_sum   'Cs4 Zr6 Si1 I18'
_cell_volume   1336.73876625
_cell_formula_units_Z   1
loop_
 _symmetry_equiv_pos_site_id
 _symmetry_equiv_pos_as_xyz
  1  'x, y, z'
loop_
 _atom_site_type_symbol
 _atom_site_label
 _atom_site_symmetry_multiplicity
 _atom_site_fract_x
 _atom_site_fract_y
 _atom_site_fract_z
 _atom_site_occupancy
  Cs  Cs0  1  0.661048  0.538909  0.230402  1
  Cs  Cs1  1  0.338952  0.461091  0.769598  1
  Cs  Cs2  1  0.695672  0.228045  0.565755  1
  Cs  Cs3  1  0.304328  0.771955  0.434245  1
  Zr  Zr4  1  0.146429  0.054976  0.221645  1
  Zr  Zr5  1  0.853571  0.945024  0.778355  1
  Zr  Zr6  1  0.866037  0.119087  0.125501  1
  Zr  Zr7  1  0.133963  0.880913  0.874499  1
  Zr  Zr8  1  0.141785  0.230384  0.044442  1
  Zr  Zr9  1  0.858215  0.769616  0.955558  1
  Si  Si10  1  0.000000  0.000000  0.000000  1
  I  I11  1  0.006794  0.395069  0.188421  1
  I  I12  1  0.993206  0.604931  0.811579  1
  I  I13  1  0.324367  0.324684  0.302771  1
  I  I14  1  0.675633  0.675316  0.697229  1
  I  I15  1  0.313759  0.507017  0.098459  1
  I  I16  1  0.686241  0.492983  0.901541  1
  I  I17  1  0.003832  0.802167  0.202014  1
  I  I18  1  0.996168  0.197833  0.797986  1
  I  I19  1  0.707760  0.260078  0.273443  1
  I  I20  1  0.292240  0.739922  0.726557  1
  I  I21  1  0.311086  0.126540  0.909498  1
  I  I22  1  0.688914  0.873460  0.090502  1
  I  I23  1  0.014139  0.196334  0.394284  1
  I  I24  1  0.985861  0.803666  0.605716  1
  I  I25  1  0.314774  0.928556  0.109127  1
  I  I26  1  0.685226  0.071444  0.890873  1
  I  I27  1  0.325856  0.119832  0.486620  1
  I  I28  1  0.674144  0.880168  0.513380  1
