# generated using pymatgen
data_Tb9Dy3(AlAu5)4
_symmetry_space_group_name_H-M   'P 1'
_cell_length_a   8.50115501
_cell_length_b   8.50115768
_cell_length_c   13.52193102
_cell_angle_alpha   90.00592676
_cell_angle_beta   89.99407266
_cell_angle_gamma   128.49852829
_symmetry_Int_Tables_number   1
_chemical_formula_structural   Tb9Dy3(AlAu5)4
_chemical_formula_sum   'Tb9 Dy3 Al4 Au20'
_cell_volume   764.80014819
_cell_formula_units_Z   1
loop_
 _symmetry_equiv_pos_site_id
 _symmetry_equiv_pos_as_xyz
  1  'x, y, z'
loop_
 _atom_site_type_symbol
 _atom_site_label
 _atom_site_symmetry_multiplicity
 _atom_site_fract_x
 _atom_site_fract_y
 _atom_site_fract_z
 _atom_site_occupancy
  Tb  Tb0  1  0.927625  0.072375  0.249997  1
  Tb  Tb1  1  0.072333  0.927667  0.749989  1
  Tb  Tb2  1  0.320511  0.679489  0.250040  1
  Tb  Tb3  1  0.679480  0.320520  0.749996  1
  Tb  Tb4  1  0.369276  0.630724  0.964718  1
  Tb  Tb5  1  0.881523  0.118477  0.951333  1
  Tb  Tb6  1  0.118435  0.881565  0.048678  1
  Tb  Tb7  1  0.881521  0.118479  0.548649  1
  Tb  Tb8  1  0.118471  0.881529  0.451336  1
  Dy  Dy9  1  0.630690  0.369310  0.464813  1
  Dy  Dy10  1  0.369304  0.630696  0.535164  1
  Dy  Dy11  1  0.630746  0.369255  0.035191  1
  Al  Al12  1  0.720195  0.279805  0.250017  1
  Al  Al13  1  0.279762  0.720238  0.749916  1
  Al  Al14  1  0.532727  0.467273  0.250001  1
  Al  Al15  1  0.467300  0.532700  0.749941  1
  Au  Au16  1  0.323341  0.069402  0.250012  1
  Au  Au17  1  0.069411  0.323322  0.750001  1
  Au  Au18  1  0.676678  0.930589  0.750001  1
  Au  Au19  1  0.930598  0.676659  0.250012  1
  Au  Au20  1  0.570388  0.004182  0.396753  1
  Au  Au21  1  0.004192  0.570379  0.603249  1
  Au  Au22  1  0.570502  0.004410  0.103329  1
  Au  Au23  1  0.003829  0.570311  0.896679  1
  Au  Au24  1  0.429621  0.995808  0.603249  1
  Au  Au25  1  0.995818  0.429612  0.396753  1
  Au  Au26  1  0.429689  0.996171  0.896679  1
  Au  Au27  1  0.995590  0.429497  0.103329  1
  Au  Au28  1  0.685642  0.740868  0.394894  1
  Au  Au29  1  0.740856  0.685625  0.605108  1
  Au  Au30  1  0.685966  0.740999  0.105254  1
  Au  Au31  1  0.741146  0.685675  0.894831  1
  Au  Au32  1  0.314375  0.259143  0.605107  1
  Au  Au33  1  0.259132  0.314358  0.394894  1
  Au  Au34  1  0.314325  0.258853  0.894831  1
  Au  Au35  1  0.259001  0.314034  0.105254  1
