# generated using pymatgen
data_Er2CO
_symmetry_space_group_name_H-M   'P 1'
_cell_length_a   5.98717278
_cell_length_b   5.98717300
_cell_length_c   5.98717367
_cell_angle_alpha   33.92313090
_cell_angle_beta   33.92312891
_cell_angle_gamma   33.92312324
_symmetry_Int_Tables_number   1
_chemical_formula_structural   Er2CO
_chemical_formula_sum   'Er2 C1 O1'
_cell_volume   59.57499661
_cell_formula_units_Z   1
loop_
 _symmetry_equiv_pos_site_id
 _symmetry_equiv_pos_as_xyz
  1  'x, y, z'
loop_
 _atom_site_type_symbol
 _atom_site_label
 _atom_site_symmetry_multiplicity
 _atom_site_fract_x
 _atom_site_fract_y
 _atom_site_fract_z
 _atom_site_occupancy
  Er  Er0  1  0.253115  0.253115  0.253115  1
  Er  Er1  1  0.746885  0.746885  0.746885  1
  C  C2  1  0.000000  0.000000  0.000000  1
  O  O3  1  0.500000  0.500000  0.500000  1
