# generated using pymatgen
data_Nd3Dy3Al24Os5Pt3
_symmetry_space_group_name_H-M   'P 1'
_cell_length_a   8.87386331
_cell_length_b   8.88383917
_cell_length_c   9.62429742
_cell_angle_alpha   90.05132638
_cell_angle_beta   89.84827205
_cell_angle_gamma   119.58750861
_symmetry_Int_Tables_number   1
_chemical_formula_structural   Nd3Dy3Al24Os5Pt3
_chemical_formula_sum   'Nd3 Dy3 Al24 Os5 Pt3'
_cell_volume   659.78389999
_cell_formula_units_Z   1
loop_
 _symmetry_equiv_pos_site_id
 _symmetry_equiv_pos_as_xyz
  1  'x, y, z'
loop_
 _atom_site_type_symbol
 _atom_site_label
 _atom_site_symmetry_multiplicity
 _atom_site_fract_x
 _atom_site_fract_y
 _atom_site_fract_z
 _atom_site_occupancy
  Nd  Nd0  1  0.187435  0.379788  0.249752  1
  Nd  Nd1  1  0.812244  0.620599  0.750285  1
  Nd  Nd2  1  0.617105  0.813263  0.251690  1
  Dy  Dy3  1  0.387641  0.186456  0.747987  1
  Dy  Dy4  1  0.195147  0.808848  0.250970  1
  Dy  Dy5  1  0.803700  0.190968  0.748954  1
  Al  Al6  1  0.334279  0.671458  0.026950  1
  Al  Al7  1  0.664137  0.328309  0.969909  1
  Al  Al8  1  0.669262  0.331088  0.528336  1
  Al  Al9  1  0.329611  0.668901  0.474429  1
  Al  Al10  1  0.157855  0.325080  0.575191  1
  Al  Al11  1  0.842853  0.674002  0.426292  1
  Al  Al12  1  0.673226  0.841823  0.575794  1
  Al  Al13  1  0.837534  0.675250  0.076816  1
  Al  Al14  1  0.326556  0.158363  0.426855  1
  Al  Al15  1  0.163212  0.323564  0.921624  1
  Al  Al16  1  0.164824  0.835748  0.575047  1
  Al  Al17  1  0.326060  0.157974  0.073785  1
  Al  Al18  1  0.835335  0.165679  0.426635  1
  Al  Al19  1  0.673811  0.842231  0.923664  1
  Al  Al20  1  0.831065  0.159982  0.075248  1
  Al  Al21  1  0.169255  0.841781  0.922956  1
  Al  Al22  1  0.560056  0.125491  0.249768  1
  Al  Al23  1  0.438881  0.875383  0.750284  1
  Al  Al24  1  0.873159  0.437655  0.253072  1
  Al  Al25  1  0.126481  0.562056  0.747243  1
  Al  Al26  1  0.563339  0.434772  0.249692  1
  Al  Al27  1  0.435781  0.562665  0.750328  1
  Al  Al28  1  0.000304  0.001230  0.250179  1
  Al  Al29  1  0.004166  0.001466  0.749800  1
  Os  Os30  1  0.499408  0.000794  0.998631  1
  Os  Os31  1  0.499273  0.000860  0.501524  1
  Os  Os32  1  0.999677  0.499745  0.500446  1
  Os  Os33  1  0.999806  0.999881  0.999631  1
  Os  Os34  1  0.999811  0.999902  0.500325  1
  Pt  Pt35  1  0.999341  0.499606  0.999792  1
  Pt  Pt36  1  0.499236  0.498758  0.999120  1
  Pt  Pt37  1  0.499134  0.498581  0.500997  1
