# generated using pymatgen
data_K8V7MoN16
_symmetry_space_group_name_H-M   'P 1'
_cell_length_a   5.78301434
_cell_length_b   7.97389118
_cell_length_c   11.75370100
_cell_angle_alpha   90.00000000
_cell_angle_beta   90.00000000
_cell_angle_gamma   90.01149464
_symmetry_Int_Tables_number   1
_chemical_formula_structural   K8V7MoN16
_chemical_formula_sum   'K8 V7 Mo1 N16'
_cell_volume   541.99989701
_cell_formula_units_Z   1
loop_
 _symmetry_equiv_pos_site_id
 _symmetry_equiv_pos_as_xyz
  1  'x, y, z'
loop_
 _atom_site_type_symbol
 _atom_site_label
 _atom_site_symmetry_multiplicity
 _atom_site_fract_x
 _atom_site_fract_y
 _atom_site_fract_z
 _atom_site_occupancy
  K  K0  1  0.729138  0.132243  0.004761  1
  K  K1  1  0.223944  0.864426  0.492890  1
  K  K2  1  0.223944  0.864426  0.007110  1
  K  K3  1  0.729138  0.132243  0.495239  1
  K  K4  1  0.661206  0.387747  0.250000  1
  K  K5  1  0.158899  0.613201  0.250000  1
  K  K6  1  0.374022  0.612990  0.750000  1
  K  K7  1  0.873446  0.392541  0.750000  1
  V  V8  1  0.232235  0.374654  0.004910  1
  V  V9  1  0.732744  0.629186  0.497033  1
  V  V10  1  0.732744  0.629186  0.002967  1
  V  V11  1  0.232235  0.374654  0.495090  1
  V  V12  1  0.200434  0.116243  0.250000  1
  V  V13  1  0.700327  0.886292  0.250000  1
  V  V14  1  0.836156  0.875699  0.750000  1
  Mo  Mo15  1  0.337050  0.114002  0.750000  1
  N  N16  1  0.889255  0.067997  0.250000  1
  N  N17  1  0.389321  0.934530  0.250000  1
  N  N18  1  0.152018  0.921253  0.750000  1
  N  N19  1  0.658122  0.067861  0.750000  1
  N  N20  1  0.270461  0.241611  0.373651  1
  N  N21  1  0.769419  0.762851  0.125000  1
  N  N22  1  0.770497  0.753648  0.873694  1
  N  N23  1  0.267218  0.243205  0.622705  1
  N  N24  1  0.770497  0.753648  0.626306  1
  N  N25  1  0.267218  0.243205  0.877295  1
  N  N26  1  0.270461  0.241611  0.126349  1
  N  N27  1  0.769419  0.762851  0.375000  1
  N  N28  1  0.444473  0.539868  0.494389  1
  N  N29  1  0.944745  0.463131  0.007137  1
  N  N30  1  0.444473  0.539868  0.005611  1
  N  N31  1  0.944745  0.463131  0.492863  1
