# generated using pymatgen
data_Ce2Zn4CoPd
_symmetry_space_group_name_H-M   'P 1'
_cell_length_a   5.16096566
_cell_length_b   5.16096680
_cell_length_c   7.32398800
_cell_angle_alpha   90.00000000
_cell_angle_beta   90.00000000
_cell_angle_gamma   130.83833118
_symmetry_Int_Tables_number   1
_chemical_formula_structural   Ce2Zn4CoPd
_chemical_formula_sum   'Ce2 Zn4 Co1 Pd1'
_cell_volume   147.58823540
_cell_formula_units_Z   1
loop_
 _symmetry_equiv_pos_site_id
 _symmetry_equiv_pos_as_xyz
  1  'x, y, z'
loop_
 _atom_site_type_symbol
 _atom_site_label
 _atom_site_symmetry_multiplicity
 _atom_site_fract_x
 _atom_site_fract_y
 _atom_site_fract_z
 _atom_site_occupancy
  Ce  Ce0  1  0.947043  0.052958  0.250000  1
  Ce  Ce1  1  0.073695  0.926306  0.750000  1
  Zn  Zn2  1  0.649136  0.350865  0.061632  1
  Zn  Zn3  1  0.649136  0.350865  0.438367  1
  Zn  Zn4  1  0.353146  0.646855  0.538933  1
  Zn  Zn5  1  0.353146  0.646855  0.961067  1
  Co  Co6  1  0.181931  0.818070  0.250000  1
  Pd  Pd7  1  0.792770  0.207231  0.750000  1
