# generated using pymatgen
data_Li4SiSb3Pd8
_symmetry_space_group_name_H-M   'P 1'
_cell_length_a   4.32437002
_cell_length_b   6.56046900
_cell_length_c   8.74351804
_cell_angle_alpha   89.99945177
_cell_angle_beta   89.88951989
_cell_angle_gamma   89.99979767
_symmetry_Int_Tables_number   1
_chemical_formula_structural   Li4SiSb3Pd8
_chemical_formula_sum   'Li4 Si1 Sb3 Pd8'
_cell_volume   248.05223169
_cell_formula_units_Z   1
loop_
 _symmetry_equiv_pos_site_id
 _symmetry_equiv_pos_as_xyz
  1  'x, y, z'
loop_
 _atom_site_type_symbol
 _atom_site_label
 _atom_site_symmetry_multiplicity
 _atom_site_fract_x
 _atom_site_fract_y
 _atom_site_fract_z
 _atom_site_occupancy
  Li  Li0  1  0.249164  0.750004  0.124937  1
  Li  Li1  1  0.748803  0.249997  0.386070  1
  Li  Li2  1  0.251532  0.749999  0.624981  1
  Li  Li3  1  0.750228  0.249995  0.863667  1
  Si  Si4  1  0.249194  0.250001  0.124972  1
  Sb  Sb5  1  0.749013  0.750000  0.367008  1
  Sb  Sb6  1  0.251525  0.249999  0.625252  1
  Sb  Sb7  1  0.750084  0.750002  0.883419  1
  Pd  Pd8  1  0.749089  0.034026  0.124927  1
  Pd  Pd9  1  0.749078  0.465982  0.124926  1
  Pd  Pd10  1  0.248604  0.022234  0.351160  1
  Pd  Pd11  1  0.248592  0.477758  0.351163  1
  Pd  Pd12  1  0.752668  0.984918  0.624921  1
  Pd  Pd13  1  0.752673  0.515084  0.624919  1
  Pd  Pd14  1  0.249871  0.022184  0.898842  1
  Pd  Pd15  1  0.249874  0.477820  0.898836  1
