# generated using pymatgen
data_VCo8Re2(Ni2B)6
_symmetry_space_group_name_H-M   'P 1'
_cell_length_a   7.39160762
_cell_length_b   7.39121369
_cell_length_c   7.39133400
_cell_angle_alpha   60.00184205
_cell_angle_beta   60.00134918
_cell_angle_gamma   60.00098935
_symmetry_Int_Tables_number   1
_chemical_formula_structural   VCo8Re2(Ni2B)6
_chemical_formula_sum   'V1 Co8 Re2 Ni12 B6'
_cell_volume   285.54608750
_cell_formula_units_Z   1
loop_
 _symmetry_equiv_pos_site_id
 _symmetry_equiv_pos_as_xyz
  1  'x, y, z'
loop_
 _atom_site_type_symbol
 _atom_site_label
 _atom_site_symmetry_multiplicity
 _atom_site_fract_x
 _atom_site_fract_y
 _atom_site_fract_z
 _atom_site_occupancy
  V  V0  1  0.000000  0.000000  0.000000  1
  Co  Co1  1  0.618944  0.618934  0.143206  1
  Co  Co2  1  0.618946  0.143202  0.618937  1
  Co  Co3  1  0.143218  0.618925  0.618928  1
  Co  Co4  1  0.618954  0.618921  0.618926  1
  Co  Co5  1  0.381056  0.381066  0.856794  1
  Co  Co6  1  0.381054  0.856798  0.381063  1
  Co  Co7  1  0.856782  0.381075  0.381072  1
  Co  Co8  1  0.381046  0.381079  0.381074  1
  Re  Re9  1  0.750003  0.750017  0.749996  1
  Re  Re10  1  0.249997  0.249983  0.250004  1
  Ni  Ni11  1  0.000016  0.999976  0.338253  1
  Ni  Ni12  1  0.661735  0.999983  0.338264  1
  Ni  Ni13  1  0.000005  0.661719  0.338277  1
  Ni  Ni14  1  0.661737  0.338268  0.999978  1
  Ni  Ni15  1  0.000012  0.338251  0.999977  1
  Ni  Ni16  1  0.999995  0.338281  0.661723  1
  Ni  Ni17  1  0.338263  0.661732  0.000022  1
  Ni  Ni18  1  0.338265  0.000017  0.661736  1
  Ni  Ni19  1  0.338293  0.999994  0.999997  1
  Ni  Ni20  1  0.999984  0.000024  0.661747  1
  Ni  Ni21  1  0.999988  0.661749  0.000023  1
  Ni  Ni22  1  0.661707  0.000006  0.000003  1
  B  B23  1  0.723994  0.723977  0.276006  1
  B  B24  1  0.276010  0.723989  0.276018  1
  B  B25  1  0.723994  0.276022  0.276013  1
  B  B26  1  0.276006  0.276023  0.723994  1
  B  B27  1  0.723990  0.276011  0.723982  1
  B  B28  1  0.276006  0.723978  0.723987  1
