# generated using pymatgen
data_Nd16Cd2Hg2OsPd3
_symmetry_space_group_name_H-M   'P 1'
_cell_length_a   10.02982375
_cell_length_b   10.02982376
_cell_length_c   10.04709641
_cell_angle_alpha   59.50838728
_cell_angle_beta   59.50839367
_cell_angle_gamma   59.55506271
_symmetry_Int_Tables_number   1
_chemical_formula_structural   Nd16Cd2Hg2OsPd3
_chemical_formula_sum   'Nd16 Cd2 Hg2 Os1 Pd3'
_cell_volume   706.94406969
_cell_formula_units_Z   1
loop_
 _symmetry_equiv_pos_site_id
 _symmetry_equiv_pos_as_xyz
  1  'x, y, z'
loop_
 _atom_site_type_symbol
 _atom_site_label
 _atom_site_symmetry_multiplicity
 _atom_site_fract_x
 _atom_site_fract_y
 _atom_site_fract_z
 _atom_site_occupancy
  Nd  Nd0  1  0.353363  0.353363  0.352856  1
  Nd  Nd1  1  0.349045  0.349045  0.948687  1
  Nd  Nd2  1  0.349865  0.946343  0.349511  1
  Nd  Nd3  1  0.946343  0.349865  0.349511  1
  Nd  Nd4  1  0.817157  0.188253  0.189072  1
  Nd  Nd5  1  0.188114  0.807899  0.807928  1
  Nd  Nd6  1  0.188253  0.817157  0.189072  1
  Nd  Nd7  1  0.807899  0.188114  0.807928  1
  Nd  Nd8  1  0.188170  0.188170  0.817712  1
  Nd  Nd9  1  0.806615  0.806615  0.189506  1
  Nd  Nd10  1  0.936021  0.564199  0.564963  1
  Nd  Nd11  1  0.555976  0.937620  0.938291  1
  Nd  Nd12  1  0.564199  0.936021  0.564963  1
  Nd  Nd13  1  0.937620  0.555976  0.938291  1
  Nd  Nd14  1  0.564204  0.564204  0.936988  1
  Nd  Nd15  1  0.937410  0.937410  0.556861  1
  Cd  Cd16  1  0.579560  0.258637  0.580521  1
  Cd  Cd17  1  0.258637  0.579560  0.580521  1
  Hg  Hg18  1  0.583040  0.583040  0.585378  1
  Hg  Hg19  1  0.583787  0.583787  0.245881  1
  Os  Os20  1  0.143372  0.143372  0.143736  1
  Pd  Pd21  1  0.145519  0.145519  0.570243  1
  Pd  Pd22  1  0.145262  0.570570  0.145791  1
  Pd  Pd23  1  0.570570  0.145262  0.145791  1
