# generated using pymatgen
data_Y2Er6Si8Pd5Pt3
_symmetry_space_group_name_H-M   'P 1'
_cell_length_a   4.26395300
_cell_length_b   7.51919102
_cell_length_c   13.93759307
_cell_angle_alpha   89.99856197
_cell_angle_beta   90.00000000
_cell_angle_gamma   90.00000000
_symmetry_Int_Tables_number   1
_chemical_formula_structural   Y2Er6Si8Pd5Pt3
_chemical_formula_sum   'Y2 Er6 Si8 Pd5 Pt3'
_cell_volume   446.85982094
_cell_formula_units_Z   1
loop_
 _symmetry_equiv_pos_site_id
 _symmetry_equiv_pos_as_xyz
  1  'x, y, z'
loop_
 _atom_site_type_symbol
 _atom_site_label
 _atom_site_symmetry_multiplicity
 _atom_site_fract_x
 _atom_site_fract_y
 _atom_site_fract_z
 _atom_site_occupancy
  Y  Y0  1  0.000000  0.300723  0.000121  1
  Y  Y1  1  0.500000  0.700512  0.500234  1
  Er  Er2  1  0.000000  0.291591  0.499942  1
  Er  Er3  1  0.500000  0.708587  0.999730  1
  Er  Er4  1  0.000000  0.204666  0.250592  1
  Er  Er5  1  0.500000  0.794137  0.249947  1
  Er  Er6  1  0.000000  0.204358  0.749579  1
  Er  Er7  1  0.500000  0.795501  0.750540  1
  Si  Si8  1  0.000000  0.908483  0.592837  1
  Si  Si9  1  0.500000  0.091284  0.908510  1
  Si  Si10  1  0.000000  0.908118  0.406739  1
  Si  Si11  1  0.500000  0.093752  0.093916  1
  Si  Si12  1  0.000000  0.594792  0.144138  1
  Si  Si13  1  0.500000  0.404012  0.356725  1
  Si  Si14  1  0.000000  0.596091  0.856479  1
  Si  Si15  1  0.500000  0.403685  0.643057  1
  Pd  Pd16  1  0.000000  0.923576  0.107287  1
  Pd  Pd17  1  0.500000  0.421809  0.158368  1
  Pd  Pd18  1  0.000000  0.579055  0.341083  1
  Pd  Pd19  1  0.500000  0.421304  0.841730  1
  Pd  Pd20  1  0.000000  0.578573  0.658817  1
  Pt  Pt21  1  0.500000  0.075360  0.609273  1
  Pt  Pt22  1  0.000000  0.924746  0.890179  1
  Pt  Pt23  1  0.500000  0.075285  0.390180  1
