# generated using pymatgen
data_Ca3Yb(Ga3Rh)6
_symmetry_space_group_name_H-M   'P 1'
_cell_length_a   7.54539371
_cell_length_b   7.54434297
_cell_length_c   9.75563800
_cell_angle_alpha   90.00000000
_cell_angle_beta   90.00000000
_cell_angle_gamma   119.44321614
_symmetry_Int_Tables_number   1
_chemical_formula_structural   Ca3Yb(Ga3Rh)6
_chemical_formula_sum   'Ca3 Yb1 Ga18 Rh6'
_cell_volume   483.61416925
_cell_formula_units_Z   1
loop_
 _symmetry_equiv_pos_site_id
 _symmetry_equiv_pos_as_xyz
  1  'x, y, z'
loop_
 _atom_site_type_symbol
 _atom_site_label
 _atom_site_symmetry_multiplicity
 _atom_site_fract_x
 _atom_site_fract_y
 _atom_site_fract_z
 _atom_site_occupancy
  Ca  Ca0  1  0.997091  0.668611  0.250000  1
  Ca  Ca1  1  0.002932  0.331443  0.750000  1
  Ca  Ca2  1  0.668562  0.997062  0.250000  1
  Yb  Yb3  1  0.331376  0.002787  0.750000  1
  Ga  Ga4  1  0.125739  0.125679  0.250000  1
  Ga  Ga5  1  0.875131  0.874366  0.750000  1
  Ga  Ga6  1  0.002899  0.334480  0.075770  1
  Ga  Ga7  1  0.997756  0.666132  0.923745  1
  Ga  Ga8  1  0.997756  0.666132  0.576255  1
  Ga  Ga9  1  0.334463  0.002991  0.424796  1
  Ga  Ga10  1  0.002899  0.334480  0.424230  1
  Ga  Ga11  1  0.664923  0.997109  0.576232  1
  Ga  Ga12  1  0.664923  0.997109  0.923768  1
  Ga  Ga13  1  0.334463  0.002991  0.075204  1
  Ga  Ga14  1  0.335230  0.334644  0.560776  1
  Ga  Ga15  1  0.664732  0.664750  0.439705  1
  Ga  Ga16  1  0.664732  0.664750  0.060295  1
  Ga  Ga17  1  0.335230  0.334644  0.939224  1
  Ga  Ga18  1  0.335862  0.546025  0.250000  1
  Ga  Ga19  1  0.663417  0.453125  0.750000  1
  Ga  Ga20  1  0.546023  0.335772  0.250000  1
  Ga  Ga21  1  0.453873  0.664801  0.750000  1
  Rh  Rh22  1  0.671667  0.328092  0.999816  1
  Rh  Rh23  1  0.328213  0.671973  0.999814  1
  Rh  Rh24  1  0.328213  0.671973  0.500186  1
  Rh  Rh25  1  0.671667  0.328092  0.500184  1
  Rh  Rh26  1  0.000113  0.999995  0.999804  1
  Rh  Rh27  1  0.000113  0.999995  0.500196  1
