# generated using pymatgen
data_PrEr2Ir8Rh
_symmetry_space_group_name_H-M   'P 1'
_cell_length_a   5.33730300
_cell_length_b   5.33730140
_cell_length_c   17.45215900
_cell_angle_alpha   90.00000000
_cell_angle_beta   90.00000000
_cell_angle_gamma   119.99999135
_symmetry_Int_Tables_number   1
_chemical_formula_structural   PrEr2Ir8Rh
_chemical_formula_sum   'Pr2 Er4 Ir16 Rh2'
_cell_volume   430.54982508
_cell_formula_units_Z   2
loop_
 _symmetry_equiv_pos_site_id
 _symmetry_equiv_pos_as_xyz
  1  'x, y, z'
loop_
 _atom_site_type_symbol
 _atom_site_label
 _atom_site_symmetry_multiplicity
 _atom_site_fract_x
 _atom_site_fract_y
 _atom_site_fract_z
 _atom_site_occupancy
  Pr  Pr0  1  0.333333  0.666667  0.750000  1
  Pr  Pr1  1  0.666667  0.333333  0.250000  1
  Er  Er2  1  0.333333  0.666667  0.540500  1
  Er  Er3  1  0.666667  0.333333  0.040500  1
  Er  Er4  1  0.666667  0.333333  0.459500  1
  Er  Er5  1  0.333333  0.666667  0.959500  1
  Ir  Ir6  1  0.167978  0.335956  0.124611  1
  Ir  Ir7  1  0.832022  0.664044  0.624611  1
  Ir  Ir8  1  0.664044  0.832022  0.124611  1
  Ir  Ir9  1  0.167978  0.832022  0.124611  1
  Ir  Ir10  1  0.832022  0.167978  0.624611  1
  Ir  Ir11  1  0.335956  0.167978  0.624611  1
  Ir  Ir12  1  0.832022  0.664044  0.875389  1
  Ir  Ir13  1  0.832022  0.167978  0.875389  1
  Ir  Ir14  1  0.335956  0.167978  0.875389  1
  Ir  Ir15  1  0.664044  0.832022  0.375389  1
  Ir  Ir16  1  0.167978  0.832022  0.375389  1
  Ir  Ir17  1  0.167978  0.335956  0.375389  1
  Ir  Ir18  1  0.000000  0.000000  0.250000  1
  Ir  Ir19  1  0.000000  0.000000  0.750000  1
  Ir  Ir20  1  0.000000  0.000000  0.000000  1
  Ir  Ir21  1  0.000000  0.000000  0.500000  1
  Rh  Rh22  1  0.333333  0.666667  0.250000  1
  Rh  Rh23  1  0.666667  0.333333  0.750000  1
