# generated using pymatgen
data_Rb2Si2Te5
_symmetry_space_group_name_H-M   'P 1'
_cell_length_a   12.44618004
_cell_length_b   12.44618026
_cell_length_c   10.17768664
_cell_angle_alpha   80.54622667
_cell_angle_beta   80.54622168
_cell_angle_gamma   89.97121393
_symmetry_Int_Tables_number   1
_chemical_formula_structural   Rb2Si2Te5
_chemical_formula_sum   'Rb8 Si8 Te20'
_cell_volume   1533.49641470
_cell_formula_units_Z   4
loop_
 _symmetry_equiv_pos_site_id
 _symmetry_equiv_pos_as_xyz
  1  'x, y, z'
loop_
 _atom_site_type_symbol
 _atom_site_label
 _atom_site_symmetry_multiplicity
 _atom_site_fract_x
 _atom_site_fract_y
 _atom_site_fract_z
 _atom_site_occupancy
  Rb  Rb0  1  0.788501  0.526161  0.115302  1
  Rb  Rb1  1  0.473839  0.211499  0.384698  1
  Rb  Rb2  1  0.211499  0.473839  0.884698  1
  Rb  Rb3  1  0.526161  0.788501  0.615302  1
  Rb  Rb4  1  0.050614  0.211364  0.388960  1
  Rb  Rb5  1  0.788636  0.949386  0.111040  1
  Rb  Rb6  1  0.949386  0.788636  0.611040  1
  Rb  Rb7  1  0.211364  0.050614  0.888960  1
  Si  Si8  1  0.732231  0.468049  0.602111  1
  Si  Si9  1  0.531951  0.267769  0.897889  1
  Si  Si10  1  0.267769  0.531951  0.397889  1
  Si  Si11  1  0.468049  0.732231  0.102111  1
  Si  Si12  1  0.136357  0.730625  0.112391  1
  Si  Si13  1  0.269375  0.863643  0.387609  1
  Si  Si14  1  0.863643  0.269375  0.887609  1
  Si  Si15  1  0.730625  0.136357  0.612391  1
  Te  Te16  1  0.888472  0.455309  0.738055  1
  Te  Te17  1  0.544691  0.111528  0.761945  1
  Te  Te18  1  0.111528  0.544691  0.261945  1
  Te  Te19  1  0.455309  0.888472  0.238055  1
  Te  Te20  1  0.245996  0.680669  0.547049  1
  Te  Te21  1  0.319331  0.754004  0.952951  1
  Te  Te22  1  0.754004  0.319331  0.452951  1
  Te  Te23  1  0.680669  0.245996  0.047049  1
  Te  Te24  1  0.756746  0.642831  0.448470  1
  Te  Te25  1  0.357169  0.243254  0.051530  1
  Te  Te26  1  0.243254  0.357169  0.551530  1
  Te  Te27  1  0.642831  0.756746  0.948470  1
  Te  Te28  1  0.006171  0.246028  0.029297  1
  Te  Te29  1  0.753972  0.993829  0.470703  1
  Te  Te30  1  0.993829  0.753972  0.970703  1
  Te  Te31  1  0.246028  0.006171  0.529297  1
  Te  Te32  1  0.886034  0.113966  0.750000  1
  Te  Te33  1  0.113966  0.886034  0.250000  1
  Te  Te34  1  0.545572  0.454428  0.750000  1
  Te  Te35  1  0.454428  0.545572  0.250000  1
