# generated using pymatgen
data_Tb7Dy5(AlAu5)4
_symmetry_space_group_name_H-M   'P 1'
_cell_length_a   8.49640603
_cell_length_b   8.49640670
_cell_length_c   13.51360300
_cell_angle_alpha   90.00000000
_cell_angle_beta   90.00000000
_cell_angle_gamma   128.48890075
_symmetry_Int_Tables_number   1
_chemical_formula_structural   Tb7Dy5(AlAu5)4
_chemical_formula_sum   'Tb7 Dy5 Al4 Au20'
_cell_volume   763.57725733
_cell_formula_units_Z   1
loop_
 _symmetry_equiv_pos_site_id
 _symmetry_equiv_pos_as_xyz
  1  'x, y, z'
loop_
 _atom_site_type_symbol
 _atom_site_label
 _atom_site_symmetry_multiplicity
 _atom_site_fract_x
 _atom_site_fract_y
 _atom_site_fract_z
 _atom_site_occupancy
  Tb  Tb0  1  0.072362  0.927638  0.750000  1
  Tb  Tb1  1  0.320570  0.679430  0.250000  1
  Tb  Tb2  1  0.679470  0.320530  0.750000  1
  Tb  Tb3  1  0.881551  0.118449  0.951387  1
  Tb  Tb4  1  0.118435  0.881565  0.048705  1
  Tb  Tb5  1  0.881551  0.118449  0.548613  1
  Tb  Tb6  1  0.118435  0.881565  0.451295  1
  Dy  Dy7  1  0.927653  0.072347  0.250000  1
  Dy  Dy8  1  0.630670  0.369330  0.464819  1
  Dy  Dy9  1  0.369330  0.630670  0.535170  1
  Dy  Dy10  1  0.630670  0.369330  0.035181  1
  Dy  Dy11  1  0.369330  0.630670  0.964830  1
  Al  Al12  1  0.720274  0.279726  0.250000  1
  Al  Al13  1  0.279788  0.720212  0.750000  1
  Al  Al14  1  0.532708  0.467292  0.250000  1
  Al  Al15  1  0.467297  0.532703  0.750000  1
  Au  Au16  1  0.323274  0.069430  0.250000  1
  Au  Au17  1  0.069419  0.323340  0.750000  1
  Au  Au18  1  0.676660  0.930581  0.750000  1
  Au  Au19  1  0.930570  0.676726  0.250000  1
  Au  Au20  1  0.570491  0.004216  0.396704  1
  Au  Au21  1  0.004216  0.570409  0.603249  1
  Au  Au22  1  0.570491  0.004216  0.103296  1
  Au  Au23  1  0.004216  0.570409  0.896751  1
  Au  Au24  1  0.429591  0.995784  0.603249  1
  Au  Au25  1  0.995784  0.429509  0.396704  1
  Au  Au26  1  0.429591  0.995784  0.896751  1
  Au  Au27  1  0.995784  0.429509  0.103296  1
  Au  Au28  1  0.685867  0.741165  0.394744  1
  Au  Au29  1  0.740832  0.685624  0.605094  1
  Au  Au30  1  0.685867  0.741165  0.105256  1
  Au  Au31  1  0.740832  0.685624  0.894906  1
  Au  Au32  1  0.314376  0.259168  0.605094  1
  Au  Au33  1  0.258835  0.314133  0.394744  1
  Au  Au34  1  0.314376  0.259168  0.894906  1
  Au  Au35  1  0.258835  0.314133  0.105256  1
