# generated using pymatgen
data_Y7Tc2Sn23Rh4
_symmetry_space_group_name_H-M   'P 1'
_cell_length_a   9.87699894
_cell_length_b   9.87699954
_cell_length_c   10.09267700
_cell_angle_alpha   89.88201481
_cell_angle_beta   90.11797940
_cell_angle_gamma   119.72633213
_symmetry_Int_Tables_number   1
_chemical_formula_structural   Y7Tc2Sn23Rh4
_chemical_formula_sum   'Y7 Tc2 Sn23 Rh4'
_cell_volume   855.02115199
_cell_formula_units_Z   1
loop_
 _symmetry_equiv_pos_site_id
 _symmetry_equiv_pos_as_xyz
  1  'x, y, z'
loop_
 _atom_site_type_symbol
 _atom_site_label
 _atom_site_symmetry_multiplicity
 _atom_site_fract_x
 _atom_site_fract_y
 _atom_site_fract_z
 _atom_site_occupancy
  Y  Y0  1  0.000000  0.000000  0.000000  1
  Y  Y1  1  0.482124  0.517876  0.307651  1
  Y  Y2  1  0.517876  0.482124  0.692349  1
  Y  Y3  1  0.483309  0.962565  0.306018  1
  Y  Y4  1  0.516691  0.037435  0.693982  1
  Y  Y5  1  0.037435  0.516691  0.306018  1
  Y  Y6  1  0.962565  0.483309  0.693982  1
  Tc  Tc7  1  0.834093  0.165907  0.204198  1
  Tc  Tc8  1  0.165907  0.834093  0.795802  1
  Sn  Sn9  1  0.347599  0.996342  0.999822  1
  Sn  Sn10  1  0.652401  0.003658  0.000178  1
  Sn  Sn11  1  0.996342  0.347599  0.000178  1
  Sn  Sn12  1  0.003658  0.652401  0.999822  1
  Sn  Sn13  1  0.647806  0.647806  0.000000  1
  Sn  Sn14  1  0.352194  0.352194  0.000000  1
  Sn  Sn15  1  0.330876  0.669124  0.819065  1
  Sn  Sn16  1  0.669124  0.330876  0.180935  1
  Sn  Sn17  1  0.000000  0.000000  0.500000  1
  Sn  Sn18  1  0.779948  0.220052  0.460003  1
  Sn  Sn19  1  0.220052  0.779948  0.539997  1
  Sn  Sn20  1  0.779242  0.557886  0.458513  1
  Sn  Sn21  1  0.220758  0.442114  0.541487  1
  Sn  Sn22  1  0.442114  0.220758  0.458513  1
  Sn  Sn23  1  0.557886  0.779242  0.541487  1
  Sn  Sn24  1  0.333669  0.666331  0.122901  1
  Sn  Sn25  1  0.666331  0.333669  0.877099  1
  Sn  Sn26  1  0.118529  0.881471  0.278708  1
  Sn  Sn27  1  0.881471  0.118529  0.721292  1
  Sn  Sn28  1  0.123974  0.240324  0.273717  1
  Sn  Sn29  1  0.876026  0.759676  0.726283  1
  Sn  Sn30  1  0.759676  0.876026  0.273717  1
  Sn  Sn31  1  0.240324  0.123974  0.726283  1
  Rh  Rh32  1  0.830445  0.658771  0.199263  1
  Rh  Rh33  1  0.169555  0.341229  0.800737  1
  Rh  Rh34  1  0.341229  0.169555  0.199263  1
  Rh  Rh35  1  0.658771  0.830445  0.800737  1
