# generated using pymatgen
data_Tm4BeB7Ru10
_symmetry_space_group_name_H-M   'P 1'
_cell_length_a   3.07445800
_cell_length_b   8.72457220
_cell_length_c   10.23789210
_cell_angle_alpha   90.10916605
_cell_angle_beta   90.00000000
_cell_angle_gamma   90.00000000
_symmetry_Int_Tables_number   1
_chemical_formula_structural   Tm4BeB7Ru10
_chemical_formula_sum   'Tm4 Be1 B7 Ru10'
_cell_volume   274.61386801
_cell_formula_units_Z   1
loop_
 _symmetry_equiv_pos_site_id
 _symmetry_equiv_pos_as_xyz
  1  'x, y, z'
loop_
 _atom_site_type_symbol
 _atom_site_label
 _atom_site_symmetry_multiplicity
 _atom_site_fract_x
 _atom_site_fract_y
 _atom_site_fract_z
 _atom_site_occupancy
  Tm  Tm0  1  0.500000  0.840306  0.182903  1
  Tm  Tm1  1  0.500000  0.158368  0.818238  1
  Tm  Tm2  1  0.500000  0.657904  0.682921  1
  Tm  Tm3  1  0.500000  0.341563  0.319310  1
  Be  Be4  1  0.500000  0.965323  0.589763  1
  B  B5  1  0.500000  0.036275  0.407497  1
  B  B6  1  0.500000  0.852455  0.898795  1
  B  B7  1  0.500000  0.147262  0.099858  1
  B  B8  1  0.500000  0.650853  0.400602  1
  B  B9  1  0.500000  0.350346  0.597764  1
  B  B10  1  0.500000  0.466609  0.911330  1
  B  B11  1  0.500000  0.533104  0.088676  1
  Ru  Ru12  1  0.000000  0.655271  0.956534  1
  Ru  Ru13  1  0.000000  0.341647  0.045523  1
  Ru  Ru14  1  0.000000  0.840027  0.446713  1
  Ru  Ru15  1  0.000000  0.165665  0.542993  1
  Ru  Ru16  1  0.000000  0.000582  0.002675  1
  Ru  Ru17  1  0.000000  0.405812  0.760766  1
  Ru  Ru18  1  0.000000  0.592345  0.238671  1
  Ru  Ru19  1  0.000000  0.502100  0.499931  1
  Ru  Ru20  1  0.000000  0.900685  0.748581  1
  Ru  Ru21  1  0.000000  0.095497  0.259954  1
