# generated using pymatgen
data_Th10Ga2Sn5Bi
_symmetry_space_group_name_H-M   'P 1'
_cell_length_a   9.62260866
_cell_length_b   9.62260885
_cell_length_c   6.56085400
_cell_angle_alpha   90.00000000
_cell_angle_beta   90.00000000
_cell_angle_gamma   120.06120567
_symmetry_Int_Tables_number   1
_chemical_formula_structural   Th10Ga2Sn5Bi
_chemical_formula_sum   'Th10 Ga2 Sn5 Bi1'
_cell_volume   525.78534893
_cell_formula_units_Z   1
loop_
 _symmetry_equiv_pos_site_id
 _symmetry_equiv_pos_as_xyz
  1  'x, y, z'
loop_
 _atom_site_type_symbol
 _atom_site_label
 _atom_site_symmetry_multiplicity
 _atom_site_fract_x
 _atom_site_fract_y
 _atom_site_fract_z
 _atom_site_occupancy
  Th  Th0  1  0.736257  0.736257  0.750000  1
  Th  Th1  1  0.263346  0.996532  0.750000  1
  Th  Th2  1  0.996532  0.263346  0.750000  1
  Th  Th3  1  0.264998  0.264998  0.250000  1
  Th  Th4  1  0.734049  0.999967  0.250000  1
  Th  Th5  1  0.999967  0.734049  0.250000  1
  Th  Th6  1  0.669613  0.332434  0.001971  1
  Th  Th7  1  0.332434  0.669613  0.001971  1
  Th  Th8  1  0.332434  0.669613  0.498029  1
  Th  Th9  1  0.669613  0.332434  0.498029  1
  Ga  Ga10  1  0.001090  0.001090  0.001138  1
  Ga  Ga11  1  0.001090  0.001090  0.498862  1
  Sn  Sn12  1  0.615581  0.999221  0.750000  1
  Sn  Sn13  1  0.999221  0.615581  0.750000  1
  Sn  Sn14  1  0.616477  0.616477  0.250000  1
  Sn  Sn15  1  0.383132  0.000421  0.250000  1
  Sn  Sn16  1  0.000421  0.383132  0.250000  1
  Bi  Bi17  1  0.383745  0.383745  0.750000  1
