# generated using pymatgen
data_Yb3Lu(FeB4)4
_symmetry_space_group_name_H-M   'P 1'
_cell_length_a   3.32906200
_cell_length_b   5.87100788
_cell_length_c   11.35557664
_cell_angle_alpha   89.90826829
_cell_angle_beta   90.00000000
_cell_angle_gamma   90.00000000
_symmetry_Int_Tables_number   1
_chemical_formula_structural   Yb3Lu(FeB4)4
_chemical_formula_sum   'Yb3 Lu1 Fe4 B16'
_cell_volume   221.94388452
_cell_formula_units_Z   1
loop_
 _symmetry_equiv_pos_site_id
 _symmetry_equiv_pos_as_xyz
  1  'x, y, z'
loop_
 _atom_site_type_symbol
 _atom_site_label
 _atom_site_symmetry_multiplicity
 _atom_site_fract_x
 _atom_site_fract_y
 _atom_site_fract_z
 _atom_site_occupancy
  Yb  Yb0  1  0.000000  0.627123  0.349394  1
  Yb  Yb1  1  0.000000  0.373280  0.650129  1
  Yb  Yb2  1  0.000000  0.127270  0.151540  1
  Lu  Lu3  1  0.000000  0.873051  0.848802  1
  Fe  Fe4  1  0.000000  0.630448  0.082964  1
  Fe  Fe5  1  0.000000  0.370291  0.914190  1
  Fe  Fe6  1  0.000000  0.128996  0.417111  1
  Fe  Fe7  1  0.000000  0.871528  0.585424  1
  B  B8  1  0.500000  0.780044  0.182587  1
  B  B9  1  0.500000  0.217990  0.816908  1
  B  B10  1  0.500000  0.280268  0.317865  1
  B  B11  1  0.500000  0.718878  0.683490  1
  B  B12  1  0.500000  0.861751  0.030977  1
  B  B13  1  0.500000  0.138416  0.967531  1
  B  B14  1  0.500000  0.361261  0.468406  1
  B  B15  1  0.500000  0.638755  0.532640  1
  B  B16  1  0.500000  0.887612  0.454186  1
  B  B17  1  0.500000  0.111825  0.547213  1
  B  B18  1  0.500000  0.387959  0.046017  1
  B  B19  1  0.500000  0.612505  0.952366  1
  B  B20  1  0.500000  0.976273  0.310157  1
  B  B21  1  0.500000  0.023044  0.691405  1
  B  B22  1  0.500000  0.476685  0.189875  1
  B  B23  1  0.500000  0.524746  0.808821  1
