# generated using pymatgen
data_Sr4Ca2TaOsO12
_symmetry_space_group_name_H-M   'P 1'
_cell_length_a   5.98618555
_cell_length_b   5.83568880
_cell_length_c   10.14860015
_cell_angle_alpha   54.58592174
_cell_angle_beta   90.05073834
_cell_angle_gamma   90.16938225
_symmetry_Int_Tables_number   1
_chemical_formula_structural   Sr4Ca2TaOsO12
_chemical_formula_sum   'Sr4 Ca2 Ta1 Os1 O12'
_cell_volume   288.93234706
_cell_formula_units_Z   1
loop_
 _symmetry_equiv_pos_site_id
 _symmetry_equiv_pos_as_xyz
  1  'x, y, z'
loop_
 _atom_site_type_symbol
 _atom_site_label
 _atom_site_symmetry_multiplicity
 _atom_site_fract_x
 _atom_site_fract_y
 _atom_site_fract_z
 _atom_site_occupancy
  Sr  Sr0  1  0.043065  0.730530  0.761427  1
  Sr  Sr1  1  0.956935  0.269470  0.238573  1
  Sr  Sr2  1  0.548462  0.257370  0.758408  1
  Sr  Sr3  1  0.451538  0.742630  0.241592  1
  Ca  Ca4  1  0.500000  0.500000  0.000000  1
  Ca  Ca5  1  0.000000  0.500000  0.500000  1
  Ta  Ta6  1  0.000000  0.000000  0.000000  1
  Os  Os7  1  0.500000  0.000000  0.500000  1
  O  O8  1  0.473378  0.866376  0.719626  1
  O  O9  1  0.526622  0.133624  0.280374  1
  O  O10  1  0.963407  0.142644  0.766368  1
  O  O11  1  0.036593  0.857356  0.233632  1
  O  O12  1  0.762126  0.767892  0.551585  1
  O  O13  1  0.237874  0.232108  0.448415  1
  O  O14  1  0.273836  0.244263  0.945278  1
  O  O15  1  0.726164  0.755737  0.054722  1
  O  O16  1  0.315278  0.694490  0.543592  1
  O  O17  1  0.684722  0.305510  0.456408  1
  O  O18  1  0.806873  0.317866  0.957877  1
  O  O19  1  0.193127  0.682134  0.042123  1
