# generated using pymatgen
data_HoTm2Lu5Au4
_symmetry_space_group_name_H-M   'P 1'
_cell_length_a   4.83505900
_cell_length_b   7.02170757
_cell_length_c   8.80059514
_cell_angle_alpha   89.92179936
_cell_angle_beta   90.00000000
_cell_angle_gamma   90.00000000
_symmetry_Int_Tables_number   1
_chemical_formula_structural   HoTm2Lu5Au4
_chemical_formula_sum   'Ho1 Tm2 Lu5 Au4'
_cell_volume   298.78318631
_cell_formula_units_Z   1
loop_
 _symmetry_equiv_pos_site_id
 _symmetry_equiv_pos_as_xyz
  1  'x, y, z'
loop_
 _atom_site_type_symbol
 _atom_site_label
 _atom_site_symmetry_multiplicity
 _atom_site_fract_x
 _atom_site_fract_y
 _atom_site_fract_z
 _atom_site_occupancy
  Ho  Ho0  1  0.250000  0.982477  0.321141  1
  Tm  Tm1  1  0.750000  0.517438  0.821613  1
  Tm  Tm2  1  0.750000  0.017730  0.678611  1
  Lu  Lu3  1  0.250000  0.850222  0.923157  1
  Lu  Lu4  1  0.250000  0.350690  0.576796  1
  Lu  Lu5  1  0.750000  0.150031  0.076607  1
  Lu  Lu6  1  0.750000  0.649062  0.422869  1
  Lu  Lu7  1  0.250000  0.482285  0.178108  1
  Au  Au8  1  0.250000  0.256082  0.898268  1
  Au  Au9  1  0.250000  0.755748  0.602698  1
  Au  Au10  1  0.750000  0.743528  0.102264  1
  Au  Au11  1  0.750000  0.244706  0.397869  1
