# generated using pymatgen
data_ErU2P4Pd7
_symmetry_space_group_name_H-M   'P 1'
_cell_length_a   7.88247007
_cell_length_b   7.88247058
_cell_length_c   9.47751715
_cell_angle_alpha   55.54775028
_cell_angle_beta   55.54774924
_cell_angle_gamma   29.56935149
_symmetry_Int_Tables_number   1
_chemical_formula_structural   ErU2P4Pd7
_chemical_formula_sum   'Er1 U2 P4 Pd7'
_cell_volume   235.66201963
_cell_formula_units_Z   1
loop_
 _symmetry_equiv_pos_site_id
 _symmetry_equiv_pos_as_xyz
  1  'x, y, z'
loop_
 _atom_site_type_symbol
 _atom_site_label
 _atom_site_symmetry_multiplicity
 _atom_site_fract_x
 _atom_site_fract_y
 _atom_site_fract_z
 _atom_site_occupancy
  Er  Er0  1  0.183867  0.183867  0.816279  1
  U  U1  1  0.500191  0.500191  0.500328  1
  U  U2  1  0.812544  0.812544  0.187006  1
  P  P3  1  0.396709  0.396709  0.321486  1
  P  P4  1  0.604234  0.604234  0.676430  1
  P  P5  1  0.847480  0.847480  0.741251  1
  P  P6  1  0.152765  0.152765  0.260336  1
  Pd  Pd7  1  0.670573  0.670573  0.063129  1
  Pd  Pd8  1  0.012108  0.012108  0.204621  1
  Pd  Pd9  1  0.987660  0.987660  0.797712  1
  Pd  Pd10  1  0.500365  0.500365  0.997223  1
  Pd  Pd11  1  0.191266  0.191266  0.480847  1
  Pd  Pd12  1  0.808654  0.808654  0.524836  1
  Pd  Pd13  1  0.331584  0.331584  0.928516  1
