# generated using pymatgen
data_Dy5Mg3P12(Ir5Rh3)2
_symmetry_space_group_name_H-M   'P 1'
_cell_length_a   12.79581732
_cell_length_b   12.80072125
_cell_length_c   3.96904600
_cell_angle_alpha   90.00000000
_cell_angle_beta   90.00000000
_cell_angle_gamma   119.87566786
_symmetry_Int_Tables_number   1
_chemical_formula_structural   Dy5Mg3P12(Ir5Rh3)2
_chemical_formula_sum   'Dy5 Mg3 P12 Ir10 Rh6'
_cell_volume   563.71810153
_cell_formula_units_Z   1
loop_
 _symmetry_equiv_pos_site_id
 _symmetry_equiv_pos_as_xyz
  1  'x, y, z'
loop_
 _atom_site_type_symbol
 _atom_site_label
 _atom_site_symmetry_multiplicity
 _atom_site_fract_x
 _atom_site_fract_y
 _atom_site_fract_z
 _atom_site_occupancy
  Dy  Dy0  1  0.333650  0.666473  0.500000  1
  Dy  Dy1  1  0.666044  0.332899  0.500000  1
  Dy  Dy2  1  0.999578  0.809087  0.000000  1
  Dy  Dy3  1  0.191103  0.191153  0.000000  1
  Dy  Dy4  1  0.809046  0.999783  0.000000  1
  Mg  Mg5  1  0.000568  0.446895  0.500000  1
  Mg  Mg6  1  0.553440  0.554900  0.500000  1
  Mg  Mg7  1  0.446280  0.000148  0.500000  1
  P  P8  1  0.999920  0.642651  0.500000  1
  P  P9  1  0.358130  0.357471  0.500000  1
  P  P10  1  0.643028  0.001562  0.500000  1
  P  P11  1  0.516276  0.690553  0.000000  1
  P  P12  1  0.308969  0.824894  0.000000  1
  P  P13  1  0.175220  0.484417  0.000000  1
  P  P14  1  0.484265  0.173454  0.000000  1
  P  P15  1  0.690122  0.515578  0.000000  1
  P  P16  1  0.826014  0.311053  0.000000  1
  P  P17  1  0.000466  0.177886  0.500000  1
  P  P18  1  0.821560  0.821946  0.500000  1
  P  P19  1  0.177496  0.999795  0.500000  1
  Ir  Ir20  1  0.640231  0.130182  0.000000  1
  Ir  Ir21  1  0.000140  0.279243  0.000000  1
  Ir  Ir22  1  0.719940  0.720266  0.000000  1
  Ir  Ir23  1  0.279031  0.999603  0.000000  1
  Ir  Ir24  1  0.195786  0.821587  0.500000  1
  Ir  Ir25  1  0.178319  0.374235  0.500000  1
  Ir  Ir26  1  0.373361  0.177624  0.500000  1
  Ir  Ir27  1  0.803933  0.625774  0.500000  1
  Ir  Ir28  1  0.822596  0.196469  0.500000  1
  Ir  Ir29  1  0.999687  0.999870  0.500000  1
  Rh  Rh30  1  0.508580  0.869392  0.000000  1
  Rh  Rh31  1  0.129983  0.639463  0.000000  1
  Rh  Rh32  1  0.360668  0.490120  0.000000  1
  Rh  Rh33  1  0.490555  0.359369  0.000000  1
  Rh  Rh34  1  0.870187  0.509861  0.000000  1
  Rh  Rh35  1  0.625828  0.804342  0.500000  1
