# generated using pymatgen
data_Eu6NbMoO14
_symmetry_space_group_name_H-M   'P 1'
_cell_length_a   6.60765941
_cell_length_b   6.60765859
_cell_length_c   7.71979459
_cell_angle_alpha   90.23496848
_cell_angle_beta   89.76503382
_cell_angle_gamma   110.07082146
_symmetry_Int_Tables_number   1
_chemical_formula_structural   Eu6NbMoO14
_chemical_formula_sum   'Eu6 Nb1 Mo1 O14'
_cell_volume   316.58155400
_cell_formula_units_Z   1
loop_
 _symmetry_equiv_pos_site_id
 _symmetry_equiv_pos_as_xyz
  1  'x, y, z'
loop_
 _atom_site_type_symbol
 _atom_site_label
 _atom_site_symmetry_multiplicity
 _atom_site_fract_x
 _atom_site_fract_y
 _atom_site_fract_z
 _atom_site_occupancy
  Eu  Eu0  1  0.509747  0.509747  0.500000  1
  Eu  Eu1  1  0.491238  0.491238  0.000000  1
  Eu  Eu2  1  0.469464  0.002696  0.248985  1
  Eu  Eu3  1  0.530822  0.997344  0.755934  1
  Eu  Eu4  1  0.002696  0.469464  0.751015  1
  Eu  Eu5  1  0.997344  0.530822  0.244066  1
  Nb  Nb6  1  0.999414  0.999414  0.000000  1
  Mo  Mo7  1  0.000277  0.000277  0.500000  1
  O  O8  1  0.302287  0.060015  0.535758  1
  O  O9  1  0.685646  0.934481  0.031035  1
  O  O10  1  0.060015  0.302287  0.464242  1
  O  O11  1  0.934481  0.685646  0.968965  1
  O  O12  1  0.931032  0.690576  0.529655  1
  O  O13  1  0.074656  0.320957  0.025014  1
  O  O14  1  0.690576  0.931032  0.470345  1
  O  O15  1  0.320957  0.074656  0.974986  1
  O  O16  1  0.628894  0.371055  0.251575  1
  O  O17  1  0.371055  0.628894  0.748425  1
  O  O18  1  0.360970  0.638664  0.253013  1
  O  O19  1  0.638664  0.360970  0.746987  1
  O  O20  1  0.053795  0.945969  0.254231  1
  O  O21  1  0.945969  0.053795  0.745769  1
