# generated using pymatgen
data_HoEr3(ZnRh)4
_symmetry_space_group_name_H-M   'P 1'
_cell_length_a   4.03892000
_cell_length_b   6.92110258
_cell_length_c   8.06326723
_cell_angle_alpha   90.11696076
_cell_angle_beta   90.00000000
_cell_angle_gamma   90.00000000
_symmetry_Int_Tables_number   1
_chemical_formula_structural   HoEr3(ZnRh)4
_chemical_formula_sum   'Ho1 Er3 Zn4 Rh4'
_cell_volume   225.39832562
_cell_formula_units_Z   1
loop_
 _symmetry_equiv_pos_site_id
 _symmetry_equiv_pos_as_xyz
  1  'x, y, z'
loop_
 _atom_site_type_symbol
 _atom_site_label
 _atom_site_symmetry_multiplicity
 _atom_site_fract_x
 _atom_site_fract_y
 _atom_site_fract_z
 _atom_site_occupancy
  Ho  Ho0  1  0.250000  0.536954  0.184195  1
  Er  Er1  1  0.750000  0.463193  0.815341  1
  Er  Er2  1  0.750000  0.963516  0.684228  1
  Er  Er3  1  0.250000  0.037174  0.316181  1
  Zn  Zn4  1  0.250000  0.638468  0.564909  1
  Zn  Zn5  1  0.750000  0.361337  0.435195  1
  Zn  Zn6  1  0.750000  0.862109  0.064732  1
  Zn  Zn7  1  0.250000  0.137448  0.935074  1
  Rh  Rh8  1  0.250000  0.754626  0.877304  1
  Rh  Rh9  1  0.750000  0.244534  0.121331  1
  Rh  Rh10  1  0.750000  0.745161  0.379204  1
  Rh  Rh11  1  0.250000  0.255481  0.622306  1
