# generated using pymatgen
data_TbTm5FeBi2
_symmetry_space_group_name_H-M   'P 1'
_cell_length_a   8.23325900
_cell_length_b   8.22793351
_cell_length_c   4.14414500
_cell_angle_alpha   90.00000000
_cell_angle_beta   90.00000000
_cell_angle_gamma   120.02002034
_symmetry_Int_Tables_number   1
_chemical_formula_structural   TbTm5FeBi2
_chemical_formula_sum   'Tb1 Tm5 Fe1 Bi2'
_cell_volume   243.07510172
_cell_formula_units_Z   1
loop_
 _symmetry_equiv_pos_site_id
 _symmetry_equiv_pos_as_xyz
  1  'x, y, z'
loop_
 _atom_site_type_symbol
 _atom_site_label
 _atom_site_symmetry_multiplicity
 _atom_site_fract_x
 _atom_site_fract_y
 _atom_site_fract_z
 _atom_site_occupancy
  Tb  Tb0  1  0.611171  0.999893  0.500000  1
  Tm  Tm1  1  0.229142  0.999900  0.000000  1
  Tm  Tm2  1  0.999663  0.613360  0.500000  1
  Tm  Tm3  1  0.386229  0.386444  0.500000  1
  Tm  Tm4  1  0.772501  0.771804  0.000000  1
  Tm  Tm5  1  0.000618  0.228395  0.000000  1
  Fe  Fe6  1  0.002609  0.000321  0.500000  1
  Bi  Bi7  1  0.331353  0.664471  0.000000  1
  Bi  Bi8  1  0.666714  0.335412  0.000000  1
