# generated using pymatgen
data_La2AsS
_symmetry_space_group_name_H-M   'P 1'
_cell_length_a   7.35519032
_cell_length_b   7.35518981
_cell_length_c   7.35518927
_cell_angle_alpha   33.92546696
_cell_angle_beta   33.92547377
_cell_angle_gamma   33.92546683
_symmetry_Int_Tables_number   1
_chemical_formula_structural   La2AsS
_chemical_formula_sum   'La2 As1 S1'
_cell_volume   110.46754141
_cell_formula_units_Z   1
loop_
 _symmetry_equiv_pos_site_id
 _symmetry_equiv_pos_as_xyz
  1  'x, y, z'
loop_
 _atom_site_type_symbol
 _atom_site_label
 _atom_site_symmetry_multiplicity
 _atom_site_fract_x
 _atom_site_fract_y
 _atom_site_fract_z
 _atom_site_occupancy
  La  La0  1  0.249116  0.249116  0.249116  1
  La  La1  1  0.750884  0.750884  0.750884  1
  As  As2  1  0.000000  0.000000  0.000000  1
  S  S3  1  0.500000  0.500000  0.500000  1
