# generated using pymatgen
data_ErLuTa4C5
_symmetry_space_group_name_H-M   'P 1'
_cell_length_a   5.70508318
_cell_length_b   5.70508384
_cell_length_c   5.60248900
_cell_angle_alpha   81.67348147
_cell_angle_beta   81.67347036
_cell_angle_gamma   121.23988476
_symmetry_Int_Tables_number   1
_chemical_formula_structural   ErLuTa4C5
_chemical_formula_sum   'Er1 Lu1 Ta4 C5'
_cell_volume   148.96265408
_cell_formula_units_Z   1
loop_
 _symmetry_equiv_pos_site_id
 _symmetry_equiv_pos_as_xyz
  1  'x, y, z'
loop_
 _atom_site_type_symbol
 _atom_site_label
 _atom_site_symmetry_multiplicity
 _atom_site_fract_x
 _atom_site_fract_y
 _atom_site_fract_z
 _atom_site_occupancy
  Er  Er0  1  0.759846  0.759846  0.755753  1
  Lu  Lu1  1  0.241262  0.241262  0.245157  1
  Ta  Ta2  1  0.100725  0.452115  0.740749  1
  Ta  Ta3  1  0.548488  0.899647  0.258830  1
  Ta  Ta4  1  0.899647  0.548488  0.258830  1
  Ta  Ta5  1  0.452115  0.100725  0.740749  1
  C  C6  1  0.498842  0.498842  0.499585  1
  C  C7  1  0.677125  0.319495  0.001248  1
  C  C8  1  0.319495  0.677125  0.001248  1
  C  C9  1  0.821996  0.180460  0.498925  1
  C  C10  1  0.180460  0.821996  0.498925  1
