# generated using pymatgen
data_Tb8Y8MgCd(AgRh2)2
_symmetry_space_group_name_H-M   'P 1'
_cell_length_a   9.61085300
_cell_length_b   9.63559019
_cell_length_c   9.63477800
_cell_angle_alpha   60.00266468
_cell_angle_beta   59.91789357
_cell_angle_gamma   60.08819163
_symmetry_Int_Tables_number   1
_chemical_formula_structural   Tb8Y8MgCd(AgRh2)2
_chemical_formula_sum   'Tb8 Y8 Mg1 Cd1 Ag2 Rh4'
_cell_volume   630.94829188
_cell_formula_units_Z   1
loop_
 _symmetry_equiv_pos_site_id
 _symmetry_equiv_pos_as_xyz
  1  'x, y, z'
loop_
 _atom_site_type_symbol
 _atom_site_label
 _atom_site_symmetry_multiplicity
 _atom_site_fract_x
 _atom_site_fract_y
 _atom_site_fract_z
 _atom_site_occupancy
  Tb  Tb0  1  0.599295  0.598204  0.597915  1
  Tb  Tb1  1  0.598583  0.597599  0.205651  1
  Tb  Tb2  1  0.599939  0.204727  0.597781  1
  Tb  Tb3  1  0.190339  0.604325  0.602361  1
  Tb  Tb4  1  0.058800  0.438862  0.440537  1
  Tb  Tb5  1  0.437808  0.061459  0.062524  1
  Tb  Tb6  1  0.436475  0.061734  0.438120  1
  Tb  Tb7  1  0.058996  0.439518  0.061375  1
  Y  Y8  1  0.436441  0.436898  0.063314  1
  Y  Y9  1  0.059201  0.060088  0.440498  1
  Y  Y10  1  0.186920  0.814370  0.814692  1
  Y  Y11  1  0.814191  0.186657  0.185747  1
  Y  Y12  1  0.814371  0.188442  0.815207  1
  Y  Y13  1  0.185887  0.814098  0.186803  1
  Y  Y14  1  0.813509  0.814650  0.188624  1
  Y  Y15  1  0.185626  0.188452  0.813289  1
  Mg  Mg16  1  0.535522  0.819346  0.820302  1
  Cd  Cd17  1  0.832485  0.832784  0.831150  1
  Ag  Ag18  1  0.832469  0.835602  0.497847  1
  Ag  Ag19  1  0.832127  0.498446  0.834691  1
  Rh  Rh20  1  0.387867  0.393547  0.395413  1
  Rh  Rh21  1  0.388547  0.393568  0.822358  1
  Rh  Rh22  1  0.392607  0.821473  0.392626  1
  Rh  Rh23  1  0.821999  0.395154  0.391173  1
