# generated using pymatgen
data_Sr2Si4IrRu3
_symmetry_space_group_name_H-M   'P 1'
_cell_length_a   8.07267369
_cell_length_b   6.95126724
_cell_length_c   5.94569200
_cell_angle_alpha   77.17441976
_cell_angle_beta   56.96050009
_cell_angle_gamma   46.48852964
_symmetry_Int_Tables_number   1
_chemical_formula_structural   Sr2Si4IrRu3
_chemical_formula_sum   'Sr2 Si4 Ir1 Ru3'
_cell_volume   196.28016343
_cell_formula_units_Z   1
loop_
 _symmetry_equiv_pos_site_id
 _symmetry_equiv_pos_as_xyz
  1  'x, y, z'
loop_
 _atom_site_type_symbol
 _atom_site_label
 _atom_site_symmetry_multiplicity
 _atom_site_fract_x
 _atom_site_fract_y
 _atom_site_fract_z
 _atom_site_occupancy
  Sr  Sr0  1  0.000641  0.001018  0.999879  1
  Sr  Sr1  1  0.250039  0.249526  0.249480  1
  Si  Si2  1  0.321127  0.675133  0.317919  1
  Si  Si3  1  0.571657  0.931197  0.571975  1
  Si  Si4  1  0.676864  0.319345  0.685247  1
  Si  Si5  1  0.929424  0.573200  0.925761  1
  Ir  Ir6  1  0.621108  0.621181  0.379456  1
  Ru  Ru7  1  0.377720  0.378607  0.622610  1
  Ru  Ru8  1  0.872601  0.872181  0.627051  1
  Ru  Ru9  1  0.628824  0.628605  0.870621  1
