# generated using pymatgen
data_Tb3Al12OsRu2Pt
_symmetry_space_group_name_H-M   'P 1'
_cell_length_a   8.86758460
_cell_length_b   8.86758467
_cell_length_c   9.58159244
_cell_angle_alpha   90.10588750
_cell_angle_beta   89.89411409
_cell_angle_gamma   120.44441503
_symmetry_Int_Tables_number   1
_chemical_formula_structural   Tb3Al12OsRu2Pt
_chemical_formula_sum   'Tb6 Al24 Os2 Ru4 Pt2'
_cell_volume   649.55463730
_cell_formula_units_Z   2
loop_
 _symmetry_equiv_pos_site_id
 _symmetry_equiv_pos_as_xyz
  1  'x, y, z'
loop_
 _atom_site_type_symbol
 _atom_site_label
 _atom_site_symmetry_multiplicity
 _atom_site_fract_x
 _atom_site_fract_y
 _atom_site_fract_z
 _atom_site_occupancy
  Tb  Tb0  1  0.197450  0.387080  0.251207  1
  Tb  Tb1  1  0.802550  0.612920  0.748793  1
  Tb  Tb2  1  0.612920  0.802550  0.251207  1
  Tb  Tb3  1  0.387080  0.197450  0.748793  1
  Tb  Tb4  1  0.192329  0.807671  0.251396  1
  Tb  Tb5  1  0.807671  0.192329  0.748604  1
  Al  Al6  1  0.335586  0.664414  0.024694  1
  Al  Al7  1  0.664414  0.335586  0.975306  1
  Al  Al8  1  0.666838  0.333162  0.518626  1
  Al  Al9  1  0.333162  0.666838  0.481374  1
  Al  Al10  1  0.162482  0.326104  0.577242  1
  Al  Al11  1  0.837518  0.673896  0.422758  1
  Al  Al12  1  0.673896  0.837518  0.577242  1
  Al  Al13  1  0.833778  0.675144  0.076875  1
  Al  Al14  1  0.326104  0.162482  0.422758  1
  Al  Al15  1  0.166222  0.324856  0.923125  1
  Al  Al16  1  0.161704  0.838296  0.578798  1
  Al  Al17  1  0.324856  0.166222  0.076875  1
  Al  Al18  1  0.838296  0.161704  0.421202  1
  Al  Al19  1  0.675144  0.833778  0.923125  1
  Al  Al20  1  0.839487  0.160513  0.079662  1
  Al  Al21  1  0.160513  0.839487  0.920338  1
  Al  Al22  1  0.562870  0.124188  0.251758  1
  Al  Al23  1  0.437130  0.875812  0.748242  1
  Al  Al24  1  0.875812  0.437130  0.251758  1
  Al  Al25  1  0.124188  0.562870  0.748242  1
  Al  Al26  1  0.562591  0.437409  0.248697  1
  Al  Al27  1  0.437409  0.562591  0.751303  1
  Al  Al28  1  0.000535  0.999465  0.250375  1
  Al  Al29  1  0.999465  0.000535  0.749625  1
  Os  Os30  1  0.500000  0.500000  0.000000  1
  Os  Os31  1  0.500000  0.500000  0.500000  1
  Ru  Ru32  1  0.500000  0.000000  0.500000  1
  Ru  Ru33  1  0.000000  0.500000  0.500000  1
  Ru  Ru34  1  0.000000  0.000000  0.000000  1
  Ru  Ru35  1  0.000000  0.000000  0.500000  1
  Pt  Pt36  1  0.500000  0.000000  0.000000  1
  Pt  Pt37  1  0.000000  0.500000  0.000000  1
