# generated using pymatgen
data_Sr3Ce4Er(Si3Pd)4
_symmetry_space_group_name_H-M   'P 1'
_cell_length_a   8.31602332
_cell_length_b   8.32124393
_cell_length_c   8.52661900
_cell_angle_alpha   90.00000000
_cell_angle_beta   90.00000000
_cell_angle_gamma   120.04380495
_symmetry_Int_Tables_number   1
_chemical_formula_structural   Sr3Ce4Er(Si3Pd)4
_chemical_formula_sum   'Sr3 Ce4 Er1 Si12 Pd4'
_cell_volume   510.76316684
_cell_formula_units_Z   1
loop_
 _symmetry_equiv_pos_site_id
 _symmetry_equiv_pos_as_xyz
  1  'x, y, z'
loop_
 _atom_site_type_symbol
 _atom_site_label
 _atom_site_symmetry_multiplicity
 _atom_site_fract_x
 _atom_site_fract_y
 _atom_site_fract_z
 _atom_site_occupancy
  Sr  Sr0  1  0.500640  0.001288  0.250000  1
  Sr  Sr1  1  0.998675  0.499318  0.250000  1
  Sr  Sr2  1  0.500636  0.499318  0.250000  1
  Ce  Ce3  1  0.499508  0.999052  0.750000  1
  Ce  Ce4  1  0.000933  0.500469  0.750000  1
  Ce  Ce5  1  0.499481  0.500431  0.750000  1
  Ce  Ce6  1  0.999987  0.999978  0.250000  1
  Er  Er7  1  0.000374  0.000549  0.750000  1
  Si  Si8  1  0.163276  0.326163  0.986772  1
  Si  Si9  1  0.836685  0.673789  0.985604  1
  Si  Si10  1  0.672970  0.836377  0.987097  1
  Si  Si11  1  0.836685  0.673789  0.514396  1
  Si  Si12  1  0.327048  0.163583  0.985961  1
  Si  Si13  1  0.163276  0.326163  0.513228  1
  Si  Si14  1  0.162940  0.837227  0.986646  1
  Si  Si15  1  0.327048  0.163583  0.514039  1
  Si  Si16  1  0.836988  0.162710  0.985506  1
  Si  Si17  1  0.672970  0.836377  0.512903  1
  Si  Si18  1  0.836988  0.162710  0.514494  1
  Si  Si19  1  0.162940  0.837227  0.513354  1
  Pd  Pd20  1  0.331178  0.666252  0.986244  1
  Pd  Pd21  1  0.668799  0.333699  0.982845  1
  Pd  Pd22  1  0.668799  0.333699  0.517155  1
  Pd  Pd23  1  0.331178  0.666252  0.513756  1
