# generated using pymatgen
data_CaLa6FeBr12
_symmetry_space_group_name_H-M   'P 1'
_cell_length_a   9.78497613
_cell_length_b   9.79938068
_cell_length_c   9.40379970
_cell_angle_alpha   106.78322695
_cell_angle_beta   106.78217508
_cell_angle_gamma   107.40883918
_symmetry_Int_Tables_number   1
_chemical_formula_structural   CaLa6FeBr12
_chemical_formula_sum   'Ca1 La6 Fe1 Br12'
_cell_volume   751.09651076
_cell_formula_units_Z   1
loop_
 _symmetry_equiv_pos_site_id
 _symmetry_equiv_pos_as_xyz
  1  'x, y, z'
loop_
 _atom_site_type_symbol
 _atom_site_label
 _atom_site_symmetry_multiplicity
 _atom_site_fract_x
 _atom_site_fract_y
 _atom_site_fract_z
 _atom_site_occupancy
  Ca  Ca0  1  0.500000  0.500000  0.500000  1
  La  La1  1  0.320315  0.112283  0.023372  1
  La  La2  1  0.025421  0.321243  0.114315  1
  La  La3  1  0.098627  0.024582  0.288420  1
  La  La4  1  0.901373  0.975418  0.711581  1
  La  La5  1  0.974579  0.678758  0.885686  1
  La  La6  1  0.679686  0.887717  0.976629  1
  Fe  Fe7  1  0.000000  0.000000  0.000000  1
  Br  Br8  1  0.682453  0.213914  0.068711  1
  Br  Br9  1  0.376423  0.458609  0.164965  1
  Br  Br10  1  0.069302  0.684162  0.218824  1
  Br  Br11  1  0.784665  0.932669  0.323428  1
  Br  Br12  1  0.459693  0.174086  0.381480  1
  Br  Br13  1  0.172208  0.379535  0.466228  1
  Br  Br14  1  0.827792  0.620466  0.533772  1
  Br  Br15  1  0.540307  0.825915  0.618520  1
  Br  Br16  1  0.215336  0.067332  0.676572  1
  Br  Br17  1  0.930698  0.315838  0.781177  1
  Br  Br18  1  0.623578  0.541391  0.835035  1
  Br  Br19  1  0.317548  0.786086  0.931289  1
