# generated using pymatgen
data_Er4Cr3Fe15(NiP6)2
_symmetry_space_group_name_H-M   'P 1'
_cell_length_a   3.65208700
_cell_length_b   10.27047334
_cell_length_c   11.87896795
_cell_angle_alpha   89.90058902
_cell_angle_beta   90.00000000
_cell_angle_gamma   90.00000000
_symmetry_Int_Tables_number   1
_chemical_formula_structural   Er4Cr3Fe15(NiP6)2
_chemical_formula_sum   'Er4 Cr3 Fe15 Ni2 P12'
_cell_volume   445.56352517
_cell_formula_units_Z   1
loop_
 _symmetry_equiv_pos_site_id
 _symmetry_equiv_pos_as_xyz
  1  'x, y, z'
loop_
 _atom_site_type_symbol
 _atom_site_label
 _atom_site_symmetry_multiplicity
 _atom_site_fract_x
 _atom_site_fract_y
 _atom_site_fract_z
 _atom_site_occupancy
  Er  Er0  1  0.250000  0.577845  0.704959  1
  Er  Er1  1  0.250000  0.919555  0.206606  1
  Er  Er2  1  0.750000  0.419478  0.294030  1
  Er  Er3  1  0.750000  0.081744  0.794588  1
  Cr  Cr4  1  0.250000  0.703027  0.990202  1
  Cr  Cr5  1  0.250000  0.796865  0.490277  1
  Cr  Cr6  1  0.750000  0.297511  0.011805  1
  Fe  Fe7  1  0.750000  0.207110  0.511202  1
  Fe  Fe8  1  0.750000  0.591155  0.510826  1
  Fe  Fe9  1  0.750000  0.909195  0.011838  1
  Fe  Fe10  1  0.250000  0.219784  0.173081  1
  Fe  Fe11  1  0.250000  0.276414  0.671880  1
  Fe  Fe12  1  0.750000  0.782067  0.825191  1
  Fe  Fe13  1  0.750000  0.719382  0.325211  1
  Fe  Fe14  1  0.250000  0.873938  0.701808  1
  Fe  Fe15  1  0.250000  0.624272  0.200247  1
  Fe  Fe16  1  0.750000  0.121621  0.302666  1
  Fe  Fe17  1  0.750000  0.378816  0.801372  1
  Fe  Fe18  1  0.250000  0.464650  0.934733  1
  Fe  Fe19  1  0.250000  0.037034  0.435224  1
  Fe  Fe20  1  0.750000  0.536979  0.067538  1
  Fe  Fe21  1  0.750000  0.964721  0.568001  1
  Ni  Ni22  1  0.250000  0.402291  0.484729  1
  Ni  Ni23  1  0.250000  0.097398  0.985162  1
  P  P24  1  0.250000  0.422936  0.113751  1
  P  P25  1  0.250000  0.076319  0.614233  1
  P  P26  1  0.750000  0.577815  0.886313  1
  P  P27  1  0.750000  0.922282  0.387602  1
  P  P28  1  0.250000  0.272055  0.860170  1
  P  P29  1  0.250000  0.229729  0.362926  1
  P  P30  1  0.750000  0.736198  0.132025  1
  P  P31  1  0.750000  0.763539  0.631648  1
  P  P32  1  0.250000  0.601443  0.391262  1
  P  P33  1  0.250000  0.898876  0.892760  1
  P  P34  1  0.750000  0.396243  0.611281  1
  P  P35  1  0.750000  0.099714  0.112852  1
