# generated using pymatgen
data_Ba16Sr4Si11Au
_symmetry_space_group_name_H-M   'P 1'
_cell_length_a   8.36721600
_cell_length_b   8.36721600
_cell_length_c   16.68521700
_cell_angle_alpha   90.00000000
_cell_angle_beta   90.00000000
_cell_angle_gamma   90.00000000
_symmetry_Int_Tables_number   1
_chemical_formula_structural   Ba16Sr4Si11Au
_chemical_formula_sum   'Ba16 Sr4 Si11 Au1'
_cell_volume   1168.13710765
_cell_formula_units_Z   1
loop_
 _symmetry_equiv_pos_site_id
 _symmetry_equiv_pos_as_xyz
  1  'x, y, z'
loop_
 _atom_site_type_symbol
 _atom_site_label
 _atom_site_symmetry_multiplicity
 _atom_site_fract_x
 _atom_site_fract_y
 _atom_site_fract_z
 _atom_site_occupancy
  Ba  Ba0  1  0.307371  0.671259  0.109820  1
  Ba  Ba1  1  0.171259  0.192629  0.109820  1
  Ba  Ba2  1  0.330073  0.696955  0.390777  1
  Ba  Ba3  1  0.667420  0.695879  0.891222  1
  Ba  Ba4  1  0.196955  0.169927  0.390777  1
  Ba  Ba5  1  0.669927  0.303045  0.390777  1
  Ba  Ba6  1  0.172540  0.804603  0.609332  1
  Ba  Ba7  1  0.332580  0.304121  0.891222  1
  Ba  Ba8  1  0.195879  0.832580  0.891222  1
  Ba  Ba9  1  0.827460  0.195397  0.609332  1
  Ba  Ba10  1  0.304603  0.327460  0.609332  1
  Ba  Ba11  1  0.803045  0.830073  0.390777  1
  Ba  Ba12  1  0.804121  0.167420  0.891222  1
  Ba  Ba13  1  0.828741  0.807371  0.109820  1
  Ba  Ba14  1  0.692629  0.328741  0.109820  1
  Ba  Ba15  1  0.695397  0.672540  0.609332  1
  Sr  Sr16  1  0.500000  0.000000  0.726999  1
  Sr  Sr17  1  0.500000  0.000000  0.223000  1
  Sr  Sr18  1  0.000000  0.500000  0.277034  1
  Sr  Sr19  1  0.000000  0.500000  0.770698  1
  Si  Si20  1  0.104623  0.103183  0.751414  1
  Si  Si21  1  0.396817  0.604623  0.751414  1
  Si  Si22  1  0.602918  0.605169  0.248936  1
  Si  Si23  1  0.500000  0.000000  0.015712  1
  Si  Si24  1  0.105169  0.897082  0.248936  1
  Si  Si25  1  0.603183  0.395377  0.751414  1
  Si  Si26  1  0.895377  0.896817  0.751414  1
  Si  Si27  1  0.397082  0.394831  0.248936  1
  Si  Si28  1  0.894831  0.102918  0.248936  1
  Si  Si29  1  0.500000  0.000000  0.516919  1
  Si  Si30  1  0.000000  0.500000  0.483624  1
  Au  Au31  1  0.000000  0.500000  0.980009  1
