# generated using pymatgen
data_Ho3MnCoP6Ir7
_symmetry_space_group_name_H-M   'P 1'
_cell_length_a   3.90603200
_cell_length_b   11.13649700
_cell_length_c   12.52245300
_cell_angle_alpha   90.00000000
_cell_angle_beta   90.00000000
_cell_angle_gamma   90.00000000
_symmetry_Int_Tables_number   1
_chemical_formula_structural   Ho3MnCoP6Ir7
_chemical_formula_sum   'Ho6 Mn2 Co2 P12 Ir14'
_cell_volume   544.72061520
_cell_formula_units_Z   2
loop_
 _symmetry_equiv_pos_site_id
 _symmetry_equiv_pos_as_xyz
  1  'x, y, z'
loop_
 _atom_site_type_symbol
 _atom_site_label
 _atom_site_symmetry_multiplicity
 _atom_site_fract_x
 _atom_site_fract_y
 _atom_site_fract_z
 _atom_site_occupancy
  Ho  Ho0  1  0.000000  0.500000  0.522454  1
  Ho  Ho1  1  0.500000  0.000000  0.477408  1
  Ho  Ho2  1  0.500000  0.826710  0.198056  1
  Ho  Ho3  1  0.500000  0.173290  0.198056  1
  Ho  Ho4  1  0.000000  0.679151  0.801758  1
  Ho  Ho5  1  0.000000  0.320849  0.801758  1
  Mn  Mn6  1  0.000000  0.500000  0.000214  1
  Mn  Mn7  1  0.500000  0.000000  0.005430  1
  Co  Co8  1  0.000000  0.162105  0.003417  1
  Co  Co9  1  0.000000  0.837895  0.003417  1
  P  P10  1  0.500000  0.315247  0.620968  1
  P  P11  1  0.500000  0.684753  0.620968  1
  P  P12  1  0.000000  0.184565  0.378808  1
  P  P13  1  0.000000  0.815435  0.378808  1
  P  P14  1  0.500000  0.500000  0.887606  1
  P  P15  1  0.000000  0.000000  0.107208  1
  P  P16  1  0.500000  0.846917  0.900253  1
  P  P17  1  0.500000  0.153083  0.900253  1
  P  P18  1  0.000000  0.663926  0.100612  1
  P  P19  1  0.000000  0.336074  0.100612  1
  P  P20  1  0.500000  0.500000  0.352574  1
  P  P21  1  0.000000  0.000000  0.647479  1
  Ir  Ir22  1  0.500000  0.295991  0.428385  1
  Ir  Ir23  1  0.500000  0.704009  0.428385  1
  Ir  Ir24  1  0.000000  0.202805  0.570948  1
  Ir  Ir25  1  0.000000  0.797195  0.570948  1
  Ir  Ir26  1  0.500000  0.870886  0.717184  1
  Ir  Ir27  1  0.500000  0.129114  0.717184  1
  Ir  Ir28  1  0.000000  0.630356  0.282417  1
  Ir  Ir29  1  0.000000  0.369644  0.282417  1
  Ir  Ir30  1  0.500000  0.330641  0.996107  1
  Ir  Ir31  1  0.500000  0.669359  0.996107  1
  Ir  Ir32  1  0.500000  0.500000  0.166168  1
  Ir  Ir33  1  0.000000  0.000000  0.836230  1
  Ir  Ir34  1  0.500000  0.500000  0.703289  1
  Ir  Ir35  1  0.000000  0.000000  0.296114  1
