# generated using pymatgen
data_La10InSi4Ge
_symmetry_space_group_name_H-M   'P 1'
_cell_length_a   8.05971300
_cell_length_b   9.16019283
_cell_length_c   8.05971300
_cell_angle_alpha   116.09950807
_cell_angle_beta   90.00000000
_cell_angle_gamma   116.09950807
_symmetry_Int_Tables_number   1
_chemical_formula_structural   La10InSi4Ge
_chemical_formula_sum   'La10 In1 Si4 Ge1'
_cell_volume   465.84977169
_cell_formula_units_Z   1
loop_
 _symmetry_equiv_pos_site_id
 _symmetry_equiv_pos_as_xyz
  1  'x, y, z'
loop_
 _atom_site_type_symbol
 _atom_site_label
 _atom_site_symmetry_multiplicity
 _atom_site_fract_x
 _atom_site_fract_y
 _atom_site_fract_z
 _atom_site_occupancy
  La  La0  1  0.998131  0.996264  0.998131  1
  La  La1  1  0.501869  0.003736  0.501869  1
  La  La2  1  0.529963  0.714253  0.673167  1
  La  La3  1  0.184291  0.714253  0.041087  1
  La  La4  1  0.673167  0.714253  0.184291  1
  La  La5  1  0.041087  0.714253  0.529963  1
  La  La6  1  0.458913  0.285747  0.315709  1
  La  La7  1  0.826833  0.285747  0.970037  1
  La  La8  1  0.315709  0.285747  0.826833  1
  La  La9  1  0.970037  0.285747  0.458913  1
  In  In10  1  0.750000  0.500000  0.750000  1
  Si  Si11  1  0.887653  0.000000  0.612347  1
  Si  Si12  1  0.112347  0.000000  0.387653  1
  Si  Si13  1  0.612347  0.000000  0.112347  1
  Si  Si14  1  0.387653  0.000000  0.887653  1
  Ge  Ge15  1  0.250000  0.500000  0.250000  1
