# generated using pymatgen
data_Ti6BeSiSe
_symmetry_space_group_name_H-M   'P 1'
_cell_length_a   6.82976200
_cell_length_b   6.82976116
_cell_length_c   3.42601400
_cell_angle_alpha   90.00000000
_cell_angle_beta   90.00000000
_cell_angle_gamma   119.99999439
_symmetry_Int_Tables_number   1
_chemical_formula_structural   Ti6BeSiSe
_chemical_formula_sum   'Ti6 Be1 Si1 Se1'
_cell_volume   138.39833834
_cell_formula_units_Z   1
loop_
 _symmetry_equiv_pos_site_id
 _symmetry_equiv_pos_as_xyz
  1  'x, y, z'
loop_
 _atom_site_type_symbol
 _atom_site_label
 _atom_site_symmetry_multiplicity
 _atom_site_fract_x
 _atom_site_fract_y
 _atom_site_fract_z
 _atom_site_occupancy
  Ti  Ti0  1  0.244149  0.004176  0.500000  1
  Ti  Ti1  1  0.760027  0.755851  0.500000  1
  Ti  Ti2  1  0.995824  0.239973  0.500000  1
  Ti  Ti3  1  0.598589  0.005287  0.000000  1
  Ti  Ti4  1  0.406698  0.401411  0.000000  1
  Ti  Ti5  1  0.994713  0.593302  0.000000  1
  Be  Be6  1  0.000000  0.000000  0.000000  1
  Si  Si7  1  0.666667  0.333333  0.500000  1
  Se  Se8  1  0.333333  0.666667  0.500000  1
