# generated using pymatgen
data_TbU7B24Mo3W
_symmetry_space_group_name_H-M   'P 1'
_cell_length_a   3.69361200
_cell_length_b   9.28146437
_cell_length_c   11.37810006
_cell_angle_alpha   90.01048192
_cell_angle_beta   90.00000000
_cell_angle_gamma   90.00000000
_symmetry_Int_Tables_number   1
_chemical_formula_structural   TbU7B24Mo3W
_chemical_formula_sum   'Tb1 U7 B24 Mo3 W1'
_cell_volume   390.06547816
_cell_formula_units_Z   1
loop_
 _symmetry_equiv_pos_site_id
 _symmetry_equiv_pos_as_xyz
  1  'x, y, z'
loop_
 _atom_site_type_symbol
 _atom_site_label
 _atom_site_symmetry_multiplicity
 _atom_site_fract_x
 _atom_site_fract_y
 _atom_site_fract_z
 _atom_site_occupancy
  Tb  Tb0  1  0.000000  0.335483  0.407991  1
  U  U1  1  0.000000  0.664571  0.592413  1
  U  U2  1  0.000000  0.834690  0.092456  1
  U  U3  1  0.000000  0.165211  0.907648  1
  U  U4  1  0.000000  0.956352  0.394543  1
  U  U5  1  0.000000  0.044565  0.604836  1
  U  U6  1  0.000000  0.456196  0.105396  1
  U  U7  1  0.000000  0.543304  0.894917  1
  B  B8  1  0.500000  0.553187  0.433456  1
  B  B9  1  0.500000  0.451212  0.569098  1
  B  B10  1  0.500000  0.049595  0.066510  1
  B  B11  1  0.500000  0.950011  0.932943  1
  B  B12  1  0.500000  0.743310  0.424638  1
  B  B13  1  0.500000  0.255540  0.577115  1
  B  B14  1  0.500000  0.243484  0.075792  1
  B  B15  1  0.500000  0.756340  0.924261  1
  B  B16  1  0.500000  0.803988  0.272758  1
  B  B17  1  0.500000  0.196242  0.727594  1
  B  B18  1  0.500000  0.302777  0.225048  1
  B  B19  1  0.500000  0.696050  0.772469  1
  B  B20  1  0.500000  0.644615  0.187570  1
  B  B21  1  0.500000  0.355035  0.812771  1
  B  B22  1  0.500000  0.142834  0.311582  1
  B  B23  1  0.500000  0.855199  0.687401  1
  B  B24  1  0.500000  0.985829  0.218029  1
  B  B25  1  0.500000  0.014320  0.781427  1
  B  B26  1  0.500000  0.488090  0.280096  1
  B  B27  1  0.500000  0.514874  0.718328  1
  B  B28  1  0.500000  0.642239  0.039419  1
  B  B29  1  0.500000  0.357798  0.960814  1
  B  B30  1  0.500000  0.137812  0.461556  1
  B  B31  1  0.500000  0.857820  0.539620  1
  Mo  Mo32  1  0.000000  0.648476  0.319149  1
  Mo  Mo33  1  0.000000  0.355050  0.682751  1
  Mo  Mo34  1  0.000000  0.143067  0.177322  1
  W  W35  1  0.000000  0.854835  0.820281  1
