# generated using pymatgen
data_Tm10Al3Ir
_symmetry_space_group_name_H-M   'P 1'
_cell_length_a   9.39870300
_cell_length_b   9.39870276
_cell_length_c   9.53516000
_cell_angle_alpha   90.00000000
_cell_angle_beta   90.00000000
_cell_angle_gamma   120.00000435
_symmetry_Int_Tables_number   1
_chemical_formula_structural   Tm10Al3Ir
_chemical_formula_sum   'Tm20 Al6 Ir2'
_cell_volume   729.44816955
_cell_formula_units_Z   2
loop_
 _symmetry_equiv_pos_site_id
 _symmetry_equiv_pos_as_xyz
  1  'x, y, z'
loop_
 _atom_site_type_symbol
 _atom_site_label
 _atom_site_symmetry_multiplicity
 _atom_site_fract_x
 _atom_site_fract_y
 _atom_site_fract_z
 _atom_site_occupancy
  Tm  Tm0  1  0.000000  0.000000  0.500000  1
  Tm  Tm1  1  0.000000  0.000000  0.000000  1
  Tm  Tm2  1  0.207039  0.792961  0.441458  1
  Tm  Tm3  1  0.207039  0.414080  0.441458  1
  Tm  Tm4  1  0.585920  0.792961  0.441458  1
  Tm  Tm5  1  0.792961  0.207039  0.558542  1
  Tm  Tm6  1  0.792961  0.585920  0.558542  1
  Tm  Tm7  1  0.414080  0.207039  0.558542  1
  Tm  Tm8  1  0.792961  0.207039  0.941458  1
  Tm  Tm9  1  0.792961  0.585920  0.941458  1
  Tm  Tm10  1  0.414080  0.207039  0.941458  1
  Tm  Tm11  1  0.207039  0.792961  0.058542  1
  Tm  Tm12  1  0.207039  0.414080  0.058542  1
  Tm  Tm13  1  0.585920  0.792961  0.058542  1
  Tm  Tm14  1  0.540630  0.459370  0.250000  1
  Tm  Tm15  1  0.540630  0.081258  0.250000  1
  Tm  Tm16  1  0.918742  0.459370  0.250000  1
  Tm  Tm17  1  0.459370  0.540630  0.750000  1
  Tm  Tm18  1  0.459370  0.918742  0.750000  1
  Tm  Tm19  1  0.081258  0.540630  0.750000  1
  Al  Al20  1  0.889388  0.110612  0.250000  1
  Al  Al21  1  0.889388  0.778776  0.250000  1
  Al  Al22  1  0.221224  0.110612  0.250000  1
  Al  Al23  1  0.110612  0.889388  0.750000  1
  Al  Al24  1  0.110612  0.221224  0.750000  1
  Al  Al25  1  0.778776  0.889388  0.750000  1
  Ir  Ir26  1  0.333333  0.666667  0.250000  1
  Ir  Ir27  1  0.666667  0.333333  0.750000  1
