# generated using pymatgen
data_Y3FeCo7P6W
_symmetry_space_group_name_H-M   'P 1'
_cell_length_a   3.72963600
_cell_length_b   10.59081100
_cell_length_c   12.21584000
_cell_angle_alpha   90.00000000
_cell_angle_beta   90.00000000
_cell_angle_gamma   90.00000000
_symmetry_Int_Tables_number   1
_chemical_formula_structural   Y3FeCo7P6W
_chemical_formula_sum   'Y6 Fe2 Co14 P12 W2'
_cell_volume   482.52409163
_cell_formula_units_Z   2
loop_
 _symmetry_equiv_pos_site_id
 _symmetry_equiv_pos_as_xyz
  1  'x, y, z'
loop_
 _atom_site_type_symbol
 _atom_site_label
 _atom_site_symmetry_multiplicity
 _atom_site_fract_x
 _atom_site_fract_y
 _atom_site_fract_z
 _atom_site_occupancy
  Y  Y0  1  0.000000  0.500000  0.524433  1
  Y  Y1  1  0.500000  0.000000  0.475567  1
  Y  Y2  1  0.500000  0.819393  0.203353  1
  Y  Y3  1  0.500000  0.180607  0.203353  1
  Y  Y4  1  0.000000  0.680607  0.796647  1
  Y  Y5  1  0.000000  0.319393  0.796647  1
  Fe  Fe6  1  0.000000  0.500000  0.987659  1
  Fe  Fe7  1  0.500000  0.000000  0.012341  1
  Co  Co8  1  0.500000  0.500000  0.698891  1
  Co  Co9  1  0.000000  0.000000  0.301109  1
  Co  Co10  1  0.500000  0.331536  0.991537  1
  Co  Co11  1  0.500000  0.668464  0.991537  1
  Co  Co12  1  0.000000  0.168464  0.008463  1
  Co  Co13  1  0.000000  0.831536  0.008463  1
  Co  Co14  1  0.500000  0.294908  0.431402  1
  Co  Co15  1  0.500000  0.705092  0.431402  1
  Co  Co16  1  0.000000  0.205092  0.568598  1
  Co  Co17  1  0.000000  0.794908  0.568598  1
  Co  Co18  1  0.500000  0.878757  0.707682  1
  Co  Co19  1  0.500000  0.121243  0.707682  1
  Co  Co20  1  0.000000  0.621243  0.292318  1
  Co  Co21  1  0.000000  0.378757  0.292318  1
  P  P22  1  0.500000  0.500000  0.882422  1
  P  P23  1  0.000000  0.000000  0.117578  1
  P  P24  1  0.500000  0.500000  0.349179  1
  P  P25  1  0.000000  0.000000  0.650821  1
  P  P26  1  0.500000  0.309830  0.616403  1
  P  P27  1  0.500000  0.690170  0.616403  1
  P  P28  1  0.000000  0.190170  0.383597  1
  P  P29  1  0.000000  0.809830  0.383597  1
  P  P30  1  0.500000  0.845152  0.894257  1
  P  P31  1  0.500000  0.154848  0.894257  1
  P  P32  1  0.000000  0.654848  0.105743  1
  P  P33  1  0.000000  0.345152  0.105743  1
  W  W34  1  0.500000  0.500000  0.155262  1
  W  W35  1  0.000000  0.000000  0.844738  1
