# generated using pymatgen
data_Nd6Al24Ir4Ru3Au
_symmetry_space_group_name_H-M   'P 1'
_cell_length_a   8.93435955
_cell_length_b   8.93436101
_cell_length_c   9.64520311
_cell_angle_alpha   89.93428278
_cell_angle_beta   90.06571823
_cell_angle_gamma   119.96418367
_symmetry_Int_Tables_number   1
_chemical_formula_structural   Nd6Al24Ir4Ru3Au
_chemical_formula_sum   'Nd6 Al24 Ir4 Ru3 Au1'
_cell_volume   666.99899330
_cell_formula_units_Z   1
loop_
 _symmetry_equiv_pos_site_id
 _symmetry_equiv_pos_as_xyz
  1  'x, y, z'
loop_
 _atom_site_type_symbol
 _atom_site_label
 _atom_site_symmetry_multiplicity
 _atom_site_fract_x
 _atom_site_fract_y
 _atom_site_fract_z
 _atom_site_occupancy
  Nd  Nd0  1  0.189994  0.379634  0.249397  1
  Nd  Nd1  1  0.810006  0.620366  0.750603  1
  Nd  Nd2  1  0.620366  0.810006  0.249397  1
  Nd  Nd3  1  0.379634  0.189994  0.750603  1
  Nd  Nd4  1  0.190549  0.809451  0.253846  1
  Nd  Nd5  1  0.809451  0.190549  0.746154  1
  Al  Al6  1  0.328924  0.671076  0.024782  1
  Al  Al7  1  0.671076  0.328924  0.975218  1
  Al  Al8  1  0.665371  0.334629  0.521497  1
  Al  Al9  1  0.334629  0.665371  0.478503  1
  Al  Al10  1  0.164397  0.326692  0.572492  1
  Al  Al11  1  0.835603  0.673308  0.427508  1
  Al  Al12  1  0.673308  0.835603  0.572492  1
  Al  Al13  1  0.847379  0.677351  0.077628  1
  Al  Al14  1  0.326692  0.164397  0.427508  1
  Al  Al15  1  0.152621  0.322649  0.922372  1
  Al  Al16  1  0.163278  0.836722  0.574739  1
  Al  Al17  1  0.322649  0.152621  0.077628  1
  Al  Al18  1  0.836722  0.163278  0.425261  1
  Al  Al19  1  0.677351  0.847379  0.922372  1
  Al  Al20  1  0.836991  0.163009  0.075656  1
  Al  Al21  1  0.163009  0.836991  0.924344  1
  Al  Al22  1  0.563892  0.125791  0.249715  1
  Al  Al23  1  0.436108  0.874209  0.750285  1
  Al  Al24  1  0.874209  0.436108  0.249715  1
  Al  Al25  1  0.125791  0.563892  0.750285  1
  Al  Al26  1  0.565651  0.434349  0.258399  1
  Al  Al27  1  0.434349  0.565651  0.741601  1
  Al  Al28  1  0.999828  0.000172  0.250578  1
  Al  Al29  1  0.000172  0.999828  0.749422  1
  Ir  Ir30  1  0.500000  0.000000  0.000000  1
  Ir  Ir31  1  0.000000  0.500000  0.000000  1
  Ir  Ir32  1  0.500000  0.000000  0.500000  1
  Ir  Ir33  1  0.000000  0.500000  0.500000  1
  Ru  Ru34  1  0.500000  0.500000  0.500000  1
  Ru  Ru35  1  0.000000  0.000000  0.000000  1
  Ru  Ru36  1  0.000000  0.000000  0.500000  1
  Au  Au37  1  0.500000  0.500000  0.000000  1
