# generated using pymatgen
data_Rb3Ac(IO3)6
_symmetry_space_group_name_H-M   'P 1'
_cell_length_a   7.39224104
_cell_length_b   7.39246456
_cell_length_c   11.34883729
_cell_angle_alpha   87.41635294
_cell_angle_beta   107.13026875
_cell_angle_gamma   108.03691582
_symmetry_Int_Tables_number   1
_chemical_formula_structural   Rb3Ac(IO3)6
_chemical_formula_sum   'Rb3 Ac1 I6 O18'
_cell_volume   562.81425303
_cell_formula_units_Z   1
loop_
 _symmetry_equiv_pos_site_id
 _symmetry_equiv_pos_as_xyz
  1  'x, y, z'
loop_
 _atom_site_type_symbol
 _atom_site_label
 _atom_site_symmetry_multiplicity
 _atom_site_fract_x
 _atom_site_fract_y
 _atom_site_fract_z
 _atom_site_occupancy
  Rb  Rb0  1  0.000000  0.000000  0.000000  1
  Rb  Rb1  1  0.831448  0.033178  0.602299  1
  Rb  Rb2  1  0.168552  0.966822  0.397701  1
  Ac  Ac3  1  0.500000  0.500000  0.000000  1
  I  I4  1  0.044001  0.479700  0.198032  1
  I  I5  1  0.955999  0.520300  0.801968  1
  I  I6  1  0.570412  0.972563  0.202238  1
  I  I7  1  0.429588  0.027437  0.797762  1
  I  I8  1  0.416606  0.555398  0.626002  1
  I  I9  1  0.583394  0.444602  0.373998  1
  O  O10  1  0.864352  0.549345  0.064290  1
  O  O11  1  0.135648  0.450655  0.935710  1
  O  O12  1  0.962318  0.549264  0.320542  1
  O  O13  1  0.037682  0.450736  0.679458  1
  O  O14  1  0.933813  0.219898  0.185207  1
  O  O15  1  0.066187  0.780102  0.814793  1
  O  O16  1  0.586598  0.840414  0.071928  1
  O  O17  1  0.413402  0.159586  0.928072  1
  O  O18  1  0.307187  0.863128  0.192068  1
  O  O19  1  0.692813  0.136872  0.807932  1
  O  O20  1  0.695504  0.854481  0.330587  1
  O  O21  1  0.304496  0.145519  0.669413  1
  O  O22  1  0.522290  0.602608  0.795810  1
  O  O23  1  0.477710  0.397392  0.204190  1
  O  O24  1  0.660228  0.571976  0.604040  1
  O  O25  1  0.339772  0.428024  0.395960  1
  O  O26  1  0.407407  0.794849  0.588566  1
  O  O27  1  0.592593  0.205151  0.411434  1
