# generated using pymatgen
data_Nb7Si6Tc5
_symmetry_space_group_name_H-M   'P 1'
_cell_length_a   7.66301007
_cell_length_b   7.63802135
_cell_length_c   7.68004213
_cell_angle_alpha   126.95730935
_cell_angle_beta   127.35408379
_cell_angle_gamma   78.17860371
_symmetry_Int_Tables_number   1
_chemical_formula_structural   Nb7Si6Tc5
_chemical_formula_sum   'Nb7 Si6 Tc5'
_cell_volume   276.33071388
_cell_formula_units_Z   1
loop_
 _symmetry_equiv_pos_site_id
 _symmetry_equiv_pos_as_xyz
  1  'x, y, z'
loop_
 _atom_site_type_symbol
 _atom_site_label
 _atom_site_symmetry_multiplicity
 _atom_site_fract_x
 _atom_site_fract_y
 _atom_site_fract_z
 _atom_site_occupancy
  Nb  Nb0  1  0.551008  0.105649  0.057760  1
  Nb  Nb1  1  0.451837  0.490276  0.537193  1
  Nb  Nb2  1  0.956628  0.502978  0.046875  1
  Nb  Nb3  1  0.042709  0.087520  0.544020  1
  Nb  Nb4  1  0.747343  0.895882  0.645687  1
  Nb  Nb5  1  0.246790  0.897522  0.151278  1
  Nb  Nb6  1  0.374074  0.497584  0.125814  1
  Si  Si7  1  0.767435  0.520872  0.259331  1
  Si  Si8  1  0.244806  0.475215  0.724734  1
  Si  Si9  1  0.334735  0.837453  0.509830  1
  Si  Si10  1  0.666313  0.161771  0.498119  1
  Si  Si11  1  0.827325  0.830115  0.993910  1
  Si  Si12  1  0.160623  0.156409  0.993980  1
  Tc  Tc13  1  0.515599  0.241198  0.754541  1
  Tc  Tc14  1  0.983988  0.238792  0.227054  1
  Tc  Tc15  1  0.150743  0.752099  0.649366  1
  Tc  Tc16  1  0.873254  0.497326  0.621427  1
  Tc  Tc17  1  0.604788  0.753541  0.101279  1
