# generated using pymatgen
data_Ho2Si7(Pt3Rh)3
_symmetry_space_group_name_H-M   'P 1'
_cell_length_a   9.93389100
_cell_length_b   9.93389005
_cell_length_c   3.89363000
_cell_angle_alpha   90.00000000
_cell_angle_beta   90.00000000
_cell_angle_gamma   120.00000739
_symmetry_Int_Tables_number   1
_chemical_formula_structural   Ho2Si7(Pt3Rh)3
_chemical_formula_sum   'Ho2 Si7 Pt9 Rh3'
_cell_volume   332.75456175
_cell_formula_units_Z   1
loop_
 _symmetry_equiv_pos_site_id
 _symmetry_equiv_pos_as_xyz
  1  'x, y, z'
loop_
 _atom_site_type_symbol
 _atom_site_label
 _atom_site_symmetry_multiplicity
 _atom_site_fract_x
 _atom_site_fract_y
 _atom_site_fract_z
 _atom_site_occupancy
  Ho  Ho0  1  0.333333  0.666667  0.751423  1
  Ho  Ho1  1  0.666667  0.333333  0.250401  1
  Si  Si2  1  0.000000  0.000000  0.475734  1
  Si  Si3  1  0.400136  0.284132  0.751723  1
  Si  Si4  1  0.715868  0.116004  0.751723  1
  Si  Si5  1  0.883996  0.599864  0.751723  1
  Si  Si6  1  0.600312  0.712665  0.251143  1
  Si  Si7  1  0.287335  0.887648  0.251143  1
  Si  Si8  1  0.112352  0.399688  0.251143  1
  Pt  Pt9  1  0.454787  0.074002  0.749971  1
  Pt  Pt10  1  0.925998  0.380785  0.749971  1
  Pt  Pt11  1  0.619215  0.545213  0.749971  1
  Pt  Pt12  1  0.545823  0.925717  0.248144  1
  Pt  Pt13  1  0.074283  0.620106  0.248144  1
  Pt  Pt14  1  0.379894  0.454177  0.248144  1
  Pt  Pt15  1  0.143925  0.259972  0.752329  1
  Pt  Pt16  1  0.740028  0.883952  0.752329  1
  Pt  Pt17  1  0.116048  0.856075  0.752329  1
  Rh  Rh18  1  0.855205  0.737874  0.254170  1
  Rh  Rh19  1  0.262126  0.117331  0.254170  1
  Rh  Rh20  1  0.882669  0.144795  0.254170  1
