# generated using pymatgen
data_La7LuMg2Si8O3
_symmetry_space_group_name_H-M   'P 1'
_cell_length_a   10.68073300
_cell_length_b   10.58207481
_cell_length_c   4.47542100
_cell_angle_alpha   90.00000000
_cell_angle_beta   90.00000000
_cell_angle_gamma   120.30889868
_symmetry_Int_Tables_number   1
_chemical_formula_structural   La7LuMg2Si8O3
_chemical_formula_sum   'La7 Lu1 Mg2 Si8 O3'
_cell_volume   436.69293487
_cell_formula_units_Z   1
loop_
 _symmetry_equiv_pos_site_id
 _symmetry_equiv_pos_as_xyz
  1  'x, y, z'
loop_
 _atom_site_type_symbol
 _atom_site_label
 _atom_site_symmetry_multiplicity
 _atom_site_fract_x
 _atom_site_fract_y
 _atom_site_fract_z
 _atom_site_occupancy
  La  La0  1  0.206397  0.778246  0.000000  1
  La  La1  1  0.571850  0.778246  0.000000  1
  La  La2  1  0.784947  0.569896  0.000000  1
  La  La3  1  0.000000  0.000000  0.000000  1
  La  La4  1  0.215053  0.430104  0.000000  1
  La  La5  1  0.428150  0.221754  0.000000  1
  La  La6  1  0.793603  0.221754  0.000000  1
  Lu  Lu7  1  0.500000  0.000000  0.500000  1
  Mg  Mg8  1  0.000000  0.500000  0.500000  1
  Mg  Mg9  1  0.500000  0.500000  0.500000  1
  Si  Si10  1  0.998996  0.776752  0.500000  1
  Si  Si11  1  0.001004  0.223248  0.500000  1
  Si  Si12  1  0.222244  0.223248  0.500000  1
  Si  Si13  1  0.775179  0.000000  0.500000  1
  Si  Si14  1  0.334800  0.669602  0.500000  1
  Si  Si15  1  0.224821  0.000000  0.500000  1
  Si  Si16  1  0.665200  0.330398  0.500000  1
  Si  Si17  1  0.777756  0.776752  0.500000  1
  O  O18  1  0.000000  0.500000  0.000000  1
  O  O19  1  0.500000  0.500000  0.000000  1
  O  O20  1  0.500000  0.000000  0.000000  1
