# generated using pymatgen
data_Sc2TiB2RuRh4
_symmetry_space_group_name_H-M   'P 1'
_cell_length_a   9.44818900
_cell_length_b   9.44818900
_cell_length_c   3.05566500
_cell_angle_alpha   90.00000000
_cell_angle_beta   90.00000000
_cell_angle_gamma   90.00000000
_symmetry_Int_Tables_number   1
_chemical_formula_structural   Sc2TiB2RuRh4
_chemical_formula_sum   'Sc4 Ti2 B4 Ru2 Rh8'
_cell_volume   272.77394469
_cell_formula_units_Z   2
loop_
 _symmetry_equiv_pos_site_id
 _symmetry_equiv_pos_as_xyz
  1  'x, y, z'
loop_
 _atom_site_type_symbol
 _atom_site_label
 _atom_site_symmetry_multiplicity
 _atom_site_fract_x
 _atom_site_fract_y
 _atom_site_fract_z
 _atom_site_occupancy
  Sc  Sc0  1  0.673112  0.173112  0.000000  1
  Sc  Sc1  1  0.326888  0.826888  0.000000  1
  Sc  Sc2  1  0.173112  0.326888  0.000000  1
  Sc  Sc3  1  0.826888  0.673112  0.000000  1
  Ti  Ti4  1  0.500000  0.500000  0.000000  1
  Ti  Ti5  1  0.000000  0.000000  0.000000  1
  B  B6  1  0.121503  0.621503  0.000000  1
  B  B7  1  0.878497  0.378497  0.000000  1
  B  B8  1  0.621503  0.878497  0.000000  1
  B  B9  1  0.378497  0.121503  0.000000  1
  Ru  Ru10  1  0.500000  0.000000  0.500000  1
  Ru  Ru11  1  0.000000  0.500000  0.500000  1
  Rh  Rh12  1  0.572649  0.715789  0.500000  1
  Rh  Rh13  1  0.427351  0.284211  0.500000  1
  Rh  Rh14  1  0.072649  0.784211  0.500000  1
  Rh  Rh15  1  0.927351  0.215789  0.500000  1
  Rh  Rh16  1  0.284211  0.572649  0.500000  1
  Rh  Rh17  1  0.715789  0.427351  0.500000  1
  Rh  Rh18  1  0.215789  0.072649  0.500000  1
  Rh  Rh19  1  0.784211  0.927351  0.500000  1
