# generated using pymatgen
data_Ce2Er3Ru2
_symmetry_space_group_name_H-M   'P 1'
_cell_length_a   6.34831531
_cell_length_b   7.04717897
_cell_length_c   8.76166718
_cell_angle_alpha   95.66651995
_cell_angle_beta   111.24014938
_cell_angle_gamma   90.00000306
_symmetry_Int_Tables_number   1
_chemical_formula_structural   Ce2Er3Ru2
_chemical_formula_sum   'Ce4 Er6 Ru4'
_cell_volume   363.29425189
_cell_formula_units_Z   2
loop_
 _symmetry_equiv_pos_site_id
 _symmetry_equiv_pos_as_xyz
  1  'x, y, z'
loop_
 _atom_site_type_symbol
 _atom_site_label
 _atom_site_symmetry_multiplicity
 _atom_site_fract_x
 _atom_site_fract_y
 _atom_site_fract_z
 _atom_site_occupancy
  Ce  Ce0  1  0.793050  0.595033  0.810694  1
  Ce  Ce1  1  0.982356  0.904967  0.189306  1
  Ce  Ce2  1  0.206950  0.404967  0.189306  1
  Ce  Ce3  1  0.017644  0.095033  0.810694  1
  Er  Er4  1  0.208393  0.684049  0.567195  1
  Er  Er5  1  0.641198  0.815951  0.432805  1
  Er  Er6  1  0.791607  0.315951  0.432805  1
  Er  Er7  1  0.358802  0.184049  0.567195  1
  Er  Er8  1  0.419769  0.750000  0.000000  1
  Er  Er9  1  0.580231  0.250000  0.000000  1
  Ru  Ru10  1  0.625523  0.907230  0.778208  1
  Ru  Ru11  1  0.847314  0.592770  0.221792  1
  Ru  Ru12  1  0.374477  0.092770  0.221792  1
  Ru  Ru13  1  0.152686  0.407230  0.778208  1
