# generated using pymatgen
data_YMo3(PO4)4
_symmetry_space_group_name_H-M   'P 1'
_cell_length_a   4.88288982
_cell_length_b   7.04550884
_cell_length_c   9.06874942
_cell_angle_alpha   90.01768247
_cell_angle_beta   90.14452987
_cell_angle_gamma   89.95515892
_symmetry_Int_Tables_number   1
_chemical_formula_structural   YMo3(PO4)4
_chemical_formula_sum   'Y1 Mo3 P4 O16'
_cell_volume   311.98603592
_cell_formula_units_Z   1
loop_
 _symmetry_equiv_pos_site_id
 _symmetry_equiv_pos_as_xyz
  1  'x, y, z'
loop_
 _atom_site_type_symbol
 _atom_site_label
 _atom_site_symmetry_multiplicity
 _atom_site_fract_x
 _atom_site_fract_y
 _atom_site_fract_z
 _atom_site_occupancy
  Y  Y0  1  0.000000  0.000000  0.000000  1
  Mo  Mo1  1  0.500000  0.500000  0.500000  1
  Mo  Mo2  1  0.000000  0.500000  0.000000  1
  Mo  Mo3  1  0.500000  0.000000  0.500000  1
  P  P4  1  0.989380  0.745855  0.673998  1
  P  P5  1  0.493163  0.257224  0.818921  1
  P  P6  1  0.010620  0.254145  0.326002  1
  P  P7  1  0.506837  0.742776  0.181079  1
  O  O8  1  0.145897  0.435936  0.379343  1
  O  O9  1  0.653422  0.563623  0.129915  1
  O  O10  1  0.849597  0.931338  0.628466  1
  O  O11  1  0.369328  0.070486  0.871781  1
  O  O12  1  0.854103  0.564064  0.620657  1
  O  O13  1  0.346578  0.436377  0.870085  1
  O  O14  1  0.150403  0.068662  0.371534  1
  O  O15  1  0.630672  0.929514  0.128219  1
  O  O16  1  0.201711  0.734696  0.124519  1
  O  O17  1  0.705168  0.249518  0.385167  1
  O  O18  1  0.798289  0.265304  0.875481  1
  O  O19  1  0.294832  0.750482  0.614833  1
  O  O20  1  0.525393  0.748012  0.355590  1
  O  O21  1  0.017679  0.258916  0.152092  1
  O  O22  1  0.474607  0.251988  0.644410  1
  O  O23  1  0.982321  0.741084  0.847908  1
