# generated using pymatgen
data_Pr7Nd(Si3Pd)4
_symmetry_space_group_name_H-M   'P 1'
_cell_length_a   8.28676729
_cell_length_b   8.28676791
_cell_length_c   8.62435800
_cell_angle_alpha   90.00000000
_cell_angle_beta   90.00000000
_cell_angle_gamma   120.03048124
_symmetry_Int_Tables_number   1
_chemical_formula_structural   Pr7Nd(Si3Pd)4
_chemical_formula_sum   'Pr7 Nd1 Si12 Pd4'
_cell_volume   512.73651989
_cell_formula_units_Z   1
loop_
 _symmetry_equiv_pos_site_id
 _symmetry_equiv_pos_as_xyz
  1  'x, y, z'
loop_
 _atom_site_type_symbol
 _atom_site_label
 _atom_site_symmetry_multiplicity
 _atom_site_fract_x
 _atom_site_fract_y
 _atom_site_fract_z
 _atom_site_occupancy
  Pr  Pr0  1  0.500401  0.499599  0.250000  1
  Pr  Pr1  1  0.000819  0.500373  0.750000  1
  Pr  Pr2  1  0.999205  0.499627  0.250000  1
  Pr  Pr3  1  0.499627  0.999181  0.750000  1
  Pr  Pr4  1  0.500373  0.000795  0.250000  1
  Pr  Pr5  1  0.999995  0.000005  0.750000  1
  Pr  Pr6  1  0.000006  0.999994  0.250000  1
  Nd  Nd7  1  0.499589  0.500411  0.750000  1
  Si  Si8  1  0.834259  0.165741  0.000291  1
  Si  Si9  1  0.165738  0.834262  0.999692  1
  Si  Si10  1  0.331356  0.165863  0.999838  1
  Si  Si11  1  0.165738  0.834262  0.500308  1
  Si  Si12  1  0.668655  0.834133  0.999143  1
  Si  Si13  1  0.834259  0.165741  0.499709  1
  Si  Si14  1  0.834137  0.668644  0.999838  1
  Si  Si15  1  0.668655  0.834133  0.500857  1
  Si  Si16  1  0.165867  0.331345  0.999143  1
  Si  Si17  1  0.331356  0.165863  0.500162  1
  Si  Si18  1  0.165867  0.331345  0.500857  1
  Si  Si19  1  0.834137  0.668644  0.500162  1
  Pd  Pd20  1  0.666510  0.333490  0.998197  1
  Pd  Pd21  1  0.333469  0.666531  0.999921  1
  Pd  Pd22  1  0.333469  0.666531  0.500079  1
  Pd  Pd23  1  0.666510  0.333490  0.501803  1
