# generated using pymatgen
data_Y3TmAlPt
_symmetry_space_group_name_H-M   'P 1'
_cell_length_a   9.60053904
_cell_length_b   9.60053938
_cell_length_c   9.60053900
_cell_angle_alpha   60.00000475
_cell_angle_beta   60.00000359
_cell_angle_gamma   60.00000356
_symmetry_Int_Tables_number   1
_chemical_formula_structural   Y3TmAlPt
_chemical_formula_sum   'Y12 Tm4 Al4 Pt4'
_cell_volume   625.70828972
_cell_formula_units_Z   4
loop_
 _symmetry_equiv_pos_site_id
 _symmetry_equiv_pos_as_xyz
  1  'x, y, z'
loop_
 _atom_site_type_symbol
 _atom_site_label
 _atom_site_symmetry_multiplicity
 _atom_site_fract_x
 _atom_site_fract_y
 _atom_site_fract_z
 _atom_site_occupancy
  Y  Y0  1  0.806303  0.193697  0.193697  1
  Y  Y1  1  0.193697  0.806303  0.806303  1
  Y  Y2  1  0.193697  0.806303  0.193697  1
  Y  Y3  1  0.806303  0.193697  0.806303  1
  Y  Y4  1  0.193697  0.193697  0.806303  1
  Y  Y5  1  0.806303  0.806303  0.193697  1
  Y  Y6  1  0.937013  0.562987  0.562987  1
  Y  Y7  1  0.562987  0.937013  0.937013  1
  Y  Y8  1  0.562987  0.937013  0.562987  1
  Y  Y9  1  0.937013  0.562987  0.937013  1
  Y  Y10  1  0.562987  0.562987  0.937013  1
  Y  Y11  1  0.937013  0.937013  0.562987  1
  Tm  Tm12  1  0.353745  0.353745  0.353745  1
  Tm  Tm13  1  0.353745  0.353745  0.938764  1
  Tm  Tm14  1  0.353745  0.938764  0.353745  1
  Tm  Tm15  1  0.938764  0.353745  0.353745  1
  Al  Al16  1  0.577681  0.577681  0.577681  1
  Al  Al17  1  0.577681  0.577681  0.266958  1
  Al  Al18  1  0.577681  0.266958  0.577681  1
  Al  Al19  1  0.266958  0.577681  0.577681  1
  Pt  Pt20  1  0.144737  0.144737  0.144737  1
  Pt  Pt21  1  0.144737  0.144737  0.565788  1
  Pt  Pt22  1  0.144737  0.565788  0.144737  1
  Pt  Pt23  1  0.565788  0.144737  0.144737  1
