# generated using pymatgen
data_Tb(Ga2Pd)2
_symmetry_space_group_name_H-M   'P 1'
_cell_length_a   4.33913900
_cell_length_b   6.61870300
_cell_length_c   17.42023900
_cell_angle_alpha   90.00000000
_cell_angle_beta   90.00000000
_cell_angle_gamma   90.00000000
_symmetry_Int_Tables_number   1
_chemical_formula_structural   Tb(Ga2Pd)2
_chemical_formula_sum   'Tb4 Ga16 Pd8'
_cell_volume   500.30007171
_cell_formula_units_Z   4
loop_
 _symmetry_equiv_pos_site_id
 _symmetry_equiv_pos_as_xyz
  1  'x, y, z'
loop_
 _atom_site_type_symbol
 _atom_site_label
 _atom_site_symmetry_multiplicity
 _atom_site_fract_x
 _atom_site_fract_y
 _atom_site_fract_z
 _atom_site_occupancy
  Tb  Tb0  1  0.250000  0.511775  0.860568  1
  Tb  Tb1  1  0.750000  0.011775  0.639432  1
  Tb  Tb2  1  0.750000  0.488225  0.139432  1
  Tb  Tb3  1  0.250000  0.988225  0.360568  1
  Ga  Ga4  1  0.750000  0.271741  0.309343  1
  Ga  Ga5  1  0.750000  0.487734  0.570998  1
  Ga  Ga6  1  0.750000  0.678504  0.316228  1
  Ga  Ga7  1  0.250000  0.987734  0.929002  1
  Ga  Ga8  1  0.750000  0.335816  0.962225  1
  Ga  Ga9  1  0.250000  0.771741  0.190657  1
  Ga  Ga10  1  0.250000  0.664184  0.037775  1
  Ga  Ga11  1  0.250000  0.835816  0.537775  1
  Ga  Ga12  1  0.750000  0.228259  0.809343  1
  Ga  Ga13  1  0.250000  0.512266  0.429002  1
  Ga  Ga14  1  0.250000  0.178504  0.183772  1
  Ga  Ga15  1  0.750000  0.821496  0.816228  1
  Ga  Ga16  1  0.250000  0.728259  0.690657  1
  Ga  Ga17  1  0.750000  0.012266  0.070998  1
  Ga  Ga18  1  0.250000  0.321496  0.683772  1
  Ga  Ga19  1  0.750000  0.164184  0.462225  1
  Pd  Pd20  1  0.250000  0.246200  0.535807  1
  Pd  Pd21  1  0.750000  0.529421  0.716729  1
  Pd  Pd22  1  0.750000  0.753800  0.464193  1
  Pd  Pd23  1  0.250000  0.253800  0.035807  1
  Pd  Pd24  1  0.750000  0.746200  0.964193  1
  Pd  Pd25  1  0.250000  0.470579  0.283271  1
  Pd  Pd26  1  0.750000  0.970579  0.216729  1
  Pd  Pd27  1  0.250000  0.029421  0.783271  1
