# generated using pymatgen
data_Dy5Ho3In3Ru
_symmetry_space_group_name_H-M   'P 1'
_cell_length_a   10.40147100
_cell_length_b   10.39979762
_cell_length_c   7.03502608
_cell_angle_alpha   89.98480674
_cell_angle_beta   90.00000000
_cell_angle_gamma   120.00531966
_symmetry_Int_Tables_number   1
_chemical_formula_structural   Dy5Ho3In3Ru
_chemical_formula_sum   'Dy10 Ho6 In6 Ru2'
_cell_volume   659.01104162
_cell_formula_units_Z   2
loop_
 _symmetry_equiv_pos_site_id
 _symmetry_equiv_pos_as_xyz
  1  'x, y, z'
loop_
 _atom_site_type_symbol
 _atom_site_label
 _atom_site_symmetry_multiplicity
 _atom_site_fract_x
 _atom_site_fract_y
 _atom_site_fract_z
 _atom_site_occupancy
  Dy  Dy0  1  0.533197  0.066394  0.507812  1
  Dy  Dy1  1  0.933759  0.466778  0.508002  1
  Dy  Dy2  1  0.533020  0.466778  0.508002  1
  Dy  Dy3  1  0.466947  0.933895  0.008206  1
  Dy  Dy4  1  0.066140  0.533026  0.008140  1
  Dy  Dy5  1  0.466886  0.533026  0.008140  1
  Dy  Dy6  1  0.177178  0.354356  0.712172  1
  Dy  Dy7  1  0.645698  0.822830  0.712144  1
  Dy  Dy8  1  0.177132  0.822830  0.712144  1
  Dy  Dy9  1  0.822840  0.645679  0.212216  1
  Ho  Ho10  1  0.354426  0.177220  0.212110  1
  Ho  Ho11  1  0.822794  0.177220  0.212110  1
  Ho  Ho12  1  0.666615  0.333229  0.885167  1
  Ho  Ho13  1  0.333331  0.666663  0.384915  1
  Ho  Ho14  1  0.000034  0.000067  0.492817  1
  Ho  Ho15  1  0.000023  0.000046  0.992950  1
  In  In16  1  0.837396  0.674792  0.752465  1
  In  In17  1  0.325257  0.162631  0.752622  1
  In  In18  1  0.837374  0.162631  0.752622  1
  In  In19  1  0.162486  0.324972  0.252316  1
  In  In20  1  0.674871  0.837599  0.252422  1
  In  In21  1  0.162728  0.837599  0.252422  1
  Ru  Ru22  1  0.666557  0.333114  0.282942  1
  Ru  Ru23  1  0.333313  0.666626  0.783187  1
