# generated using pymatgen
data_Tb4Y6HgBi5
_symmetry_space_group_name_H-M   'P 1'
_cell_length_a   9.12593979
_cell_length_b   9.12593846
_cell_length_c   6.49219000
_cell_angle_alpha   90.00000000
_cell_angle_beta   90.00000000
_cell_angle_gamma   119.64096919
_symmetry_Int_Tables_number   1
_chemical_formula_structural   Tb4Y6HgBi5
_chemical_formula_sum   'Tb4 Y6 Hg1 Bi5'
_cell_volume   469.93398245
_cell_formula_units_Z   1
loop_
 _symmetry_equiv_pos_site_id
 _symmetry_equiv_pos_as_xyz
  1  'x, y, z'
loop_
 _atom_site_type_symbol
 _atom_site_label
 _atom_site_symmetry_multiplicity
 _atom_site_fract_x
 _atom_site_fract_y
 _atom_site_fract_z
 _atom_site_occupancy
  Tb  Tb0  1  0.659781  0.335603  0.998598  1
  Tb  Tb1  1  0.335603  0.659781  0.998598  1
  Tb  Tb2  1  0.335603  0.659781  0.501402  1
  Tb  Tb3  1  0.659781  0.335603  0.501402  1
  Y  Y4  1  0.753930  0.753930  0.750000  1
  Y  Y5  1  0.244288  0.009942  0.750000  1
  Y  Y6  1  0.009942  0.244288  0.750000  1
  Y  Y7  1  0.243558  0.243558  0.250000  1
  Y  Y8  1  0.757298  0.999146  0.250000  1
  Y  Y9  1  0.999146  0.757298  0.250000  1
  Hg  Hg10  1  0.391373  0.391373  0.750000  1
  Bi  Bi11  1  0.611378  0.002549  0.750000  1
  Bi  Bi12  1  0.002549  0.611378  0.750000  1
  Bi  Bi13  1  0.610563  0.610563  0.250000  1
  Bi  Bi14  1  0.389632  0.995573  0.250000  1
  Bi  Bi15  1  0.995573  0.389632  0.250000  1
