# generated using pymatgen
data_YbTm3(Rh2O7)2
_symmetry_space_group_name_H-M   'P 1'
_cell_length_a   7.18834152
_cell_length_b   7.15521530
_cell_length_c   7.15521400
_cell_angle_alpha   60.00000601
_cell_angle_beta   60.15233144
_cell_angle_gamma   60.15232978
_symmetry_Int_Tables_number   1
_chemical_formula_structural   YbTm3(Rh2O7)2
_chemical_formula_sum   'Yb1 Tm3 Rh4 O14'
_cell_volume   260.82858343
_cell_formula_units_Z   1
loop_
 _symmetry_equiv_pos_site_id
 _symmetry_equiv_pos_as_xyz
  1  'x, y, z'
loop_
 _atom_site_type_symbol
 _atom_site_label
 _atom_site_symmetry_multiplicity
 _atom_site_fract_x
 _atom_site_fract_y
 _atom_site_fract_z
 _atom_site_occupancy
  Yb  Yb0  1  0.125000  0.625000  0.625000  1
  Tm  Tm1  1  0.625000  0.625000  0.125000  1
  Tm  Tm2  1  0.625000  0.625000  0.625000  1
  Tm  Tm3  1  0.625000  0.125000  0.625000  1
  Rh  Rh4  1  0.125000  0.125000  0.125000  1
  Rh  Rh5  1  0.625000  0.125000  0.125000  1
  Rh  Rh6  1  0.125000  0.625000  0.125000  1
  Rh  Rh7  1  0.125000  0.125000  0.625000  1
  O  O8  1  0.032722  0.459397  0.459397  1
  O  O9  1  0.787225  0.788723  0.212027  1
  O  O10  1  0.787225  0.212027  0.212027  1
  O  O11  1  0.462775  0.037973  0.461277  1
  O  O12  1  0.032722  0.048482  0.459397  1
  O  O13  1  0.032722  0.459397  0.048482  1
  O  O14  1  0.741031  0.752990  0.752990  1
  O  O15  1  0.508969  0.497010  0.497010  1
  O  O16  1  0.787225  0.212027  0.788723  1
  O  O17  1  0.217278  0.790603  0.201518  1
  O  O18  1  0.217278  0.201518  0.790603  1
  O  O19  1  0.462775  0.037973  0.037973  1
  O  O20  1  0.462775  0.461277  0.037973  1
  O  O21  1  0.217278  0.790603  0.790603  1
