# generated using pymatgen
data_AsI19
_symmetry_space_group_name_H-M   'P 1'
_cell_length_a   10.36186261
_cell_length_b   10.36186343
_cell_length_c   10.36186293
_cell_angle_alpha   93.59182457
_cell_angle_beta   93.59181991
_cell_angle_gamma   93.59183203
_symmetry_Int_Tables_number   1
_chemical_formula_structural   AsI19
_chemical_formula_sum   'As1 I19'
_cell_volume   1105.69032912
_cell_formula_units_Z   1
loop_
 _symmetry_equiv_pos_site_id
 _symmetry_equiv_pos_as_xyz
  1  'x, y, z'
loop_
 _atom_site_type_symbol
 _atom_site_label
 _atom_site_symmetry_multiplicity
 _atom_site_fract_x
 _atom_site_fract_y
 _atom_site_fract_z
 _atom_site_occupancy
  As  As0  1  0.500000  0.500000  0.500000  1
  I  I1  1  0.480644  0.476925  0.219957  1
  I  I2  1  0.219957  0.480644  0.476925  1
  I  I3  1  0.476925  0.219957  0.480644  1
  I  I4  1  0.519356  0.523075  0.780043  1
  I  I5  1  0.780043  0.519356  0.523075  1
  I  I6  1  0.523075  0.780043  0.519356  1
  I  I7  1  0.000000  0.000000  0.000000  1
  I  I8  1  0.035732  0.337393  0.986367  1
  I  I9  1  0.986367  0.035732  0.337393  1
  I  I10  1  0.337393  0.986367  0.035732  1
  I  I11  1  0.964268  0.662607  0.013633  1
  I  I12  1  0.013633  0.964268  0.662607  1
  I  I13  1  0.662607  0.013633  0.964268  1
  I  I14  1  0.726050  0.580231  0.125166  1
  I  I15  1  0.125166  0.726050  0.580231  1
  I  I16  1  0.580231  0.125166  0.726050  1
  I  I17  1  0.273950  0.419769  0.874834  1
  I  I18  1  0.874834  0.273950  0.419769  1
  I  I19  1  0.419769  0.874834  0.273950  1
