# generated using pymatgen
data_Sc6Ga6RuRh11
_symmetry_space_group_name_H-M   'P 1'
_cell_length_a   4.44538800
_cell_length_b   6.21829300
_cell_length_c   13.22633300
_cell_angle_alpha   89.99933473
_cell_angle_beta   89.99992234
_cell_angle_gamma   89.99911583
_symmetry_Int_Tables_number   1
_chemical_formula_structural   Sc6Ga6RuRh11
_chemical_formula_sum   'Sc6 Ga6 Ru1 Rh11'
_cell_volume   365.61188694
_cell_formula_units_Z   1
loop_
 _symmetry_equiv_pos_site_id
 _symmetry_equiv_pos_as_xyz
  1  'x, y, z'
loop_
 _atom_site_type_symbol
 _atom_site_label
 _atom_site_symmetry_multiplicity
 _atom_site_fract_x
 _atom_site_fract_y
 _atom_site_fract_z
 _atom_site_occupancy
  Sc  Sc0  1  0.999992  0.500725  0.998430  1
  Sc  Sc1  1  0.499997  0.000468  0.166298  1
  Sc  Sc2  1  0.999987  0.499391  0.333334  1
  Sc  Sc3  1  0.500002  0.000473  0.500357  1
  Sc  Sc4  1  0.000009  0.500737  0.668245  1
  Sc  Sc5  1  0.500013  0.998220  0.833330  1
  Ga  Ga6  1  0.000002  0.998040  0.998243  1
  Ga  Ga7  1  0.500001  0.499872  0.166275  1
  Ga  Ga8  1  0.999986  0.000556  0.333338  1
  Ga  Ga9  1  0.500000  0.499869  0.500378  1
  Ga  Ga10  1  0.000015  0.998029  0.668425  1
  Ga  Ga11  1  0.499998  0.503531  0.833338  1
  Ru  Ru12  1  0.000031  0.750350  0.833351  1
  Rh  Rh13  1  0.500000  0.250363  0.000984  1
  Rh  Rh14  1  0.499996  0.749670  0.000781  1
  Rh  Rh15  1  0.999994  0.249224  0.167030  1
  Rh  Rh16  1  0.999995  0.750566  0.167368  1
  Rh  Rh17  1  0.499987  0.250539  0.333320  1
  Rh  Rh18  1  0.499985  0.749406  0.333319  1
  Rh  Rh19  1  0.999999  0.249240  0.499645  1
  Rh  Rh20  1  0.999997  0.750568  0.499306  1
  Rh  Rh21  1  0.500006  0.250375  0.665693  1
  Rh  Rh22  1  0.500011  0.749656  0.665894  1
  Rh  Rh23  1  0.000002  0.250135  0.833318  1
