# generated using pymatgen
data_YHo7(Nb3Si4)4
_symmetry_space_group_name_H-M   'P 1'
_cell_length_a   7.05999414
_cell_length_b   7.06087773
_cell_length_c   13.02272401
_cell_angle_alpha   89.99121050
_cell_angle_beta   89.99049539
_cell_angle_gamma   90.05779169
_symmetry_Int_Tables_number   1
_chemical_formula_structural   YHo7(Nb3Si4)4
_chemical_formula_sum   'Y1 Ho7 Nb12 Si16'
_cell_volume   649.17925976
_cell_formula_units_Z   1
loop_
 _symmetry_equiv_pos_site_id
 _symmetry_equiv_pos_as_xyz
  1  'x, y, z'
loop_
 _atom_site_type_symbol
 _atom_site_label
 _atom_site_symmetry_multiplicity
 _atom_site_fract_x
 _atom_site_fract_y
 _atom_site_fract_z
 _atom_site_occupancy
  Y  Y0  1  0.658413  0.001485  0.282238  1
  Ho  Ho1  1  0.998712  0.341339  0.217704  1
  Ho  Ho2  1  0.001483  0.658527  0.717811  1
  Ho  Ho3  1  0.158678  0.498852  0.467913  1
  Ho  Ho4  1  0.501513  0.841457  0.032056  1
  Ho  Ho5  1  0.841997  0.501368  0.967821  1
  Ho  Ho6  1  0.498760  0.158552  0.532345  1
  Ho  Ho7  1  0.341584  0.998462  0.782193  1
  Nb  Nb8  1  0.171229  0.171422  0.999924  1
  Nb  Nb9  1  0.828919  0.828848  0.500050  1
  Nb  Nb10  1  0.328452  0.670640  0.250072  1
  Nb  Nb11  1  0.671277  0.328887  0.749896  1
  Nb  Nb12  1  0.153066  0.992570  0.375975  1
  Nb  Nb13  1  0.846821  0.007213  0.875941  1
  Nb  Nb14  1  0.506867  0.653481  0.626430  1
  Nb  Nb15  1  0.346610  0.493033  0.873812  1
  Nb  Nb16  1  0.492699  0.346589  0.126254  1
  Nb  Nb17  1  0.652973  0.507020  0.373607  1
  Nb  Nb18  1  0.992773  0.153701  0.623979  1
  Nb  Nb19  1  0.007133  0.846444  0.123905  1
  Si  Si20  1  0.293173  0.045476  0.186235  1
  Si  Si21  1  0.706297  0.954423  0.686329  1
  Si  Si22  1  0.454044  0.793512  0.436792  1
  Si  Si23  1  0.206249  0.545552  0.063793  1
  Si  Si24  1  0.545554  0.206207  0.936295  1
  Si  Si25  1  0.793844  0.455085  0.563475  1
  Si  Si26  1  0.045686  0.293904  0.813574  1
  Si  Si27  1  0.954711  0.705507  0.313629  1
  Si  Si28  1  0.366156  0.295291  0.318203  1
  Si  Si29  1  0.633363  0.704553  0.818175  1
  Si  Si30  1  0.204504  0.867338  0.568204  1
  Si  Si31  1  0.133175  0.795357  0.931919  1
  Si  Si32  1  0.795424  0.133158  0.067907  1
  Si  Si33  1  0.867507  0.205479  0.432041  1
  Si  Si34  1  0.295401  0.366849  0.681883  1
  Si  Si35  1  0.704956  0.632418  0.181621  1
