# generated using pymatgen
data_YPa(ZnCo)2
_symmetry_space_group_name_H-M   'P 1'
_cell_length_a   3.61499000
_cell_length_b   6.96275412
_cell_length_c   8.32629864
_cell_angle_alpha   92.62182391
_cell_angle_beta   90.00000000
_cell_angle_gamma   90.00000000
_symmetry_Int_Tables_number   1
_chemical_formula_structural   YPa(ZnCo)2
_chemical_formula_sum   'Y2 Pa2 Zn4 Co4'
_cell_volume   209.35594289
_cell_formula_units_Z   2
loop_
 _symmetry_equiv_pos_site_id
 _symmetry_equiv_pos_as_xyz
  1  'x, y, z'
loop_
 _atom_site_type_symbol
 _atom_site_label
 _atom_site_symmetry_multiplicity
 _atom_site_fract_x
 _atom_site_fract_y
 _atom_site_fract_z
 _atom_site_occupancy
  Y  Y0  1  0.750000  0.953349  0.684939  1
  Y  Y1  1  0.250000  0.046651  0.315061  1
  Pa  Pa2  1  0.250000  0.538591  0.190613  1
  Pa  Pa3  1  0.750000  0.461409  0.809387  1
  Zn  Zn4  1  0.250000  0.638016  0.550945  1
  Zn  Zn5  1  0.750000  0.361984  0.449055  1
  Zn  Zn6  1  0.750000  0.869339  0.054237  1
  Zn  Zn7  1  0.250000  0.130661  0.945763  1
  Co  Co8  1  0.250000  0.712875  0.866541  1
  Co  Co9  1  0.750000  0.287125  0.133459  1
  Co  Co10  1  0.750000  0.731750  0.339979  1
  Co  Co11  1  0.250000  0.268250  0.660021  1
