# generated using pymatgen
data_Nb6AlGa(AuN)2
_symmetry_space_group_name_H-M   'P 1'
_cell_length_a   7.11507958
_cell_length_b   7.11492000
_cell_length_c   7.11486558
_cell_angle_alpha   90.00000000
_cell_angle_beta   89.84410490
_cell_angle_gamma   90.00000000
_symmetry_Int_Tables_number   1
_chemical_formula_structural   Nb6AlGa(AuN)2
_chemical_formula_sum   'Nb12 Al2 Ga2 Au4 N4'
_cell_volume   360.17608699
_cell_formula_units_Z   2
loop_
 _symmetry_equiv_pos_site_id
 _symmetry_equiv_pos_as_xyz
  1  'x, y, z'
loop_
 _atom_site_type_symbol
 _atom_site_label
 _atom_site_symmetry_multiplicity
 _atom_site_fract_x
 _atom_site_fract_y
 _atom_site_fract_z
 _atom_site_occupancy
  Nb  Nb0  1  0.785128  0.956355  0.376282  1
  Nb  Nb1  1  0.713766  0.043666  0.877475  1
  Nb  Nb2  1  0.214872  0.456355  0.123718  1
  Nb  Nb3  1  0.286234  0.543666  0.622525  1
  Nb  Nb4  1  0.956002  0.377098  0.785611  1
  Nb  Nb5  1  0.043998  0.877098  0.714389  1
  Nb  Nb6  1  0.456666  0.123404  0.214191  1
  Nb  Nb7  1  0.543334  0.623404  0.285809  1
  Nb  Nb8  1  0.376547  0.785874  0.956270  1
  Nb  Nb9  1  0.877109  0.714453  0.043588  1
  Nb  Nb10  1  0.122891  0.214453  0.456412  1
  Nb  Nb11  1  0.623453  0.285874  0.543730  1
  Al  Al12  1  0.927937  0.572065  0.427612  1
  Al  Al13  1  0.072063  0.072065  0.072388  1
  Ga  Ga14  1  0.571360  0.428636  0.928992  1
  Ga  Ga15  1  0.428640  0.928636  0.571008  1
  Au  Au16  1  0.177168  0.820104  0.318948  1
  Au  Au17  1  0.317992  0.179207  0.821963  1
  Au  Au18  1  0.822832  0.320104  0.181052  1
  Au  Au19  1  0.682008  0.679207  0.678037  1
  N  N20  1  0.876391  0.122592  0.623106  1
  N  N21  1  0.622411  0.876546  0.122943  1
  N  N22  1  0.123609  0.622592  0.876894  1
  N  N23  1  0.377589  0.376546  0.377057  1
