# generated using pymatgen
data_Y6Mn2Co13(NiP4)3
_symmetry_space_group_name_H-M   'P 1'
_cell_length_a   3.70382000
_cell_length_b   10.52348801
_cell_length_c   12.22679701
_cell_angle_alpha   90.00422047
_cell_angle_beta   90.00000000
_cell_angle_gamma   89.99999456
_symmetry_Int_Tables_number   1
_chemical_formula_structural   Y6Mn2Co13(NiP4)3
_chemical_formula_sum   'Y6 Mn2 Co13 Ni3 P12'
_cell_volume   476.56515380
_cell_formula_units_Z   1
loop_
 _symmetry_equiv_pos_site_id
 _symmetry_equiv_pos_as_xyz
  1  'x, y, z'
loop_
 _atom_site_type_symbol
 _atom_site_label
 _atom_site_symmetry_multiplicity
 _atom_site_fract_x
 _atom_site_fract_y
 _atom_site_fract_z
 _atom_site_occupancy
  Y  Y0  1  0.000000  0.499984  0.520456  1
  Y  Y1  1  0.500000  0.999828  0.479688  1
  Y  Y2  1  0.500000  0.816237  0.204157  1
  Y  Y3  1  0.500000  0.182966  0.204768  1
  Y  Y4  1  0.000000  0.684127  0.795530  1
  Y  Y5  1  0.000000  0.316366  0.795021  1
  Mn  Mn6  1  0.500000  0.499471  0.157921  1
  Mn  Mn7  1  0.000001  0.999940  0.842564  1
  Co  Co8  1  0.000000  0.498294  0.986786  1
  Co  Co9  1  0.500000  0.000396  0.014132  1
  Co  Co10  1  0.500000  0.667080  0.994791  1
  Co  Co11  1  0.000000  0.168337  0.006109  1
  Co  Co12  1  0.000001  0.833736  0.005544  1
  Co  Co13  1  0.500000  0.297442  0.431110  1
  Co  Co14  1  0.500000  0.702531  0.430933  1
  Co  Co15  1  0.000000  0.202415  0.568902  1
  Co  Co16  1  0.000000  0.797606  0.569055  1
  Co  Co17  1  0.500001  0.878975  0.710013  1
  Co  Co18  1  0.500000  0.120939  0.708789  1
  Co  Co19  1  0.999999  0.621209  0.289906  1
  Co  Co20  1  0.999999  0.379092  0.291746  1
  Ni  Ni21  1  0.500000  0.500085  0.701430  1
  Ni  Ni22  1  0.000000  0.999952  0.297796  1
  Ni  Ni23  1  0.500000  0.331683  0.992998  1
  P  P24  1  0.500000  0.502321  0.882336  1
  P  P25  1  0.000000  0.000320  0.116241  1
  P  P26  1  0.499999  0.500363  0.343992  1
  P  P27  1  0.000000  0.999956  0.656434  1
  P  P28  1  0.500000  0.309666  0.615026  1
  P  P29  1  0.500000  0.690761  0.615235  1
  P  P30  1  0.000000  0.190155  0.384820  1
  P  P31  1  0.000000  0.809392  0.384496  1
  P  P32  1  0.500001  0.847373  0.893935  1
  P  P33  1  0.500001  0.149230  0.891201  1
  P  P34  1  0.999999  0.652629  0.105865  1
  P  P35  1  0.999999  0.349143  0.110277  1
