# generated using pymatgen
data_Dy2TmAg(Pt2O7)2
_symmetry_space_group_name_H-M   'P 1'
_cell_length_a   7.31577387
_cell_length_b   7.31577422
_cell_length_c   7.18595039
_cell_angle_alpha   59.35274401
_cell_angle_beta   59.35274086
_cell_angle_gamma   59.99736148
_symmetry_Int_Tables_number   1
_chemical_formula_structural   Dy2TmAg(Pt2O7)2
_chemical_formula_sum   'Dy2 Tm1 Ag1 Pt4 O14'
_cell_volume   269.25417790
_cell_formula_units_Z   1
loop_
 _symmetry_equiv_pos_site_id
 _symmetry_equiv_pos_as_xyz
  1  'x, y, z'
loop_
 _atom_site_type_symbol
 _atom_site_label
 _atom_site_symmetry_multiplicity
 _atom_site_fract_x
 _atom_site_fract_y
 _atom_site_fract_z
 _atom_site_occupancy
  Dy  Dy0  1  0.625000  0.125000  0.625000  1
  Dy  Dy1  1  0.125000  0.625000  0.625000  1
  Tm  Tm2  1  0.625000  0.625000  0.625000  1
  Ag  Ag3  1  0.625000  0.625000  0.125000  1
  Pt  Pt4  1  0.125000  0.125000  0.125000  1
  Pt  Pt5  1  0.625000  0.125000  0.125000  1
  Pt  Pt6  1  0.125000  0.625000  0.125000  1
  Pt  Pt7  1  0.125000  0.125000  0.625000  1
  O  O8  1  0.029539  0.465812  0.471518  1
  O  O9  1  0.791848  0.791848  0.222174  1
  O  O10  1  0.792679  0.195160  0.219225  1
  O  O11  1  0.465812  0.029539  0.471518  1
  O  O12  1  0.031843  0.031843  0.471215  1
  O  O13  1  0.054840  0.457321  0.030775  1
  O  O14  1  0.743476  0.743476  0.762994  1
  O  O15  1  0.506524  0.506524  0.487006  1
  O  O16  1  0.784188  0.220461  0.778482  1
  O  O17  1  0.195160  0.792679  0.219225  1
  O  O18  1  0.218157  0.218157  0.778785  1
  O  O19  1  0.457321  0.054840  0.030775  1
  O  O20  1  0.458152  0.458152  0.027826  1
  O  O21  1  0.220461  0.784188  0.778482  1
