# generated using pymatgen
data_Pa4Bi5
_symmetry_space_group_name_H-M   'P 1'
_cell_length_a   9.77167800
_cell_length_b   9.77167767
_cell_length_c   6.35250800
_cell_angle_alpha   90.00000000
_cell_angle_beta   90.00000000
_cell_angle_gamma   120.00000113
_symmetry_Int_Tables_number   1
_chemical_formula_structural   Pa4Bi5
_chemical_formula_sum   'Pa8 Bi10'
_cell_volume   525.30813640
_cell_formula_units_Z   2
loop_
 _symmetry_equiv_pos_site_id
 _symmetry_equiv_pos_as_xyz
  1  'x, y, z'
loop_
 _atom_site_type_symbol
 _atom_site_label
 _atom_site_symmetry_multiplicity
 _atom_site_fract_x
 _atom_site_fract_y
 _atom_site_fract_z
 _atom_site_occupancy
  Pa  Pa0  1  0.000000  0.616501  0.250000  1
  Pa  Pa1  1  0.383499  0.383499  0.250000  1
  Pa  Pa2  1  0.383499  0.000000  0.750000  1
  Pa  Pa3  1  0.616501  0.616501  0.750000  1
  Pa  Pa4  1  0.616501  0.000000  0.250000  1
  Pa  Pa5  1  0.000000  0.383499  0.750000  1
  Pa  Pa6  1  0.000000  0.000000  0.000000  1
  Pa  Pa7  1  0.000000  0.000000  0.500000  1
  Bi  Bi8  1  0.000000  0.283403  0.250000  1
  Bi  Bi9  1  0.333333  0.666667  0.500000  1
  Bi  Bi10  1  0.666667  0.333333  0.000000  1
  Bi  Bi11  1  0.333333  0.666667  0.000000  1
  Bi  Bi12  1  0.283403  0.283403  0.750000  1
  Bi  Bi13  1  0.716597  0.000000  0.750000  1
  Bi  Bi14  1  0.000000  0.716597  0.750000  1
  Bi  Bi15  1  0.716597  0.716597  0.250000  1
  Bi  Bi16  1  0.283403  0.000000  0.250000  1
  Bi  Bi17  1  0.666667  0.333333  0.500000  1
