# generated using pymatgen
data_Tm2MnNiO6
_symmetry_space_group_name_H-M   'P 1'
_cell_length_a   5.21264974
_cell_length_b   5.55736121
_cell_length_c   7.52901637
_cell_angle_alpha   89.99949994
_cell_angle_beta   90.60237951
_cell_angle_gamma   89.99994940
_symmetry_Int_Tables_number   1
_chemical_formula_structural   Tm2MnNiO6
_chemical_formula_sum   'Tm4 Mn2 Ni2 O12'
_cell_volume   218.09284014
_cell_formula_units_Z   2
loop_
 _symmetry_equiv_pos_site_id
 _symmetry_equiv_pos_as_xyz
  1  'x, y, z'
loop_
 _atom_site_type_symbol
 _atom_site_label
 _atom_site_symmetry_multiplicity
 _atom_site_fract_x
 _atom_site_fract_y
 _atom_site_fract_z
 _atom_site_occupancy
  Tm  Tm0  1  0.522537  0.573182  0.247731  1
  Tm  Tm1  1  0.022540  0.926835  0.747655  1
  Tm  Tm2  1  0.477461  0.426930  0.752352  1
  Tm  Tm3  1  0.977467  0.073086  0.252285  1
  Mn  Mn4  1  0.999959  0.500028  0.000007  1
  Mn  Mn5  1  0.499993  0.000018  0.500011  1
  Ni  Ni6  1  0.999983  0.499827  0.499919  1
  Ni  Ni7  1  0.500013  0.999969  0.999893  1
  O  O8  1  0.119376  0.455201  0.241515  1
  O  O9  1  0.619362  0.044820  0.741513  1
  O  O10  1  0.880667  0.544789  0.758492  1
  O  O11  1  0.380669  0.955243  0.258485  1
  O  O12  1  0.299759  0.687027  0.943652  1
  O  O13  1  0.799778  0.812999  0.443673  1
  O  O14  1  0.700232  0.313047  0.056388  1
  O  O15  1  0.200252  0.186985  0.556390  1
  O  O16  1  0.818061  0.793308  0.064498  1
  O  O17  1  0.318038  0.706698  0.564491  1
  O  O18  1  0.181932  0.206715  0.935525  1
  O  O19  1  0.681919  0.293291  0.435527  1
