# generated using pymatgen
data_Pm2Tc2SbO12
_symmetry_space_group_name_H-M   'P 1'
_cell_length_a   6.90140097
_cell_length_b   7.24684309
_cell_length_c   11.76603823
_cell_angle_alpha   80.01555752
_cell_angle_beta   77.26368448
_cell_angle_gamma   112.98275147
_symmetry_Int_Tables_number   1
_chemical_formula_structural   Pm2Tc2SbO12
_chemical_formula_sum   'Pm4 Tc4 Sb2 O24'
_cell_volume   505.88006470
_cell_formula_units_Z   2
loop_
 _symmetry_equiv_pos_site_id
 _symmetry_equiv_pos_as_xyz
  1  'x, y, z'
loop_
 _atom_site_type_symbol
 _atom_site_label
 _atom_site_symmetry_multiplicity
 _atom_site_fract_x
 _atom_site_fract_y
 _atom_site_fract_z
 _atom_site_occupancy
  Pm  Pm0  1  0.184860  0.453079  0.597431  1
  Pm  Pm1  1  0.815140  0.546921  0.402569  1
  Pm  Pm2  1  0.564702  0.824009  0.904253  1
  Pm  Pm3  1  0.435298  0.175991  0.095747  1
  Tc  Tc4  1  0.711916  0.007790  0.532578  1
  Tc  Tc5  1  0.288084  0.992210  0.467422  1
  Tc  Tc6  1  0.552893  0.372667  0.755318  1
  Tc  Tc7  1  0.447107  0.627333  0.244682  1
  Sb  Sb8  1  0.016261  0.306910  0.954650  1
  Sb  Sb9  1  0.983739  0.693090  0.045350  1
  O  O10  1  0.547873  0.474424  0.603615  1
  O  O11  1  0.452127  0.525576  0.396385  1
  O  O12  1  0.526549  0.469166  0.884280  1
  O  O13  1  0.473451  0.530834  0.115720  1
  O  O14  1  0.446000  0.103461  0.795658  1
  O  O15  1  0.554000  0.896539  0.204342  1
  O  O16  1  0.840377  0.452104  0.714082  1
  O  O17  1  0.159623  0.547896  0.285918  1
  O  O18  1  0.724115  0.147663  0.942821  1
  O  O19  1  0.275885  0.852337  0.057179  1
  O  O20  1  0.895513  0.283507  0.520857  1
  O  O21  1  0.104487  0.716493  0.479143  1
  O  O22  1  0.396777  0.831979  0.573845  1
  O  O23  1  0.603223  0.168021  0.426155  1
  O  O24  1  0.179129  0.617836  0.914250  1
  O  O25  1  0.820871  0.382164  0.085750  1
  O  O26  1  0.194980  0.330334  0.789792  1
  O  O27  1  0.805020  0.669666  0.210208  1
  O  O28  1  0.693722  0.901923  0.688155  1
  O  O29  1  0.306278  0.098077  0.311845  1
  O  O30  1  0.877778  0.826096  0.938807  1
  O  O31  1  0.122222  0.173904  0.061193  1
  O  O32  1  0.164754  0.101212  0.561184  1
  O  O33  1  0.835246  0.898788  0.438816  1
