# generated using pymatgen
data_Dy2Ho2Si4Ir3Os
_symmetry_space_group_name_H-M   'P 1'
_cell_length_a   4.26517000
_cell_length_b   6.88761565
_cell_length_c   7.34521154
_cell_angle_alpha   90.13180315
_cell_angle_beta   90.00000000
_cell_angle_gamma   90.00000000
_symmetry_Int_Tables_number   1
_chemical_formula_structural   Dy2Ho2Si4Ir3Os
_chemical_formula_sum   'Dy2 Ho2 Si4 Ir3 Os1'
_cell_volume   215.77861871
_cell_formula_units_Z   1
loop_
 _symmetry_equiv_pos_site_id
 _symmetry_equiv_pos_as_xyz
  1  'x, y, z'
loop_
 _atom_site_type_symbol
 _atom_site_label
 _atom_site_symmetry_multiplicity
 _atom_site_fract_x
 _atom_site_fract_y
 _atom_site_fract_z
 _atom_site_occupancy
  Dy  Dy0  1  0.250000  0.994301  0.314136  1
  Dy  Dy1  1  0.250000  0.499381  0.184636  1
  Ho  Ho2  1  0.750000  0.502219  0.814212  1
  Ho  Ho3  1  0.750000  0.003190  0.687586  1
  Si  Si4  1  0.250000  0.799390  0.883454  1
  Si  Si5  1  0.250000  0.301773  0.609368  1
  Si  Si6  1  0.750000  0.200134  0.111384  1
  Si  Si7  1  0.750000  0.700063  0.396618  1
  Ir  Ir8  1  0.250000  0.158496  0.933123  1
  Ir  Ir9  1  0.750000  0.842900  0.065551  1
  Ir  Ir10  1  0.750000  0.341982  0.433439  1
  Os  Os11  1  0.250000  0.656170  0.566493  1
