# generated using pymatgen
data_Nd5Co4(P4Ru5)3
_symmetry_space_group_name_H-M   'P 1'
_cell_length_a   12.57320600
_cell_length_b   12.57320530
_cell_length_c   3.90884100
_cell_angle_alpha   90.00000000
_cell_angle_beta   90.00000000
_cell_angle_gamma   120.00000183
_symmetry_Int_Tables_number   1
_chemical_formula_structural   Nd5Co4(P4Ru5)3
_chemical_formula_sum   'Nd5 Co4 P12 Ru15'
_cell_volume   535.14400785
_cell_formula_units_Z   1
loop_
 _symmetry_equiv_pos_site_id
 _symmetry_equiv_pos_as_xyz
  1  'x, y, z'
loop_
 _atom_site_type_symbol
 _atom_site_label
 _atom_site_symmetry_multiplicity
 _atom_site_fract_x
 _atom_site_fract_y
 _atom_site_fract_z
 _atom_site_occupancy
  Nd  Nd0  1  0.666667  0.333333  0.000000  1
  Nd  Nd1  1  0.333333  0.666667  0.000000  1
  Nd  Nd2  1  0.182781  0.182781  0.500000  1
  Nd  Nd3  1  0.817219  0.000000  0.500000  1
  Nd  Nd4  1  0.000000  0.817219  0.500000  1
  Co  Co5  1  0.717588  0.717588  0.500000  1
  Co  Co6  1  0.282412  0.000000  0.500000  1
  Co  Co7  1  0.000000  0.282412  0.500000  1
  Co  Co8  1  0.000000  0.000000  0.000000  1
  P  P9  1  0.373061  0.373061  0.000000  1
  P  P10  1  0.626939  0.000000  0.000000  1
  P  P11  1  0.000000  0.626939  0.000000  1
  P  P12  1  0.838209  0.310815  0.500000  1
  P  P13  1  0.689185  0.527394  0.500000  1
  P  P14  1  0.472606  0.161791  0.500000  1
  P  P15  1  0.310815  0.838209  0.500000  1
  P  P16  1  0.527394  0.689185  0.500000  1
  P  P17  1  0.161791  0.472606  0.500000  1
  P  P18  1  0.818230  0.818230  0.000000  1
  P  P19  1  0.181770  0.000000  0.000000  1
  P  P20  1  0.000000  0.181770  0.000000  1
  Ru  Ru21  1  0.821851  0.195641  0.000000  1
  Ru  Ru22  1  0.804359  0.626209  0.000000  1
  Ru  Ru23  1  0.373791  0.178149  0.000000  1
  Ru  Ru24  1  0.195641  0.821851  0.000000  1
  Ru  Ru25  1  0.626209  0.804359  0.000000  1
  Ru  Ru26  1  0.178149  0.373791  0.000000  1
  Ru  Ru27  1  0.556978  0.556978  0.000000  1
  Ru  Ru28  1  0.443022  0.000000  0.000000  1
  Ru  Ru29  1  0.000000  0.443022  0.000000  1
  Ru  Ru30  1  0.638059  0.125262  0.500000  1
  Ru  Ru31  1  0.874738  0.512798  0.500000  1
  Ru  Ru32  1  0.487202  0.361941  0.500000  1
  Ru  Ru33  1  0.125262  0.638059  0.500000  1
  Ru  Ru34  1  0.512798  0.874738  0.500000  1
  Ru  Ru35  1  0.361941  0.487202  0.500000  1
