# generated using pymatgen
data_Ho2TmLu7(CoSb2)2
_symmetry_space_group_name_H-M   'P 1'
_cell_length_a   7.70267200
_cell_length_b   8.71932900
_cell_length_c   11.98193700
_cell_angle_alpha   90.00000000
_cell_angle_beta   90.00000000
_cell_angle_gamma   90.00000000
_symmetry_Int_Tables_number   1
_chemical_formula_structural   Ho2TmLu7(CoSb2)2
_chemical_formula_sum   'Ho4 Tm2 Lu14 Co4 Sb8'
_cell_volume   804.73242659
_cell_formula_units_Z   2
loop_
 _symmetry_equiv_pos_site_id
 _symmetry_equiv_pos_as_xyz
  1  'x, y, z'
loop_
 _atom_site_type_symbol
 _atom_site_label
 _atom_site_symmetry_multiplicity
 _atom_site_fract_x
 _atom_site_fract_y
 _atom_site_fract_z
 _atom_site_occupancy
  Ho  Ho0  1  0.623001  0.750000  0.307784  1
  Ho  Ho1  1  0.123001  0.250000  0.192216  1
  Ho  Ho2  1  0.377217  0.250000  0.692179  1
  Ho  Ho3  1  0.877217  0.750000  0.807821  1
  Tm  Tm4  1  0.156440  0.750000  0.204257  1
  Tm  Tm5  1  0.656440  0.250000  0.295743  1
  Lu  Lu6  1  0.843669  0.250000  0.795992  1
  Lu  Lu7  1  0.343669  0.750000  0.704008  1
  Lu  Lu8  1  0.448344  0.750000  0.997525  1
  Lu  Lu9  1  0.948344  0.250000  0.502475  1
  Lu  Lu10  1  0.551965  0.250000  0.002138  1
  Lu  Lu11  1  0.051965  0.750000  0.497862  1
  Lu  Lu12  1  0.823902  0.962088  0.065392  1
  Lu  Lu13  1  0.323902  0.037912  0.434608  1
  Lu  Lu14  1  0.175953  0.461919  0.934408  1
  Lu  Lu15  1  0.675953  0.538081  0.565592  1
  Lu  Lu16  1  0.175953  0.038081  0.934408  1
  Lu  Lu17  1  0.675953  0.961919  0.565592  1
  Lu  Lu18  1  0.823902  0.537912  0.065392  1
  Lu  Lu19  1  0.323902  0.462088  0.434608  1
  Co  Co20  1  0.430450  0.750000  0.491276  1
  Co  Co21  1  0.930450  0.250000  0.008724  1
  Co  Co22  1  0.569331  0.250000  0.508998  1
  Co  Co23  1  0.069331  0.750000  0.991002  1
  Sb  Sb24  1  0.931945  0.991677  0.328620  1
  Sb  Sb25  1  0.431945  0.008323  0.171380  1
  Sb  Sb26  1  0.067991  0.491639  0.671597  1
  Sb  Sb27  1  0.567991  0.508361  0.828403  1
  Sb  Sb28  1  0.067991  0.008361  0.671597  1
  Sb  Sb29  1  0.567991  0.991639  0.828403  1
  Sb  Sb30  1  0.931945  0.508323  0.328620  1
  Sb  Sb31  1  0.431945  0.491677  0.171380  1
