# generated using pymatgen
data_DyHo7(AlRh)2
_symmetry_space_group_name_H-M   'P 1'
_cell_length_a   9.49464681
_cell_length_b   9.49463589
_cell_length_c   9.49228202
_cell_angle_alpha   60.00870288
_cell_angle_beta   60.00863934
_cell_angle_gamma   59.98305948
_symmetry_Int_Tables_number   1
_chemical_formula_structural   DyHo7(AlRh)2
_chemical_formula_sum   'Dy2 Ho14 Al4 Rh4'
_cell_volume   605.08170766
_cell_formula_units_Z   2
loop_
 _symmetry_equiv_pos_site_id
 _symmetry_equiv_pos_as_xyz
  1  'x, y, z'
loop_
 _atom_site_type_symbol
 _atom_site_label
 _atom_site_symmetry_multiplicity
 _atom_site_fract_x
 _atom_site_fract_y
 _atom_site_fract_z
 _atom_site_occupancy
  Dy  Dy0  1  0.936264  0.936254  0.563741  1
  Dy  Dy1  1  0.563739  0.563750  0.936249  1
  Ho  Ho2  1  0.693101  0.693102  0.306900  1
  Ho  Ho3  1  0.147629  0.557477  0.147442  1
  Ho  Ho4  1  0.692938  0.307068  0.692930  1
  Ho  Ho5  1  0.147432  0.147443  0.147627  1
  Ho  Ho6  1  0.557473  0.147631  0.147451  1
  Ho  Ho7  1  0.692930  0.307079  0.307063  1
  Ho  Ho8  1  0.147437  0.147433  0.557503  1
  Ho  Ho9  1  0.307083  0.692927  0.307065  1
  Ho  Ho10  1  0.307084  0.692924  0.692921  1
  Ho  Ho11  1  0.936900  0.563104  0.563109  1
  Ho  Ho12  1  0.936896  0.563107  0.936882  1
  Ho  Ho13  1  0.563107  0.936900  0.563109  1
  Ho  Ho14  1  0.563100  0.936903  0.936890  1
  Ho  Ho15  1  0.306924  0.306919  0.693078  1
  Al  Al16  1  0.922121  0.922117  0.233412  1
  Al  Al17  1  0.233396  0.922359  0.922123  1
  Al  Al18  1  0.922123  0.922113  0.922350  1
  Al  Al19  1  0.922356  0.233407  0.922122  1
  Rh  Rh20  1  0.357109  0.357093  0.928206  1
  Rh  Rh21  1  0.357571  0.928206  0.357109  1
  Rh  Rh22  1  0.928202  0.357582  0.357118  1
  Rh  Rh23  1  0.357086  0.357099  0.357596  1
