# generated using pymatgen
data_Lu3Ta2Nb(B2Ru5)2
_symmetry_space_group_name_H-M   'P 1'
_cell_length_a   9.55094834
_cell_length_b   9.55094828
_cell_length_c   3.10355500
_cell_angle_alpha   90.00000000
_cell_angle_beta   90.00000000
_cell_angle_gamma   90.15303989
_symmetry_Int_Tables_number   1
_chemical_formula_structural   Lu3Ta2Nb(B2Ru5)2
_chemical_formula_sum   'Lu3 Ta2 Nb1 B4 Ru10'
_cell_volume   283.10718164
_cell_formula_units_Z   1
loop_
 _symmetry_equiv_pos_site_id
 _symmetry_equiv_pos_as_xyz
  1  'x, y, z'
loop_
 _atom_site_type_symbol
 _atom_site_label
 _atom_site_symmetry_multiplicity
 _atom_site_fract_x
 _atom_site_fract_y
 _atom_site_fract_z
 _atom_site_occupancy
  Lu  Lu0  1  0.824300  0.674871  0.000000  1
  Lu  Lu1  1  0.174871  0.324300  0.000000  1
  Lu  Lu2  1  0.325661  0.825661  0.000000  1
  Ta  Ta3  1  0.498309  0.503594  0.000000  1
  Ta  Ta4  1  0.003594  0.998309  0.000000  1
  Nb  Nb5  1  0.674981  0.174981  0.000000  1
  B  B6  1  0.623339  0.880385  0.000000  1
  B  B7  1  0.380385  0.123339  0.000000  1
  B  B8  1  0.118964  0.618964  0.000000  1
  B  B9  1  0.877032  0.377032  0.000000  1
  Ru  Ru10  1  0.571338  0.721142  0.500000  1
  Ru  Ru11  1  0.439170  0.281179  0.500000  1
  Ru  Ru12  1  0.069662  0.780645  0.500000  1
  Ru  Ru13  1  0.917564  0.213566  0.500000  1
  Ru  Ru14  1  0.280645  0.569662  0.500000  1
  Ru  Ru15  1  0.713566  0.417564  0.500000  1
  Ru  Ru16  1  0.221142  0.071338  0.500000  1
  Ru  Ru17  1  0.781179  0.939170  0.500000  1
  Ru  Ru18  1  0.507864  0.007864  0.500000  1
  Ru  Ru19  1  0.996433  0.496433  0.500000  1
