# generated using pymatgen
data_LiTb3(P3Ir4)2
_symmetry_space_group_name_H-M   'P 1'
_cell_length_a   3.96944700
_cell_length_b   11.31173800
_cell_length_c   12.74973200
_cell_angle_alpha   90.00000000
_cell_angle_beta   90.00000000
_cell_angle_gamma   90.00000000
_symmetry_Int_Tables_number   1
_chemical_formula_structural   LiTb3(P3Ir4)2
_chemical_formula_sum   'Li2 Tb6 P12 Ir16'
_cell_volume   572.48010842
_cell_formula_units_Z   2
loop_
 _symmetry_equiv_pos_site_id
 _symmetry_equiv_pos_as_xyz
  1  'x, y, z'
loop_
 _atom_site_type_symbol
 _atom_site_label
 _atom_site_symmetry_multiplicity
 _atom_site_fract_x
 _atom_site_fract_y
 _atom_site_fract_z
 _atom_site_occupancy
  Li  Li0  1  0.500000  0.500000  0.155804  1
  Li  Li1  1  0.000000  0.000000  0.844196  1
  Tb  Tb2  1  0.000000  0.500000  0.516227  1
  Tb  Tb3  1  0.500000  0.000000  0.483773  1
  Tb  Tb4  1  0.500000  0.817310  0.203343  1
  Tb  Tb5  1  0.500000  0.182690  0.203343  1
  Tb  Tb6  1  0.000000  0.682690  0.796657  1
  Tb  Tb7  1  0.000000  0.317310  0.796657  1
  P  P8  1  0.500000  0.500000  0.880749  1
  P  P9  1  0.000000  0.000000  0.119251  1
  P  P10  1  0.500000  0.500000  0.344377  1
  P  P11  1  0.000000  0.000000  0.655623  1
  P  P12  1  0.500000  0.313198  0.618126  1
  P  P13  1  0.500000  0.686802  0.618126  1
  P  P14  1  0.000000  0.186802  0.381874  1
  P  P15  1  0.000000  0.813198  0.381874  1
  P  P16  1  0.500000  0.843403  0.892229  1
  P  P17  1  0.500000  0.156597  0.892229  1
  P  P18  1  0.000000  0.656597  0.107771  1
  P  P19  1  0.000000  0.343403  0.107771  1
  Ir  Ir20  1  0.500000  0.500000  0.700421  1
  Ir  Ir21  1  0.000000  0.000000  0.299579  1
  Ir  Ir22  1  0.000000  0.500000  0.981807  1
  Ir  Ir23  1  0.500000  0.000000  0.018193  1
  Ir  Ir24  1  0.500000  0.332826  0.994902  1
  Ir  Ir25  1  0.500000  0.667174  0.994902  1
  Ir  Ir26  1  0.000000  0.167174  0.005098  1
  Ir  Ir27  1  0.000000  0.832826  0.005098  1
  Ir  Ir28  1  0.500000  0.290289  0.429659  1
  Ir  Ir29  1  0.500000  0.709711  0.429659  1
  Ir  Ir30  1  0.000000  0.209711  0.570341  1
  Ir  Ir31  1  0.000000  0.790289  0.570341  1
  Ir  Ir32  1  0.500000  0.873804  0.711426  1
  Ir  Ir33  1  0.500000  0.126196  0.711426  1
  Ir  Ir34  1  0.000000  0.626196  0.288574  1
  Ir  Ir35  1  0.000000  0.373804  0.288574  1
