# generated using pymatgen
data_CePr9(Zn2Ru3)2
_symmetry_space_group_name_H-M   'P 1'
_cell_length_a   8.65433935
_cell_length_b   8.46869993
_cell_length_c   8.46869908
_cell_angle_alpha   107.76046848
_cell_angle_beta   110.33249371
_cell_angle_gamma   109.42586594
_symmetry_Int_Tables_number   1
_chemical_formula_structural   CePr9(Zn2Ru3)2
_chemical_formula_sum   'Ce1 Pr9 Zn4 Ru6'
_cell_volume   482.81582873
_cell_formula_units_Z   1
loop_
 _symmetry_equiv_pos_site_id
 _symmetry_equiv_pos_as_xyz
  1  'x, y, z'
loop_
 _atom_site_type_symbol
 _atom_site_label
 _atom_site_symmetry_multiplicity
 _atom_site_fract_x
 _atom_site_fract_y
 _atom_site_fract_z
 _atom_site_occupancy
  Ce  Ce0  1  0.250000  0.695093  0.445093  1
  Pr  Pr1  1  0.750000  0.813711  0.063711  1
  Pr  Pr2  1  0.438202  0.252408  0.689356  1
  Pr  Pr3  1  0.684781  0.436952  0.249607  1
  Pr  Pr4  1  0.061798  0.751153  0.814205  1
  Pr  Pr5  1  0.815219  0.064826  0.752171  1
  Pr  Pr6  1  0.223769  0.223710  0.227131  1
  Pr  Pr7  1  0.504339  0.000916  0.280565  1
  Pr  Pr8  1  0.276231  0.503361  0.999941  1
  Pr  Pr9  1  0.995661  0.276226  0.496576  1
  Zn  Zn10  1  0.591422  0.592091  0.584119  1
  Zn  Zn11  1  0.499894  0.005758  0.913659  1
  Zn  Zn12  1  0.908578  0.492697  0.000670  1
  Zn  Zn13  1  0.000106  0.913765  0.505863  1
  Ru  Ru14  1  0.250000  0.132228  0.882228  1
  Ru  Ru15  1  0.750000  0.373030  0.623030  1
  Ru  Ru16  1  0.870986  0.235422  0.123818  1
  Ru  Ru17  1  0.141885  0.851929  0.273776  1
  Ru  Ru18  1  0.629013  0.752831  0.364435  1
  Ru  Ru19  1  0.358115  0.631891  0.710045  1
