# generated using pymatgen
data_YbSm4Y3(B6Os)4
_symmetry_space_group_name_H-M   'P 1'
_cell_length_a   3.68932200
_cell_length_b   9.20470688
_cell_length_c   11.60707600
_cell_angle_alpha   90.02501224
_cell_angle_beta   90.00000000
_cell_angle_gamma   90.00000000
_symmetry_Int_Tables_number   1
_chemical_formula_structural   YbSm4Y3(B6Os)4
_chemical_formula_sum   'Yb1 Sm4 Y3 B24 Os4'
_cell_volume   394.16613738
_cell_formula_units_Z   1
loop_
 _symmetry_equiv_pos_site_id
 _symmetry_equiv_pos_as_xyz
  1  'x, y, z'
loop_
 _atom_site_type_symbol
 _atom_site_label
 _atom_site_symmetry_multiplicity
 _atom_site_fract_x
 _atom_site_fract_y
 _atom_site_fract_z
 _atom_site_occupancy
  Yb  Yb0  1  0.000000  0.556592  0.871493  1
  Sm  Sm1  1  0.000000  0.323059  0.414981  1
  Sm  Sm2  1  0.000000  0.676348  0.588167  1
  Sm  Sm3  1  0.000000  0.822055  0.084205  1
  Sm  Sm4  1  0.000000  0.178085  0.912843  1
  Y  Y5  1  0.000000  0.943596  0.372476  1
  Y  Y6  1  0.000000  0.056103  0.627998  1
  Y  Y7  1  0.000000  0.444363  0.126097  1
  B  B8  1  0.500000  0.554618  0.431634  1
  B  B9  1  0.500000  0.445276  0.569393  1
  B  B10  1  0.500000  0.055082  0.068161  1
  B  B11  1  0.500000  0.944864  0.931169  1
  B  B12  1  0.500000  0.748013  0.418693  1
  B  B13  1  0.500000  0.251980  0.581851  1
  B  B14  1  0.500000  0.248867  0.080941  1
  B  B15  1  0.500000  0.750599  0.917883  1
  B  B16  1  0.500000  0.789957  0.266793  1
  B  B17  1  0.500000  0.210699  0.733035  1
  B  B18  1  0.500000  0.290568  0.232665  1
  B  B19  1  0.500000  0.708893  0.767854  1
  B  B20  1  0.500000  0.631312  0.185107  1
  B  B21  1  0.500000  0.370269  0.814339  1
  B  B22  1  0.500000  0.131498  0.313961  1
  B  B23  1  0.500000  0.868239  0.686840  1
  B  B24  1  0.500000  0.984668  0.213095  1
  B  B25  1  0.500000  0.015252  0.787042  1
  B  B26  1  0.500000  0.484565  0.286428  1
  B  B27  1  0.500000  0.515545  0.714380  1
  B  B28  1  0.500000  0.604408  0.028558  1
  B  B29  1  0.500000  0.395926  0.970791  1
  B  B30  1  0.500000  0.106564  0.470621  1
  B  B31  1  0.500000  0.893033  0.529601  1
  Os  Os32  1  0.000000  0.637943  0.321146  1
  Os  Os33  1  0.000000  0.361553  0.679522  1
  Os  Os34  1  0.000000  0.138416  0.179779  1
  Os  Os35  1  0.000000  0.861199  0.820458  1
