# generated using pymatgen
data_ScNb4ZnSn3
_symmetry_space_group_name_H-M   'P 1'
_cell_length_a   8.38839343
_cell_length_b   8.37732675
_cell_length_c   5.69184600
_cell_angle_alpha   90.00000000
_cell_angle_beta   90.00000000
_cell_angle_gamma   119.95637149
_symmetry_Int_Tables_number   1
_chemical_formula_structural   ScNb4ZnSn3
_chemical_formula_sum   'Sc2 Nb8 Zn2 Sn6'
_cell_volume   346.54431641
_cell_formula_units_Z   2
loop_
 _symmetry_equiv_pos_site_id
 _symmetry_equiv_pos_as_xyz
  1  'x, y, z'
loop_
 _atom_site_type_symbol
 _atom_site_label
 _atom_site_symmetry_multiplicity
 _atom_site_fract_x
 _atom_site_fract_y
 _atom_site_fract_z
 _atom_site_occupancy
  Sc  Sc0  1  0.730014  0.728681  0.750000  1
  Sc  Sc1  1  0.269986  0.998668  0.750000  1
  Nb  Nb2  1  0.668527  0.333824  0.998705  1
  Nb  Nb3  1  0.331473  0.665298  0.998705  1
  Nb  Nb4  1  0.331473  0.665298  0.501295  1
  Nb  Nb5  1  0.668527  0.333824  0.501295  1
  Nb  Nb6  1  0.000000  0.267984  0.750000  1
  Nb  Nb7  1  0.277889  0.277563  0.250000  1
  Nb  Nb8  1  0.722111  0.999674  0.250000  1
  Nb  Nb9  1  0.000000  0.726277  0.250000  1
  Zn  Zn10  1  0.000000  0.002180  0.005033  1
  Zn  Zn11  1  0.000000  0.002180  0.494967  1
  Sn  Sn12  1  0.383369  0.384534  0.750000  1
  Sn  Sn13  1  0.616631  0.001164  0.750000  1
  Sn  Sn14  1  0.000000  0.612499  0.750000  1
  Sn  Sn15  1  0.617034  0.616999  0.250000  1
  Sn  Sn16  1  0.382966  0.999965  0.250000  1
  Sn  Sn17  1  0.000000  0.383387  0.250000  1
