# generated using pymatgen
data_Dy3Ho(Ga5Ir3)2
_symmetry_space_group_name_H-M   'P 1'
_cell_length_a   8.60416592
_cell_length_b   8.60916058
_cell_length_c   8.60916035
_cell_angle_alpha   141.34534967
_cell_angle_beta   109.75108949
_cell_angle_gamma   83.18104743
_symmetry_Int_Tables_number   1
_chemical_formula_structural   Dy3Ho(Ga5Ir3)2
_chemical_formula_sum   'Dy3 Ho1 Ga10 Ir6'
_cell_volume   363.29154414
_cell_formula_units_Z   1
loop_
 _symmetry_equiv_pos_site_id
 _symmetry_equiv_pos_as_xyz
  1  'x, y, z'
loop_
 _atom_site_type_symbol
 _atom_site_label
 _atom_site_symmetry_multiplicity
 _atom_site_fract_x
 _atom_site_fract_y
 _atom_site_fract_z
 _atom_site_occupancy
  Dy  Dy0  1  0.127718  0.355190  0.772528  1
  Dy  Dy1  1  0.417329  0.144776  0.272553  1
  Dy  Dy2  1  0.582682  0.855223  0.727458  1
  Ho  Ho3  1  0.872305  0.644956  0.227349  1
  Ga  Ga4  1  0.500110  0.749995  0.250110  1
  Ga  Ga5  1  0.500110  0.250000  0.750115  1
  Ga  Ga6  1  0.200595  0.950593  0.749743  1
  Ga  Ga7  1  0.799238  0.549176  0.750007  1
  Ga  Ga8  1  0.799238  0.049231  0.250063  1
  Ga  Ga9  1  0.200595  0.450852  0.250002  1
  Ga  Ga10  1  0.097411  0.916689  0.180722  1
  Ga  Ga11  1  0.902492  0.083340  0.819153  1
  Ga  Ga12  1  0.735922  0.416798  0.319123  1
  Ga  Ga13  1  0.264236  0.583366  0.680869  1
  Ir  Ir14  1  0.999966  0.749988  0.749934  1
  Ir  Ir15  1  0.999966  0.250032  0.249978  1
  Ir  Ir16  1  0.258328  0.847350  0.410978  1
  Ir  Ir17  1  0.741609  0.152550  0.589059  1
  Ir  Ir18  1  0.436202  0.347391  0.088812  1
  Ir  Ir19  1  0.563949  0.652504  0.911444  1
