# generated using pymatgen
data_Ta6Ti3Si6Mo
_symmetry_space_group_name_H-M   'P 1'
_cell_length_a   7.48579259
_cell_length_b   7.50361178
_cell_length_c   7.50322114
_cell_angle_alpha   128.78999197
_cell_angle_beta   128.72487200
_cell_angle_gamma   75.31692766
_symmetry_Int_Tables_number   1
_chemical_formula_structural   Ta6Ti3Si6Mo
_chemical_formula_sum   'Ta6 Ti3 Si6 Mo1'
_cell_volume   249.55702438
_cell_formula_units_Z   1
loop_
 _symmetry_equiv_pos_site_id
 _symmetry_equiv_pos_as_xyz
  1  'x, y, z'
loop_
 _atom_site_type_symbol
 _atom_site_label
 _atom_site_symmetry_multiplicity
 _atom_site_fract_x
 _atom_site_fract_y
 _atom_site_fract_z
 _atom_site_occupancy
  Ta  Ta0  1  0.514505  0.014942  0.828987  1
  Ta  Ta1  1  0.185519  0.685955  0.171013  1
  Ta  Ta2  1  0.986771  0.814563  0.500000  1
  Ta  Ta3  1  0.318655  0.484601  0.500000  1
  Ta  Ta4  1  0.482929  0.983219  0.169222  1
  Ta  Ta5  1  0.813706  0.313997  0.830778  1
  Ti  Ti6  1  0.012390  0.186417  0.500000  1
  Ti  Ti7  1  0.999860  0.998367  0.999175  1
  Ti  Ti8  1  0.500684  0.499192  0.000825  1
  Si  Si9  1  0.752499  0.753055  0.001779  1
  Si  Si10  1  0.250720  0.251276  0.998221  1
  Si  Si11  1  0.364046  0.132013  0.500000  1
  Si  Si12  1  0.631952  0.867525  0.500000  1
  Si  Si13  1  0.870069  0.367314  0.240290  1
  Si  Si14  1  0.129779  0.627024  0.759710  1
  Mo  Mo15  1  0.685915  0.520540  0.500000  1
