# generated using pymatgen
data_Sm4Sn2BiSb3Rh7
_symmetry_space_group_name_H-M   'P 1'
_cell_length_a   7.72284794
_cell_length_b   7.71788358
_cell_length_c   7.71604192
_cell_angle_alpha   109.71801358
_cell_angle_beta   109.74396805
_cell_angle_gamma   108.97583566
_symmetry_Int_Tables_number   1
_chemical_formula_structural   Sm4Sn2BiSb3Rh7
_chemical_formula_sum   'Sm4 Sn2 Bi1 Sb3 Rh7'
_cell_volume   353.91585822
_cell_formula_units_Z   1
loop_
 _symmetry_equiv_pos_site_id
 _symmetry_equiv_pos_as_xyz
  1  'x, y, z'
loop_
 _atom_site_type_symbol
 _atom_site_label
 _atom_site_symmetry_multiplicity
 _atom_site_fract_x
 _atom_site_fract_y
 _atom_site_fract_z
 _atom_site_occupancy
  Sm  Sm0  1  0.482326  0.001104  0.000000  1
  Sm  Sm1  1  0.000385  0.496781  0.000000  1
  Sm  Sm2  1  0.000087  0.001311  0.511108  1
  Sm  Sm3  1  0.488979  0.490203  0.488892  1
  Sn  Sn4  1  0.992010  0.309183  0.310534  1
  Sn  Sn5  1  0.681477  0.998649  0.689466  1
  Bi  Bi6  1  0.690954  0.697418  0.000000  1
  Sb  Sb7  1  0.993404  0.670457  0.671716  1
  Sb  Sb8  1  0.321687  0.998740  0.328284  1
  Sb  Sb9  1  0.327050  0.332217  0.000000  1
  Rh  Rh10  1  0.034122  0.019812  0.000000  1
  Rh  Rh11  1  0.499646  0.751972  0.255530  1
  Rh  Rh12  1  0.747612  0.496382  0.247951  1
  Rh  Rh13  1  0.248194  0.745406  0.499910  1
  Rh  Rh14  1  0.244117  0.496443  0.744470  1
  Rh  Rh15  1  0.499661  0.248430  0.752049  1
  Rh  Rh16  1  0.748284  0.245496  0.500090  1
