# generated using pymatgen
data_Pr3(GaRu)2
_symmetry_space_group_name_H-M   'P 1'
_cell_length_a   5.76506400
_cell_length_b   8.07106100
_cell_length_c   13.95378200
_cell_angle_alpha   90.00000000
_cell_angle_beta   90.00000000
_cell_angle_gamma   90.00000000
_symmetry_Int_Tables_number   1
_chemical_formula_structural   Pr3(GaRu)2
_chemical_formula_sum   'Pr12 Ga8 Ru8'
_cell_volume   649.27203297
_cell_formula_units_Z   4
loop_
 _symmetry_equiv_pos_site_id
 _symmetry_equiv_pos_as_xyz
  1  'x, y, z'
loop_
 _atom_site_type_symbol
 _atom_site_label
 _atom_site_symmetry_multiplicity
 _atom_site_fract_x
 _atom_site_fract_y
 _atom_site_fract_z
 _atom_site_occupancy
  Pr  Pr0  1  0.155941  0.900664  0.595039  1
  Pr  Pr1  1  0.844059  0.099336  0.095039  1
  Pr  Pr2  1  0.155941  0.599336  0.404961  1
  Pr  Pr3  1  0.844059  0.400664  0.904961  1
  Pr  Pr4  1  0.844059  0.099336  0.404961  1
  Pr  Pr5  1  0.155941  0.900664  0.904961  1
  Pr  Pr6  1  0.844059  0.400664  0.595039  1
  Pr  Pr7  1  0.155941  0.599336  0.095039  1
  Pr  Pr8  1  0.374222  0.254031  0.750000  1
  Pr  Pr9  1  0.625778  0.745969  0.250000  1
  Pr  Pr10  1  0.374222  0.245969  0.250000  1
  Pr  Pr11  1  0.625778  0.754031  0.750000  1
  Ga  Ga12  1  0.862539  0.099070  0.750000  1
  Ga  Ga13  1  0.137461  0.900930  0.250000  1
  Ga  Ga14  1  0.862539  0.400930  0.250000  1
  Ga  Ga15  1  0.137461  0.599070  0.750000  1
  Ga  Ga16  1  0.372157  0.250000  0.500000  1
  Ga  Ga17  1  0.627843  0.750000  0.000000  1
  Ga  Ga18  1  0.627843  0.750000  0.500000  1
  Ga  Ga19  1  0.372157  0.250000  0.000000  1
  Ru  Ru20  1  0.641025  0.032191  0.593080  1
  Ru  Ru21  1  0.358975  0.967809  0.093080  1
  Ru  Ru22  1  0.641025  0.467809  0.406920  1
  Ru  Ru23  1  0.358975  0.532191  0.906920  1
  Ru  Ru24  1  0.358975  0.967809  0.406920  1
  Ru  Ru25  1  0.641025  0.032191  0.906920  1
  Ru  Ru26  1  0.358975  0.532191  0.593080  1
  Ru  Ru27  1  0.641025  0.467809  0.093080  1
