# generated using pymatgen
data_MnCd(GaCl4)4
_symmetry_space_group_name_H-M   'P 1'
_cell_length_a   9.94983496
_cell_length_b   9.94983514
_cell_length_c   11.99703400
_cell_angle_alpha   55.11772749
_cell_angle_beta   55.11771973
_cell_angle_gamma   49.96292614
_symmetry_Int_Tables_number   1
_chemical_formula_structural   MnCd(GaCl4)4
_chemical_formula_sum   'Mn1 Cd1 Ga4 Cl16'
_cell_volume   705.50671722
_cell_formula_units_Z   1
loop_
 _symmetry_equiv_pos_site_id
 _symmetry_equiv_pos_as_xyz
  1  'x, y, z'
loop_
 _atom_site_type_symbol
 _atom_site_label
 _atom_site_symmetry_multiplicity
 _atom_site_fract_x
 _atom_site_fract_y
 _atom_site_fract_z
 _atom_site_occupancy
  Mn  Mn0  1  0.000275  0.999725  0.250000  1
  Cd  Cd1  1  0.005087  0.994913  0.750000  1
  Ga  Ga2  1  0.670325  0.161459  0.036406  1
  Ga  Ga3  1  0.330030  0.839893  0.971047  1
  Ga  Ga4  1  0.838541  0.329675  0.463594  1
  Ga  Ga5  1  0.160107  0.669970  0.528953  1
  Cl  Cl6  1  0.876568  0.827601  0.512821  1
  Cl  Cl7  1  0.122660  0.181635  0.475372  1
  Cl  Cl8  1  0.693497  0.617102  0.440808  1
  Cl  Cl9  1  0.616153  0.695094  0.951471  1
  Cl  Cl10  1  0.818365  0.877340  0.024628  1
  Cl  Cl11  1  0.858271  0.304992  0.280101  1
  Cl  Cl12  1  0.154647  0.718733  0.178594  1
  Cl  Cl13  1  0.281267  0.845353  0.321406  1
  Cl  Cl14  1  0.149235  0.678335  0.716367  1
  Cl  Cl15  1  0.304906  0.383847  0.548529  1
  Cl  Cl16  1  0.695008  0.141729  0.219899  1
  Cl  Cl17  1  0.172399  0.123432  0.987179  1
  Cl  Cl18  1  0.382898  0.306503  0.059192  1
  Cl  Cl19  1  0.321665  0.850765  0.783633  1
  Cl  Cl20  1  0.710308  0.162207  0.672042  1
  Cl  Cl21  1  0.837793  0.289692  0.827958  1
