# generated using pymatgen
data_Rb4Y2(MoH9)3
_symmetry_space_group_name_H-M   'P 1'
_cell_length_a   9.43429200
_cell_length_b   9.02208423
_cell_length_c   5.44666200
_cell_angle_alpha   90.00000000
_cell_angle_beta   90.00000000
_cell_angle_gamma   121.52324818
_symmetry_Int_Tables_number   1
_chemical_formula_structural   Rb4Y2(MoH9)3
_chemical_formula_sum   'Rb4 Y2 Mo3 H27'
_cell_volume   395.18856325
_cell_formula_units_Z   1
loop_
 _symmetry_equiv_pos_site_id
 _symmetry_equiv_pos_as_xyz
  1  'x, y, z'
loop_
 _atom_site_type_symbol
 _atom_site_label
 _atom_site_symmetry_multiplicity
 _atom_site_fract_x
 _atom_site_fract_y
 _atom_site_fract_z
 _atom_site_occupancy
  Rb  Rb0  1  0.261384  0.000000  0.500000  1
  Rb  Rb1  1  0.028918  0.619541  0.000000  1
  Rb  Rb2  1  0.409377  0.380459  0.000000  1
  Rb  Rb3  1  0.578743  0.000000  0.000000  1
  Y  Y4  1  0.981662  0.257862  0.500000  1
  Y  Y5  1  0.723799  0.742138  0.500000  1
  Mo  Mo6  1  0.713326  0.375886  0.500000  1
  Mo  Mo7  1  0.337437  0.624114  0.500000  1
  Mo  Mo8  1  0.955252  0.000000  0.000000  1
  H  H9  1  0.835145  0.345887  0.724942  1
  H  H10  1  0.723596  0.524557  0.726176  1
  H  H11  1  0.575344  0.253316  0.732061  1
  H  H12  1  0.199039  0.475443  0.273824  1
  H  H13  1  0.575344  0.253316  0.267939  1
  H  H14  1  0.835145  0.345887  0.275058  1
  H  H15  1  0.723596  0.524557  0.273824  1
  H  H16  1  0.322027  0.746684  0.732061  1
  H  H17  1  0.489258  0.654113  0.724942  1
  H  H18  1  0.137736  0.000000  0.000000  1
  H  H19  1  0.756141  0.806044  0.000000  1
  H  H20  1  0.950096  0.193956  0.000000  1
  H  H21  1  0.833928  0.000000  0.271503  1
  H  H22  1  0.095820  0.147058  0.775258  1
  H  H23  1  0.948762  0.852942  0.775258  1
  H  H24  1  0.948762  0.852942  0.224742  1
  H  H25  1  0.095820  0.147058  0.224742  1
  H  H26  1  0.833928  0.000000  0.728497  1
  H  H27  1  0.151896  0.617283  0.500000  1
  H  H28  1  0.511327  0.838408  0.500000  1
  H  H29  1  0.341557  0.433580  0.500000  1
  H  H30  1  0.534612  0.382717  0.500000  1
  H  H31  1  0.907977  0.566420  0.500000  1
  H  H32  1  0.672918  0.161592  0.500000  1
  H  H33  1  0.199039  0.475443  0.726176  1
  H  H34  1  0.322027  0.746684  0.267939  1
  H  H35  1  0.489258  0.654113  0.275058  1
