# generated using pymatgen
data_Pr16Mg2AlZnIr4
_symmetry_space_group_name_H-M   'P 1'
_cell_length_a   10.02191298
_cell_length_b   10.02191298
_cell_length_c   10.02014473
_cell_angle_alpha   59.81758047
_cell_angle_beta   59.81757326
_cell_angle_gamma   59.98996581
_symmetry_Int_Tables_number   1
_chemical_formula_structural   Pr16Mg2AlZnIr4
_chemical_formula_sum   'Pr16 Mg2 Al1 Zn1 Ir4'
_cell_volume   709.61776501
_cell_formula_units_Z   1
loop_
 _symmetry_equiv_pos_site_id
 _symmetry_equiv_pos_as_xyz
  1  'x, y, z'
loop_
 _atom_site_type_symbol
 _atom_site_label
 _atom_site_symmetry_multiplicity
 _atom_site_fract_x
 _atom_site_fract_y
 _atom_site_fract_z
 _atom_site_occupancy
  Pr  Pr0  1  0.347284  0.347284  0.347004  1
  Pr  Pr1  1  0.349904  0.349904  0.954646  1
  Pr  Pr2  1  0.351179  0.952192  0.349759  1
  Pr  Pr3  1  0.952192  0.351179  0.349759  1
  Pr  Pr4  1  0.809888  0.189283  0.189587  1
  Pr  Pr5  1  0.190889  0.806599  0.807269  1
  Pr  Pr6  1  0.189283  0.809888  0.189587  1
  Pr  Pr7  1  0.806599  0.190889  0.807269  1
  Pr  Pr8  1  0.188134  0.188134  0.810904  1
  Pr  Pr9  1  0.803118  0.803118  0.194454  1
  Pr  Pr10  1  0.937121  0.561710  0.562371  1
  Pr  Pr11  1  0.559048  0.934521  0.943827  1
  Pr  Pr12  1  0.561710  0.937121  0.562371  1
  Pr  Pr13  1  0.934521  0.559048  0.943827  1
  Pr  Pr14  1  0.561067  0.561067  0.944730  1
  Pr  Pr15  1  0.938570  0.938570  0.560002  1
  Mg  Mg16  1  0.579204  0.274801  0.571584  1
  Mg  Mg17  1  0.274801  0.579204  0.571584  1
  Al  Al18  1  0.582246  0.582246  0.577929  1
  Zn  Zn19  1  0.581684  0.581684  0.258106  1
  Ir  Ir20  1  0.141561  0.141561  0.142470  1
  Ir  Ir21  1  0.142185  0.142185  0.575070  1
  Ir  Ir22  1  0.142074  0.575738  0.142945  1
  Ir  Ir23  1  0.575738  0.142074  0.142945  1
