# generated using pymatgen
data_Ho8TaTc11Ge16
_symmetry_space_group_name_H-M   'P 1'
_cell_length_a   6.95220752
_cell_length_b   6.96086106
_cell_length_c   12.94293600
_cell_angle_alpha   90.17428630
_cell_angle_beta   90.31567115
_cell_angle_gamma   90.22649607
_symmetry_Int_Tables_number   1
_chemical_formula_structural   Ho8TaTc11Ge16
_chemical_formula_sum   'Ho8 Ta1 Tc11 Ge16'
_cell_volume   626.33469930
_cell_formula_units_Z   1
loop_
 _symmetry_equiv_pos_site_id
 _symmetry_equiv_pos_as_xyz
  1  'x, y, z'
loop_
 _atom_site_type_symbol
 _atom_site_label
 _atom_site_symmetry_multiplicity
 _atom_site_fract_x
 _atom_site_fract_y
 _atom_site_fract_z
 _atom_site_occupancy
  Ho  Ho0  1  0.335694  0.991854  0.469044  1
  Ho  Ho1  1  0.503883  0.835158  0.723615  1
  Ho  Ho2  1  0.491828  0.158591  0.220841  1
  Ho  Ho3  1  0.838668  0.503040  0.275709  1
  Ho  Ho4  1  0.160825  0.487918  0.780737  1
  Ho  Ho5  1  0.659188  0.003864  0.973869  1
  Ho  Ho6  1  0.997091  0.339302  0.526605  1
  Ho  Ho7  1  0.006437  0.656752  0.028622  1
  Ta  Ta8  1  0.993134  0.825792  0.622937  1
  Tc  Tc9  1  0.332712  0.334477  0.000488  1
  Tc  Tc10  1  0.165719  0.834240  0.248137  1
  Tc  Tc11  1  0.839239  0.157489  0.748480  1
  Tc  Tc12  1  0.672135  0.665956  0.502520  1
  Tc  Tc13  1  0.195004  0.971726  0.867537  1
  Tc  Tc14  1  0.522069  0.690061  0.121654  1
  Tc  Tc15  1  0.488519  0.321718  0.625573  1
  Tc  Tc16  1  0.682008  0.511118  0.877994  1
  Tc  Tc17  1  0.315067  0.481063  0.377785  1
  Tc  Tc18  1  0.820385  0.025522  0.375569  1
  Tc  Tc19  1  0.972029  0.193833  0.132615  1
  Ge  Ge20  1  0.198183  0.118865  0.680199  1
  Ge  Ge21  1  0.387485  0.686282  0.933964  1
  Ge  Ge22  1  0.613602  0.314907  0.433531  1
  Ge  Ge23  1  0.686067  0.388024  0.067593  1
  Ge  Ge24  1  0.312263  0.616522  0.567444  1
  Ge  Ge25  1  0.813225  0.887263  0.183339  1
  Ge  Ge26  1  0.116693  0.191252  0.317283  1
  Ge  Ge27  1  0.887176  0.805429  0.821566  1
  Ge  Ge28  1  0.265429  0.984441  0.063231  1
  Ge  Ge29  1  0.523002  0.775445  0.315434  1
  Ge  Ge30  1  0.481988  0.218783  0.816393  1
  Ge  Ge31  1  0.780483  0.515593  0.686466  1
  Ge  Ge32  1  0.228933  0.483422  0.184854  1
  Ge  Ge33  1  0.705603  0.037893  0.565758  1
  Ge  Ge34  1  0.983024  0.263338  0.936205  1
  Ge  Ge35  1  0.025211  0.723066  0.426409  1
