# generated using pymatgen
data_Tc3SeF24
_symmetry_space_group_name_H-M   'P 1'
_cell_length_a   5.16911860
_cell_length_b   9.00238600
_cell_length_c   9.76437567
_cell_angle_alpha   90.00000000
_cell_angle_beta   89.57561270
_cell_angle_gamma   90.00000000
_symmetry_Int_Tables_number   1
_chemical_formula_structural   Tc3SeF24
_chemical_formula_sum   'Tc3 Se1 F24'
_cell_volume   454.36690827
_cell_formula_units_Z   1
loop_
 _symmetry_equiv_pos_site_id
 _symmetry_equiv_pos_as_xyz
  1  'x, y, z'
loop_
 _atom_site_type_symbol
 _atom_site_label
 _atom_site_symmetry_multiplicity
 _atom_site_fract_x
 _atom_site_fract_y
 _atom_site_fract_z
 _atom_site_occupancy
  Tc  Tc0  1  0.082891  0.250000  0.370736  1
  Tc  Tc1  1  0.417901  0.250000  0.870523  1
  Tc  Tc2  1  0.582548  0.750000  0.129735  1
  Se  Se3  1  0.917092  0.750000  0.629107  1
  F  F4  1  0.186586  0.750000  0.521874  1
  F  F5  1  0.790492  0.250000  0.483125  1
  F  F6  1  0.708429  0.250000  0.981666  1
  F  F7  1  0.291393  0.750000  0.018861  1
  F  F8  1  0.646819  0.750000  0.736051  1
  F  F9  1  0.374808  0.250000  0.257766  1
  F  F10  1  0.126929  0.250000  0.759306  1
  F  F11  1  0.875522  0.750000  0.239220  1
  F  F12  1  0.774788  0.613692  0.528624  1
  F  F13  1  0.232887  0.395328  0.479004  1
  F  F14  1  0.267838  0.396208  0.979677  1
  F  F15  1  0.232887  0.104672  0.479004  1
  F  F16  1  0.730026  0.603711  0.020097  1
  F  F17  1  0.774788  0.886308  0.528624  1
  F  F18  1  0.730026  0.896289  0.020097  1
  F  F19  1  0.267838  0.103792  0.979677  1
  F  F20  1  0.058386  0.613704  0.729814  1
  F  F21  1  0.934275  0.395890  0.262523  1
  F  F22  1  0.566616  0.396108  0.761328  1
  F  F23  1  0.934275  0.104110  0.262523  1
  F  F24  1  0.434479  0.604387  0.239949  1
  F  F25  1  0.058386  0.886296  0.729814  1
  F  F26  1  0.434479  0.895613  0.239949  1
  F  F27  1  0.566616  0.103892  0.761328  1
