# generated using pymatgen
data_Dy2Al9PtRh2
_symmetry_space_group_name_H-M   'P 1'
_cell_length_a   7.58333937
_cell_length_b   7.58332055
_cell_length_c   9.47132532
_cell_angle_alpha   89.96975263
_cell_angle_beta   89.96971761
_cell_angle_gamma   119.60093896
_symmetry_Int_Tables_number   1
_chemical_formula_structural   Dy2Al9PtRh2
_chemical_formula_sum   'Dy4 Al18 Pt2 Rh4'
_cell_volume   473.58008480
_cell_formula_units_Z   2
loop_
 _symmetry_equiv_pos_site_id
 _symmetry_equiv_pos_as_xyz
  1  'x, y, z'
loop_
 _atom_site_type_symbol
 _atom_site_label
 _atom_site_symmetry_multiplicity
 _atom_site_fract_x
 _atom_site_fract_y
 _atom_site_fract_z
 _atom_site_occupancy
  Dy  Dy0  1  0.995295  0.669319  0.749968  1
  Dy  Dy1  1  0.004705  0.330681  0.250032  1
  Dy  Dy2  1  0.669318  0.995295  0.749969  1
  Dy  Dy3  1  0.330682  0.004705  0.250031  1
  Al  Al4  1  0.125754  0.125754  0.751013  1
  Al  Al5  1  0.874246  0.874246  0.248987  1
  Al  Al6  1  0.000991  0.330936  0.577473  1
  Al  Al7  1  0.999009  0.669064  0.422527  1
  Al  Al8  1  0.000394  0.665501  0.074354  1
  Al  Al9  1  0.334499  0.999606  0.925647  1
  Al  Al10  1  0.999606  0.334499  0.925646  1
  Al  Al11  1  0.665501  0.000394  0.074353  1
  Al  Al12  1  0.669064  0.999009  0.422527  1
  Al  Al13  1  0.330936  0.000991  0.577473  1
  Al  Al14  1  0.332008  0.332008  0.051555  1
  Al  Al15  1  0.667992  0.667992  0.948445  1
  Al  Al16  1  0.669309  0.669309  0.556762  1
  Al  Al17  1  0.330691  0.330691  0.443238  1
  Al  Al18  1  0.339755  0.546667  0.753833  1
  Al  Al19  1  0.660245  0.453333  0.246167  1
  Al  Al20  1  0.546667  0.339756  0.753833  1
  Al  Al21  1  0.453333  0.660244  0.246167  1
  Pt  Pt22  1  0.672251  0.327749  0.500000  1
  Pt  Pt23  1  0.327749  0.672251  0.500000  1
  Rh  Rh24  1  0.327945  0.672055  0.000001  1
  Rh  Rh25  1  0.672055  0.327945  0.999999  1
  Rh  Rh26  1  0.000000  0.000000  0.500000  1
  Rh  Rh27  1  0.000000  0.000000  0.000000  1
