# generated using pymatgen
data_Lu2Th3Sb3C
_symmetry_space_group_name_H-M   'P 1'
_cell_length_a   9.10854602
_cell_length_b   9.10893643
_cell_length_c   6.35134500
_cell_angle_alpha   89.99579886
_cell_angle_beta   90.00209451
_cell_angle_gamma   120.00141952
_symmetry_Int_Tables_number   1
_chemical_formula_structural   Lu2Th3Sb3C
_chemical_formula_sum   'Lu4 Th6 Sb6 C2'
_cell_volume   456.35924203
_cell_formula_units_Z   2
loop_
 _symmetry_equiv_pos_site_id
 _symmetry_equiv_pos_as_xyz
  1  'x, y, z'
loop_
 _atom_site_type_symbol
 _atom_site_label
 _atom_site_symmetry_multiplicity
 _atom_site_fract_x
 _atom_site_fract_y
 _atom_site_fract_z
 _atom_site_occupancy
  Lu  Lu0  1  0.666673  0.333341  0.499986  1
  Lu  Lu1  1  0.333327  0.666668  0.499986  1
  Lu  Lu2  1  0.333327  0.666668  0.000003  1
  Lu  Lu3  1  0.666673  0.333340  0.000003  1
  Th  Th4  1  0.773319  0.773298  0.250009  1
  Th  Th5  1  0.226681  0.999979  0.250009  1
  Th  Th6  1  0.000000  0.226676  0.250020  1
  Th  Th7  1  0.226691  0.226697  0.750006  1
  Th  Th8  1  0.773309  0.000006  0.750006  1
  Th  Th9  1  0.000000  0.773337  0.749981  1
  Sb  Sb10  1  0.405018  0.405025  0.250007  1
  Sb  Sb11  1  0.594982  0.000006  0.250007  1
  Sb  Sb12  1  0.000000  0.594944  0.249996  1
  Sb  Sb13  1  0.594966  0.594965  0.749993  1
  Sb  Sb14  1  0.405034  0.999999  0.749993  1
  Sb  Sb15  1  0.000000  0.405046  0.749988  1
  C  C16  1  0.000000  0.000007  0.499993  1
  C  C17  1  0.000000  0.999999  0.000017  1
