# generated using pymatgen
data_Ho2Tm(Co3P2)3
_symmetry_space_group_name_H-M   'P 1'
_cell_length_a   3.67047100
_cell_length_b   10.46317300
_cell_length_c   12.12292300
_cell_angle_alpha   90.00000000
_cell_angle_beta   90.00000000
_cell_angle_gamma   90.00000000
_symmetry_Int_Tables_number   1
_chemical_formula_structural   Ho2Tm(Co3P2)3
_chemical_formula_sum   'Ho4 Tm2 Co18 P12'
_cell_volume   465.57810669
_cell_formula_units_Z   2
loop_
 _symmetry_equiv_pos_site_id
 _symmetry_equiv_pos_as_xyz
  1  'x, y, z'
loop_
 _atom_site_type_symbol
 _atom_site_label
 _atom_site_symmetry_multiplicity
 _atom_site_fract_x
 _atom_site_fract_y
 _atom_site_fract_z
 _atom_site_occupancy
  Ho  Ho0  1  0.000000  0.500000  0.521899  1
  Ho  Ho1  1  0.500000  0.000000  0.477434  1
  Ho  Ho2  1  0.000000  0.682639  0.794219  1
  Ho  Ho3  1  0.000000  0.317361  0.794219  1
  Tm  Tm4  1  0.500000  0.817813  0.205988  1
  Tm  Tm5  1  0.500000  0.182187  0.205988  1
  Co  Co6  1  0.000000  0.500000  0.986788  1
  Co  Co7  1  0.500000  0.000000  0.014917  1
  Co  Co8  1  0.500000  0.297445  0.429936  1
  Co  Co9  1  0.500000  0.702555  0.429936  1
  Co  Co10  1  0.000000  0.202350  0.568937  1
  Co  Co11  1  0.000000  0.797650  0.568937  1
  Co  Co12  1  0.500000  0.879144  0.709534  1
  Co  Co13  1  0.500000  0.120856  0.709534  1
  Co  Co14  1  0.000000  0.621397  0.289928  1
  Co  Co15  1  0.000000  0.378603  0.289928  1
  Co  Co16  1  0.500000  0.332911  0.995109  1
  Co  Co17  1  0.500000  0.667089  0.995109  1
  Co  Co18  1  0.000000  0.166369  0.006064  1
  Co  Co19  1  0.000000  0.833631  0.006064  1
  Co  Co20  1  0.500000  0.500000  0.159037  1
  Co  Co21  1  0.000000  0.000000  0.840883  1
  Co  Co22  1  0.500000  0.500000  0.703423  1
  Co  Co23  1  0.000000  0.000000  0.296269  1
  P  P24  1  0.500000  0.311017  0.615848  1
  P  P25  1  0.500000  0.688983  0.615848  1
  P  P26  1  0.000000  0.188777  0.382919  1
  P  P27  1  0.000000  0.811223  0.382919  1
  P  P28  1  0.500000  0.500000  0.882841  1
  P  P29  1  0.000000  0.000000  0.118472  1
  P  P30  1  0.500000  0.847867  0.892871  1
  P  P31  1  0.500000  0.152133  0.892871  1
  P  P32  1  0.000000  0.653519  0.107788  1
  P  P33  1  0.000000  0.346481  0.107788  1
  P  P34  1  0.500000  0.500000  0.344275  1
  P  P35  1  0.000000  0.000000  0.655482  1
