# generated using pymatgen
data_Pr7Tm(GeO5)4
_symmetry_space_group_name_H-M   'P 1'
_cell_length_a   8.44581288
_cell_length_b   8.48888042
_cell_length_c   11.00566959
_cell_angle_alpha   61.56181295
_cell_angle_beta   61.20612160
_cell_angle_gamma   49.81918809
_symmetry_Int_Tables_number   1
_chemical_formula_structural   Pr7Tm(GeO5)4
_chemical_formula_sum   'Pr7 Tm1 Ge4 O20'
_cell_volume   511.92934490
_cell_formula_units_Z   1
loop_
 _symmetry_equiv_pos_site_id
 _symmetry_equiv_pos_as_xyz
  1  'x, y, z'
loop_
 _atom_site_type_symbol
 _atom_site_label
 _atom_site_symmetry_multiplicity
 _atom_site_fract_x
 _atom_site_fract_y
 _atom_site_fract_z
 _atom_site_occupancy
  Pr  Pr0  1  0.715087  0.211700  0.966452  1
  Pr  Pr1  1  0.789656  0.273123  0.538636  1
  Pr  Pr2  1  0.275899  0.795265  0.035987  1
  Pr  Pr3  1  0.208344  0.718700  0.462707  1
  Pr  Pr4  1  0.990480  0.731797  0.836091  1
  Pr  Pr5  1  0.270771  0.020243  0.656353  1
  Pr  Pr6  1  0.002073  0.270063  0.169814  1
  Tm  Tm7  1  0.748500  0.972586  0.336335  1
  Ge  Ge8  1  0.776791  0.594300  0.686270  1
  Ge  Ge9  1  0.406102  0.225339  0.810852  1
  Ge  Ge10  1  0.230211  0.404749  0.305150  1
  Ge  Ge11  1  0.590050  0.779434  0.196283  1
  O  O12  1  0.768736  0.640933  0.058988  1
  O  O13  1  0.396217  0.219707  0.425298  1
  O  O14  1  0.225070  0.364243  0.947090  1
  O  O15  1  0.642961  0.781809  0.548088  1
  O  O16  1  0.592966  0.579936  0.359134  1
  O  O17  1  0.397202  0.426912  0.129208  1
  O  O18  1  0.407775  0.415810  0.643897  1
  O  O19  1  0.585244  0.590818  0.854402  1
  O  O20  1  0.954606  0.645004  0.675582  1
  O  O21  1  0.347450  0.051829  0.825964  1
  O  O22  1  0.055863  0.337252  0.332076  1
  O  O23  1  0.651464  0.948212  0.187056  1
  O  O24  1  0.880963  0.068244  0.399916  1
  O  O25  1  0.909625  0.105551  0.116374  1
  O  O26  1  0.112387  0.922128  0.601985  1
  O  O27  1  0.075751  0.898367  0.893325  1
  O  O28  1  0.084896  0.672727  0.321082  1
  O  O29  1  0.322420  0.911446  0.185971  1
  O  O30  1  0.910206  0.329618  0.673968  1
  O  O31  1  0.674233  0.092152  0.819665  1
