# generated using pymatgen
data_Dy6Mg(P3Rh5)4
_symmetry_space_group_name_H-M   'P 1'
_cell_length_a   13.45470900
_cell_length_b   13.45470806
_cell_length_c   3.91763700
_cell_angle_alpha   90.00000000
_cell_angle_beta   90.00000000
_cell_angle_gamma   119.99999985
_symmetry_Int_Tables_number   1
_chemical_formula_structural   Dy6Mg(P3Rh5)4
_chemical_formula_sum   'Dy6 Mg1 P12 Rh20'
_cell_volume   614.19095050
_cell_formula_units_Z   1
loop_
 _symmetry_equiv_pos_site_id
 _symmetry_equiv_pos_as_xyz
  1  'x, y, z'
loop_
 _atom_site_type_symbol
 _atom_site_label
 _atom_site_symmetry_multiplicity
 _atom_site_fract_x
 _atom_site_fract_y
 _atom_site_fract_z
 _atom_site_occupancy
  Dy  Dy0  1  0.529446  0.716945  0.252304  1
  Dy  Dy1  1  0.283055  0.812500  0.252304  1
  Dy  Dy2  1  0.187500  0.470554  0.252304  1
  Dy  Dy3  1  0.470554  0.283055  0.747696  1
  Dy  Dy4  1  0.716945  0.187500  0.747696  1
  Dy  Dy5  1  0.812500  0.529446  0.747696  1
  Mg  Mg6  1  0.000000  0.000000  0.000000  1
  P  P7  1  0.527620  0.138775  0.249548  1
  P  P8  1  0.861225  0.388846  0.249548  1
  P  P9  1  0.611154  0.472380  0.249548  1
  P  P10  1  0.949512  0.719614  0.244727  1
  P  P11  1  0.280386  0.229896  0.244727  1
  P  P12  1  0.770104  0.050488  0.244727  1
  P  P13  1  0.388846  0.527620  0.750452  1
  P  P14  1  0.472380  0.861225  0.750452  1
  P  P15  1  0.138775  0.611154  0.750452  1
  P  P16  1  0.719614  0.770104  0.755273  1
  P  P17  1  0.229896  0.949512  0.755273  1
  P  P18  1  0.050488  0.280386  0.755273  1
  Rh  Rh19  1  0.333333  0.666667  0.751867  1
  Rh  Rh20  1  0.918386  0.253013  0.244792  1
  Rh  Rh21  1  0.746987  0.665373  0.244792  1
  Rh  Rh22  1  0.334627  0.081614  0.244792  1
  Rh  Rh23  1  0.441084  0.024781  0.748550  1
  Rh  Rh24  1  0.975219  0.416303  0.748550  1
  Rh  Rh25  1  0.583697  0.558916  0.748550  1
  Rh  Rh26  1  0.666667  0.333333  0.248133  1
  Rh  Rh27  1  0.097407  0.208010  0.258913  1
  Rh  Rh28  1  0.791990  0.889397  0.258913  1
  Rh  Rh29  1  0.110603  0.902593  0.258913  1
  Rh  Rh30  1  0.024781  0.583697  0.251450  1
  Rh  Rh31  1  0.416303  0.441084  0.251450  1
  Rh  Rh32  1  0.558916  0.975219  0.251450  1
  Rh  Rh33  1  0.665373  0.918386  0.755208  1
  Rh  Rh34  1  0.081614  0.746987  0.755208  1
  Rh  Rh35  1  0.253013  0.334627  0.755208  1
  Rh  Rh36  1  0.902593  0.791990  0.741087  1
  Rh  Rh37  1  0.208010  0.110603  0.741087  1
  Rh  Rh38  1  0.889397  0.097407  0.741087  1
