# generated using pymatgen
data_Ce8Zn3Si12Ru
_symmetry_space_group_name_H-M   'P 1'
_cell_length_a   8.20645200
_cell_length_b   8.20645245
_cell_length_c   8.34563600
_cell_angle_alpha   90.00000000
_cell_angle_beta   90.00000000
_cell_angle_gamma   119.99999014
_symmetry_Int_Tables_number   1
_chemical_formula_structural   Ce8Zn3Si12Ru
_chemical_formula_sum   'Ce8 Zn3 Si12 Ru1'
_cell_volume   486.74444579
_cell_formula_units_Z   1
loop_
 _symmetry_equiv_pos_site_id
 _symmetry_equiv_pos_as_xyz
  1  'x, y, z'
loop_
 _atom_site_type_symbol
 _atom_site_label
 _atom_site_symmetry_multiplicity
 _atom_site_fract_x
 _atom_site_fract_y
 _atom_site_fract_z
 _atom_site_occupancy
  Ce  Ce0  1  0.000000  0.000000  0.249095  1
  Ce  Ce1  1  0.000000  0.000000  0.750484  1
  Ce  Ce2  1  0.496372  0.503628  0.255398  1
  Ce  Ce3  1  0.496372  0.992743  0.255398  1
  Ce  Ce4  1  0.007257  0.503628  0.255398  1
  Ce  Ce5  1  0.495752  0.504248  0.744893  1
  Ce  Ce6  1  0.495752  0.991503  0.744893  1
  Ce  Ce7  1  0.008497  0.504248  0.744893  1
  Zn  Zn8  1  0.666667  0.333333  0.502939  1
  Zn  Zn9  1  0.666667  0.333333  0.996933  1
  Zn  Zn10  1  0.333333  0.666667  0.003223  1
  Si  Si11  1  0.166104  0.833896  0.500787  1
  Si  Si12  1  0.166104  0.332210  0.500787  1
  Si  Si13  1  0.667790  0.833896  0.500787  1
  Si  Si14  1  0.835591  0.164409  0.499355  1
  Si  Si15  1  0.835591  0.671181  0.499355  1
  Si  Si16  1  0.328819  0.164409  0.499355  1
  Si  Si17  1  0.833672  0.166328  0.000813  1
  Si  Si18  1  0.833672  0.667342  0.000813  1
  Si  Si19  1  0.332658  0.166328  0.000813  1
  Si  Si20  1  0.165638  0.834362  0.999082  1
  Si  Si21  1  0.165638  0.331278  0.999082  1
  Si  Si22  1  0.668722  0.834362  0.999082  1
  Ru  Ru23  1  0.333333  0.666667  0.496345  1
