# generated using pymatgen
data_Ho2B8IrPt
_symmetry_space_group_name_H-M   'P 1'
_cell_length_a   7.02105247
_cell_length_b   7.02105258
_cell_length_c   7.02105199
_cell_angle_alpha   111.78499794
_cell_angle_beta   111.59997030
_cell_angle_gamma   105.11464002
_symmetry_Int_Tables_number   1
_chemical_formula_structural   Ho2B8IrPt
_chemical_formula_sum   'Ho4 B16 Ir2 Pt2'
_cell_volume   265.28647948
_cell_formula_units_Z   2
loop_
 _symmetry_equiv_pos_site_id
 _symmetry_equiv_pos_as_xyz
  1  'x, y, z'
loop_
 _atom_site_type_symbol
 _atom_site_label
 _atom_site_symmetry_multiplicity
 _atom_site_fract_x
 _atom_site_fract_y
 _atom_site_fract_z
 _atom_site_occupancy
  Ho  Ho0  1  0.787437  0.787437  0.000000  1
  Ho  Ho1  1  0.212563  0.212563  0.000000  1
  Ho  Ho2  1  0.742849  0.242849  0.500000  1
  Ho  Ho3  1  0.257151  0.757151  0.500000  1
  B  B4  1  0.266168  0.107264  0.373432  1
  B  B5  1  0.733832  0.892736  0.626568  1
  B  B6  1  0.266168  0.892736  0.158903  1
  B  B7  1  0.733832  0.107264  0.841097  1
  B  B8  1  0.106556  0.738916  0.845472  1
  B  B9  1  0.893444  0.261084  0.154528  1
  B  B10  1  0.106556  0.261084  0.367640  1
  B  B11  1  0.893444  0.738916  0.632360  1
  B  B12  1  0.111063  0.108437  0.524418  1
  B  B13  1  0.584018  0.586645  0.475582  1
  B  B14  1  0.111063  0.586645  0.002627  1
  B  B15  1  0.584018  0.108437  0.997373  1
  B  B16  1  0.888937  0.891563  0.475582  1
  B  B17  1  0.415982  0.413355  0.524418  1
  B  B18  1  0.888937  0.413355  0.997373  1
  B  B19  1  0.415982  0.891563  0.002627  1
  Ir  Ir20  1  0.500000  0.740118  0.240118  1
  Ir  Ir21  1  0.500000  0.259882  0.759882  1
  Pt  Pt22  1  0.254721  0.500000  0.754721  1
  Pt  Pt23  1  0.745279  0.500000  0.245279  1
