# generated using pymatgen
data_Rb6GdDyF12
_symmetry_space_group_name_H-M   'P 1'
_cell_length_a   6.90429932
_cell_length_b   6.66267112
_cell_length_c   11.57378300
_cell_angle_alpha   55.24634691
_cell_angle_beta   90.01742699
_cell_angle_gamma   89.99786051
_symmetry_Int_Tables_number   1
_chemical_formula_structural   Rb6GdDyF12
_chemical_formula_sum   'Rb6 Gd1 Dy1 F12'
_cell_volume   437.43075982
_cell_formula_units_Z   1
loop_
 _symmetry_equiv_pos_site_id
 _symmetry_equiv_pos_as_xyz
  1  'x, y, z'
loop_
 _atom_site_type_symbol
 _atom_site_label
 _atom_site_symmetry_multiplicity
 _atom_site_fract_x
 _atom_site_fract_y
 _atom_site_fract_z
 _atom_site_occupancy
  Rb  Rb0  1  0.500000  0.500000  0.000000  1
  Rb  Rb1  1  0.000000  0.500000  0.500000  1
  Rb  Rb2  1  0.049812  0.732528  0.754115  1
  Rb  Rb3  1  0.950188  0.267472  0.245885  1
  Rb  Rb4  1  0.550045  0.265715  0.747813  1
  Rb  Rb5  1  0.449955  0.734285  0.252187  1
  Gd  Gd6  1  0.500000  0.000000  0.500000  1
  Dy  Dy7  1  0.000000  0.000000  0.000000  1
  F  F8  1  0.767858  0.769752  0.565794  1
  F  F9  1  0.232142  0.230248  0.434206  1
  F  F10  1  0.263094  0.227122  0.935882  1
  F  F11  1  0.736906  0.772878  0.064118  1
  F  F12  1  0.448345  0.886200  0.720292  1
  F  F13  1  0.551655  0.113800  0.279708  1
  F  F14  1  0.949576  0.112388  0.783100  1
  F  F15  1  0.050424  0.887612  0.216900  1
  F  F16  1  0.327455  0.677755  0.547802  1
  F  F17  1  0.672545  0.322245  0.452198  1
  F  F18  1  0.828889  0.315914  0.953466  1
  F  F19  1  0.171111  0.684086  0.046534  1
