# generated using pymatgen
data_Li8Y8AlSb7
_symmetry_space_group_name_H-M   'P 1'
_cell_length_a   9.42098900
_cell_length_b   9.42098942
_cell_length_c   7.08335800
_cell_angle_alpha   90.00000000
_cell_angle_beta   90.00000000
_cell_angle_gamma   120.00000203
_symmetry_Int_Tables_number   1
_chemical_formula_structural   Li8Y8AlSb7
_chemical_formula_sum   'Li8 Y8 Al1 Sb7'
_cell_volume   544.45604949
_cell_formula_units_Z   1
loop_
 _symmetry_equiv_pos_site_id
 _symmetry_equiv_pos_as_xyz
  1  'x, y, z'
loop_
 _atom_site_type_symbol
 _atom_site_label
 _atom_site_symmetry_multiplicity
 _atom_site_fract_x
 _atom_site_fract_y
 _atom_site_fract_z
 _atom_site_occupancy
  Li  Li0  1  0.167067  0.832933  0.212666  1
  Li  Li1  1  0.337842  0.168921  0.711839  1
  Li  Li2  1  0.831079  0.662158  0.711839  1
  Li  Li3  1  0.167067  0.334131  0.212666  1
  Li  Li4  1  0.665869  0.832933  0.212666  1
  Li  Li5  1  0.831079  0.168921  0.711839  1
  Li  Li6  1  0.333333  0.666667  0.796106  1
  Li  Li7  1  0.666667  0.333333  0.289439  1
  Y  Y8  1  0.512437  0.487563  0.985623  1
  Y  Y9  1  0.009508  0.504754  0.492829  1
  Y  Y10  1  0.495246  0.990492  0.492829  1
  Y  Y11  1  0.512437  0.024873  0.985623  1
  Y  Y12  1  0.975127  0.487563  0.985623  1
  Y  Y13  1  0.495246  0.504754  0.492829  1
  Y  Y14  1  0.000000  0.000000  0.981743  1
  Y  Y15  1  0.000000  0.000000  0.484360  1
  Al  Al16  1  0.666667  0.333333  0.727434  1
  Sb  Sb17  1  0.166145  0.833855  0.745431  1
  Sb  Sb18  1  0.333545  0.166774  0.246432  1
  Sb  Sb19  1  0.833226  0.666455  0.246432  1
  Sb  Sb20  1  0.166145  0.332290  0.745431  1
  Sb  Sb21  1  0.667710  0.833855  0.745431  1
  Sb  Sb22  1  0.833226  0.166774  0.246432  1
  Sb  Sb23  1  0.333333  0.666667  0.226461  1
