# generated using pymatgen
data_Pr4Al13Au9
_symmetry_space_group_name_H-M   'P 1'
_cell_length_a   11.77034400
_cell_length_b   11.77034271
_cell_length_c   4.27882200
_cell_angle_alpha   90.00000000
_cell_angle_beta   90.00000000
_cell_angle_gamma   119.99999801
_symmetry_Int_Tables_number   1
_chemical_formula_structural   Pr4Al13Au9
_chemical_formula_sum   'Pr4 Al13 Au9'
_cell_volume   513.37311856
_cell_formula_units_Z   1
loop_
 _symmetry_equiv_pos_site_id
 _symmetry_equiv_pos_as_xyz
  1  'x, y, z'
loop_
 _atom_site_type_symbol
 _atom_site_label
 _atom_site_symmetry_multiplicity
 _atom_site_fract_x
 _atom_site_fract_y
 _atom_site_fract_z
 _atom_site_occupancy
  Pr  Pr0  1  0.204797  0.795203  0.500000  1
  Pr  Pr1  1  0.590406  0.795203  0.500000  1
  Pr  Pr2  1  0.204797  0.409594  0.500000  1
  Pr  Pr3  1  0.666667  0.333333  0.000000  1
  Al  Al4  1  0.947886  0.291679  0.000000  1
  Al  Al5  1  0.708321  0.656207  0.000000  1
  Al  Al6  1  0.947886  0.656207  0.000000  1
  Al  Al7  1  0.343793  0.052114  0.000000  1
  Al  Al8  1  0.164238  0.082119  0.500000  1
  Al  Al9  1  0.917881  0.835762  0.500000  1
  Al  Al10  1  0.708321  0.052114  0.000000  1
  Al  Al11  1  0.532270  0.064538  0.500000  1
  Al  Al12  1  0.917881  0.082119  0.500000  1
  Al  Al13  1  0.343793  0.291679  0.000000  1
  Al  Al14  1  0.532270  0.467730  0.500000  1
  Al  Al15  1  0.935462  0.467730  0.500000  1
  Al  Al16  1  0.333333  0.666667  0.000000  1
  Au  Au17  1  0.457918  0.542082  0.000000  1
  Au  Au18  1  0.827708  0.913854  0.000000  1
  Au  Au19  1  0.457918  0.915835  0.000000  1
  Au  Au20  1  0.086146  0.172292  0.000000  1
  Au  Au21  1  0.086146  0.913854  0.000000  1
  Au  Au22  1  0.790732  0.581462  0.500000  1
  Au  Au23  1  0.084165  0.542082  0.000000  1
  Au  Au24  1  0.790732  0.209268  0.500000  1
  Au  Au25  1  0.418538  0.209268  0.500000  1
