# generated using pymatgen
data_Nd2SmGa3(Ni3Sn)3
_symmetry_space_group_name_H-M   'P 1'
_cell_length_a   4.12106200
_cell_length_b   9.24538592
_cell_length_c   9.24538520
_cell_angle_alpha   59.81100017
_cell_angle_beta   90.00000000
_cell_angle_gamma   90.00000000
_symmetry_Int_Tables_number   1
_chemical_formula_structural   Nd2SmGa3(Ni3Sn)3
_chemical_formula_sum   'Nd2 Sm1 Ga3 Ni9 Sn3'
_cell_volume   304.48056129
_cell_formula_units_Z   1
loop_
 _symmetry_equiv_pos_site_id
 _symmetry_equiv_pos_as_xyz
  1  'x, y, z'
loop_
 _atom_site_type_symbol
 _atom_site_label
 _atom_site_symmetry_multiplicity
 _atom_site_fract_x
 _atom_site_fract_y
 _atom_site_fract_z
 _atom_site_occupancy
  Nd  Nd0  1  0.500000  0.333302  0.333719  1
  Nd  Nd1  1  0.500000  0.666281  0.666698  1
  Sm  Sm2  1  0.000000  0.000448  0.999552  1
  Ga  Ga3  1  0.500000  0.740697  0.259303  1
  Ga  Ga4  1  0.500000  0.259009  0.000190  1
  Ga  Ga5  1  0.500000  0.999810  0.740991  1
  Ni  Ni6  1  0.000000  0.208851  0.157571  1
  Ni  Ni7  1  0.000000  0.157669  0.633607  1
  Ni  Ni8  1  0.000000  0.634325  0.208012  1
  Ni  Ni9  1  0.000000  0.842429  0.791149  1
  Ni  Ni10  1  0.000000  0.366393  0.842331  1
  Ni  Ni11  1  0.000000  0.791988  0.365675  1
  Ni  Ni12  1  0.500000  0.276839  0.723161  1
  Ni  Ni13  1  0.500000  0.722152  0.000588  1
  Ni  Ni14  1  0.500000  0.999412  0.277848  1
  Sn  Sn15  1  0.000000  0.465975  0.534025  1
  Sn  Sn16  1  0.000000  0.534154  0.999834  1
  Sn  Sn17  1  0.000000  0.000166  0.465846  1
