# generated using pymatgen
data_AcLu(BO3)2
_symmetry_space_group_name_H-M   'P 1'
_cell_length_a   6.44122614
_cell_length_b   6.44122680
_cell_length_c   6.44122700
_cell_angle_alpha   46.74003434
_cell_angle_beta   46.74002887
_cell_angle_gamma   46.74004230
_symmetry_Int_Tables_number   1
_chemical_formula_structural   AcLu(BO3)2
_chemical_formula_sum   'Ac1 Lu1 B2 O6'
_cell_volume   129.48518069
_cell_formula_units_Z   1
loop_
 _symmetry_equiv_pos_site_id
 _symmetry_equiv_pos_as_xyz
  1  'x, y, z'
loop_
 _atom_site_type_symbol
 _atom_site_label
 _atom_site_symmetry_multiplicity
 _atom_site_fract_x
 _atom_site_fract_y
 _atom_site_fract_z
 _atom_site_occupancy
  Ac  Ac0  1  0.000000  0.000000  0.000000  1
  Lu  Lu1  1  0.500000  0.500000  0.500000  1
  B  B2  1  0.242819  0.242819  0.242819  1
  B  B3  1  0.757181  0.757181  0.757181  1
  O  O4  1  0.508818  0.712338  0.045081  1
  O  O5  1  0.954919  0.491182  0.287663  1
  O  O6  1  0.712337  0.045081  0.508819  1
  O  O7  1  0.287663  0.954919  0.491181  1
  O  O8  1  0.045081  0.508819  0.712337  1
  O  O9  1  0.491182  0.287663  0.954919  1
