# generated using pymatgen
data_TbHo2(Ga2Ni3)3
_symmetry_space_group_name_H-M   'P 1'
_cell_length_a   4.08044000
_cell_length_b   8.77487704
_cell_length_c   8.73792202
_cell_angle_alpha   60.24523158
_cell_angle_beta   90.00000000
_cell_angle_gamma   90.00000000
_symmetry_Int_Tables_number   1
_chemical_formula_structural   TbHo2(Ga2Ni3)3
_chemical_formula_sum   'Tb1 Ho2 Ga6 Ni9'
_cell_volume   271.61561198
_cell_formula_units_Z   1
loop_
 _symmetry_equiv_pos_site_id
 _symmetry_equiv_pos_as_xyz
  1  'x, y, z'
loop_
 _atom_site_type_symbol
 _atom_site_label
 _atom_site_symmetry_multiplicity
 _atom_site_fract_x
 _atom_site_fract_y
 _atom_site_fract_z
 _atom_site_occupancy
  Tb  Tb0  1  0.500000  0.666144  0.667040  1
  Ho  Ho1  1  0.500000  0.333493  0.333710  1
  Ho  Ho2  1  0.000000  0.999411  0.001492  1
  Ga  Ga3  1  0.500000  0.729542  0.270257  1
  Ga  Ga4  1  0.500000  0.269818  0.000328  1
  Ga  Ga5  1  0.500000  0.000277  0.730220  1
  Ga  Ga6  1  0.000000  0.478407  0.520810  1
  Ga  Ga7  1  0.000000  0.521768  0.999020  1
  Ga  Ga8  1  0.000000  0.000529  0.478411  1
  Ni  Ni9  1  0.000000  0.203636  0.173126  1
  Ni  Ni10  1  0.000000  0.172983  0.625792  1
  Ni  Ni11  1  0.000000  0.624966  0.201533  1
  Ni  Ni12  1  0.000000  0.828066  0.799589  1
  Ni  Ni13  1  0.000000  0.371173  0.827785  1
  Ni  Ni14  1  0.000000  0.798665  0.373485  1
  Ni  Ni15  1  0.500000  0.291957  0.706742  1
  Ni  Ni16  1  0.500000  0.708046  0.000357  1
  Ni  Ni17  1  0.500000  0.001017  0.290401  1
