# generated using pymatgen
data_Ce2ZrBiF15
_symmetry_space_group_name_H-M   'P 1'
_cell_length_a   8.55394273
_cell_length_b   8.55394444
_cell_length_c   8.60947800
_cell_angle_alpha   79.67152962
_cell_angle_beta   79.67152073
_cell_angle_gamma   99.53031421
_symmetry_Int_Tables_number   1
_chemical_formula_structural   Ce2ZrBiF15
_chemical_formula_sum   'Ce4 Zr2 Bi2 F30'
_cell_volume   596.84763905
_cell_formula_units_Z   2
loop_
 _symmetry_equiv_pos_site_id
 _symmetry_equiv_pos_as_xyz
  1  'x, y, z'
loop_
 _atom_site_type_symbol
 _atom_site_label
 _atom_site_symmetry_multiplicity
 _atom_site_fract_x
 _atom_site_fract_y
 _atom_site_fract_z
 _atom_site_occupancy
  Ce  Ce0  1  0.749662  0.681241  0.675926  1
  Ce  Ce1  1  0.318759  0.250338  0.824074  1
  Ce  Ce2  1  0.250338  0.318759  0.324074  1
  Ce  Ce3  1  0.681241  0.749662  0.175926  1
  Zr  Zr4  1  0.751877  0.248123  0.250000  1
  Zr  Zr5  1  0.248123  0.751877  0.750000  1
  Bi  Bi6  1  0.181366  0.818634  0.250000  1
  Bi  Bi7  1  0.818634  0.181366  0.750000  1
  F  F8  1  0.465244  0.534756  0.250000  1
  F  F9  1  0.751538  0.956600  0.967313  1
  F  F10  1  0.043400  0.248462  0.532687  1
  F  F11  1  0.248462  0.043400  0.032687  1
  F  F12  1  0.956600  0.751538  0.467313  1
  F  F13  1  0.534756  0.465244  0.750000  1
  F  F14  1  0.223839  0.504651  0.776736  1
  F  F15  1  0.230951  0.725752  0.993517  1
  F  F16  1  0.002479  0.729008  0.777350  1
  F  F17  1  0.729008  0.002479  0.277350  1
  F  F18  1  0.725752  0.230951  0.493517  1
  F  F19  1  0.504651  0.223839  0.276736  1
  F  F20  1  0.776162  0.495349  0.223264  1
  F  F21  1  0.769049  0.274248  0.006483  1
  F  F22  1  0.997521  0.270992  0.222650  1
  F  F23  1  0.270992  0.997521  0.722650  1
  F  F24  1  0.274248  0.769049  0.506483  1
  F  F25  1  0.495349  0.776161  0.723264  1
  F  F26  1  0.540494  0.149606  0.814989  1
  F  F27  1  0.191044  0.055510  0.349711  1
  F  F28  1  0.648362  0.684984  0.446577  1
  F  F29  1  0.684984  0.648362  0.946577  1
  F  F30  1  0.055510  0.191044  0.849711  1
  F  F31  1  0.149606  0.540494  0.314989  1
  F  F32  1  0.459506  0.850394  0.185011  1
  F  F33  1  0.808956  0.944490  0.650289  1
  F  F34  1  0.351638  0.315016  0.553423  1
  F  F35  1  0.315016  0.351638  0.053423  1
  F  F36  1  0.944490  0.808956  0.150289  1
  F  F37  1  0.850394  0.459506  0.685011  1
