# generated using pymatgen
data_Tb8HoTmIn6
_symmetry_space_group_name_H-M   'P 1'
_cell_length_a   6.04635101
_cell_length_b   9.19831785
_cell_length_c   9.19831800
_cell_angle_alpha   83.79873060
_cell_angle_beta   70.81216286
_cell_angle_gamma   70.81216314
_symmetry_Int_Tables_number   1
_chemical_formula_structural   Tb8HoTmIn6
_chemical_formula_sum   'Tb8 Ho1 Tm1 In6'
_cell_volume   456.31484786
_cell_formula_units_Z   1
loop_
 _symmetry_equiv_pos_site_id
 _symmetry_equiv_pos_as_xyz
  1  'x, y, z'
loop_
 _atom_site_type_symbol
 _atom_site_label
 _atom_site_symmetry_multiplicity
 _atom_site_fract_x
 _atom_site_fract_y
 _atom_site_fract_z
 _atom_site_occupancy
  Tb  Tb0  1  0.719692  0.862855  0.697596  1
  Tb  Tb1  1  0.280144  0.137145  0.302404  1
  Tb  Tb2  1  0.780308  0.302404  0.137145  1
  Tb  Tb3  1  0.219856  0.697596  0.862855  1
  Tb  Tb4  1  0.582712  0.697596  0.137145  1
  Tb  Tb5  1  0.417454  0.302404  0.862855  1
  Tb  Tb6  1  0.082546  0.137145  0.697596  1
  Tb  Tb7  1  0.917288  0.862855  0.302404  1
  Ho  Ho8  1  0.250000  0.500000  0.500000  1
  Tm  Tm9  1  0.750000  0.500000  0.500000  1
  In  In10  1  0.160629  0.500000  0.178249  1
  In  In11  1  0.838878  0.500000  0.821751  1
  In  In12  1  0.339371  0.821751  0.500000  1
  In  In13  1  0.661122  0.178249  0.500000  1
  In  In14  1  0.250000  0.000000  0.000000  1
  In  In15  1  0.750000  0.000000  0.000000  1
