# generated using pymatgen
data_YEr5Al24Ir5Ru3
_symmetry_space_group_name_H-M   'P 1'
_cell_length_a   8.76436500
_cell_length_b   8.80109676
_cell_length_c   9.51815700
_cell_angle_alpha   90.10552392
_cell_angle_beta   90.00000000
_cell_angle_gamma   119.86203231
_symmetry_Int_Tables_number   1
_chemical_formula_structural   YEr5Al24Ir5Ru3
_chemical_formula_sum   'Y1 Er5 Al24 Ir5 Ru3'
_cell_volume   636.71029270
_cell_formula_units_Z   1
loop_
 _symmetry_equiv_pos_site_id
 _symmetry_equiv_pos_as_xyz
  1  'x, y, z'
loop_
 _atom_site_type_symbol
 _atom_site_label
 _atom_site_symmetry_multiplicity
 _atom_site_fract_x
 _atom_site_fract_y
 _atom_site_fract_z
 _atom_site_occupancy
  Y  Y0  1  0.192328  0.384655  0.250182  1
  Er  Er1  1  0.806549  0.613098  0.749692  1
  Er  Er2  1  0.612951  0.808351  0.250167  1
  Er  Er3  1  0.387212  0.191978  0.749843  1
  Er  Er4  1  0.195399  0.808351  0.250167  1
  Er  Er5  1  0.804767  0.191978  0.749843  1
  Al  Al6  1  0.333672  0.667347  0.029227  1
  Al  Al7  1  0.666488  0.332974  0.970000  1
  Al  Al8  1  0.665347  0.330693  0.529102  1
  Al  Al9  1  0.334795  0.669590  0.471599  1
  Al  Al10  1  0.163161  0.326320  0.576926  1
  Al  Al11  1  0.836972  0.673946  0.423864  1
  Al  Al12  1  0.673199  0.837610  0.577167  1
  Al  Al13  1  0.837310  0.674619  0.076868  1
  Al  Al14  1  0.327295  0.162361  0.423424  1
  Al  Al15  1  0.162779  0.325559  0.922383  1
  Al  Al16  1  0.164411  0.837610  0.577167  1
  Al  Al17  1  0.327150  0.164213  0.076643  1
  Al  Al18  1  0.835066  0.162361  0.423424  1
  Al  Al19  1  0.673376  0.835773  0.922744  1
  Al  Al20  1  0.837063  0.164213  0.076643  1
  Al  Al21  1  0.162397  0.835773  0.922744  1
  Al  Al22  1  0.562066  0.124131  0.251370  1
  Al  Al23  1  0.437967  0.875934  0.748701  1
  Al  Al24  1  0.875129  0.438622  0.249792  1
  Al  Al25  1  0.124594  0.561656  0.750238  1
  Al  Al26  1  0.563493  0.438622  0.249792  1
  Al  Al27  1  0.437061  0.561656  0.750238  1
  Al  Al28  1  0.999768  0.999536  0.249957  1
  Al  Al29  1  0.999161  0.998321  0.750018  1
  Ir  Ir30  1  0.500068  0.000135  0.999933  1
  Ir  Ir31  1  0.999768  0.500237  0.999657  1
  Ir  Ir32  1  0.500469  0.500237  0.999657  1
  Ir  Ir33  1  0.999757  0.500278  0.500376  1
  Ir  Ir34  1  0.500521  0.500278  0.500376  1
  Ru  Ru35  1  0.500024  0.000048  0.500086  1
  Ru  Ru36  1  0.000197  0.000394  0.999989  1
  Ru  Ru37  1  0.000270  0.000540  0.500002  1
