# generated using pymatgen
data_Tm2Si7Ir12
_symmetry_space_group_name_H-M   'P 1'
_cell_length_a   9.76394100
_cell_length_b   9.76393956
_cell_length_c   3.87055800
_cell_angle_alpha   90.00000000
_cell_angle_beta   90.00000000
_cell_angle_gamma   120.00000825
_symmetry_Int_Tables_number   1
_chemical_formula_structural   Tm2Si7Ir12
_chemical_formula_sum   'Tm2 Si7 Ir12'
_cell_volume   319.56146564
_cell_formula_units_Z   1
loop_
 _symmetry_equiv_pos_site_id
 _symmetry_equiv_pos_as_xyz
  1  'x, y, z'
loop_
 _atom_site_type_symbol
 _atom_site_label
 _atom_site_symmetry_multiplicity
 _atom_site_fract_x
 _atom_site_fract_y
 _atom_site_fract_z
 _atom_site_occupancy
  Tm  Tm0  1  0.333333  0.666667  0.750015  1
  Tm  Tm1  1  0.666667  0.333333  0.249985  1
  Si  Si2  1  0.000000  0.000000  0.500000  1
  Si  Si3  1  0.405585  0.290375  0.751625  1
  Si  Si4  1  0.709625  0.115210  0.751625  1
  Si  Si5  1  0.884790  0.594415  0.751625  1
  Si  Si6  1  0.594415  0.709625  0.248375  1
  Si  Si7  1  0.290375  0.884790  0.248375  1
  Si  Si8  1  0.115210  0.405585  0.248375  1
  Ir  Ir9  1  0.444794  0.064007  0.750948  1
  Ir  Ir10  1  0.935993  0.380786  0.750948  1
  Ir  Ir11  1  0.619214  0.555206  0.750948  1
  Ir  Ir12  1  0.555206  0.935993  0.249052  1
  Ir  Ir13  1  0.064007  0.619214  0.249052  1
  Ir  Ir14  1  0.380786  0.444794  0.249052  1
  Ir  Ir15  1  0.145033  0.262471  0.746451  1
  Ir  Ir16  1  0.737529  0.882563  0.746451  1
  Ir  Ir17  1  0.117437  0.854967  0.746451  1
  Ir  Ir18  1  0.854967  0.737529  0.253549  1
  Ir  Ir19  1  0.262471  0.117437  0.253549  1
  Ir  Ir20  1  0.882563  0.145033  0.253549  1
