# generated using pymatgen
data_Y2Lu2B12MoOs
_symmetry_space_group_name_H-M   'P 1'
_cell_length_a   3.62529100
_cell_length_b   9.15264670
_cell_length_c   11.55196336
_cell_angle_alpha   89.81490396
_cell_angle_beta   90.00000000
_cell_angle_gamma   90.00000000
_symmetry_Int_Tables_number   1
_chemical_formula_structural   Y2Lu2B12MoOs
_chemical_formula_sum   'Y4 Lu4 B24 Mo2 Os2'
_cell_volume   383.30378487
_cell_formula_units_Z   2
loop_
 _symmetry_equiv_pos_site_id
 _symmetry_equiv_pos_as_xyz
  1  'x, y, z'
loop_
 _atom_site_type_symbol
 _atom_site_label
 _atom_site_symmetry_multiplicity
 _atom_site_fract_x
 _atom_site_fract_y
 _atom_site_fract_z
 _atom_site_occupancy
  Y  Y0  1  0.000000  0.321500  0.414184  1
  Y  Y1  1  0.000000  0.678500  0.585816  1
  Y  Y2  1  0.000000  0.821182  0.086015  1
  Y  Y3  1  0.000000  0.178818  0.913985  1
  Lu  Lu4  1  0.000000  0.944493  0.371516  1
  Lu  Lu5  1  0.000000  0.055507  0.628484  1
  Lu  Lu6  1  0.000000  0.442713  0.128170  1
  Lu  Lu7  1  0.000000  0.557287  0.871830  1
  B  B8  1  0.500000  0.552170  0.433656  1
  B  B9  1  0.500000  0.447830  0.566344  1
  B  B10  1  0.500000  0.054445  0.067339  1
  B  B11  1  0.500000  0.945555  0.932661  1
  B  B12  1  0.500000  0.752119  0.420227  1
  B  B13  1  0.500000  0.247881  0.579773  1
  B  B14  1  0.500000  0.250129  0.081597  1
  B  B15  1  0.500000  0.749871  0.918403  1
  B  B16  1  0.500000  0.795599  0.264399  1
  B  B17  1  0.500000  0.204401  0.735600  1
  B  B18  1  0.500000  0.291305  0.233537  1
  B  B19  1  0.500000  0.708695  0.766464  1
  B  B20  1  0.500000  0.630591  0.182350  1
  B  B21  1  0.500000  0.369409  0.817650  1
  B  B22  1  0.500000  0.129664  0.313833  1
  B  B23  1  0.500000  0.870336  0.686167  1
  B  B24  1  0.500000  0.982952  0.212351  1
  B  B25  1  0.500000  0.017048  0.787649  1
  B  B26  1  0.500000  0.478492  0.285983  1
  B  B27  1  0.500000  0.521508  0.714017  1
  B  B28  1  0.500000  0.600416  0.027164  1
  B  B29  1  0.500000  0.399584  0.972836  1
  B  B30  1  0.500000  0.100350  0.471457  1
  B  B31  1  0.500000  0.899650  0.528543  1
  Mo  Mo32  1  0.000000  0.639908  0.318418  1
  Mo  Mo33  1  0.000000  0.360092  0.681582  1
  Os  Os34  1  0.000000  0.138660  0.178710  1
  Os  Os35  1  0.000000  0.861340  0.821290  1
