# generated using pymatgen
data_Tm4Lu(SiB4)2
_symmetry_space_group_name_H-M   'P 1'
_cell_length_a   7.14597900
_cell_length_b   7.14597900
_cell_length_c   7.92779500
_cell_angle_alpha   90.00000000
_cell_angle_beta   90.00000000
_cell_angle_gamma   90.00000000
_symmetry_Int_Tables_number   1
_chemical_formula_structural   Tm4Lu(SiB4)2
_chemical_formula_sum   'Tm8 Lu2 Si4 B16'
_cell_volume   404.83297748
_cell_formula_units_Z   2
loop_
 _symmetry_equiv_pos_site_id
 _symmetry_equiv_pos_as_xyz
  1  'x, y, z'
loop_
 _atom_site_type_symbol
 _atom_site_label
 _atom_site_symmetry_multiplicity
 _atom_site_fract_x
 _atom_site_fract_y
 _atom_site_fract_z
 _atom_site_occupancy
  Tm  Tm0  1  0.680204  0.180204  0.224517  1
  Tm  Tm1  1  0.319796  0.819796  0.775483  1
  Tm  Tm2  1  0.319796  0.819796  0.224517  1
  Tm  Tm3  1  0.819796  0.680204  0.224517  1
  Tm  Tm4  1  0.819796  0.680204  0.775483  1
  Tm  Tm5  1  0.680204  0.180204  0.775483  1
  Tm  Tm6  1  0.180204  0.319796  0.775483  1
  Tm  Tm7  1  0.180204  0.319796  0.224517  1
  Lu  Lu8  1  0.000000  0.000000  0.500000  1
  Lu  Lu9  1  0.500000  0.500000  0.500000  1
  Si  Si10  1  0.116722  0.616722  0.500000  1
  Si  Si11  1  0.883278  0.383278  0.500000  1
  Si  Si12  1  0.383278  0.116722  0.500000  1
  Si  Si13  1  0.616722  0.883278  0.500000  1
  B  B14  1  0.172889  0.039137  0.000000  1
  B  B15  1  0.827111  0.960863  0.000000  1
  B  B16  1  0.960863  0.172889  0.000000  1
  B  B17  1  0.327111  0.539137  0.000000  1
  B  B18  1  0.039137  0.827111  0.000000  1
  B  B19  1  0.672889  0.460863  0.000000  1
  B  B20  1  0.539137  0.672889  0.000000  1
  B  B21  1  0.460863  0.327111  0.000000  1
  B  B22  1  0.089278  0.589278  0.000000  1
  B  B23  1  0.910722  0.410722  0.000000  1
  B  B24  1  0.410722  0.089278  0.000000  1
  B  B25  1  0.589278  0.910722  0.000000  1
  B  B26  1  0.000000  0.000000  0.166353  1
  B  B27  1  0.000000  0.000000  0.833647  1
  B  B28  1  0.500000  0.500000  0.833647  1
  B  B29  1  0.500000  0.500000  0.166353  1
