# generated using pymatgen
data_Zr12Al9Co3C4
_symmetry_space_group_name_H-M   'P 1'
_cell_length_a   8.66462591
_cell_length_b   8.66462538
_cell_length_c   8.66462597
_cell_angle_alpha   59.59027681
_cell_angle_beta   59.59027746
_cell_angle_gamma   59.59027919
_symmetry_Int_Tables_number   1
_chemical_formula_structural   Zr12Al9Co3C4
_chemical_formula_sum   'Zr12 Al9 Co3 C4'
_cell_volume   455.69143609
_cell_formula_units_Z   1
loop_
 _symmetry_equiv_pos_site_id
 _symmetry_equiv_pos_as_xyz
  1  'x, y, z'
loop_
 _atom_site_type_symbol
 _atom_site_label
 _atom_site_symmetry_multiplicity
 _atom_site_fract_x
 _atom_site_fract_y
 _atom_site_fract_z
 _atom_site_occupancy
  Zr  Zr0  1  0.693898  0.304980  0.693898  1
  Zr  Zr1  1  0.945020  0.556102  0.556102  1
  Zr  Zr2  1  0.558384  0.944628  0.944628  1
  Zr  Zr3  1  0.944628  0.558384  0.944628  1
  Zr  Zr4  1  0.556102  0.556102  0.945020  1
  Zr  Zr5  1  0.944628  0.944628  0.558384  1
  Zr  Zr6  1  0.693898  0.693898  0.304980  1
  Zr  Zr7  1  0.304980  0.693898  0.693898  1
  Zr  Zr8  1  0.691616  0.305372  0.305372  1
  Zr  Zr9  1  0.305372  0.305372  0.691616  1
  Zr  Zr10  1  0.556102  0.945020  0.556102  1
  Zr  Zr11  1  0.305372  0.691616  0.305372  1
  Al  Al12  1  0.125000  0.125000  0.125000  1
  Al  Al13  1  0.330539  0.330539  0.330539  1
  Al  Al14  1  0.236657  0.911965  0.911965  1
  Al  Al15  1  0.911965  0.236657  0.911965  1
  Al  Al16  1  0.911965  0.911965  0.236657  1
  Al  Al17  1  0.338035  0.013343  0.338035  1
  Al  Al18  1  0.338035  0.338035  0.013343  1
  Al  Al19  1  0.013343  0.338035  0.338035  1
  Al  Al20  1  0.919461  0.919461  0.919461  1
  Co  Co21  1  0.625000  0.125000  0.125000  1
  Co  Co22  1  0.125000  0.625000  0.125000  1
  Co  Co23  1  0.125000  0.125000  0.625000  1
  C  C24  1  0.625000  0.625000  0.625000  1
  C  C25  1  0.125000  0.625000  0.625000  1
  C  C26  1  0.625000  0.125000  0.625000  1
  C  C27  1  0.625000  0.625000  0.125000  1
