# generated using pymatgen
data_Nb6V4Ga5GeB2
_symmetry_space_group_name_H-M   'P 1'
_cell_length_a   7.69891316
_cell_length_b   7.70521943
_cell_length_c   5.12634700
_cell_angle_alpha   90.00000000
_cell_angle_beta   90.00000000
_cell_angle_gamma   120.02709040
_symmetry_Int_Tables_number   1
_chemical_formula_structural   Nb6V4Ga5GeB2
_chemical_formula_sum   'Nb6 V4 Ga5 Ge1 B2'
_cell_volume   263.29004901
_cell_formula_units_Z   1
loop_
 _symmetry_equiv_pos_site_id
 _symmetry_equiv_pos_as_xyz
  1  'x, y, z'
loop_
 _atom_site_type_symbol
 _atom_site_label
 _atom_site_symmetry_multiplicity
 _atom_site_fract_x
 _atom_site_fract_y
 _atom_site_fract_z
 _atom_site_occupancy
  Nb  Nb0  1  0.754334  0.754127  0.250000  1
  Nb  Nb1  1  0.245666  0.999794  0.250000  1
  Nb  Nb2  1  0.000000  0.246226  0.250000  1
  Nb  Nb3  1  0.244230  0.245606  0.750000  1
  Nb  Nb4  1  0.755770  0.001377  0.750000  1
  Nb  Nb5  1  0.000000  0.754662  0.750000  1
  V  V6  1  0.668201  0.333606  0.499427  1
  V  V7  1  0.331799  0.665406  0.499427  1
  V  V8  1  0.331799  0.665406  0.000573  1
  V  V9  1  0.668201  0.333606  0.000573  1
  Ga  Ga10  1  0.406607  0.405638  0.250000  1
  Ga  Ga11  1  0.593393  0.999032  0.250000  1
  Ga  Ga12  1  0.000000  0.595765  0.250000  1
  Ga  Ga13  1  0.593857  0.593929  0.750000  1
  Ga  Ga14  1  0.406143  0.000072  0.750000  1
  Ge  Ge15  1  0.000000  0.407085  0.750000  1
  B  B16  1  0.000000  0.999330  0.499148  1
  B  B17  1  0.000000  0.999330  0.000852  1
