# generated using pymatgen
data_Pr2TmRuBr3
_symmetry_space_group_name_H-M   'P 1'
_cell_length_a   4.24763500
_cell_length_b   8.68680249
_cell_length_c   12.09748967
_cell_angle_alpha   86.12790475
_cell_angle_beta   90.00000000
_cell_angle_gamma   90.00000000
_symmetry_Int_Tables_number   1
_chemical_formula_structural   Pr2TmRuBr3
_chemical_formula_sum   'Pr4 Tm2 Ru2 Br6'
_cell_volume   445.35865287
_cell_formula_units_Z   2
loop_
 _symmetry_equiv_pos_site_id
 _symmetry_equiv_pos_as_xyz
  1  'x, y, z'
loop_
 _atom_site_type_symbol
 _atom_site_label
 _atom_site_symmetry_multiplicity
 _atom_site_fract_x
 _atom_site_fract_y
 _atom_site_fract_z
 _atom_site_occupancy
  Pr  Pr0  1  0.750000  0.099523  0.670349  1
  Pr  Pr1  1  0.250000  0.900477  0.329651  1
  Pr  Pr2  1  0.250000  0.284296  0.898995  1
  Pr  Pr3  1  0.750000  0.715704  0.101005  1
  Tm  Tm4  1  0.750000  0.125824  0.126274  1
  Tm  Tm5  1  0.250000  0.874176  0.873726  1
  Ru  Ru6  1  0.750000  0.056570  0.904662  1
  Ru  Ru7  1  0.250000  0.943430  0.095338  1
  Br  Br8  1  0.250000  0.344609  0.641986  1
  Br  Br9  1  0.750000  0.655391  0.358014  1
  Br  Br10  1  0.750000  0.141839  0.386330  1
  Br  Br11  1  0.250000  0.858161  0.613670  1
  Br  Br12  1  0.250000  0.418138  0.133735  1
  Br  Br13  1  0.750000  0.581862  0.866265  1
