# generated using pymatgen
data_LuTa(SeO3)4
_symmetry_space_group_name_H-M   'P 1'
_cell_length_a   8.52859900
_cell_length_b   8.77532248
_cell_length_c   8.60767035
_cell_angle_alpha   90.48314123
_cell_angle_beta   90.00000000
_cell_angle_gamma   90.00000000
_symmetry_Int_Tables_number   1
_chemical_formula_structural   LuTa(SeO3)4
_chemical_formula_sum   'Lu2 Ta2 Se8 O24'
_cell_volume   644.18553138
_cell_formula_units_Z   2
loop_
 _symmetry_equiv_pos_site_id
 _symmetry_equiv_pos_as_xyz
  1  'x, y, z'
loop_
 _atom_site_type_symbol
 _atom_site_label
 _atom_site_symmetry_multiplicity
 _atom_site_fract_x
 _atom_site_fract_y
 _atom_site_fract_z
 _atom_site_occupancy
  Lu  Lu0  1  0.000000  0.500000  0.000000  1
  Lu  Lu1  1  0.500000  0.500000  0.500000  1
  Ta  Ta2  1  0.000000  0.000000  0.500000  1
  Ta  Ta3  1  0.500000  0.000000  0.000000  1
  Se  Se4  1  0.334150  0.681597  0.172266  1
  Se  Se5  1  0.834150  0.318403  0.327734  1
  Se  Se6  1  0.689635  0.830855  0.684561  1
  Se  Se7  1  0.189635  0.169145  0.815439  1
  Se  Se8  1  0.665850  0.318403  0.827734  1
  Se  Se9  1  0.165850  0.681597  0.672266  1
  Se  Se10  1  0.310365  0.169145  0.315439  1
  Se  Se11  1  0.810365  0.830855  0.184561  1
  O  O12  1  0.243702  0.563007  0.044741  1
  O  O13  1  0.743702  0.436993  0.455259  1
  O  O14  1  0.773515  0.967610  0.560686  1
  O  O15  1  0.273515  0.032390  0.939314  1
  O  O16  1  0.556326  0.955173  0.777390  1
  O  O17  1  0.470717  0.569855  0.257717  1
  O  O18  1  0.970717  0.430145  0.242283  1
  O  O19  1  0.056326  0.044827  0.722610  1
  O  O20  1  0.959747  0.217325  0.461486  1
  O  O21  1  0.570869  0.737168  0.562122  1
  O  O22  1  0.459747  0.782675  0.038514  1
  O  O23  1  0.070869  0.262832  0.937878  1
  O  O24  1  0.756298  0.436993  0.955259  1
  O  O25  1  0.256298  0.563007  0.544741  1
  O  O26  1  0.226485  0.032390  0.439314  1
  O  O27  1  0.726485  0.967610  0.060686  1
  O  O28  1  0.443674  0.044827  0.222610  1
  O  O29  1  0.529283  0.430145  0.742283  1
  O  O30  1  0.029283  0.569855  0.757717  1
  O  O31  1  0.943674  0.955173  0.277390  1
  O  O32  1  0.040253  0.782675  0.538514  1
  O  O33  1  0.429131  0.262832  0.437878  1
  O  O34  1  0.540253  0.217325  0.961486  1
  O  O35  1  0.929131  0.737168  0.062122  1
