# generated using pymatgen
data_Tm19Lu(Bi3Sb)3
_symmetry_space_group_name_H-M   'P 1'
_cell_length_a   8.10689265
_cell_length_b   9.39199904
_cell_length_c   11.82153114
_cell_angle_alpha   90.00427801
_cell_angle_beta   89.95527101
_cell_angle_gamma   89.99086646
_symmetry_Int_Tables_number   1
_chemical_formula_structural   Tm19Lu(Bi3Sb)3
_chemical_formula_sum   'Tm19 Lu1 Bi9 Sb3'
_cell_volume   900.09024128
_cell_formula_units_Z   1
loop_
 _symmetry_equiv_pos_site_id
 _symmetry_equiv_pos_as_xyz
  1  'x, y, z'
loop_
 _atom_site_type_symbol
 _atom_site_label
 _atom_site_symmetry_multiplicity
 _atom_site_fract_x
 _atom_site_fract_y
 _atom_site_fract_z
 _atom_site_occupancy
  Tm  Tm0  1  0.027013  0.250017  0.510700  1
  Tm  Tm1  1  0.972810  0.749901  0.489195  1
  Tm  Tm2  1  0.471712  0.750004  0.011294  1
  Tm  Tm3  1  0.523999  0.249955  0.989240  1
  Tm  Tm4  1  0.354575  0.249953  0.285153  1
  Tm  Tm5  1  0.645384  0.749903  0.714531  1
  Tm  Tm6  1  0.145391  0.749867  0.784904  1
  Tm  Tm7  1  0.853588  0.249981  0.218072  1
  Tm  Tm8  1  0.189703  0.249999  0.780242  1
  Tm  Tm9  1  0.814748  0.749994  0.216908  1
  Tm  Tm10  1  0.315127  0.749930  0.283193  1
  Tm  Tm11  1  0.683360  0.250004  0.715010  1
  Tm  Tm12  1  0.192001  0.062386  0.059445  1
  Tm  Tm13  1  0.809432  0.931837  0.941783  1
  Tm  Tm14  1  0.310536  0.935066  0.558016  1
  Tm  Tm15  1  0.809422  0.568165  0.941783  1
  Tm  Tm16  1  0.689207  0.064528  0.442259  1
  Tm  Tm17  1  0.192035  0.437628  0.059432  1
  Tm  Tm18  1  0.689288  0.435524  0.442249  1
  Lu  Lu19  1  0.310542  0.565245  0.558061  1
  Bi  Bi20  1  0.905530  0.250001  0.956554  1
  Bi  Bi21  1  0.066312  0.003086  0.325281  1
  Bi  Bi22  1  0.933753  0.996755  0.674882  1
  Bi  Bi23  1  0.434114  0.996081  0.825078  1
  Bi  Bi24  1  0.933786  0.503191  0.674870  1
  Bi  Bi25  1  0.566550  0.003503  0.175015  1
  Bi  Bi26  1  0.066239  0.496844  0.325299  1
  Bi  Bi27  1  0.566515  0.496463  0.175041  1
  Bi  Bi28  1  0.434080  0.503867  0.825047  1
  Sb  Sb29  1  0.404319  0.250465  0.541587  1
  Sb  Sb30  1  0.594668  0.749845  0.457847  1
  Sb  Sb31  1  0.094261  0.750008  0.042031  1
