# generated using pymatgen
data_ErSc(NiP)3
_symmetry_space_group_name_H-M   'P 1'
_cell_length_a   3.74507800
_cell_length_b   10.11979300
_cell_length_c   12.27926100
_cell_angle_alpha   90.00000000
_cell_angle_beta   90.00000000
_cell_angle_gamma   90.00000000
_symmetry_Int_Tables_number   1
_chemical_formula_structural   ErSc(NiP)3
_chemical_formula_sum   'Er4 Sc4 Ni12 P12'
_cell_volume   465.37679784
_cell_formula_units_Z   4
loop_
 _symmetry_equiv_pos_site_id
 _symmetry_equiv_pos_as_xyz
  1  'x, y, z'
loop_
 _atom_site_type_symbol
 _atom_site_label
 _atom_site_symmetry_multiplicity
 _atom_site_fract_x
 _atom_site_fract_y
 _atom_site_fract_z
 _atom_site_occupancy
  Er  Er0  1  0.250000  0.070812  0.210110  1
  Er  Er1  1  0.750000  0.929188  0.789890  1
  Er  Er2  1  0.750000  0.570812  0.289890  1
  Er  Er3  1  0.250000  0.429188  0.710110  1
  Sc  Sc4  1  0.250000  0.157210  0.496980  1
  Sc  Sc5  1  0.750000  0.842790  0.503020  1
  Sc  Sc6  1  0.750000  0.657210  0.003020  1
  Sc  Sc7  1  0.250000  0.342790  0.996980  1
  Ni  Ni8  1  0.250000  0.727205  0.665222  1
  Ni  Ni9  1  0.750000  0.272795  0.334778  1
  Ni  Ni10  1  0.750000  0.227205  0.834778  1
  Ni  Ni11  1  0.250000  0.772795  0.165222  1
  Ni  Ni12  1  0.250000  0.365468  0.218545  1
  Ni  Ni13  1  0.750000  0.634532  0.781455  1
  Ni  Ni14  1  0.750000  0.865468  0.281455  1
  Ni  Ni15  1  0.250000  0.134532  0.718545  1
  Ni  Ni16  1  0.250000  0.595272  0.483135  1
  Ni  Ni17  1  0.750000  0.404728  0.516865  1
  Ni  Ni18  1  0.750000  0.095272  0.016865  1
  Ni  Ni19  1  0.250000  0.904728  0.983135  1
  P  P20  1  0.250000  0.944142  0.622143  1
  P  P21  1  0.750000  0.055858  0.377857  1
  P  P22  1  0.750000  0.444142  0.877857  1
  P  P23  1  0.250000  0.555858  0.122143  1
  P  P24  1  0.250000  0.393959  0.400831  1
  P  P25  1  0.750000  0.606041  0.599169  1
  P  P26  1  0.750000  0.893959  0.099169  1
  P  P27  1  0.250000  0.106041  0.900831  1
  P  P28  1  0.250000  0.769931  0.355163  1
  P  P29  1  0.750000  0.230069  0.644837  1
  P  P30  1  0.750000  0.269931  0.144837  1
  P  P31  1  0.250000  0.730069  0.855163  1
