# generated using pymatgen
data_Y2Ho2Pd3PtF28
_symmetry_space_group_name_H-M   'P 1'
_cell_length_a   5.53469833
_cell_length_b   8.85537645
_cell_length_c   11.95173023
_cell_angle_alpha   62.52608855
_cell_angle_beta   90.01049159
_cell_angle_gamma   89.97114420
_symmetry_Int_Tables_number   1
_chemical_formula_structural   Y2Ho2Pd3PtF28
_chemical_formula_sum   'Y2 Ho2 Pd3 Pt1 F28'
_cell_volume   519.71286733
_cell_formula_units_Z   1
loop_
 _symmetry_equiv_pos_site_id
 _symmetry_equiv_pos_as_xyz
  1  'x, y, z'
loop_
 _atom_site_type_symbol
 _atom_site_label
 _atom_site_symmetry_multiplicity
 _atom_site_fract_x
 _atom_site_fract_y
 _atom_site_fract_z
 _atom_site_occupancy
  Y  Y0  1  0.761887  0.812635  0.764554  1
  Y  Y1  1  0.261129  0.186928  0.736062  1
  Ho  Ho2  1  0.238105  0.186032  0.234797  1
  Ho  Ho3  1  0.738369  0.814622  0.264072  1
  Pd  Pd4  1  0.758586  0.271725  0.957896  1
  Pd  Pd5  1  0.258774  0.728315  0.542127  1
  Pd  Pd6  1  0.241062  0.727126  0.043978  1
  Pt  Pt7  1  0.741164  0.273071  0.455883  1
  F  F8  1  0.433407  0.701897  0.917335  1
  F  F9  1  0.935076  0.298336  0.583981  1
  F  F10  1  0.565028  0.297062  0.084130  1
  F  F11  1  0.064940  0.702962  0.415794  1
  F  F12  1  0.438735  0.279185  0.540867  1
  F  F13  1  0.941129  0.720703  0.959907  1
  F  F14  1  0.559265  0.722346  0.457692  1
  F  F15  1  0.059181  0.277777  0.042067  1
  F  F16  1  0.775423  0.519066  0.859374  1
  F  F17  1  0.275976  0.480931  0.640904  1
  F  F18  1  0.225052  0.479258  0.141511  1
  F  F19  1  0.725604  0.523122  0.357655  1
  F  F20  1  0.753872  0.024548  0.049748  1
  F  F21  1  0.253818  0.975658  0.450086  1
  F  F22  1  0.245720  0.974164  0.952170  1
  F  F23  1  0.745561  0.023639  0.548778  1
  F  F24  1  0.966721  0.723611  0.634615  1
  F  F25  1  0.466437  0.275856  0.865728  1
  F  F26  1  0.036147  0.274829  0.363282  1
  F  F27  1  0.533424  0.724847  0.135955  1
  F  F28  1  0.052711  0.745590  0.175725  1
  F  F29  1  0.551424  0.254065  0.323271  1
  F  F30  1  0.945003  0.254636  0.825405  1
  F  F31  1  0.445065  0.745103  0.674980  1
  F  F32  1  0.415132  0.970191  0.232393  1
  F  F33  1  0.915056  0.029998  0.267529  1
  F  F34  1  0.588081  0.031291  0.767950  1
  F  F35  1  0.087937  0.968875  0.731797  1
