# generated using pymatgen
data_CaLa4EuSe8
_symmetry_space_group_name_H-M   'P 1'
_cell_length_a   7.87237351
_cell_length_b   7.87237180
_cell_length_c   7.87237115
_cell_angle_alpha   109.52925241
_cell_angle_beta   109.52924546
_cell_angle_gamma   109.35521738
_symmetry_Int_Tables_number   1
_chemical_formula_structural   CaLa4EuSe8
_chemical_formula_sum   'Ca1 La4 Eu1 Se8'
_cell_volume   375.57240165
_cell_formula_units_Z   1
loop_
 _symmetry_equiv_pos_site_id
 _symmetry_equiv_pos_as_xyz
  1  'x, y, z'
loop_
 _atom_site_type_symbol
 _atom_site_label
 _atom_site_symmetry_multiplicity
 _atom_site_fract_x
 _atom_site_fract_y
 _atom_site_fract_z
 _atom_site_occupancy
  Ca  Ca0  1  0.500000  0.500000  0.000000  1
  La  La1  1  0.997192  0.375252  0.121774  1
  La  La2  1  0.253479  0.875418  0.878226  1
  La  La3  1  0.624748  0.746521  0.621940  1
  La  La4  1  0.124582  0.002808  0.378060  1
  Eu  Eu5  1  0.750000  0.250000  0.500000  1
  Se  Se6  1  0.520959  0.126573  0.751694  1
  Se  Se7  1  0.020652  0.121183  0.749585  1
  Se  Se8  1  0.371599  0.271066  0.250415  1
  Se  Se9  1  0.230733  0.479041  0.605614  1
  Se  Se10  1  0.374879  0.769267  0.248306  1
  Se  Se11  1  0.878817  0.628401  0.899467  1
  Se  Se12  1  0.873427  0.625121  0.394386  1
  Se  Se13  1  0.728934  0.979348  0.100533  1
