# generated using pymatgen
data_Na2Lu(P2Rh3)3
_symmetry_space_group_name_H-M   'P 1'
_cell_length_a   3.92744400
_cell_length_b   11.21607700
_cell_length_c   12.57281930
_cell_angle_alpha   89.79984657
_cell_angle_beta   90.00000000
_cell_angle_gamma   90.00000000
_symmetry_Int_Tables_number   1
_chemical_formula_structural   Na2Lu(P2Rh3)3
_chemical_formula_sum   'Na4 Lu2 P12 Rh18'
_cell_volume   553.83577730
_cell_formula_units_Z   2
loop_
 _symmetry_equiv_pos_site_id
 _symmetry_equiv_pos_as_xyz
  1  'x, y, z'
loop_
 _atom_site_type_symbol
 _atom_site_label
 _atom_site_symmetry_multiplicity
 _atom_site_fract_x
 _atom_site_fract_y
 _atom_site_fract_z
 _atom_site_occupancy
  Na  Na0  1  0.000000  0.500516  0.523929  1
  Na  Na1  1  0.500000  0.820430  0.206343  1
  Na  Na2  1  0.500000  0.179275  0.206295  1
  Na  Na3  1  0.000000  0.680621  0.793299  1
  Lu  Lu4  1  0.500000  0.001942  0.473234  1
  Lu  Lu5  1  0.000000  0.322388  0.789895  1
  P  P6  1  0.500000  0.501945  0.879204  1
  P  P7  1  0.000000  0.998873  0.120785  1
  P  P8  1  0.500000  0.500378  0.344200  1
  P  P9  1  0.000000  0.996825  0.650768  1
  P  P10  1  0.500000  0.309514  0.618294  1
  P  P11  1  0.500000  0.690409  0.620439  1
  P  P12  1  0.000000  0.188701  0.381118  1
  P  P13  1  0.000000  0.809638  0.381597  1
  P  P14  1  0.500000  0.845875  0.891896  1
  P  P15  1  0.500000  0.154646  0.893838  1
  P  P16  1  0.000000  0.654823  0.107343  1
  P  P17  1  0.000000  0.347208  0.109574  1
  Rh  Rh18  1  0.500000  0.496990  0.162298  1
  Rh  Rh19  1  0.000000  0.002754  0.835062  1
  Rh  Rh20  1  0.500000  0.493826  0.700613  1
  Rh  Rh21  1  0.000000  0.999496  0.307638  1
  Rh  Rh22  1  0.000000  0.499171  0.983897  1
  Rh  Rh23  1  0.500000  0.999817  0.015594  1
  Rh  Rh24  1  0.500000  0.332883  0.988869  1
  Rh  Rh25  1  0.500000  0.667797  0.992357  1
  Rh  Rh26  1  0.000000  0.169449  0.008951  1
  Rh  Rh27  1  0.000000  0.832296  0.007331  1
  Rh  Rh28  1  0.500000  0.295970  0.432544  1
  Rh  Rh29  1  0.500000  0.704144  0.431987  1
  Rh  Rh30  1  0.000000  0.198309  0.569102  1
  Rh  Rh31  1  0.000000  0.797409  0.568858  1
  Rh  Rh32  1  0.500000  0.876782  0.708887  1
  Rh  Rh33  1  0.500000  0.129902  0.713226  1
  Rh  Rh34  1  0.000000  0.625276  0.289638  1
  Rh  Rh35  1  0.000000  0.373723  0.291099  1
