# generated using pymatgen
data_Ac3Ta8O24
_symmetry_space_group_name_H-M   'P 1'
_cell_length_a   8.86565710
_cell_length_b   8.86565825
_cell_length_c   8.93067100
_cell_angle_alpha   66.59201063
_cell_angle_beta   66.59201444
_cell_angle_gamma   53.07574939
_symmetry_Int_Tables_number   1
_chemical_formula_structural   Ac3Ta8O24
_chemical_formula_sum   'Ac3 Ta8 O24'
_cell_volume   502.79696719
_cell_formula_units_Z   1
loop_
 _symmetry_equiv_pos_site_id
 _symmetry_equiv_pos_as_xyz
  1  'x, y, z'
loop_
 _atom_site_type_symbol
 _atom_site_label
 _atom_site_symmetry_multiplicity
 _atom_site_fract_x
 _atom_site_fract_y
 _atom_site_fract_z
 _atom_site_occupancy
  Ac  Ac0  1  0.500000  0.500000  0.000000  1
  Ac  Ac1  1  0.248285  0.248285  0.000066  1
  Ac  Ac2  1  0.751715  0.751715  0.999934  1
  Ta  Ta3  1  0.304251  0.811188  0.261408  1
  Ta  Ta4  1  0.811188  0.304251  0.261408  1
  Ta  Ta5  1  0.434817  0.942008  0.738629  1
  Ta  Ta6  1  0.942008  0.434817  0.738629  1
  Ta  Ta7  1  0.565183  0.057992  0.261371  1
  Ta  Ta8  1  0.057992  0.565183  0.261371  1
  Ta  Ta9  1  0.695749  0.188812  0.738592  1
  Ta  Ta10  1  0.188812  0.695749  0.738592  1
  O  O11  1  0.069353  0.069353  0.235509  1
  O  O12  1  0.568828  0.568828  0.231355  1
  O  O13  1  0.387754  0.870202  0.000013  1
  O  O14  1  0.749675  0.250325  0.500000  1
  O  O15  1  0.870202  0.387754  0.000013  1
  O  O16  1  0.250325  0.749675  0.500000  1
  O  O17  1  0.320870  0.798907  0.760418  1
  O  O18  1  0.798907  0.320870  0.760418  1
  O  O19  1  0.941397  0.441225  0.234784  1
  O  O20  1  0.441225  0.941397  0.234784  1
  O  O21  1  0.813013  0.813013  0.235265  1
  O  O22  1  0.186987  0.186987  0.764735  1
  O  O23  1  0.684508  0.684508  0.768554  1
  O  O24  1  0.500000  0.000000  0.500000  1
  O  O25  1  0.315492  0.315492  0.231446  1
  O  O26  1  0.612246  0.129798  0.999987  1
  O  O27  1  0.000000  0.500000  0.500000  1
  O  O28  1  0.129798  0.612246  0.999987  1
  O  O29  1  0.058603  0.558775  0.765216  1
  O  O30  1  0.558775  0.058603  0.765216  1
  O  O31  1  0.679130  0.201093  0.239582  1
  O  O32  1  0.201093  0.679130  0.239582  1
  O  O33  1  0.431172  0.431172  0.768645  1
  O  O34  1  0.930647  0.930647  0.764491  1
