# generated using pymatgen
data_Er2P7(IrRu5)2
_symmetry_space_group_name_H-M   'P 1'
_cell_length_a   9.39483506
_cell_length_b   9.46146031
_cell_length_c   3.95145400
_cell_angle_alpha   90.00000000
_cell_angle_beta   90.00000000
_cell_angle_gamma   120.15669756
_symmetry_Int_Tables_number   1
_chemical_formula_structural   Er2P7(IrRu5)2
_chemical_formula_sum   'Er2 P7 Ir2 Ru10'
_cell_volume   303.70153028
_cell_formula_units_Z   1
loop_
 _symmetry_equiv_pos_site_id
 _symmetry_equiv_pos_as_xyz
  1  'x, y, z'
loop_
 _atom_site_type_symbol
 _atom_site_label
 _atom_site_symmetry_multiplicity
 _atom_site_fract_x
 _atom_site_fract_y
 _atom_site_fract_z
 _atom_site_occupancy
  Er  Er0  1  0.668492  0.333772  0.500000  1
  Er  Er1  1  0.330430  0.665413  0.000000  1
  P  P2  1  0.599977  0.716729  0.500000  1
  P  P3  1  0.000492  0.000821  0.000000  1
  P  P4  1  0.277847  0.878922  0.500000  1
  P  P5  1  0.114172  0.402424  0.500000  1
  P  P6  1  0.884693  0.576091  0.000000  1
  P  P7  1  0.425514  0.303556  0.000000  1
  P  P8  1  0.697633  0.119643  0.000000  1
  Ir  Ir9  1  0.550507  0.941594  0.500000  1
  Ir  Ir10  1  0.389912  0.447144  0.500000  1
  Ru  Ru11  1  0.913983  0.126057  0.500000  1
  Ru  Ru12  1  0.214580  0.087722  0.500000  1
  Ru  Ru13  1  0.874325  0.790828  0.500000  1
  Ru  Ru14  1  0.726256  0.891813  0.000000  1
  Ru  Ru15  1  0.109418  0.838067  0.000000  1
  Ru  Ru16  1  0.166515  0.272100  0.000000  1
  Ru  Ru17  1  0.431877  0.066834  0.000000  1
  Ru  Ru18  1  0.935686  0.361993  0.000000  1
  Ru  Ru19  1  0.637662  0.569975  0.000000  1
  Ru  Ru20  1  0.050028  0.608503  0.500000  1
