# generated using pymatgen
data_Lu7Zr(Si4W3)4
_symmetry_space_group_name_H-M   'P 1'
_cell_length_a   6.67904475
_cell_length_b   6.86560315
_cell_length_c   12.81613551
_cell_angle_alpha   90.08097699
_cell_angle_beta   90.00323552
_cell_angle_gamma   90.09502599
_symmetry_Int_Tables_number   1
_chemical_formula_structural   Lu7Zr(Si4W3)4
_chemical_formula_sum   'Lu7 Zr1 Si16 W12'
_cell_volume   587.69109353
_cell_formula_units_Z   1
loop_
 _symmetry_equiv_pos_site_id
 _symmetry_equiv_pos_as_xyz
  1  'x, y, z'
loop_
 _atom_site_type_symbol
 _atom_site_label
 _atom_site_symmetry_multiplicity
 _atom_site_fract_x
 _atom_site_fract_y
 _atom_site_fract_z
 _atom_site_occupancy
  Lu  Lu0  1  0.493504  0.668879  0.592390  1
  Lu  Lu1  1  0.994776  0.831777  0.907049  1
  Lu  Lu2  1  0.504965  0.331488  0.093162  1
  Lu  Lu3  1  0.004782  0.167291  0.407832  1
  Lu  Lu4  1  0.505054  0.331649  0.407618  1
  Lu  Lu5  1  0.004944  0.168638  0.093115  1
  Lu  Lu6  1  0.494722  0.668810  0.906542  1
  Zr  Zr7  1  0.993807  0.830204  0.595408  1
  Si  Si8  1  0.665881  0.959300  0.455443  1
  Si  Si9  1  0.163167  0.539394  0.045997  1
  Si  Si10  1  0.336872  0.040773  0.953895  1
  Si  Si11  1  0.837204  0.460651  0.545403  1
  Si  Si12  1  0.332175  0.039335  0.544821  1
  Si  Si13  1  0.836754  0.459816  0.953385  1
  Si  Si14  1  0.663387  0.959588  0.046030  1
  Si  Si15  1  0.163293  0.541862  0.455282  1
  Si  Si16  1  0.465143  0.374300  0.750076  1
  Si  Si17  1  0.964517  0.125267  0.749099  1
  Si  Si18  1  0.535862  0.626454  0.249969  1
  Si  Si19  1  0.035349  0.874232  0.249743  1
  Si  Si20  1  0.698656  0.862579  0.749920  1
  Si  Si21  1  0.196980  0.637397  0.749604  1
  Si  Si22  1  0.302461  0.137400  0.250331  1
  Si  Si23  1  0.803117  0.363083  0.250320  1
  W  W24  1  0.667667  0.162247  0.624807  1
  W  W25  1  0.167680  0.335102  0.874309  1
  W  W26  1  0.331554  0.836817  0.124265  1
  W  W27  1  0.833186  0.664691  0.376253  1
  W  W28  1  0.332266  0.836335  0.375198  1
  W  W29  1  0.832442  0.664325  0.124838  1
  W  W30  1  0.668666  0.162226  0.875100  1
  W  W31  1  0.168425  0.336058  0.624265  1
  W  W32  1  0.833097  0.504877  0.749017  1
  W  W33  1  0.333644  0.996879  0.748274  1
  W  W34  1  0.167236  0.497945  0.250065  1
  W  W35  1  0.666766  0.002336  0.251175  1
