# generated using pymatgen
data_LiNdCr2O8
_symmetry_space_group_name_H-M   'P 1'
_cell_length_a   6.06573831
_cell_length_b   6.06573913
_cell_length_c   6.06573870
_cell_angle_alpha   105.78925455
_cell_angle_beta   105.78925601
_cell_angle_gamma   117.11644821
_symmetry_Int_Tables_number   1
_chemical_formula_structural   LiNdCr2O8
_chemical_formula_sum   'Li1 Nd1 Cr2 O8'
_cell_volume   169.47944170
_cell_formula_units_Z   1
loop_
 _symmetry_equiv_pos_site_id
 _symmetry_equiv_pos_as_xyz
  1  'x, y, z'
loop_
 _atom_site_type_symbol
 _atom_site_label
 _atom_site_symmetry_multiplicity
 _atom_site_fract_x
 _atom_site_fract_y
 _atom_site_fract_z
 _atom_site_occupancy
  Li  Li0  1  0.000000  0.000000  0.000000  1
  Nd  Nd1  1  0.250000  0.750000  0.500000  1
  Cr  Cr2  1  0.750000  0.250000  0.500000  1
  Cr  Cr3  1  0.500000  0.500000  0.000000  1
  O  O4  1  0.342141  0.523693  0.181553  1
  O  O5  1  0.407369  0.086788  0.320581  1
  O  O6  1  0.766206  0.086788  0.679419  1
  O  O7  1  0.342141  0.160588  0.818447  1
  O  O8  1  0.839412  0.657859  0.181553  1
  O  O9  1  0.913212  0.233794  0.320581  1
  O  O10  1  0.913212  0.592631  0.679419  1
  O  O11  1  0.476307  0.657859  0.818447  1
