# generated using pymatgen
data_Li2CdSn(SO4)4
_symmetry_space_group_name_H-M   'P 1'
_cell_length_a   9.32210300
_cell_length_b   9.61383171
_cell_length_c   14.33166854
_cell_angle_alpha   89.17998283
_cell_angle_beta   90.00000000
_cell_angle_gamma   90.00000000
_symmetry_Int_Tables_number   1
_chemical_formula_structural   Li2CdSn(SO4)4
_chemical_formula_sum   'Li8 Cd4 Sn4 S16 O64'
_cell_volume   1284.28877664
_cell_formula_units_Z   4
loop_
 _symmetry_equiv_pos_site_id
 _symmetry_equiv_pos_as_xyz
  1  'x, y, z'
loop_
 _atom_site_type_symbol
 _atom_site_label
 _atom_site_symmetry_multiplicity
 _atom_site_fract_x
 _atom_site_fract_y
 _atom_site_fract_z
 _atom_site_occupancy
  Li  Li0  1  0.287048  0.790195  0.371572  1
  Li  Li1  1  0.712952  0.790195  0.871572  1
  Li  Li2  1  0.208473  0.708427  0.873082  1
  Li  Li3  1  0.791527  0.708427  0.373082  1
  Li  Li4  1  0.797061  0.227201  0.123943  1
  Li  Li5  1  0.202939  0.227201  0.623943  1
  Li  Li6  1  0.482392  0.043443  0.626756  1
  Li  Li7  1  0.517608  0.043443  0.126757  1
  Cd  Cd8  1  0.146765  0.848978  0.128078  1
  Cd  Cd9  1  0.853235  0.848978  0.628078  1
  Cd  Cd10  1  0.651624  0.642067  0.124756  1
  Cd  Cd11  1  0.348376  0.642067  0.624756  1
  Sn  Sn12  1  0.150103  0.360097  0.374963  1
  Sn  Sn13  1  0.849897  0.360097  0.874963  1
  Sn  Sn14  1  0.654415  0.144497  0.380873  1
  Sn  Sn15  1  0.345585  0.144497  0.880873  1
  S  S16  1  0.187744  0.935880  0.729428  1
  S  S17  1  0.812256  0.935880  0.229428  1
  S  S18  1  0.561390  0.847150  0.486955  1
  S  S19  1  0.438610  0.847150  0.986955  1
  S  S20  1  0.061316  0.649396  0.484040  1
  S  S21  1  0.938684  0.649396  0.984040  1
  S  S22  1  0.321548  0.575465  0.230051  1
  S  S23  1  0.678452  0.575465  0.730051  1
  S  S24  1  0.826183  0.416693  0.273229  1
  S  S25  1  0.173817  0.416693  0.773229  1
  S  S26  1  0.559805  0.335333  0.011397  1
  S  S27  1  0.440195  0.335333  0.511397  1
  S  S28  1  0.052966  0.152282  0.004308  1
  S  S29  1  0.947034  0.152282  0.504308  1
  S  S30  1  0.673093  0.085687  0.778412  1
  S  S31  1  0.326907  0.085687  0.278412  1
  O  O32  1  0.565020  0.008705  0.478855  1
  O  O33  1  0.434980  0.008705  0.978855  1
  O  O34  1  0.276281  0.996036  0.353427  1
  O  O35  1  0.723719  0.996036  0.853427  1
  O  O36  1  0.776297  0.985701  0.328899  1
  O  O37  1  0.223703  0.985701  0.828899  1
  O  O38  1  0.031809  0.944293  0.720001  1
  O  O39  1  0.968191  0.944293  0.220001  1
  O  O40  1  0.515930  0.830585  0.077268  1
  O  O41  1  0.484070  0.830585  0.577268  1
  O  O42  1  0.289419  0.794486  0.994674  1
  O  O43  1  0.710581  0.794486  0.494674  1
  O  O44  1  0.239528  0.789174  0.731184  1
  O  O45  1  0.760472  0.789174  0.231184  1
  O  O46  1  0.490745  0.787053  0.406935  1
  O  O47  1  0.509255  0.787053  0.906935  1
  O  O48  1  0.994499  0.715751  0.402482  1
  O  O49  1  0.005501  0.715751  0.902482  1
  O  O50  1  0.266901  0.723781  0.239082  1
  O  O51  1  0.733099  0.723781  0.739082  1
  O  O52  1  0.214624  0.696408  0.490553  1
  O  O53  1  0.785376  0.696408  0.990553  1
  O  O54  1  0.011558  0.673140  0.073265  1
  O  O55  1  0.988442  0.673140  0.573265  1
  O  O56  1  0.479957  0.577361  0.229659  1
  O  O57  1  0.520043  0.577361  0.729659  1
  O  O58  1  0.715871  0.512956  0.829181  1
  O  O59  1  0.284129  0.512956  0.329181  1
  O  O60  1  0.770098  0.508381  0.343322  1
  O  O61  1  0.229902  0.508381  0.843322  1
  O  O62  1  0.059206  0.490234  0.473071  1
  O  O63  1  0.940794  0.490234  0.973071  1
  O  O64  1  0.547063  0.483722  0.025801  1
  O  O65  1  0.452937  0.483722  0.525801  1
  O  O66  1  0.746544  0.500164  0.656660  1
  O  O67  1  0.253456  0.500164  0.156660  1
  O  O68  1  0.792604  0.454787  0.175463  1
  O  O69  1  0.207396  0.454787  0.675463  1
  O  O70  1  0.987507  0.401035  0.277356  1
  O  O71  1  0.012493  0.401035  0.777356  1
  O  O72  1  0.527860  0.305207  0.424676  1
  O  O73  1  0.472140  0.305207  0.924676  1
  O  O74  1  0.715506  0.295116  0.986746  1
  O  O75  1  0.284494  0.295116  0.486746  1
  O  O76  1  0.763909  0.268620  0.282802  1
  O  O77  1  0.236091  0.268620  0.782802  1
  O  O78  1  0.525377  0.245744  0.091012  1
  O  O79  1  0.474623  0.245744  0.591012  1
  O  O80  1  0.995717  0.224892  0.084009  1
  O  O81  1  0.004283  0.224892  0.584009  1
  O  O82  1  0.738005  0.229017  0.782506  1
  O  O83  1  0.261995  0.229017  0.282506  1
  O  O84  1  0.795345  0.207156  0.485082  1
  O  O85  1  0.204655  0.207156  0.985082  1
  O  O86  1  0.032220  0.186304  0.415362  1
  O  O87  1  0.967780  0.186304  0.915362  1
  O  O88  1  0.507936  0.104309  0.781151  1
  O  O89  1  0.492064  0.104309  0.281151  1
  O  O90  1  0.695275  0.031595  0.683228  1
  O  O91  1  0.304725  0.031595  0.183228  1
  O  O92  1  0.264203  0.023918  0.660142  1
  O  O93  1  0.735797  0.023918  0.160142  1
  O  O94  1  0.055261  0.000682  0.013223  1
  O  O95  1  0.944739  0.000682  0.513223  1
