# generated using pymatgen
data_Tc2PdCl12
_symmetry_space_group_name_H-M   'P 1'
_cell_length_a   8.83220858
_cell_length_b   8.83220891
_cell_length_c   6.67461608
_cell_angle_alpha   71.90312309
_cell_angle_beta   71.90312847
_cell_angle_gamma   80.53790328
_symmetry_Int_Tables_number   1
_chemical_formula_structural   Tc2PdCl12
_chemical_formula_sum   'Tc2 Pd1 Cl12'
_cell_volume   469.10376141
_cell_formula_units_Z   1
loop_
 _symmetry_equiv_pos_site_id
 _symmetry_equiv_pos_as_xyz
  1  'x, y, z'
loop_
 _atom_site_type_symbol
 _atom_site_label
 _atom_site_symmetry_multiplicity
 _atom_site_fract_x
 _atom_site_fract_y
 _atom_site_fract_z
 _atom_site_occupancy
  Tc  Tc0  1  0.259447  0.259447  0.745271  1
  Tc  Tc1  1  0.740553  0.740553  0.254729  1
  Pd  Pd2  1  0.000000  0.000000  0.000000  1
  Cl  Cl3  1  0.976307  0.255945  0.747590  1
  Cl  Cl4  1  0.255945  0.976307  0.747590  1
  Cl  Cl5  1  0.023693  0.744055  0.252410  1
  Cl  Cl6  1  0.744055  0.023693  0.252410  1
  Cl  Cl7  1  0.212099  0.506425  0.793570  1
  Cl  Cl8  1  0.506425  0.212099  0.793570  1
  Cl  Cl9  1  0.787901  0.493575  0.206430  1
  Cl  Cl10  1  0.493575  0.787901  0.206430  1
  Cl  Cl11  1  0.135070  0.135070  0.145161  1
  Cl  Cl12  1  0.864930  0.864930  0.854839  1
  Cl  Cl13  1  0.659687  0.659687  0.625126  1
  Cl  Cl14  1  0.340313  0.340313  0.374874  1
