# generated using pymatgen
data_Lu6Al39Cr8
_symmetry_space_group_name_H-M   'P 1'
_cell_length_a   10.67221200
_cell_length_b   10.67221275
_cell_length_c   17.00263900
_cell_angle_alpha   90.00000000
_cell_angle_beta   90.00000000
_cell_angle_gamma   120.00000386
_symmetry_Int_Tables_number   1
_chemical_formula_structural   Lu6Al39Cr8
_chemical_formula_sum   'Lu12 Al78 Cr16'
_cell_volume   1677.08806005
_cell_formula_units_Z   2
loop_
 _symmetry_equiv_pos_site_id
 _symmetry_equiv_pos_as_xyz
  1  'x, y, z'
loop_
 _atom_site_type_symbol
 _atom_site_label
 _atom_site_symmetry_multiplicity
 _atom_site_fract_x
 _atom_site_fract_y
 _atom_site_fract_z
 _atom_site_occupancy
  Lu  Lu0  1  0.536887  0.000000  0.597785  1
  Lu  Lu1  1  0.463113  0.000000  0.402215  1
  Lu  Lu2  1  0.000000  0.536887  0.597785  1
  Lu  Lu3  1  0.463113  0.000000  0.097785  1
  Lu  Lu4  1  0.000000  0.536887  0.902215  1
  Lu  Lu5  1  0.000000  0.463113  0.402215  1
  Lu  Lu6  1  0.536887  0.000000  0.902215  1
  Lu  Lu7  1  0.000000  0.463113  0.097785  1
  Lu  Lu8  1  0.463113  0.463113  0.597785  1
  Lu  Lu9  1  0.536887  0.536887  0.402215  1
  Lu  Lu10  1  0.536887  0.536887  0.097785  1
  Lu  Lu11  1  0.463113  0.463113  0.902215  1
  Al  Al12  1  0.153411  0.605449  0.750000  1
  Al  Al13  1  0.846589  0.394551  0.250000  1
  Al  Al14  1  0.394551  0.547963  0.750000  1
  Al  Al15  1  0.605449  0.153411  0.750000  1
  Al  Al16  1  0.605449  0.452037  0.250000  1
  Al  Al17  1  0.394551  0.846589  0.250000  1
  Al  Al18  1  0.452037  0.846589  0.750000  1
  Al  Al19  1  0.547963  0.394551  0.750000  1
  Al  Al20  1  0.547963  0.153411  0.250000  1
  Al  Al21  1  0.452037  0.605449  0.250000  1
  Al  Al22  1  0.846589  0.452037  0.750000  1
  Al  Al23  1  0.153411  0.547963  0.250000  1
  Al  Al24  1  0.153737  0.000000  0.116205  1
  Al  Al25  1  0.846263  0.000000  0.883795  1
  Al  Al26  1  0.000000  0.153737  0.116205  1
  Al  Al27  1  0.846263  0.000000  0.616205  1
  Al  Al28  1  0.000000  0.153737  0.383795  1
  Al  Al29  1  0.000000  0.846263  0.883795  1
  Al  Al30  1  0.153737  0.000000  0.383795  1
  Al  Al31  1  0.000000  0.846263  0.616205  1
  Al  Al32  1  0.846263  0.846263  0.116205  1
  Al  Al33  1  0.153737  0.153737  0.883795  1
  Al  Al34  1  0.153737  0.153737  0.616205  1
  Al  Al35  1  0.846263  0.846263  0.383795  1
  Al  Al36  1  0.249714  0.499426  0.500000  1
  Al  Al37  1  0.750286  0.500574  0.500000  1
  Al  Al38  1  0.500574  0.750286  0.500000  1
  Al  Al39  1  0.750286  0.500574  0.000000  1
  Al  Al40  1  0.499426  0.249714  0.000000  1
  Al  Al41  1  0.499426  0.249714  0.500000  1
  Al  Al42  1  0.249714  0.499426  0.000000  1
  Al  Al43  1  0.500574  0.750286  0.000000  1
  Al  Al44  1  0.249714  0.750286  0.500000  1
  Al  Al45  1  0.750286  0.249714  0.500000  1
  Al  Al46  1  0.750286  0.249714  0.000000  1
  Al  Al47  1  0.249714  0.750286  0.000000  1
  Al  Al48  1  0.154554  0.000000  0.750000  1
  Al  Al49  1  0.845446  0.000000  0.250000  1
  Al  Al50  1  0.000000  0.154554  0.750000  1
  Al  Al51  1  0.000000  0.845446  0.250000  1
  Al  Al52  1  0.845446  0.845446  0.750000  1
  Al  Al53  1  0.154554  0.154554  0.250000  1
  Al  Al54  1  0.251179  0.000000  0.527658  1
  Al  Al55  1  0.748821  0.000000  0.472342  1
  Al  Al56  1  0.000000  0.251179  0.527658  1
  Al  Al57  1  0.748821  0.000000  0.027658  1
  Al  Al58  1  0.000000  0.251179  0.972342  1
  Al  Al59  1  0.000000  0.748821  0.472342  1
  Al  Al60  1  0.251179  0.000000  0.972342  1
  Al  Al61  1  0.000000  0.748821  0.027658  1
  Al  Al62  1  0.748821  0.748821  0.527658  1
  Al  Al63  1  0.251179  0.251179  0.472342  1
  Al  Al64  1  0.251179  0.251179  0.027658  1
  Al  Al65  1  0.748821  0.748821  0.972342  1
  Al  Al66  1  0.163776  0.398691  0.660006  1
  Al  Al67  1  0.836224  0.601309  0.339994  1
  Al  Al68  1  0.601309  0.765084  0.660006  1
  Al  Al69  1  0.836224  0.601309  0.160006  1
  Al  Al70  1  0.398691  0.163776  0.839994  1
  Al  Al71  1  0.398691  0.234916  0.339994  1
  Al  Al72  1  0.163776  0.398691  0.839994  1
  Al  Al73  1  0.601309  0.836224  0.160006  1
  Al  Al74  1  0.234916  0.836224  0.660006  1
  Al  Al75  1  0.398691  0.234916  0.160006  1
  Al  Al76  1  0.765084  0.601309  0.839994  1
  Al  Al77  1  0.765084  0.163776  0.339994  1
  Al  Al78  1  0.601309  0.765084  0.839994  1
  Al  Al79  1  0.234916  0.398691  0.160006  1
  Al  Al80  1  0.601309  0.836224  0.339994  1
  Al  Al81  1  0.398691  0.163776  0.660006  1
  Al  Al82  1  0.765084  0.163776  0.160006  1
  Al  Al83  1  0.234916  0.398691  0.339994  1
  Al  Al84  1  0.234916  0.836224  0.839994  1
  Al  Al85  1  0.765084  0.601309  0.660006  1
  Al  Al86  1  0.836224  0.234916  0.839994  1
  Al  Al87  1  0.163776  0.765084  0.160006  1
  Al  Al88  1  0.163776  0.765084  0.339994  1
  Al  Al89  1  0.836224  0.234916  0.660006  1
  Cr  Cr90  1  0.333333  0.666667  0.630432  1
  Cr  Cr91  1  0.666667  0.333333  0.369568  1
  Cr  Cr92  1  0.666667  0.333333  0.130432  1
  Cr  Cr93  1  0.666667  0.333333  0.869568  1
  Cr  Cr94  1  0.333333  0.666667  0.869568  1
  Cr  Cr95  1  0.333333  0.666667  0.130432  1
  Cr  Cr96  1  0.333333  0.666667  0.369568  1
  Cr  Cr97  1  0.666667  0.333333  0.630432  1
  Cr  Cr98  1  0.000000  0.000000  0.500000  1
  Cr  Cr99  1  0.000000  0.000000  0.000000  1
  Cr  Cr100  1  0.739660  0.000000  0.750000  1
  Cr  Cr101  1  0.260340  0.000000  0.250000  1
  Cr  Cr102  1  0.000000  0.739660  0.750000  1
  Cr  Cr103  1  0.000000  0.260340  0.250000  1
  Cr  Cr104  1  0.260340  0.260340  0.750000  1
  Cr  Cr105  1  0.739660  0.739660  0.250000  1
