# generated using pymatgen
data_Tb5Y2Co6Sn22Hg
_symmetry_space_group_name_H-M   'P 1'
_cell_length_a   9.69373707
_cell_length_b   9.69466424
_cell_length_c   10.03542708
_cell_angle_alpha   90.00000055
_cell_angle_beta   90.01245847
_cell_angle_gamma   120.00316208
_symmetry_Int_Tables_number   1
_chemical_formula_structural   Tb5Y2Co6Sn22Hg
_chemical_formula_sum   'Tb5 Y2 Co6 Sn22 Hg1'
_cell_volume   816.72649954
_cell_formula_units_Z   1
loop_
 _symmetry_equiv_pos_site_id
 _symmetry_equiv_pos_as_xyz
  1  'x, y, z'
loop_
 _atom_site_type_symbol
 _atom_site_label
 _atom_site_symmetry_multiplicity
 _atom_site_fract_x
 _atom_site_fract_y
 _atom_site_fract_z
 _atom_site_occupancy
  Tb  Tb0  1  0.000004  0.000002  0.999947  1
  Tb  Tb1  1  0.043787  0.521893  0.306357  1
  Tb  Tb2  1  0.478107  0.956225  0.306394  1
  Tb  Tb3  1  0.478107  0.521882  0.306394  1
  Tb  Tb4  1  0.956208  0.478104  0.693654  1
  Y  Y5  1  0.521947  0.043878  0.693533  1
  Y  Y6  1  0.521947  0.478069  0.693533  1
  Co  Co7  1  0.167612  0.832237  0.803302  1
  Co  Co8  1  0.664653  0.832326  0.803329  1
  Co  Co9  1  0.167612  0.335374  0.803302  1
  Co  Co10  1  0.832274  0.167734  0.196692  1
  Co  Co11  1  0.335464  0.167732  0.196685  1
  Co  Co12  1  0.832274  0.664541  0.196692  1
  Sn  Sn13  1  0.116447  0.883563  0.270309  1
  Sn  Sn14  1  0.767115  0.883558  0.270313  1
  Sn  Sn15  1  0.116447  0.232887  0.270309  1
  Sn  Sn16  1  0.883478  0.116380  0.729707  1
  Sn  Sn17  1  0.232967  0.116482  0.729727  1
  Sn  Sn18  1  0.883478  0.767096  0.729707  1
  Sn  Sn19  1  0.345846  0.999963  0.999992  1
  Sn  Sn20  1  0.654115  0.654202  0.000007  1
  Sn  Sn21  1  0.000020  0.345883  0.999995  1
  Sn  Sn22  1  0.345846  0.345883  0.999992  1
  Sn  Sn23  1  0.000020  0.654138  0.999995  1
  Sn  Sn24  1  0.654115  0.999913  0.000007  1
  Sn  Sn25  1  0.782428  0.564819  0.452240  1
  Sn  Sn26  1  0.782428  0.217608  0.452240  1
  Sn  Sn27  1  0.435177  0.217588  0.452235  1
  Sn  Sn28  1  0.217691  0.435233  0.547844  1
  Sn  Sn29  1  0.217691  0.782459  0.547844  1
  Sn  Sn30  1  0.564780  0.782391  0.547923  1
  Sn  Sn31  1  0.666656  0.333328  0.181441  1
  Sn  Sn32  1  0.333320  0.666660  0.818487  1
  Sn  Sn33  1  0.666560  0.333279  0.884417  1
  Sn  Sn34  1  0.333365  0.666683  0.115454  1
  Hg  Hg35  1  0.000013  0.000006  0.500001  1
