# generated using pymatgen
data_PrEr2(Co3P2)3
_symmetry_space_group_name_H-M   'P 1'
_cell_length_a   3.71161300
_cell_length_b   10.54363200
_cell_length_c   12.20939200
_cell_angle_alpha   90.00000000
_cell_angle_beta   90.00000000
_cell_angle_gamma   90.00000000
_symmetry_Int_Tables_number   1
_chemical_formula_structural   PrEr2(Co3P2)3
_chemical_formula_sum   'Pr2 Er4 Co18 P12'
_cell_volume   477.80090092
_cell_formula_units_Z   2
loop_
 _symmetry_equiv_pos_site_id
 _symmetry_equiv_pos_as_xyz
  1  'x, y, z'
loop_
 _atom_site_type_symbol
 _atom_site_label
 _atom_site_symmetry_multiplicity
 _atom_site_fract_x
 _atom_site_fract_y
 _atom_site_fract_z
 _atom_site_occupancy
  Pr  Pr0  1  0.750000  0.250000  0.477536  1
  Pr  Pr1  1  0.250000  0.750000  0.522464  1
  Er  Er2  1  0.250000  0.932514  0.795610  1
  Er  Er3  1  0.250000  0.567486  0.795610  1
  Er  Er4  1  0.750000  0.067486  0.204390  1
  Er  Er5  1  0.750000  0.432514  0.204390  1
  Co  Co6  1  0.250000  0.250000  0.844062  1
  Co  Co7  1  0.750000  0.750000  0.155938  1
  Co  Co8  1  0.250000  0.250000  0.292329  1
  Co  Co9  1  0.750000  0.750000  0.707671  1
  Co  Co10  1  0.750000  0.250000  0.013497  1
  Co  Co11  1  0.250000  0.750000  0.986503  1
  Co  Co12  1  0.250000  0.416821  0.005110  1
  Co  Co13  1  0.250000  0.083179  0.005110  1
  Co  Co14  1  0.750000  0.583179  0.994890  1
  Co  Co15  1  0.750000  0.916821  0.994890  1
  Co  Co16  1  0.250000  0.453328  0.571585  1
  Co  Co17  1  0.250000  0.046672  0.571585  1
  Co  Co18  1  0.750000  0.546672  0.428415  1
  Co  Co19  1  0.750000  0.953328  0.428415  1
  Co  Co20  1  0.250000  0.870575  0.286342  1
  Co  Co21  1  0.250000  0.629425  0.286342  1
  Co  Co22  1  0.750000  0.129425  0.713658  1
  Co  Co23  1  0.750000  0.370575  0.713658  1
  P  P24  1  0.250000  0.250000  0.116186  1
  P  P25  1  0.750000  0.750000  0.883814  1
  P  P26  1  0.250000  0.250000  0.661230  1
  P  P27  1  0.750000  0.750000  0.338770  1
  P  P28  1  0.250000  0.442995  0.381360  1
  P  P29  1  0.250000  0.057005  0.381360  1
  P  P30  1  0.750000  0.557005  0.618640  1
  P  P31  1  0.750000  0.942995  0.618640  1
  P  P32  1  0.250000  0.903641  0.105787  1
  P  P33  1  0.250000  0.596359  0.105787  1
  P  P34  1  0.750000  0.096359  0.894213  1
  P  P35  1  0.750000  0.403641  0.894213  1
