# generated using pymatgen
data_Tb2Pr3CoRuO12
_symmetry_space_group_name_H-M   'P 1'
_cell_length_a   7.00243469
_cell_length_b   7.00243548
_cell_length_c   7.48314987
_cell_angle_alpha   73.81157790
_cell_angle_beta   73.81158379
_cell_angle_gamma   50.65406791
_symmetry_Int_Tables_number   1
_chemical_formula_structural   Tb2Pr3CoRuO12
_chemical_formula_sum   'Tb2 Pr3 Co1 Ru1 O12'
_cell_volume   269.92300697
_cell_formula_units_Z   1
loop_
 _symmetry_equiv_pos_site_id
 _symmetry_equiv_pos_as_xyz
  1  'x, y, z'
loop_
 _atom_site_type_symbol
 _atom_site_label
 _atom_site_symmetry_multiplicity
 _atom_site_fract_x
 _atom_site_fract_y
 _atom_site_fract_z
 _atom_site_occupancy
  Tb  Tb0  1  0.318173  0.293147  0.358386  1
  Tb  Tb1  1  0.706853  0.681827  0.641614  1
  Pr  Pr2  1  0.696819  0.688126  0.168341  1
  Pr  Pr3  1  0.311874  0.303181  0.831659  1
  Pr  Pr4  1  0.001014  0.998986  0.500000  1
  Co  Co5  1  0.741210  0.258790  0.000000  1
  Ru  Ru6  1  0.230983  0.769017  0.000000  1
  O  O7  1  0.100213  0.591374  0.568212  1
  O  O8  1  0.983130  0.020818  0.165163  1
  O  O9  1  0.408626  0.899787  0.431788  1
  O  O10  1  0.500963  0.494845  0.175559  1
  O  O11  1  0.109643  0.576568  0.084388  1
  O  O12  1  0.916286  0.401669  0.427656  1
  O  O13  1  0.979182  0.016870  0.834837  1
  O  O14  1  0.598331  0.083713  0.572344  1
  O  O15  1  0.505155  0.499037  0.824441  1
  O  O16  1  0.574581  0.106467  0.085542  1
  O  O17  1  0.423432  0.890357  0.915612  1
  O  O18  1  0.893533  0.425419  0.914458  1
