# generated using pymatgen
data_Sr3La(Bi2O7)2
_symmetry_space_group_name_H-M   'P 1'
_cell_length_a   7.93709087
_cell_length_b   7.91438071
_cell_length_c   7.93709000
_cell_angle_alpha   59.90502815
_cell_angle_beta   59.99999529
_cell_angle_gamma   59.90502731
_symmetry_Int_Tables_number   1
_chemical_formula_structural   Sr3La(Bi2O7)2
_chemical_formula_sum   'Sr3 La1 Bi4 O14'
_cell_volume   352.04619599
_cell_formula_units_Z   1
loop_
 _symmetry_equiv_pos_site_id
 _symmetry_equiv_pos_as_xyz
  1  'x, y, z'
loop_
 _atom_site_type_symbol
 _atom_site_label
 _atom_site_symmetry_multiplicity
 _atom_site_fract_x
 _atom_site_fract_y
 _atom_site_fract_z
 _atom_site_occupancy
  Sr  Sr0  1  0.625000  0.125000  0.125000  1
  Sr  Sr1  1  0.125000  0.125000  0.125000  1
  Sr  Sr2  1  0.125000  0.125000  0.625000  1
  La  La3  1  0.125000  0.625000  0.125000  1
  Bi  Bi4  1  0.625000  0.625000  0.125000  1
  Bi  Bi5  1  0.625000  0.625000  0.625000  1
  Bi  Bi6  1  0.625000  0.125000  0.625000  1
  Bi  Bi7  1  0.125000  0.625000  0.625000  1
  O  O8  1  0.703527  0.296659  0.296287  1
  O  O9  1  0.706691  0.701231  0.296039  1
  O  O10  1  0.296039  0.701231  0.296039  1
  O  O11  1  0.007640  0.977079  0.007640  1
  O  O12  1  0.703527  0.296659  0.703527  1
  O  O13  1  0.953961  0.548769  0.543309  1
  O  O14  1  0.296039  0.701231  0.706691  1
  O  O15  1  0.546473  0.953341  0.546473  1
  O  O16  1  0.242360  0.272921  0.242360  1
  O  O17  1  0.953961  0.548769  0.953961  1
  O  O18  1  0.543309  0.548769  0.953961  1
  O  O19  1  0.953713  0.953341  0.546473  1
  O  O20  1  0.546473  0.953341  0.953713  1
  O  O21  1  0.296287  0.296659  0.703527  1
