# generated using pymatgen
data_Pr2Hf3Si7Pt9
_symmetry_space_group_name_H-M   'P 1'
_cell_length_a   10.06582900
_cell_length_b   10.06582958
_cell_length_c   4.04774600
_cell_angle_alpha   90.00000000
_cell_angle_beta   90.00000000
_cell_angle_gamma   120.00000140
_symmetry_Int_Tables_number   1
_chemical_formula_structural   Pr2Hf3Si7Pt9
_chemical_formula_sum   'Pr2 Hf3 Si7 Pt9'
_cell_volume   355.17549894
_cell_formula_units_Z   1
loop_
 _symmetry_equiv_pos_site_id
 _symmetry_equiv_pos_as_xyz
  1  'x, y, z'
loop_
 _atom_site_type_symbol
 _atom_site_label
 _atom_site_symmetry_multiplicity
 _atom_site_fract_x
 _atom_site_fract_y
 _atom_site_fract_z
 _atom_site_occupancy
  Pr  Pr0  1  0.000000  0.000000  0.000000  1
  Pr  Pr1  1  0.333333  0.666667  0.500000  1
  Hf  Hf2  1  0.890944  0.453763  0.500000  1
  Hf  Hf3  1  0.562818  0.109056  0.500000  1
  Hf  Hf4  1  0.546237  0.437182  0.500000  1
  Si  Si5  1  0.250541  0.201959  0.500000  1
  Si  Si6  1  0.798041  0.048584  0.500000  1
  Si  Si7  1  0.951416  0.749459  0.500000  1
  Si  Si8  1  0.560742  0.647627  0.000000  1
  Si  Si9  1  0.352373  0.913114  0.000000  1
  Si  Si10  1  0.086886  0.439258  0.000000  1
  Si  Si11  1  0.666667  0.333333  0.000000  1
  Pt  Pt12  1  0.222368  0.938711  0.500000  1
  Pt  Pt13  1  0.061289  0.283658  0.500000  1
  Pt  Pt14  1  0.716342  0.777632  0.500000  1
  Pt  Pt15  1  0.314547  0.410304  0.000000  1
  Pt  Pt16  1  0.589696  0.904243  0.000000  1
  Pt  Pt17  1  0.095757  0.685453  0.000000  1
  Pt  Pt18  1  0.390085  0.176484  0.000000  1
  Pt  Pt19  1  0.823516  0.213602  0.000000  1
  Pt  Pt20  1  0.786398  0.609915  0.000000  1
