# generated using pymatgen
data_Na2GeAsAu2
_symmetry_space_group_name_H-M   'P 1'
_cell_length_a   5.74006523
_cell_length_b   5.79881058
_cell_length_c   5.79881150
_cell_angle_alpha   134.28147881
_cell_angle_beta   102.60956286
_cell_angle_gamma   94.96797241
_symmetry_Int_Tables_number   1
_chemical_formula_structural   Na2GeAsAu2
_chemical_formula_sum   'Na2 Ge1 As1 Au2'
_cell_volume   126.71419349
_cell_formula_units_Z   1
loop_
 _symmetry_equiv_pos_site_id
 _symmetry_equiv_pos_as_xyz
  1  'x, y, z'
loop_
 _atom_site_type_symbol
 _atom_site_label
 _atom_site_symmetry_multiplicity
 _atom_site_fract_x
 _atom_site_fract_y
 _atom_site_fract_z
 _atom_site_occupancy
  Na  Na0  1  0.205512  0.709404  0.496109  1
  Na  Na1  1  0.602184  0.602257  0.999927  1
  Ge  Ge2  1  0.646581  0.325213  0.321368  1
  As  As3  1  0.005775  0.323412  0.682364  1
  Au  Au4  1  0.217228  0.004842  0.212385  1
  Au  Au5  1  0.780580  0.992733  0.787847  1
