# generated using pymatgen
data_SrLi3Sm2Pb3
_symmetry_space_group_name_H-M   'P 1'
_cell_length_a   4.90616200
_cell_length_b   4.90616170
_cell_length_c   11.67535400
_cell_angle_alpha   90.00000000
_cell_angle_beta   90.00000000
_cell_angle_gamma   120.00001553
_symmetry_Int_Tables_number   1
_chemical_formula_structural   SrLi3Sm2Pb3
_chemical_formula_sum   'Sr1 Li3 Sm2 Pb3'
_cell_volume   243.37970652
_cell_formula_units_Z   1
loop_
 _symmetry_equiv_pos_site_id
 _symmetry_equiv_pos_as_xyz
  1  'x, y, z'
loop_
 _atom_site_type_symbol
 _atom_site_label
 _atom_site_symmetry_multiplicity
 _atom_site_fract_x
 _atom_site_fract_y
 _atom_site_fract_z
 _atom_site_occupancy
  Sr  Sr0  1  0.000000  0.000000  0.000000  1
  Li  Li1  1  0.666667  0.333333  0.799598  1
  Li  Li2  1  0.333333  0.666667  0.500000  1
  Li  Li3  1  0.666667  0.333333  0.200402  1
  Sm  Sm4  1  0.000000  0.000000  0.337044  1
  Sm  Sm5  1  0.000000  0.000000  0.662956  1
  Pb  Pb6  1  0.333333  0.666667  0.197094  1
  Pb  Pb7  1  0.333333  0.666667  0.802906  1
  Pb  Pb8  1  0.666667  0.333333  0.500000  1
