# generated using pymatgen
data_PmAl3Ir2
_symmetry_space_group_name_H-M   'P 1'
_cell_length_a   5.47428719
_cell_length_b   5.47428658
_cell_length_c   4.11143200
_cell_angle_alpha   90.00000000
_cell_angle_beta   90.00000000
_cell_angle_gamma   59.99707970
_symmetry_Int_Tables_number   1
_chemical_formula_structural   PmAl3Ir2
_chemical_formula_sum   'Pm1 Al3 Ir2'
_cell_volume   106.70040526
_cell_formula_units_Z   1
loop_
 _symmetry_equiv_pos_site_id
 _symmetry_equiv_pos_as_xyz
  1  'x, y, z'
loop_
 _atom_site_type_symbol
 _atom_site_label
 _atom_site_symmetry_multiplicity
 _atom_site_fract_x
 _atom_site_fract_y
 _atom_site_fract_z
 _atom_site_occupancy
  Pm  Pm0  1  0.999997  0.000003  0.000000  1
  Al  Al1  1  0.500396  0.999997  0.499999  1
  Al  Al2  1  0.000003  0.499603  0.499999  1
  Al  Al3  1  0.499601  0.500398  0.499999  1
  Ir  Ir4  1  0.333337  0.333341  0.000000  1
  Ir  Ir5  1  0.666659  0.666663  0.000000  1
