# generated using pymatgen
data_Tm10NiAu3
_symmetry_space_group_name_H-M   'P 1'
_cell_length_a   9.33444200
_cell_length_b   9.33444295
_cell_length_c   9.27993900
_cell_angle_alpha   90.00000000
_cell_angle_beta   90.00000000
_cell_angle_gamma   119.99999663
_symmetry_Int_Tables_number   1
_chemical_formula_structural   Tm10NiAu3
_chemical_formula_sum   'Tm20 Ni2 Au6'
_cell_volume   700.24906116
_cell_formula_units_Z   2
loop_
 _symmetry_equiv_pos_site_id
 _symmetry_equiv_pos_as_xyz
  1  'x, y, z'
loop_
 _atom_site_type_symbol
 _atom_site_label
 _atom_site_symmetry_multiplicity
 _atom_site_fract_x
 _atom_site_fract_y
 _atom_site_fract_z
 _atom_site_occupancy
  Tm  Tm0  1  0.000000  0.000000  0.500000  1
  Tm  Tm1  1  0.000000  0.000000  0.000000  1
  Tm  Tm2  1  0.542886  0.457114  0.250000  1
  Tm  Tm3  1  0.542886  0.085773  0.250000  1
  Tm  Tm4  1  0.914227  0.457114  0.250000  1
  Tm  Tm5  1  0.457114  0.542886  0.750000  1
  Tm  Tm6  1  0.457114  0.914227  0.750000  1
  Tm  Tm7  1  0.085773  0.542886  0.750000  1
  Tm  Tm8  1  0.208364  0.791636  0.440034  1
  Tm  Tm9  1  0.208364  0.416728  0.440034  1
  Tm  Tm10  1  0.583272  0.791636  0.440034  1
  Tm  Tm11  1  0.791636  0.208364  0.559966  1
  Tm  Tm12  1  0.791636  0.583272  0.559966  1
  Tm  Tm13  1  0.416728  0.208364  0.559966  1
  Tm  Tm14  1  0.791636  0.208364  0.940034  1
  Tm  Tm15  1  0.791636  0.583272  0.940034  1
  Tm  Tm16  1  0.416728  0.208364  0.940034  1
  Tm  Tm17  1  0.208364  0.791636  0.059966  1
  Tm  Tm18  1  0.208364  0.416728  0.059966  1
  Tm  Tm19  1  0.583272  0.791636  0.059966  1
  Ni  Ni20  1  0.333333  0.666667  0.250000  1
  Ni  Ni21  1  0.666667  0.333333  0.750000  1
  Au  Au22  1  0.879348  0.120652  0.250000  1
  Au  Au23  1  0.879348  0.758695  0.250000  1
  Au  Au24  1  0.241305  0.120652  0.250000  1
  Au  Au25  1  0.120652  0.879348  0.750000  1
  Au  Au26  1  0.120652  0.241305  0.750000  1
  Au  Au27  1  0.758695  0.879348  0.750000  1
