# generated using pymatgen
data_TbEr3Fe4(WO6)4
_symmetry_space_group_name_H-M   'P 1'
_cell_length_a   5.21166456
_cell_length_b   7.42287613
_cell_length_c   11.09670735
_cell_angle_alpha   89.94195463
_cell_angle_beta   89.95286030
_cell_angle_gamma   89.97542853
_symmetry_Int_Tables_number   1
_chemical_formula_structural   TbEr3Fe4(WO6)4
_chemical_formula_sum   'Tb1 Er3 Fe4 W4 O24'
_cell_volume   429.28171634
_cell_formula_units_Z   1
loop_
 _symmetry_equiv_pos_site_id
 _symmetry_equiv_pos_as_xyz
  1  'x, y, z'
loop_
 _atom_site_type_symbol
 _atom_site_label
 _atom_site_symmetry_multiplicity
 _atom_site_fract_x
 _atom_site_fract_y
 _atom_site_fract_z
 _atom_site_occupancy
  Tb  Tb0  1  0.043525  0.753351  0.955200  1
  Er  Er1  1  0.953828  0.253370  0.045169  1
  Er  Er2  1  0.454770  0.753355  0.455011  1
  Er  Er3  1  0.545338  0.253329  0.544826  1
  Fe  Fe4  1  0.456701  0.507821  0.139394  1
  Fe  Fe5  1  0.956467  0.008732  0.361305  1
  Fe  Fe6  1  0.043130  0.508483  0.638348  1
  Fe  Fe7  1  0.542675  0.009671  0.860967  1
  W  W8  1  0.447499  0.997952  0.143223  1
  W  W9  1  0.947678  0.497474  0.357562  1
  W  W10  1  0.052403  0.997576  0.641914  1
  W  W11  1  0.551732  0.496260  0.857080  1
  O  O12  1  0.743878  0.541581  0.020671  1
  O  O13  1  0.736358  0.959820  0.029306  1
  O  O14  1  0.323504  0.755683  0.117508  1
  O  O15  1  0.568360  0.246183  0.144542  1
  O  O16  1  0.122560  0.072418  0.206471  1
  O  O17  1  0.106538  0.435574  0.211828  1
  O  O18  1  0.607183  0.935934  0.288674  1
  O  O19  1  0.623646  0.572518  0.293762  1
  O  O20  1  0.068450  0.745833  0.356767  1
  O  O21  1  0.819789  0.255776  0.384055  1
  O  O22  1  0.237866  0.457268  0.471026  1
  O  O23  1  0.246138  0.044463  0.479280  1
  O  O24  1  0.753869  0.544351  0.520349  1
  O  O25  1  0.762205  0.957322  0.528662  1
  O  O26  1  0.180604  0.755600  0.616070  1
  O  O27  1  0.931625  0.245801  0.642664  1
  O  O28  1  0.376156  0.072514  0.706283  1
  O  O29  1  0.392249  0.434795  0.711793  1
  O  O30  1  0.891545  0.936420  0.787064  1
  O  O31  1  0.875814  0.570265  0.792452  1
  O  O32  1  0.436766  0.745738  0.856461  1
  O  O33  1  0.681636  0.255145  0.883510  1
  O  O34  1  0.262368  0.456098  0.970852  1
  O  O35  1  0.255151  0.045937  0.979956  1
