# generated using pymatgen
data_Yb2DyEr(Ga3Ir)6
_symmetry_space_group_name_H-M   'P 1'
_cell_length_a   7.55811009
_cell_length_b   7.55836244
_cell_length_c   9.56492700
_cell_angle_alpha   90.00002326
_cell_angle_beta   89.99982736
_cell_angle_gamma   119.79913004
_symmetry_Int_Tables_number   1
_chemical_formula_structural   Yb2DyEr(Ga3Ir)6
_chemical_formula_sum   'Yb2 Dy1 Er1 Ga18 Ir6'
_cell_volume   474.16415485
_cell_formula_units_Z   1
loop_
 _symmetry_equiv_pos_site_id
 _symmetry_equiv_pos_as_xyz
  1  'x, y, z'
loop_
 _atom_site_type_symbol
 _atom_site_label
 _atom_site_symmetry_multiplicity
 _atom_site_fract_x
 _atom_site_fract_y
 _atom_site_fract_z
 _atom_site_occupancy
  Yb  Yb0  1  0.003323  0.331507  0.250001  1
  Yb  Yb1  1  0.668594  0.996739  0.749999  1
  Dy  Dy2  1  0.997132  0.668326  0.749996  1
  Er  Er3  1  0.331425  0.002955  0.249989  1
  Ga  Ga4  1  0.127690  0.127423  0.749995  1
  Ga  Ga5  1  0.872955  0.872587  0.250004  1
  Ga  Ga6  1  0.998543  0.332678  0.578154  1
  Ga  Ga7  1  0.000429  0.664852  0.419720  1
  Ga  Ga8  1  0.000429  0.664854  0.080285  1
  Ga  Ga9  1  0.335606  0.000016  0.920547  1
  Ga  Ga10  1  0.998545  0.332679  0.921844  1
  Ga  Ga11  1  0.666860  0.001499  0.078623  1
  Ga  Ga12  1  0.666865  0.001503  0.421383  1
  Ga  Ga13  1  0.335605  0.000014  0.579450  1
  Ga  Ga14  1  0.331725  0.332712  0.064608  1
  Ga  Ga15  1  0.666850  0.668243  0.936059  1
  Ga  Ga16  1  0.666853  0.668247  0.563937  1
  Ga  Ga17  1  0.331721  0.332709  0.435398  1
  Ga  Ga18  1  0.337326  0.545767  0.749997  1
  Ga  Ga19  1  0.660584  0.452484  0.250005  1
  Ga  Ga20  1  0.546890  0.339036  0.749995  1
  Ga  Ga21  1  0.454146  0.662970  0.250003  1
  Ir  Ir22  1  0.671134  0.328712  0.499863  1
  Ir  Ir23  1  0.328442  0.671589  0.499834  1
  Ir  Ir24  1  0.328445  0.671594  0.000168  1
  Ir  Ir25  1  0.671137  0.328709  0.000141  1
  Ir  Ir26  1  0.000378  0.999798  0.499840  1
  Ir  Ir27  1  0.000373  0.999797  0.000163  1
