# generated using pymatgen
data_Nb4Fe3CoP4
_symmetry_space_group_name_H-M   'P 1'
_cell_length_a   3.58849000
_cell_length_b   6.15786411
_cell_length_c   6.98749118
_cell_angle_alpha   90.18587497
_cell_angle_beta   90.00000000
_cell_angle_gamma   90.00000000
_symmetry_Int_Tables_number   1
_chemical_formula_structural   Nb4Fe3CoP4
_chemical_formula_sum   'Nb4 Fe3 Co1 P4'
_cell_volume   154.40481117
_cell_formula_units_Z   1
loop_
 _symmetry_equiv_pos_site_id
 _symmetry_equiv_pos_as_xyz
  1  'x, y, z'
loop_
 _atom_site_type_symbol
 _atom_site_label
 _atom_site_symmetry_multiplicity
 _atom_site_fract_x
 _atom_site_fract_y
 _atom_site_fract_z
 _atom_site_occupancy
  Nb  Nb0  1  0.250000  0.522720  0.173510  1
  Nb  Nb1  1  0.750000  0.475282  0.825369  1
  Nb  Nb2  1  0.750000  0.976588  0.676551  1
  Nb  Nb3  1  0.250000  0.023239  0.323784  1
  Fe  Fe4  1  0.750000  0.360561  0.439121  1
  Fe  Fe5  1  0.750000  0.859746  0.061767  1
  Fe  Fe6  1  0.250000  0.141838  0.937447  1
  Co  Co7  1  0.250000  0.641718  0.562379  1
  P  P8  1  0.250000  0.778557  0.883259  1
  P  P9  1  0.750000  0.221809  0.119143  1
  P  P10  1  0.750000  0.722746  0.378277  1
  P  P11  1  0.250000  0.275195  0.619392  1
