# generated using pymatgen
data_Sc10Fe2Bi3Sb
_symmetry_space_group_name_H-M   'P 1'
_cell_length_a   5.69793291
_cell_length_b   8.52677760
_cell_length_c   8.50628351
_cell_angle_alpha   83.57485437
_cell_angle_beta   70.43203389
_cell_angle_gamma   70.48095886
_symmetry_Int_Tables_number   1
_chemical_formula_structural   Sc10Fe2Bi3Sb
_chemical_formula_sum   'Sc10 Fe2 Bi3 Sb1'
_cell_volume   367.02978582
_cell_formula_units_Z   1
loop_
 _symmetry_equiv_pos_site_id
 _symmetry_equiv_pos_as_xyz
  1  'x, y, z'
loop_
 _atom_site_type_symbol
 _atom_site_label
 _atom_site_symmetry_multiplicity
 _atom_site_fract_x
 _atom_site_fract_y
 _atom_site_fract_z
 _atom_site_occupancy
  Sc  Sc0  1  0.069727  0.116682  0.743864  1
  Sc  Sc1  1  0.928289  0.886352  0.257070  1
  Sc  Sc2  1  0.813633  0.253755  0.118979  1
  Sc  Sc3  1  0.432612  0.253755  0.881021  1
  Sc  Sc4  1  0.184316  0.747277  0.884092  1
  Sc  Sc5  1  0.568408  0.747277  0.115908  1
  Sc  Sc6  1  0.685359  0.886352  0.742930  1
  Sc  Sc7  1  0.313591  0.116682  0.256136  1
  Sc  Sc8  1  0.254187  0.494997  0.500000  1
  Sc  Sc9  1  0.750816  0.494997  0.500000  1
  Fe  Fe10  1  0.249500  0.001000  0.000000  1
  Fe  Fe11  1  0.749500  0.001000  0.000000  1
  Bi  Bi12  1  0.162161  0.500347  0.175329  1
  Bi  Bi13  1  0.837492  0.500347  0.824671  1
  Bi  Bi14  1  0.338921  0.822158  0.500000  1
  Sb  Sb15  1  0.661489  0.177021  0.500000  1
