# generated using pymatgen
data_Rb3Ta(SO)2
_symmetry_space_group_name_H-M   'P 1'
_cell_length_a   7.77429800
_cell_length_b   11.32569055
_cell_length_c   12.65565419
_cell_angle_alpha   57.70141147
_cell_angle_beta   90.00000000
_cell_angle_gamma   90.00000000
_symmetry_Int_Tables_number   1
_chemical_formula_structural   Rb3Ta(SO)2
_chemical_formula_sum   'Rb12 Ta4 S8 O8'
_cell_volume   941.90802519
_cell_formula_units_Z   4
loop_
 _symmetry_equiv_pos_site_id
 _symmetry_equiv_pos_as_xyz
  1  'x, y, z'
loop_
 _atom_site_type_symbol
 _atom_site_label
 _atom_site_symmetry_multiplicity
 _atom_site_fract_x
 _atom_site_fract_y
 _atom_site_fract_z
 _atom_site_occupancy
  Rb  Rb0  1  0.742147  0.061194  0.883821  1
  Rb  Rb1  1  0.861763  0.516148  0.160297  1
  Rb  Rb2  1  0.257853  0.938806  0.116179  1
  Rb  Rb3  1  0.757853  0.061194  0.383821  1
  Rb  Rb4  1  0.138237  0.483852  0.839703  1
  Rb  Rb5  1  0.727131  0.765865  0.793359  1
  Rb  Rb6  1  0.361763  0.483852  0.339703  1
  Rb  Rb7  1  0.227131  0.234135  0.706641  1
  Rb  Rb8  1  0.272869  0.234135  0.206641  1
  Rb  Rb9  1  0.772869  0.765865  0.293359  1
  Rb  Rb10  1  0.242147  0.938806  0.616179  1
  Rb  Rb11  1  0.638237  0.516148  0.660297  1
  Ta  Ta12  1  0.699980  0.303401  0.027898  1
  Ta  Ta13  1  0.800020  0.303401  0.527898  1
  Ta  Ta14  1  0.300020  0.696599  0.972102  1
  Ta  Ta15  1  0.199980  0.696599  0.472102  1
  S  S16  1  0.465010  0.249138  0.943758  1
  S  S17  1  0.579090  0.137528  0.592007  1
  S  S18  1  0.965010  0.750862  0.556242  1
  S  S19  1  0.534990  0.750862  0.056242  1
  S  S20  1  0.034990  0.249138  0.443758  1
  S  S21  1  0.079090  0.862472  0.907993  1
  S  S22  1  0.420910  0.862472  0.407993  1
  S  S23  1  0.920910  0.137528  0.092007  1
  O  O24  1  0.286866  0.523737  0.586244  1
  O  O25  1  0.630685  0.303659  0.165668  1
  O  O26  1  0.786866  0.476263  0.913756  1
  O  O27  1  0.213134  0.523737  0.086244  1
  O  O28  1  0.869315  0.303659  0.665668  1
  O  O29  1  0.713134  0.476263  0.413756  1
  O  O30  1  0.130685  0.696341  0.334332  1
  O  O31  1  0.369315  0.696341  0.834332  1
