# generated using pymatgen
data_TbY(GaRu)2
_symmetry_space_group_name_H-M   'P 1'
_cell_length_a   7.19327000
_cell_length_b   4.51103800
_cell_length_c   7.16475900
_cell_angle_alpha   90.00000000
_cell_angle_beta   90.00000000
_cell_angle_gamma   90.00000000
_symmetry_Int_Tables_number   1
_chemical_formula_structural   TbY(GaRu)2
_chemical_formula_sum   'Tb2 Y2 Ga4 Ru4'
_cell_volume   232.49008383
_cell_formula_units_Z   2
loop_
 _symmetry_equiv_pos_site_id
 _symmetry_equiv_pos_as_xyz
  1  'x, y, z'
loop_
 _atom_site_type_symbol
 _atom_site_label
 _atom_site_symmetry_multiplicity
 _atom_site_fract_x
 _atom_site_fract_y
 _atom_site_fract_z
 _atom_site_occupancy
  Tb  Tb0  1  0.017506  0.749999  0.197613  1
  Tb  Tb1  1  0.517506  0.749999  0.302388  1
  Y  Y2  1  0.483573  0.249999  0.696333  1
  Y  Y3  1  0.983573  0.249999  0.803666  1
  Ga  Ga4  1  0.303596  0.249999  0.104124  1
  Ga  Ga5  1  0.803596  0.249999  0.395876  1
  Ga  Ga6  1  0.196165  0.749999  0.605251  1
  Ga  Ga7  1  0.696165  0.749999  0.894748  1
  Ru  Ru8  1  0.660575  0.249999  0.065379  1
  Ru  Ru9  1  0.160574  0.249999  0.434622  1
  Ru  Ru10  1  0.838582  0.749999  0.564104  1
  Ru  Ru11  1  0.338582  0.749999  0.935895  1
