# generated using pymatgen
data_Ho7Sn23Ru5Rh
_symmetry_space_group_name_H-M   'P 1'
_cell_length_a   9.84649975
_cell_length_b   9.84649861
_cell_length_c   10.07917732
_cell_angle_alpha   89.97536163
_cell_angle_beta   90.02463694
_cell_angle_gamma   120.02550909
_symmetry_Int_Tables_number   1
_chemical_formula_structural   Ho7Sn23Ru5Rh
_chemical_formula_sum   'Ho7 Sn23 Ru5 Rh1'
_cell_volume   846.07267733
_cell_formula_units_Z   1
loop_
 _symmetry_equiv_pos_site_id
 _symmetry_equiv_pos_as_xyz
  1  'x, y, z'
loop_
 _atom_site_type_symbol
 _atom_site_label
 _atom_site_symmetry_multiplicity
 _atom_site_fract_x
 _atom_site_fract_y
 _atom_site_fract_z
 _atom_site_occupancy
  Ho  Ho0  1  0.004249  0.995751  0.995076  1
  Ho  Ho1  1  0.515415  0.484585  0.696805  1
  Ho  Ho2  1  0.515742  0.031668  0.696040  1
  Ho  Ho3  1  0.968332  0.484258  0.696040  1
  Ho  Ho4  1  0.033130  0.518224  0.304988  1
  Ho  Ho5  1  0.481776  0.966870  0.304988  1
  Ho  Ho6  1  0.483303  0.516697  0.303873  1
  Sn  Sn7  1  0.665232  0.334768  0.180589  1
  Sn  Sn8  1  0.666561  0.333439  0.873281  1
  Sn  Sn9  1  0.333030  0.666970  0.126985  1
  Sn  Sn10  1  0.349099  0.349074  0.999989  1
  Sn  Sn11  1  0.999125  0.648946  0.000241  1
  Sn  Sn12  1  0.649906  0.998295  0.000187  1
  Sn  Sn13  1  0.650926  0.650901  0.999989  1
  Sn  Sn14  1  0.333171  0.666829  0.820620  1
  Sn  Sn15  1  0.439581  0.220096  0.461782  1
  Sn  Sn16  1  0.219960  0.780040  0.539562  1
  Sn  Sn17  1  0.219163  0.439211  0.538601  1
  Sn  Sn18  1  0.560789  0.780837  0.538601  1
  Sn  Sn19  1  0.118729  0.881271  0.272661  1
  Sn  Sn20  1  0.779904  0.560419  0.461782  1
  Sn  Sn21  1  0.780840  0.219160  0.461519  1
  Sn  Sn22  1  0.351054  0.000875  0.000241  1
  Sn  Sn23  1  0.117308  0.235589  0.273792  1
  Sn  Sn24  1  0.764411  0.882692  0.273792  1
  Sn  Sn25  1  0.236307  0.118254  0.725138  1
  Sn  Sn26  1  0.881746  0.763693  0.725138  1
  Sn  Sn27  1  0.881635  0.118365  0.727077  1
  Sn  Sn28  1  0.000179  0.999821  0.499138  1
  Sn  Sn29  1  0.001705  0.350094  0.000187  1
  Ru  Ru30  1  0.169312  0.830688  0.800003  1
  Ru  Ru31  1  0.169454  0.339237  0.798520  1
  Ru  Ru32  1  0.660763  0.830546  0.798520  1
  Ru  Ru33  1  0.339467  0.169780  0.201639  1
  Ru  Ru34  1  0.830220  0.660533  0.201639  1
  Rh  Rh35  1  0.828476  0.171524  0.200973  1
