# generated using pymatgen
data_LiDy15HoCd3Co4
_symmetry_space_group_name_H-M   'P 1'
_cell_length_a   9.47116051
_cell_length_b   9.47790862
_cell_length_c   9.50323646
_cell_angle_alpha   60.08811882
_cell_angle_beta   60.07225076
_cell_angle_gamma   59.97642328
_symmetry_Int_Tables_number   1
_chemical_formula_structural   LiDy15HoCd3Co4
_chemical_formula_sum   'Li1 Dy15 Ho1 Cd3 Co4'
_cell_volume   603.83725671
_cell_formula_units_Z   1
loop_
 _symmetry_equiv_pos_site_id
 _symmetry_equiv_pos_as_xyz
  1  'x, y, z'
loop_
 _atom_site_type_symbol
 _atom_site_label
 _atom_site_symmetry_multiplicity
 _atom_site_fract_x
 _atom_site_fract_y
 _atom_site_fract_z
 _atom_site_occupancy
  Li  Li0  1  0.571264  0.571254  0.286228  1
  Dy  Dy1  1  0.937261  0.936430  0.562925  1
  Dy  Dy2  1  0.813322  0.187033  0.185312  1
  Dy  Dy3  1  0.937261  0.563385  0.562925  1
  Dy  Dy4  1  0.939066  0.560813  0.939307  1
  Dy  Dy5  1  0.813322  0.814333  0.185312  1
  Dy  Dy6  1  0.344146  0.343492  0.346900  1
  Dy  Dy7  1  0.561511  0.938631  0.939038  1
  Dy  Dy8  1  0.564197  0.936539  0.562726  1
  Dy  Dy9  1  0.188744  0.812376  0.809392  1
  Dy  Dy10  1  0.188744  0.189490  0.809392  1
  Dy  Dy11  1  0.347774  0.347587  0.957054  1
  Dy  Dy12  1  0.344146  0.965462  0.346900  1
  Dy  Dy13  1  0.811814  0.189291  0.809606  1
  Dy  Dy14  1  0.561511  0.560820  0.939038  1
  Dy  Dy15  1  0.185775  0.814132  0.185960  1
  Ho  Ho16  1  0.965136  0.343675  0.347515  1
  Cd  Cd17  1  0.258032  0.582311  0.577349  1
  Cd  Cd18  1  0.581967  0.582167  0.576927  1
  Cd  Cd19  1  0.581967  0.258941  0.576927  1
  Co  Co20  1  0.577725  0.141769  0.138738  1
  Co  Co21  1  0.142068  0.142212  0.138607  1
  Co  Co22  1  0.142068  0.577114  0.138607  1
  Co  Co23  1  0.141183  0.140747  0.577323  1
