# generated using pymatgen
data_Mn2Fe6ReW3
_symmetry_space_group_name_H-M   'P 1'
_cell_length_a   4.69926600
_cell_length_b   4.69926623
_cell_length_c   7.73613900
_cell_angle_alpha   90.00000000
_cell_angle_beta   90.00000000
_cell_angle_gamma   119.99999839
_symmetry_Int_Tables_number   1
_chemical_formula_structural   Mn2Fe6ReW3
_chemical_formula_sum   'Mn2 Fe6 Re1 W3'
_cell_volume   147.95000422
_cell_formula_units_Z   1
loop_
 _symmetry_equiv_pos_site_id
 _symmetry_equiv_pos_as_xyz
  1  'x, y, z'
loop_
 _atom_site_type_symbol
 _atom_site_label
 _atom_site_symmetry_multiplicity
 _atom_site_fract_x
 _atom_site_fract_y
 _atom_site_fract_z
 _atom_site_occupancy
  Mn  Mn0  1  0.000000  0.000000  0.999905  1
  Mn  Mn1  1  0.000000  0.000000  0.500158  1
  Fe  Fe2  1  0.171655  0.828345  0.250175  1
  Fe  Fe3  1  0.343546  0.171774  0.750417  1
  Fe  Fe4  1  0.828226  0.656454  0.750417  1
  Fe  Fe5  1  0.171655  0.343309  0.250175  1
  Fe  Fe6  1  0.656691  0.828345  0.250175  1
  Fe  Fe7  1  0.828226  0.171774  0.750417  1
  Re  Re8  1  0.333333  0.666667  0.929760  1
  W  W9  1  0.666667  0.333333  0.429816  1
  W  W10  1  0.666667  0.333333  0.066462  1
  W  W11  1  0.333333  0.666667  0.572124  1
