# generated using pymatgen
data_Pr8Lu12Si15Br
_symmetry_space_group_name_H-M   'P 1'
_cell_length_a   7.53628166
_cell_length_b   7.70171764
_cell_length_c   14.61857360
_cell_angle_alpha   89.75394328
_cell_angle_beta   87.44846108
_cell_angle_gamma   90.03278164
_symmetry_Int_Tables_number   1
_chemical_formula_structural   Pr8Lu12Si15Br
_chemical_formula_sum   'Pr8 Lu12 Si15 Br1'
_cell_volume   847.64655149
_cell_formula_units_Z   1
loop_
 _symmetry_equiv_pos_site_id
 _symmetry_equiv_pos_as_xyz
  1  'x, y, z'
loop_
 _atom_site_type_symbol
 _atom_site_label
 _atom_site_symmetry_multiplicity
 _atom_site_fract_x
 _atom_site_fract_y
 _atom_site_fract_z
 _atom_site_occupancy
  Pr  Pr0  1  0.992414  0.170149  0.397092  1
  Pr  Pr1  1  0.503988  0.313231  0.398151  1
  Pr  Pr2  1  0.486738  0.675332  0.902298  1
  Pr  Pr3  1  0.512593  0.686302  0.601059  1
  Pr  Pr4  1  0.001326  0.831397  0.599500  1
  Pr  Pr5  1  0.985348  0.828325  0.900578  1
  Pr  Pr6  1  0.514906  0.325267  0.099144  1
  Pr  Pr7  1  0.014676  0.176918  0.098997  1
  Lu  Lu8  1  0.358670  0.153376  0.625736  1
  Lu  Lu9  1  0.646925  0.830957  0.377585  1
  Lu  Lu10  1  0.672257  0.996911  0.749414  1
  Lu  Lu11  1  0.145652  0.671979  0.373769  1
  Lu  Lu12  1  0.829102  0.326036  0.874890  1
  Lu  Lu13  1  0.835479  0.333404  0.621210  1
  Lu  Lu14  1  0.829393  0.496708  0.253936  1
  Lu  Lu15  1  0.329136  0.002405  0.251479  1
  Lu  Lu16  1  0.328105  0.175763  0.874933  1
  Lu  Lu17  1  0.169843  0.675656  0.124142  1
  Lu  Lu18  1  0.669598  0.824222  0.123520  1
  Lu  Lu19  1  0.168663  0.505079  0.757593  1
  Si  Si20  1  0.295902  0.871984  0.751802  1
  Si  Si21  1  0.454150  0.619822  0.249304  1
  Si  Si22  1  0.043280  0.128917  0.747230  1
  Si  Si23  1  0.539802  0.380518  0.748871  1
  Si  Si24  1  0.953726  0.879089  0.248167  1
  Si  Si25  1  0.706000  0.120888  0.247411  1
  Si  Si26  1  0.850642  0.533882  0.039392  1
  Si  Si27  1  0.349840  0.968349  0.039896  1
  Si  Si28  1  0.147574  0.469371  0.959869  1
  Si  Si29  1  0.690892  0.039096  0.543327  1
  Si  Si30  1  0.305924  0.957644  0.458583  1
  Si  Si31  1  0.806071  0.537426  0.455227  1
  Si  Si32  1  0.798142  0.626050  0.750236  1
  Si  Si33  1  0.207928  0.377721  0.249056  1
  Si  Si34  1  0.647604  0.034367  0.959312  1
  Br  Br35  1  0.207709  0.455462  0.547289  1
