# generated using pymatgen
data_Na2Pu(SO5)2
_symmetry_space_group_name_H-M   'P 1'
_cell_length_a   13.72595500
_cell_length_b   5.74395233
_cell_length_c   5.80004804
_cell_angle_alpha   76.80908715
_cell_angle_beta   90.00000000
_cell_angle_gamma   90.00000000
_symmetry_Int_Tables_number   1
_chemical_formula_structural   Na2Pu(SO5)2
_chemical_formula_sum   'Na4 Pu2 S4 O20'
_cell_volume   445.21756771
_cell_formula_units_Z   2
loop_
 _symmetry_equiv_pos_site_id
 _symmetry_equiv_pos_as_xyz
  1  'x, y, z'
loop_
 _atom_site_type_symbol
 _atom_site_label
 _atom_site_symmetry_multiplicity
 _atom_site_fract_x
 _atom_site_fract_y
 _atom_site_fract_z
 _atom_site_occupancy
  Na  Na0  1  0.663670  0.229778  0.604154  1
  Na  Na1  1  0.163670  0.270222  0.395846  1
  Na  Na2  1  0.336330  0.770222  0.395846  1
  Na  Na3  1  0.836330  0.729778  0.604154  1
  Pu  Pu4  1  0.500000  0.500000  0.000000  1
  Pu  Pu5  1  0.000000  0.000000  0.000000  1
  S  S6  1  0.625896  0.943732  0.215347  1
  S  S7  1  0.125896  0.556268  0.784653  1
  S  S8  1  0.374104  0.056268  0.784653  1
  S  S9  1  0.874104  0.443732  0.215347  1
  O  O10  1  0.667071  0.990017  0.978483  1
  O  O11  1  0.167071  0.509983  0.021517  1
  O  O12  1  0.332929  0.009983  0.021517  1
  O  O13  1  0.832929  0.490017  0.978483  1
  O  O14  1  0.560523  0.723191  0.255630  1
  O  O15  1  0.060523  0.776809  0.744370  1
  O  O16  1  0.439477  0.276809  0.744370  1
  O  O17  1  0.939477  0.223191  0.255630  1
  O  O18  1  0.558454  0.148659  0.243402  1
  O  O19  1  0.058454  0.351341  0.756598  1
  O  O20  1  0.441546  0.851341  0.756598  1
  O  O21  1  0.941546  0.648659  0.243402  1
  O  O22  1  0.697475  0.912665  0.407568  1
  O  O23  1  0.197475  0.587335  0.592432  1
  O  O24  1  0.302525  0.087335  0.592432  1
  O  O25  1  0.802525  0.412665  0.407568  1
  O  O26  1  0.609239  0.518173  0.832040  1
  O  O27  1  0.109239  0.981827  0.167960  1
  O  O28  1  0.390761  0.481827  0.167960  1
  O  O29  1  0.890761  0.018173  0.832040  1
