# generated using pymatgen
data_La5Tb3(Si3Au)4
_symmetry_space_group_name_H-M   'P 1'
_cell_length_a   8.30550700
_cell_length_b   8.30551720
_cell_length_c   8.73956500
_cell_angle_alpha   90.00000000
_cell_angle_beta   90.00000000
_cell_angle_gamma   120.00012266
_symmetry_Int_Tables_number   1
_chemical_formula_structural   La5Tb3(Si3Au)4
_chemical_formula_sum   'La5 Tb3 Si12 Au4'
_cell_volume   522.09885699
_cell_formula_units_Z   1
loop_
 _symmetry_equiv_pos_site_id
 _symmetry_equiv_pos_as_xyz
  1  'x, y, z'
loop_
 _atom_site_type_symbol
 _atom_site_label
 _atom_site_symmetry_multiplicity
 _atom_site_fract_x
 _atom_site_fract_y
 _atom_site_fract_z
 _atom_site_occupancy
  La  La0  1  0.000004  0.999997  0.750000  1
  La  La1  1  0.999970  0.000044  0.250000  1
  La  La2  1  0.499926  0.500055  0.750000  1
  La  La3  1  0.499989  0.999908  0.750000  1
  La  La4  1  0.000104  0.500005  0.750000  1
  Tb  Tb5  1  0.500052  0.499951  0.250000  1
  Tb  Tb6  1  0.999907  0.499956  0.250000  1
  Tb  Tb7  1  0.500044  0.000099  0.250000  1
  Si  Si8  1  0.835704  0.164289  0.005226  1
  Si  Si9  1  0.835701  0.671404  0.005196  1
  Si  Si10  1  0.328589  0.164294  0.005198  1
  Si  Si11  1  0.835704  0.164289  0.494774  1
  Si  Si12  1  0.835701  0.671404  0.494804  1
  Si  Si13  1  0.328589  0.164294  0.494802  1
  Si  Si14  1  0.164309  0.835687  0.494976  1
  Si  Si15  1  0.671383  0.835691  0.494954  1
  Si  Si16  1  0.164306  0.328610  0.494949  1
  Si  Si17  1  0.164309  0.835687  0.005024  1
  Si  Si18  1  0.671383  0.835691  0.005046  1
  Si  Si19  1  0.164306  0.328610  0.005051  1
  Au  Au20  1  0.666676  0.333338  0.018111  1
  Au  Au21  1  0.666676  0.333338  0.481889  1
  Au  Au22  1  0.333332  0.666680  0.481454  1
  Au  Au23  1  0.333332  0.666680  0.018546  1
