# generated using pymatgen
data_Dy12Co2Ru3Pb
_symmetry_space_group_name_H-M   'P 1'
_cell_length_a   8.35755085
_cell_length_b   8.35755004
_cell_length_c   8.35755061
_cell_angle_alpha   112.69706951
_cell_angle_beta   109.95805659
_cell_angle_gamma   105.83149271
_symmetry_Int_Tables_number   1
_chemical_formula_structural   Dy12Co2Ru3Pb
_chemical_formula_sum   'Dy12 Co2 Ru3 Pb1'
_cell_volume   447.75822937
_cell_formula_units_Z   1
loop_
 _symmetry_equiv_pos_site_id
 _symmetry_equiv_pos_as_xyz
  1  'x, y, z'
loop_
 _atom_site_type_symbol
 _atom_site_label
 _atom_site_symmetry_multiplicity
 _atom_site_fract_x
 _atom_site_fract_y
 _atom_site_fract_z
 _atom_site_occupancy
  Dy  Dy0  1  0.821060  0.723425  0.544486  1
  Dy  Dy1  1  0.178940  0.276575  0.455514  1
  Dy  Dy2  1  0.178940  0.723425  0.902364  1
  Dy  Dy3  1  0.821060  0.276575  0.097636  1
  Dy  Dy4  1  0.679867  0.361558  0.681691  1
  Dy  Dy5  1  0.320133  0.638442  0.318309  1
  Dy  Dy6  1  0.679867  0.998174  0.318309  1
  Dy  Dy7  1  0.320133  0.001826  0.681691  1
  Dy  Dy8  1  0.584168  0.771079  0.813089  1
  Dy  Dy9  1  0.415832  0.228921  0.186911  1
  Dy  Dy10  1  0.957988  0.771079  0.186911  1
  Dy  Dy11  1  0.042012  0.228921  0.813089  1
  Co  Co12  1  0.109480  0.609480  0.500000  1
  Co  Co13  1  0.890520  0.390520  0.500000  1
  Ru  Ru14  1  0.663911  0.000000  0.663911  1
  Ru  Ru15  1  0.336089  0.000000  0.336089  1
  Ru  Ru16  1  0.000000  0.000000  0.000000  1
  Pb  Pb17  1  0.500000  0.500000  0.000000  1
