# generated using pymatgen
data_Hf6Zr2Fe8Si13As
_symmetry_space_group_name_H-M   'P 1'
_cell_length_a   9.51406161
_cell_length_b   9.51312946
_cell_length_c   9.51406253
_cell_angle_alpha   94.05708187
_cell_angle_beta   94.06221399
_cell_angle_gamma   149.14868726
_symmetry_Int_Tables_number   1
_chemical_formula_structural   Hf6Zr2Fe8Si13As
_chemical_formula_sum   'Hf6 Zr2 Fe8 Si13 As1'
_cell_volume   425.65587819
_cell_formula_units_Z   1
loop_
 _symmetry_equiv_pos_site_id
 _symmetry_equiv_pos_as_xyz
  1  'x, y, z'
loop_
 _atom_site_type_symbol
 _atom_site_label
 _atom_site_symmetry_multiplicity
 _atom_site_fract_x
 _atom_site_fract_y
 _atom_site_fract_z
 _atom_site_occupancy
  Hf  Hf0  1  0.695185  0.496546  0.197759  1
  Hf  Hf1  1  0.497137  0.695733  0.198596  1
  Hf  Hf2  1  0.496849  0.299036  0.802188  1
  Hf  Hf3  1  0.298786  0.496546  0.801362  1
  Hf  Hf4  1  0.863715  0.863479  0.722448  1
  Hf  Hf5  1  0.141032  0.863479  0.999765  1
  Zr  Zr6  1  0.863779  0.139656  0.999769  1
  Zr  Zr7  1  0.139887  0.139656  0.275876  1
  Fe  Fe8  1  0.102146  0.898788  0.501257  1
  Fe  Fe9  1  0.898787  0.398746  0.796614  1
  Fe  Fe10  1  0.600872  0.102162  0.203286  1
  Fe  Fe11  1  0.102116  0.602066  0.203315  1
  Fe  Fe12  1  0.602131  0.398746  0.499959  1
  Fe  Fe13  1  0.397530  0.898788  0.796641  1
  Fe  Fe14  1  0.898878  0.102162  0.501290  1
  Fe  Fe15  1  0.398752  0.602066  0.499950  1
  Si  Si16  1  0.251446  0.250672  0.999226  1
  Si  Si17  1  0.092269  0.500740  0.591059  1
  Si  Si18  1  0.501023  0.092362  0.591340  1
  Si  Si19  1  0.500963  0.909715  0.408753  1
  Si  Si20  1  0.909680  0.500740  0.408471  1
  Si  Si21  1  0.698322  0.998226  0.699502  1
  Si  Si22  1  0.998431  0.698911  0.700480  1
  Si  Si23  1  0.711097  0.711245  0.420688  1
  Si  Si24  1  0.290557  0.711245  0.000147  1
  Si  Si25  1  0.298725  0.998226  0.299904  1
  Si  Si26  1  0.711002  0.291161  0.000131  1
  Si  Si27  1  0.291030  0.291161  0.580159  1
  Si  Si28  1  0.998573  0.299458  0.300885  1
  As  As29  1  0.749302  0.748482  0.999180  1
