# generated using pymatgen
data_Ho16Mg3CdPt4
_symmetry_space_group_name_H-M   'P 1'
_cell_length_a   9.67587094
_cell_length_b   9.71377247
_cell_length_c   9.71377300
_cell_angle_alpha   60.00000159
_cell_angle_beta   59.87033956
_cell_angle_gamma   59.87033911
_symmetry_Int_Tables_number   1
_chemical_formula_structural   Ho16Mg3CdPt4
_chemical_formula_sum   'Ho16 Mg3 Cd1 Pt4'
_cell_volume   644.31319561
_cell_formula_units_Z   1
loop_
 _symmetry_equiv_pos_site_id
 _symmetry_equiv_pos_as_xyz
  1  'x, y, z'
loop_
 _atom_site_type_symbol
 _atom_site_label
 _atom_site_symmetry_multiplicity
 _atom_site_fract_x
 _atom_site_fract_y
 _atom_site_fract_z
 _atom_site_occupancy
  Ho  Ho0  1  0.600063  0.601274  0.601274  1
  Ho  Ho1  1  0.600063  0.601274  0.197390  1
  Ho  Ho2  1  0.600063  0.197390  0.601274  1
  Ho  Ho3  1  0.199503  0.600166  0.600166  1
  Ho  Ho4  1  0.062519  0.437685  0.437685  1
  Ho  Ho5  1  0.438714  0.061399  0.061399  1
  Ho  Ho6  1  0.438714  0.061399  0.438488  1
  Ho  Ho7  1  0.062519  0.437685  0.062110  1
  Ho  Ho8  1  0.438714  0.438488  0.061399  1
  Ho  Ho9  1  0.062519  0.062110  0.437685  1
  Ho  Ho10  1  0.186982  0.815394  0.815394  1
  Ho  Ho11  1  0.816005  0.183878  0.183878  1
  Ho  Ho12  1  0.816005  0.183878  0.816239  1
  Ho  Ho13  1  0.186982  0.815394  0.182230  1
  Ho  Ho14  1  0.816005  0.816239  0.183878  1
  Ho  Ho15  1  0.186982  0.182230  0.815394  1
  Mg  Mg16  1  0.828294  0.830631  0.830631  1
  Mg  Mg17  1  0.828294  0.830631  0.510444  1
  Mg  Mg18  1  0.828294  0.510444  0.830631  1
  Cd  Cd19  1  0.503124  0.832292  0.832292  1
  Pt  Pt20  1  0.393154  0.393026  0.393026  1
  Pt  Pt21  1  0.393154  0.393026  0.820793  1
  Pt  Pt22  1  0.393154  0.820793  0.393026  1
  Pt  Pt23  1  0.820177  0.393274  0.393274  1
