# generated using pymatgen
data_DyY4IrPt
_symmetry_space_group_name_H-M   'P 1'
_cell_length_a   6.56058658
_cell_length_b   7.19138320
_cell_length_c   8.69704000
_cell_angle_alpha   96.64757877
_cell_angle_beta   112.15870847
_cell_angle_gamma   90.00000144
_symmetry_Int_Tables_number   1
_chemical_formula_structural   DyY4IrPt
_chemical_formula_sum   'Dy2 Y8 Ir2 Pt2'
_cell_volume   377.03796674
_cell_formula_units_Z   2
loop_
 _symmetry_equiv_pos_site_id
 _symmetry_equiv_pos_as_xyz
  1  'x, y, z'
loop_
 _atom_site_type_symbol
 _atom_site_label
 _atom_site_symmetry_multiplicity
 _atom_site_fract_x
 _atom_site_fract_y
 _atom_site_fract_z
 _atom_site_occupancy
  Dy  Dy0  1  0.427295  0.750000  0.000000  1
  Dy  Dy1  1  0.566772  0.250000  0.000000  1
  Y  Y2  1  0.982301  0.923620  0.185412  1
  Y  Y3  1  0.796890  0.576380  0.814588  1
  Y  Y4  1  0.025114  0.083009  0.814346  1
  Y  Y5  1  0.210767  0.416991  0.185654  1
  Y  Y6  1  0.651000  0.817336  0.439597  1
  Y  Y7  1  0.211404  0.682664  0.560403  1
  Y  Y8  1  0.343103  0.187466  0.558075  1
  Y  Y9  1  0.785027  0.312534  0.441925  1
  Ir  Ir10  1  0.179565  0.427355  0.778428  1
  Ir  Ir11  1  0.401137  0.072645  0.221572  1
  Pt  Pt12  1  0.819565  0.572334  0.219505  1
  Pt  Pt13  1  0.600060  0.927666  0.780495  1
