# generated using pymatgen
data_Li2Lu3Si3Ag
_symmetry_space_group_name_H-M   'P 1'
_cell_length_a   6.88859694
_cell_length_b   6.86832171
_cell_length_c   4.15463800
_cell_angle_alpha   90.00000000
_cell_angle_beta   90.00000000
_cell_angle_gamma   119.90267849
_symmetry_Int_Tables_number   1
_chemical_formula_structural   Li2Lu3Si3Ag
_chemical_formula_sum   'Li2 Lu3 Si3 Ag1'
_cell_volume   170.40027513
_cell_formula_units_Z   1
loop_
 _symmetry_equiv_pos_site_id
 _symmetry_equiv_pos_as_xyz
  1  'x, y, z'
loop_
 _atom_site_type_symbol
 _atom_site_label
 _atom_site_symmetry_multiplicity
 _atom_site_fract_x
 _atom_site_fract_y
 _atom_site_fract_z
 _atom_site_occupancy
  Li  Li0  1  0.761342  0.764191  0.000000  1
  Li  Li1  1  0.238658  0.002850  0.000000  1
  Lu  Lu2  1  0.423079  0.423043  0.500000  1
  Lu  Lu3  1  0.576921  0.999964  0.500000  1
  Lu  Lu4  1  0.000000  0.574089  0.500000  1
  Si  Si5  1  0.664286  0.332239  0.000000  1
  Si  Si6  1  0.335714  0.667954  0.000000  1
  Si  Si7  1  0.000000  0.995833  0.500000  1
  Ag  Ag8  1  0.000000  0.239836  0.000000  1
