# generated using pymatgen
data_CaPr3(ReC2)2
_symmetry_space_group_name_H-M   'P 1'
_cell_length_a   5.34947300
_cell_length_b   6.67290900
_cell_length_c   10.50579800
_cell_angle_alpha   90.00000000
_cell_angle_beta   90.00000000
_cell_angle_gamma   90.00000000
_symmetry_Int_Tables_number   1
_chemical_formula_structural   CaPr3(ReC2)2
_chemical_formula_sum   'Ca2 Pr6 Re4 C8'
_cell_volume   375.02070711
_cell_formula_units_Z   2
loop_
 _symmetry_equiv_pos_site_id
 _symmetry_equiv_pos_as_xyz
  1  'x, y, z'
loop_
 _atom_site_type_symbol
 _atom_site_label
 _atom_site_symmetry_multiplicity
 _atom_site_fract_x
 _atom_site_fract_y
 _atom_site_fract_z
 _atom_site_occupancy
  Ca  Ca0  1  0.750000  0.532028  0.777119  1
  Ca  Ca1  1  0.250000  0.967972  0.277119  1
  Pr  Pr2  1  0.750000  0.697664  0.450121  1
  Pr  Pr3  1  0.250000  0.802336  0.950121  1
  Pr  Pr4  1  0.750000  0.193948  0.049556  1
  Pr  Pr5  1  0.250000  0.306052  0.549556  1
  Pr  Pr6  1  0.250000  0.469963  0.222146  1
  Pr  Pr7  1  0.750000  0.030037  0.722146  1
  Re  Re8  1  0.250000  0.270636  0.852994  1
  Re  Re9  1  0.250000  0.769165  0.646692  1
  Re  Re10  1  0.750000  0.229364  0.352994  1
  Re  Re11  1  0.750000  0.730835  0.146692  1
  C  C12  1  0.250000  0.689620  0.471472  1
  C  C13  1  0.250000  0.532655  0.757962  1
  C  C14  1  0.750000  0.467899  0.242600  1
  C  C15  1  0.750000  0.810380  0.971472  1
  C  C16  1  0.250000  0.032101  0.742600  1
  C  C17  1  0.250000  0.204708  0.029338  1
  C  C18  1  0.750000  0.295292  0.529338  1
  C  C19  1  0.750000  0.967345  0.257962  1
