# generated using pymatgen
data_Cs8CeNp3Br20
_symmetry_space_group_name_H-M   'P 1'
_cell_length_a   9.14059967
_cell_length_b   9.64139700
_cell_length_c   14.68035800
_cell_angle_alpha   90.00000000
_cell_angle_beta   90.27023254
_cell_angle_gamma   90.00000000
_symmetry_Int_Tables_number   1
_chemical_formula_structural   Cs8CeNp3Br20
_chemical_formula_sum   'Cs8 Ce1 Np3 Br20'
_cell_volume   1293.73840506
_cell_formula_units_Z   1
loop_
 _symmetry_equiv_pos_site_id
 _symmetry_equiv_pos_as_xyz
  1  'x, y, z'
loop_
 _atom_site_type_symbol
 _atom_site_label
 _atom_site_symmetry_multiplicity
 _atom_site_fract_x
 _atom_site_fract_y
 _atom_site_fract_z
 _atom_site_occupancy
  Cs  Cs0  1  0.941134  0.006058  0.828792  1
  Cs  Cs1  1  0.058659  0.994458  0.171755  1
  Cs  Cs2  1  0.441191  0.995939  0.670594  1
  Cs  Cs3  1  0.058659  0.505542  0.171755  1
  Cs  Cs4  1  0.558722  0.004523  0.329782  1
  Cs  Cs5  1  0.941134  0.493942  0.828792  1
  Cs  Cs6  1  0.558722  0.495477  0.329782  1
  Cs  Cs7  1  0.441191  0.504061  0.670594  1
  Ce  Ce8  1  0.564655  0.750000  0.001991  1
  Np  Np9  1  0.936441  0.750000  0.504159  1
  Np  Np10  1  0.063363  0.250000  0.495832  1
  Np  Np11  1  0.435487  0.250000  0.998734  1
  Br  Br12  1  0.107305  0.750000  0.672881  1
  Br  Br13  1  0.892364  0.250000  0.327331  1
  Br  Br14  1  0.604942  0.250000  0.829602  1
  Br  Br15  1  0.390605  0.750000  0.170895  1
  Br  Br16  1  0.842181  0.043165  0.567871  1
  Br  Br17  1  0.157335  0.956828  0.432366  1
  Br  Br18  1  0.344612  0.959171  0.930575  1
  Br  Br19  1  0.157335  0.543172  0.432366  1
  Br  Br20  1  0.657449  0.043835  0.068213  1
  Br  Br21  1  0.842181  0.456835  0.567871  1
  Br  Br22  1  0.657449  0.456165  0.068213  1
  Br  Br23  1  0.344612  0.540829  0.930575  1
  Br  Br24  1  0.611336  0.750000  0.514222  1
  Br  Br25  1  0.388103  0.250000  0.485387  1
  Br  Br26  1  0.110687  0.250000  0.986104  1
  Br  Br27  1  0.891979  0.750000  0.014214  1
  Br  Br28  1  0.649174  0.750000  0.808070  1
  Br  Br29  1  0.351426  0.250000  0.190764  1
  Br  Br30  1  0.147178  0.250000  0.688722  1
  Br  Br31  1  0.852386  0.750000  0.311198  1
