# generated using pymatgen
data_Li6SmPu2N6
_symmetry_space_group_name_H-M   'P 1'
_cell_length_a   6.07138800
_cell_length_b   6.07138965
_cell_length_c   5.47237900
_cell_angle_alpha   90.00000000
_cell_angle_beta   90.00000000
_cell_angle_gamma   120.00001278
_symmetry_Int_Tables_number   1
_chemical_formula_structural   Li6SmPu2N6
_chemical_formula_sum   'Li6 Sm1 Pu2 N6'
_cell_volume   174.69595032
_cell_formula_units_Z   1
loop_
 _symmetry_equiv_pos_site_id
 _symmetry_equiv_pos_as_xyz
  1  'x, y, z'
loop_
 _atom_site_type_symbol
 _atom_site_label
 _atom_site_symmetry_multiplicity
 _atom_site_fract_x
 _atom_site_fract_y
 _atom_site_fract_z
 _atom_site_occupancy
  Li  Li0  1  0.988840  0.658109  0.607010  1
  Li  Li1  1  0.341891  0.330730  0.607010  1
  Li  Li2  1  0.669270  0.011160  0.607010  1
  Li  Li3  1  0.011160  0.341891  0.392990  1
  Li  Li4  1  0.658109  0.669270  0.392990  1
  Li  Li5  1  0.330730  0.988840  0.392990  1
  Sm  Sm6  1  0.000000  0.000000  0.000000  1
  Pu  Pu7  1  0.333333  0.666667  0.995657  1
  Pu  Pu8  1  0.666667  0.333333  0.004343  1
  N  N9  1  0.001014  0.647822  0.225130  1
  N  N10  1  0.352178  0.353191  0.225130  1
  N  N11  1  0.646809  0.998986  0.225130  1
  N  N12  1  0.998986  0.352178  0.774870  1
  N  N13  1  0.647822  0.646809  0.774870  1
  N  N14  1  0.353191  0.001014  0.774870  1
