# generated using pymatgen
data_Nd10CuSb6P
_symmetry_space_group_name_H-M   'P 1'
_cell_length_a   9.46506600
_cell_length_b   9.46506721
_cell_length_c   6.55401600
_cell_angle_alpha   90.00000000
_cell_angle_beta   90.00000000
_cell_angle_gamma   119.99999578
_symmetry_Int_Tables_number   1
_chemical_formula_structural   Nd10CuSb6P
_chemical_formula_sum   'Nd10 Cu1 Sb6 P1'
_cell_volume   508.49360588
_cell_formula_units_Z   1
loop_
 _symmetry_equiv_pos_site_id
 _symmetry_equiv_pos_as_xyz
  1  'x, y, z'
loop_
 _atom_site_type_symbol
 _atom_site_label
 _atom_site_symmetry_multiplicity
 _atom_site_fract_x
 _atom_site_fract_y
 _atom_site_fract_z
 _atom_site_occupancy
  Nd  Nd0  1  0.666667  0.333333  0.000000  1
  Nd  Nd1  1  0.333333  0.666667  0.000000  1
  Nd  Nd2  1  0.333333  0.666667  0.500000  1
  Nd  Nd3  1  0.666667  0.333333  0.500000  1
  Nd  Nd4  1  0.746393  0.746393  0.753787  1
  Nd  Nd5  1  0.253607  0.000000  0.753787  1
  Nd  Nd6  1  0.000000  0.253607  0.753787  1
  Nd  Nd7  1  0.253607  0.253607  0.246213  1
  Nd  Nd8  1  0.746393  0.000000  0.246213  1
  Nd  Nd9  1  0.000000  0.746393  0.246213  1
  Cu  Cu10  1  0.000000  0.000000  0.500000  1
  Sb  Sb11  1  0.387138  0.387138  0.748139  1
  Sb  Sb12  1  0.612862  0.000000  0.748139  1
  Sb  Sb13  1  0.000000  0.612862  0.748139  1
  Sb  Sb14  1  0.612862  0.612862  0.251861  1
  Sb  Sb15  1  0.387138  0.000000  0.251861  1
  Sb  Sb16  1  0.000000  0.387138  0.251861  1
  P  P17  1  0.000000  0.000000  0.000000  1
