# generated using pymatgen
data_ErTm2Nb3(B2Ru5)2
_symmetry_space_group_name_H-M   'P 1'
_cell_length_a   9.57274820
_cell_length_b   9.57199309
_cell_length_c   3.12219400
_cell_angle_alpha   90.00000000
_cell_angle_beta   90.00000000
_cell_angle_gamma   90.30577162
_symmetry_Int_Tables_number   1
_chemical_formula_structural   ErTm2Nb3(B2Ru5)2
_chemical_formula_sum   'Er1 Tm2 Nb3 B4 Ru10'
_cell_volume   286.08343527
_cell_formula_units_Z   1
loop_
 _symmetry_equiv_pos_site_id
 _symmetry_equiv_pos_as_xyz
  1  'x, y, z'
loop_
 _atom_site_type_symbol
 _atom_site_label
 _atom_site_symmetry_multiplicity
 _atom_site_fract_x
 _atom_site_fract_y
 _atom_site_fract_z
 _atom_site_occupancy
  Er  Er0  1  0.824340  0.675322  0.000000  1
  Tm  Tm1  1  0.175225  0.324269  0.000000  1
  Tm  Tm2  1  0.325552  0.825562  0.000000  1
  Nb  Nb3  1  0.675471  0.175492  0.000000  1
  Nb  Nb4  1  0.498161  0.503043  0.000000  1
  Nb  Nb5  1  0.003181  0.998440  0.000000  1
  B  B6  1  0.622826  0.880425  0.000000  1
  B  B7  1  0.380260  0.122988  0.000000  1
  B  B8  1  0.119408  0.619233  0.000000  1
  B  B9  1  0.876954  0.376822  0.000000  1
  Ru  Ru10  1  0.570981  0.721990  0.500000  1
  Ru  Ru11  1  0.439769  0.280074  0.500000  1
  Ru  Ru12  1  0.069984  0.780284  0.500000  1
  Ru  Ru13  1  0.916782  0.214045  0.500000  1
  Ru  Ru14  1  0.280222  0.569622  0.500000  1
  Ru  Ru15  1  0.714008  0.416555  0.500000  1
  Ru  Ru16  1  0.221881  0.071386  0.500000  1
  Ru  Ru17  1  0.779989  0.940058  0.500000  1
  Ru  Ru18  1  0.508202  0.008312  0.500000  1
  Ru  Ru19  1  0.996801  0.496076  0.500000  1
