# generated using pymatgen
data_Ti8Al14AsRu2Rh5
_symmetry_space_group_name_H-M   'P 1'
_cell_length_a   8.63705607
_cell_length_b   8.65130437
_cell_length_c   8.63705562
_cell_angle_alpha   119.97790943
_cell_angle_beta   119.87677941
_cell_angle_gamma   90.07855258
_symmetry_Int_Tables_number   1
_chemical_formula_structural   Ti8Al14AsRu2Rh5
_chemical_formula_sum   'Ti8 Al14 As1 Ru2 Rh5'
_cell_volume   457.03838822
_cell_formula_units_Z   1
loop_
 _symmetry_equiv_pos_site_id
 _symmetry_equiv_pos_as_xyz
  1  'x, y, z'
loop_
 _atom_site_type_symbol
 _atom_site_label
 _atom_site_symmetry_multiplicity
 _atom_site_fract_x
 _atom_site_fract_y
 _atom_site_fract_z
 _atom_site_occupancy
  Ti  Ti0  1  0.794760  0.294467  0.084616  1
  Ti  Ti1  1  0.209850  0.294467  0.499708  1
  Ti  Ti2  1  0.203888  0.706923  0.503035  1
  Ti  Ti3  1  0.213181  0.714065  0.916258  1
  Ti  Ti4  1  0.797808  0.714065  0.500884  1
  Ti  Ti5  1  0.789895  0.287125  0.497230  1
  Ti  Ti6  1  0.376397  0.117936  0.741538  1
  Ti  Ti7  1  0.380128  0.637533  0.257403  1
  Al  Al8  1  0.158369  0.338714  0.180343  1
  Al  Al9  1  0.158340  0.978722  0.820380  1
  Al  Al10  1  0.155316  0.341396  0.814184  1
  Al  Al11  1  0.527211  0.341396  0.186080  1
  Al  Al12  1  0.841109  0.658025  0.816917  1
  Al  Al13  1  0.840374  0.021862  0.181488  1
  Al  Al14  1  0.839606  0.659816  0.180073  1
  Al  Al15  1  0.479743  0.659816  0.820210  1
  Al  Al16  1  0.381310  0.120053  0.259874  1
  Al  Al17  1  0.860180  0.120053  0.738743  1
  Al  Al18  1  0.621087  0.879213  0.258127  1
  Al  Al19  1  0.619826  0.360733  0.740907  1
  Al  Al20  1  0.618956  0.879665  0.741666  1
  Al  Al21  1  0.137998  0.879665  0.260709  1
  As  As22  1  0.997324  0.497533  0.500209  1
  Ru  Ru23  1  0.002084  0.000380  0.502430  1
  Ru  Ru24  1  0.497950  0.000380  0.998296  1
  Rh  Rh25  1  0.497903  0.497337  0.999434  1
  Rh  Rh26  1  0.498845  0.500561  0.498753  1
  Rh  Rh27  1  0.001807  0.500561  0.001715  1
  Rh  Rh28  1  0.999675  0.999452  0.999777  1
  Rh  Rh29  1  0.499074  0.998082  0.499008  1
