# generated using pymatgen
data_La2Nd6Pd24Pb
_symmetry_space_group_name_H-M   'P 1'
_cell_length_a   8.59679518
_cell_length_b   8.59679536
_cell_length_c   8.59679500
_cell_angle_alpha   89.98826998
_cell_angle_beta   89.98826998
_cell_angle_gamma   89.98826758
_symmetry_Int_Tables_number   1
_chemical_formula_structural   La2Nd6Pd24Pb
_chemical_formula_sum   'La2 Nd6 Pd24 Pb1'
_cell_volume   635.34513959
_cell_formula_units_Z   1
loop_
 _symmetry_equiv_pos_site_id
 _symmetry_equiv_pos_as_xyz
  1  'x, y, z'
loop_
 _atom_site_type_symbol
 _atom_site_label
 _atom_site_symmetry_multiplicity
 _atom_site_fract_x
 _atom_site_fract_y
 _atom_site_fract_z
 _atom_site_occupancy
  La  La0  1  0.253379  0.253379  0.253379  1
  La  La1  1  0.746621  0.746621  0.746621  1
  Nd  Nd2  1  0.747726  0.747726  0.252086  1
  Nd  Nd3  1  0.747726  0.252086  0.747726  1
  Nd  Nd4  1  0.252274  0.252274  0.747914  1
  Nd  Nd5  1  0.252274  0.747914  0.252274  1
  Nd  Nd6  1  0.252086  0.747726  0.747726  1
  Nd  Nd7  1  0.747914  0.252274  0.252274  1
  Pd  Pd8  1  0.268576  0.500255  0.999512  1
  Pd  Pd9  1  0.731424  0.499745  0.000488  1
  Pd  Pd10  1  0.999512  0.268576  0.500255  1
  Pd  Pd11  1  0.500255  0.268576  0.999512  1
  Pd  Pd12  1  0.000488  0.731424  0.499745  1
  Pd  Pd13  1  0.499745  0.731424  0.000488  1
  Pd  Pd14  1  0.500255  0.999512  0.268576  1
  Pd  Pd15  1  0.268576  0.999512  0.500255  1
  Pd  Pd16  1  0.499745  0.000488  0.731424  1
  Pd  Pd17  1  0.731424  0.000488  0.499745  1
  Pd  Pd18  1  0.999512  0.500255  0.268576  1
  Pd  Pd19  1  0.000488  0.499745  0.731424  1
  Pd  Pd20  1  0.255709  0.501019  0.501019  1
  Pd  Pd21  1  0.744291  0.498981  0.498981  1
  Pd  Pd22  1  0.501019  0.255709  0.501019  1
  Pd  Pd23  1  0.498981  0.744291  0.498981  1
  Pd  Pd24  1  0.501019  0.501019  0.255709  1
  Pd  Pd25  1  0.498981  0.498981  0.744291  1
  Pd  Pd26  1  0.319737  0.999480  0.999480  1
  Pd  Pd27  1  0.680263  0.000520  0.000520  1
  Pd  Pd28  1  0.999480  0.319737  0.999480  1
  Pd  Pd29  1  0.000520  0.680263  0.000520  1
  Pd  Pd30  1  0.999480  0.999480  0.319737  1
  Pd  Pd31  1  0.000520  0.000520  0.680263  1
  Pb  Pb32  1  0.000000  0.000000  0.000000  1
