# generated using pymatgen
data_Dy5Cd4NiAu
_symmetry_space_group_name_H-M   'P 1'
_cell_length_a   3.60598900
_cell_length_b   8.02127000
_cell_length_c   18.41730500
_cell_angle_alpha   90.00000000
_cell_angle_beta   90.00000000
_cell_angle_gamma   90.00000000
_symmetry_Int_Tables_number   1
_chemical_formula_structural   Dy5Cd4NiAu
_chemical_formula_sum   'Dy10 Cd8 Ni2 Au2'
_cell_volume   532.71338990
_cell_formula_units_Z   2
loop_
 _symmetry_equiv_pos_site_id
 _symmetry_equiv_pos_as_xyz
  1  'x, y, z'
loop_
 _atom_site_type_symbol
 _atom_site_label
 _atom_site_symmetry_multiplicity
 _atom_site_fract_x
 _atom_site_fract_y
 _atom_site_fract_z
 _atom_site_occupancy
  Dy  Dy0  1  0.500000  0.386528  0.587703  1
  Dy  Dy1  1  0.500000  0.882592  0.920089  1
  Dy  Dy2  1  0.500000  0.113472  0.087703  1
  Dy  Dy3  1  0.500000  0.735332  0.717197  1
  Dy  Dy4  1  0.500000  0.271785  0.777982  1
  Dy  Dy5  1  0.500000  0.499438  0.999781  1
  Dy  Dy6  1  0.500000  0.764668  0.217197  1
  Dy  Dy7  1  0.500000  0.228215  0.277982  1
  Dy  Dy8  1  0.500000  0.000562  0.499781  1
  Dy  Dy9  1  0.500000  0.617408  0.420089  1
  Cd  Cd10  1  0.000000  0.788228  0.069488  1
  Cd  Cd11  1  0.000000  0.929756  0.350743  1
  Cd  Cd12  1  0.000000  0.073423  0.647099  1
  Cd  Cd13  1  0.000000  0.570244  0.850743  1
  Cd  Cd14  1  0.000000  0.711772  0.569488  1
  Cd  Cd15  1  0.000000  0.213800  0.932291  1
  Cd  Cd16  1  0.000000  0.286200  0.432291  1
  Cd  Cd17  1  0.000000  0.426577  0.147099  1
  Ni  Ni18  1  0.000000  0.470528  0.695560  1
  Ni  Ni19  1  0.000000  0.029472  0.195560  1
  Au  Au20  1  0.000000  0.969839  0.802067  1
  Au  Au21  1  0.000000  0.530161  0.302067  1
