# generated using pymatgen
data_CsAlVF6
_symmetry_space_group_name_H-M   'P 1'
_cell_length_a   7.21426500
_cell_length_b   7.48655300
_cell_length_c   10.33199300
_cell_angle_alpha   90.00000000
_cell_angle_beta   90.00000000
_cell_angle_gamma   90.00000000
_symmetry_Int_Tables_number   1
_chemical_formula_structural   CsAlVF6
_chemical_formula_sum   'Cs4 Al4 V4 F24'
_cell_volume   558.03070717
_cell_formula_units_Z   4
loop_
 _symmetry_equiv_pos_site_id
 _symmetry_equiv_pos_as_xyz
  1  'x, y, z'
loop_
 _atom_site_type_symbol
 _atom_site_label
 _atom_site_symmetry_multiplicity
 _atom_site_fract_x
 _atom_site_fract_y
 _atom_site_fract_z
 _atom_site_occupancy
  Cs  Cs0  1  0.250000  0.515578  0.128143  1
  Cs  Cs1  1  0.750000  0.484422  0.871857  1
  Cs  Cs2  1  0.750000  0.984422  0.628143  1
  Cs  Cs3  1  0.250000  0.015578  0.371857  1
  Al  Al4  1  0.000000  0.500000  0.500000  1
  Al  Al5  1  0.000000  0.000000  0.000000  1
  Al  Al6  1  0.500000  0.500000  0.500000  1
  Al  Al7  1  0.500000  0.000000  0.000000  1
  V  V8  1  0.250000  0.723595  0.761908  1
  V  V9  1  0.750000  0.276405  0.238092  1
  V  V10  1  0.750000  0.776405  0.261908  1
  V  V11  1  0.250000  0.223595  0.738092  1
  F  F12  1  0.048317  0.801948  0.902742  1
  F  F13  1  0.951683  0.198052  0.097258  1
  F  F14  1  0.951683  0.698052  0.402742  1
  F  F15  1  0.548317  0.198052  0.097258  1
  F  F16  1  0.048317  0.301948  0.597258  1
  F  F17  1  0.451683  0.801948  0.902742  1
  F  F18  1  0.451683  0.301948  0.597258  1
  F  F19  1  0.548317  0.698052  0.402742  1
  F  F20  1  0.250000  0.029828  0.037144  1
  F  F21  1  0.750000  0.970172  0.962856  1
  F  F22  1  0.750000  0.470172  0.537144  1
  F  F23  1  0.250000  0.529828  0.462856  1
  F  F24  1  0.477517  0.640120  0.642688  1
  F  F25  1  0.522483  0.359880  0.357312  1
  F  F26  1  0.522483  0.859880  0.142688  1
  F  F27  1  0.977517  0.359880  0.357312  1
  F  F28  1  0.477517  0.140120  0.857312  1
  F  F29  1  0.022483  0.640120  0.642688  1
  F  F30  1  0.022483  0.140120  0.857312  1
  F  F31  1  0.977517  0.859880  0.142688  1
  F  F32  1  0.250000  0.966012  0.659383  1
  F  F33  1  0.750000  0.033988  0.340617  1
  F  F34  1  0.750000  0.533988  0.159383  1
  F  F35  1  0.250000  0.466012  0.840617  1
