# generated using pymatgen
data_Nd20Si11P
_symmetry_space_group_name_H-M   'P 1'
_cell_length_a   7.73899300
_cell_length_b   7.73899300
_cell_length_c   14.21034000
_cell_angle_alpha   90.00000000
_cell_angle_beta   90.00000000
_cell_angle_gamma   90.00000000
_symmetry_Int_Tables_number   1
_chemical_formula_structural   Nd20Si11P
_chemical_formula_sum   'Nd20 Si11 P1'
_cell_volume   851.08586310
_cell_formula_units_Z   1
loop_
 _symmetry_equiv_pos_site_id
 _symmetry_equiv_pos_as_xyz
  1  'x, y, z'
loop_
 _atom_site_type_symbol
 _atom_site_label
 _atom_site_symmetry_multiplicity
 _atom_site_fract_x
 _atom_site_fract_y
 _atom_site_fract_z
 _atom_site_occupancy
  Nd  Nd0  1  0.312767  0.668375  0.105372  1
  Nd  Nd1  1  0.168375  0.187233  0.105372  1
  Nd  Nd2  1  0.500000  0.000000  0.731576  1
  Nd  Nd3  1  0.329966  0.685976  0.392812  1
  Nd  Nd4  1  0.673017  0.683044  0.894801  1
  Nd  Nd5  1  0.185976  0.170034  0.392812  1
  Nd  Nd6  1  0.670034  0.314024  0.392812  1
  Nd  Nd7  1  0.170767  0.815077  0.606840  1
  Nd  Nd8  1  0.326983  0.316956  0.894801  1
  Nd  Nd9  1  0.183044  0.826983  0.894801  1
  Nd  Nd10  1  0.500000  0.000000  0.230309  1
  Nd  Nd11  1  0.829233  0.184923  0.606840  1
  Nd  Nd12  1  0.315077  0.329233  0.606840  1
  Nd  Nd13  1  0.814024  0.829966  0.392812  1
  Nd  Nd14  1  0.816956  0.173017  0.894801  1
  Nd  Nd15  1  0.831625  0.812767  0.105372  1
  Nd  Nd16  1  0.000000  0.500000  0.274261  1
  Nd  Nd17  1  0.000000  0.500000  0.767291  1
  Nd  Nd18  1  0.687233  0.331625  0.105372  1
  Nd  Nd19  1  0.684923  0.670767  0.606840  1
  Si  Si20  1  0.114690  0.114439  0.751478  1
  Si  Si21  1  0.385561  0.614690  0.751478  1
  Si  Si22  1  0.614496  0.614963  0.248552  1
  Si  Si23  1  0.500000  0.000000  0.005304  1
  Si  Si24  1  0.114963  0.885504  0.248552  1
  Si  Si25  1  0.614439  0.385310  0.751478  1
  Si  Si26  1  0.885310  0.885561  0.751478  1
  Si  Si27  1  0.385504  0.385037  0.248552  1
  Si  Si28  1  0.885037  0.114496  0.248552  1
  Si  Si29  1  0.500000  0.000000  0.505669  1
  Si  Si30  1  0.000000  0.500000  0.496120  1
  P  P31  1  0.000000  0.500000  0.990056  1
