# generated using pymatgen
data_Ce3Pa(CdPt2)2
_symmetry_space_group_name_H-M   'P 1'
_cell_length_a   7.90127826
_cell_length_b   7.90127826
_cell_length_c   3.68850600
_cell_angle_alpha   90.00000000
_cell_angle_beta   90.00000000
_cell_angle_gamma   90.93543384
_symmetry_Int_Tables_number   1
_chemical_formula_structural   Ce3Pa(CdPt2)2
_chemical_formula_sum   'Ce3 Pa1 Cd2 Pt4'
_cell_volume   230.24347120
_cell_formula_units_Z   1
loop_
 _symmetry_equiv_pos_site_id
 _symmetry_equiv_pos_as_xyz
  1  'x, y, z'
loop_
 _atom_site_type_symbol
 _atom_site_label
 _atom_site_symmetry_multiplicity
 _atom_site_fract_x
 _atom_site_fract_y
 _atom_site_fract_z
 _atom_site_occupancy
  Ce  Ce0  1  0.170663  0.329972  0.500000  1
  Ce  Ce1  1  0.328399  0.828399  0.500000  1
  Ce  Ce2  1  0.829972  0.670663  0.500000  1
  Pa  Pa3  1  0.667579  0.167579  0.500000  1
  Cd  Cd4  1  0.500830  0.501095  0.000000  1
  Cd  Cd5  1  0.001095  0.000830  0.000000  1
  Pt  Pt6  1  0.635923  0.878583  0.000000  1
  Pt  Pt7  1  0.128172  0.628172  0.000000  1
  Pt  Pt8  1  0.858783  0.358783  0.000000  1
  Pt  Pt9  1  0.378583  0.135923  0.000000  1
