# generated using pymatgen
data_LaPr2NbO7
_symmetry_space_group_name_H-M   'P 1'
_cell_length_a   6.74097580
_cell_length_b   6.74097606
_cell_length_c   7.80418000
_cell_angle_alpha   90.00000000
_cell_angle_beta   90.00000000
_cell_angle_gamma   110.84914886
_symmetry_Int_Tables_number   1
_chemical_formula_structural   LaPr2NbO7
_chemical_formula_sum   'La2 Pr4 Nb2 O14'
_cell_volume   331.40706654
_cell_formula_units_Z   2
loop_
 _symmetry_equiv_pos_site_id
 _symmetry_equiv_pos_as_xyz
  1  'x, y, z'
loop_
 _atom_site_type_symbol
 _atom_site_label
 _atom_site_symmetry_multiplicity
 _atom_site_fract_x
 _atom_site_fract_y
 _atom_site_fract_z
 _atom_site_occupancy
  La  La0  1  0.000000  0.000000  0.500000  1
  La  La1  1  0.000000  0.000000  0.000000  1
  Pr  Pr2  1  0.930594  0.478273  0.750000  1
  Pr  Pr3  1  0.069406  0.521727  0.250000  1
  Pr  Pr4  1  0.521727  0.069406  0.250000  1
  Pr  Pr5  1  0.478273  0.930594  0.750000  1
  Nb  Nb6  1  0.500000  0.500000  0.000000  1
  Nb  Nb7  1  0.500000  0.500000  0.500000  1
  O  O8  1  0.566012  0.566012  0.750000  1
  O  O9  1  0.433988  0.433988  0.250000  1
  O  O10  1  0.846208  0.108394  0.750000  1
  O  O11  1  0.153792  0.891606  0.250000  1
  O  O12  1  0.108394  0.846208  0.750000  1
  O  O13  1  0.891606  0.153792  0.250000  1
  O  O14  1  0.439782  0.186395  0.966800  1
  O  O15  1  0.560218  0.813605  0.466800  1
  O  O16  1  0.186395  0.439782  0.966800  1
  O  O17  1  0.813605  0.560218  0.466800  1
  O  O18  1  0.439782  0.186395  0.533200  1
  O  O19  1  0.560218  0.813605  0.033200  1
  O  O20  1  0.813605  0.560218  0.033200  1
  O  O21  1  0.186395  0.439782  0.533200  1
