# generated using pymatgen
data_Tb8Hf9Nb3Si15Ge
_symmetry_space_group_name_H-M   'P 1'
_cell_length_a   7.25355012
_cell_length_b   7.26130698
_cell_length_c   13.31219408
_cell_angle_alpha   89.98809818
_cell_angle_beta   90.02277651
_cell_angle_gamma   90.01239813
_symmetry_Int_Tables_number   1
_chemical_formula_structural   Tb8Hf9Nb3Si15Ge
_chemical_formula_sum   'Tb8 Hf9 Nb3 Si15 Ge1'
_cell_volume   701.15655843
_cell_formula_units_Z   1
loop_
 _symmetry_equiv_pos_site_id
 _symmetry_equiv_pos_as_xyz
  1  'x, y, z'
loop_
 _atom_site_type_symbol
 _atom_site_label
 _atom_site_symmetry_multiplicity
 _atom_site_fract_x
 _atom_site_fract_y
 _atom_site_fract_z
 _atom_site_occupancy
  Tb  Tb0  1  0.997634  0.344293  0.214173  1
  Tb  Tb1  1  0.003032  0.657201  0.714231  1
  Tb  Tb2  1  0.154963  0.499332  0.465095  1
  Tb  Tb3  1  0.501889  0.843974  0.035436  1
  Tb  Tb4  1  0.844228  0.502787  0.966530  1
  Tb  Tb5  1  0.497589  0.155341  0.533970  1
  Tb  Tb6  1  0.342767  0.997069  0.785821  1
  Tb  Tb7  1  0.656584  0.000456  0.285298  1
  Hf  Hf8  1  0.675003  0.324929  0.749990  1
  Hf  Hf9  1  0.147365  0.991971  0.375049  1
  Hf  Hf10  1  0.852745  0.004521  0.876209  1
  Hf  Hf11  1  0.506529  0.650062  0.622726  1
  Hf  Hf12  1  0.349941  0.493468  0.877288  1
  Hf  Hf13  1  0.493273  0.351709  0.124025  1
  Hf  Hf14  1  0.650318  0.508513  0.375488  1
  Hf  Hf15  1  0.995510  0.147364  0.623758  1
  Hf  Hf16  1  0.006318  0.851359  0.124974  1
  Nb  Nb17  1  0.175410  0.175068  0.000541  1
  Nb  Nb18  1  0.825050  0.824599  0.499488  1
  Nb  Nb19  1  0.324199  0.677967  0.249589  1
  Si  Si20  1  0.636526  0.704848  0.816903  1
  Si  Si21  1  0.204110  0.862773  0.566352  1
  Si  Si22  1  0.137199  0.795824  0.933626  1
  Si  Si23  1  0.795611  0.136890  0.066912  1
  Si  Si24  1  0.863131  0.204326  0.433009  1
  Si  Si25  1  0.295263  0.363412  0.683053  1
  Si  Si26  1  0.704055  0.636800  0.183280  1
  Si  Si27  1  0.295201  0.046293  0.183972  1
  Si  Si28  1  0.704848  0.950165  0.684363  1
  Si  Si29  1  0.450765  0.795722  0.434437  1
  Si  Si30  1  0.204279  0.549228  0.065605  1
  Si  Si31  1  0.547511  0.203320  0.936084  1
  Si  Si32  1  0.796523  0.452444  0.563858  1
  Si  Si33  1  0.049749  0.295203  0.815669  1
  Si  Si34  1  0.951450  0.704279  0.314628  1
  Ge  Ge35  1  0.363431  0.296489  0.318571  1
