# generated using pymatgen
data_YHoRe4(BC)2
_symmetry_space_group_name_H-M   'P 1'
_cell_length_a   5.77514440
_cell_length_b   5.77514339
_cell_length_c   7.25341000
_cell_angle_alpha   90.00000000
_cell_angle_beta   90.00000000
_cell_angle_gamma   145.22215722
_symmetry_Int_Tables_number   1
_chemical_formula_structural   YHoRe4(BC)2
_chemical_formula_sum   'Y1 Ho1 Re4 B2 C2'
_cell_volume   137.98894598
_cell_formula_units_Z   1
loop_
 _symmetry_equiv_pos_site_id
 _symmetry_equiv_pos_as_xyz
  1  'x, y, z'
loop_
 _atom_site_type_symbol
 _atom_site_label
 _atom_site_symmetry_multiplicity
 _atom_site_fract_x
 _atom_site_fract_y
 _atom_site_fract_z
 _atom_site_occupancy
  Y  Y0  1  0.455297  0.544703  0.750000  1
  Ho  Ho1  1  0.544629  0.455371  0.250000  1
  Re  Re2  1  0.827242  0.172758  0.066834  1
  Re  Re3  1  0.172767  0.827233  0.933708  1
  Re  Re4  1  0.172767  0.827233  0.566292  1
  Re  Re5  1  0.827242  0.172758  0.433166  1
  B  B6  1  0.261193  0.738807  0.250000  1
  B  B7  1  0.738559  0.261441  0.750000  1
  C  C8  1  0.000152  0.999848  0.000913  1
  C  C9  1  0.000152  0.999848  0.499087  1
