# generated using pymatgen
data_Er16Tl2CdAgPt4
_symmetry_space_group_name_H-M   'P 1'
_cell_length_a   9.58653121
_cell_length_b   9.60130030
_cell_length_c   9.60505100
_cell_angle_alpha   59.98707328
_cell_angle_beta   59.93607069
_cell_angle_gamma   60.25520498
_symmetry_Int_Tables_number   1
_chemical_formula_structural   Er16Tl2CdAgPt4
_chemical_formula_sum   'Er16 Tl2 Cd1 Ag1 Pt4'
_cell_volume   625.96954538
_cell_formula_units_Z   1
loop_
 _symmetry_equiv_pos_site_id
 _symmetry_equiv_pos_as_xyz
  1  'x, y, z'
loop_
 _atom_site_type_symbol
 _atom_site_label
 _atom_site_symmetry_multiplicity
 _atom_site_fract_x
 _atom_site_fract_y
 _atom_site_fract_z
 _atom_site_occupancy
  Er  Er0  1  0.352556  0.352007  0.351877  1
  Er  Er1  1  0.352556  0.352007  0.943560  1
  Er  Er2  1  0.355384  0.939331  0.352643  1
  Er  Er3  1  0.937500  0.355342  0.353579  1
  Er  Er4  1  0.810265  0.189579  0.189699  1
  Er  Er5  1  0.189504  0.810428  0.810656  1
  Er  Er6  1  0.189504  0.810428  0.189412  1
  Er  Er7  1  0.810265  0.189579  0.810456  1
  Er  Er8  1  0.189266  0.189251  0.810742  1
  Er  Er9  1  0.809380  0.809821  0.190400  1
  Er  Er10  1  0.937820  0.566059  0.563580  1
  Er  Er11  1  0.564443  0.942194  0.929677  1
  Er  Er12  1  0.564443  0.942194  0.563687  1
  Er  Er13  1  0.937820  0.566059  0.932541  1
  Er  Er14  1  0.564318  0.566112  0.934785  1
  Er  Er15  1  0.934865  0.941219  0.561958  1
  Tl  Tl16  1  0.583601  0.582149  0.588525  1
  Tl  Tl17  1  0.583601  0.582149  0.245726  1
  Cd  Cd18  1  0.252182  0.577766  0.585026  1
  Ag  Ag19  1  0.583679  0.240342  0.587990  1
  Pt  Pt20  1  0.142611  0.142360  0.146354  1
  Pt  Pt21  1  0.142611  0.142360  0.568673  1
  Pt  Pt22  1  0.141630  0.569686  0.144341  1
  Pt  Pt23  1  0.570193  0.141579  0.144114  1
