# generated using pymatgen
data_Ho12In2Fe2Ir
_symmetry_space_group_name_H-M   'P 1'
_cell_length_a   8.34504101
_cell_length_b   8.34504082
_cell_length_c   8.34504102
_cell_angle_alpha   108.79249610
_cell_angle_beta   108.79250159
_cell_angle_gamma   110.83736641
_symmetry_Int_Tables_number   1
_chemical_formula_structural   Ho12In2Fe2Ir
_chemical_formula_sum   'Ho12 In2 Fe2 Ir1'
_cell_volume   447.17527588
_cell_formula_units_Z   1
loop_
 _symmetry_equiv_pos_site_id
 _symmetry_equiv_pos_as_xyz
  1  'x, y, z'
loop_
 _atom_site_type_symbol
 _atom_site_label
 _atom_site_symmetry_multiplicity
 _atom_site_fract_x
 _atom_site_fract_y
 _atom_site_fract_z
 _atom_site_occupancy
  Ho  Ho0  1  0.307155  0.307155  0.614308  1
  Ho  Ho1  1  0.692845  0.692845  0.385692  1
  Ho  Ho2  1  0.307155  0.692845  0.000000  1
  Ho  Ho3  1  0.692845  0.307155  0.000000  1
  Ho  Ho4  1  0.432673  0.193808  0.238863  1
  Ho  Ho5  1  0.567327  0.806192  0.761137  1
  Ho  Ho6  1  0.954945  0.193808  0.761137  1
  Ho  Ho7  1  0.193808  0.954945  0.761137  1
  Ho  Ho8  1  0.045055  0.806192  0.238863  1
  Ho  Ho9  1  0.806192  0.045055  0.238863  1
  Ho  Ho10  1  0.193808  0.432673  0.238863  1
  Ho  Ho11  1  0.806192  0.567327  0.761137  1
  In  In12  1  0.500000  0.000000  0.500000  1
  In  In13  1  0.000000  0.500000  0.500000  1
  Fe  Fe14  1  0.386392  0.386392  0.000000  1
  Fe  Fe15  1  0.613608  0.613608  0.000000  1
  Ir  Ir16  1  0.000000  0.000000  0.000000  1
