# generated using pymatgen
data_TbYb6U(Si4Mo3)4
_symmetry_space_group_name_H-M   'P 1'
_cell_length_a   6.74591738
_cell_length_b   6.93905765
_cell_length_c   12.98001243
_cell_angle_alpha   89.98488975
_cell_angle_beta   90.10430588
_cell_angle_gamma   89.81794337
_symmetry_Int_Tables_number   1
_chemical_formula_structural   TbYb6U(Si4Mo3)4
_chemical_formula_sum   'Tb1 Yb6 U1 Si16 Mo12'
_cell_volume   607.59430434
_cell_formula_units_Z   1
loop_
 _symmetry_equiv_pos_site_id
 _symmetry_equiv_pos_as_xyz
  1  'x, y, z'
loop_
 _atom_site_type_symbol
 _atom_site_label
 _atom_site_symmetry_multiplicity
 _atom_site_fract_x
 _atom_site_fract_y
 _atom_site_fract_z
 _atom_site_occupancy
  Tb  Tb0  1  0.497584  0.333805  0.408169  1
  Yb  Yb1  1  0.496688  0.335616  0.090275  1
  Yb  Yb2  1  0.996187  0.163586  0.410173  1
  Yb  Yb3  1  0.501274  0.668089  0.592480  1
  Yb  Yb4  1  0.001929  0.833355  0.908284  1
  Yb  Yb5  1  0.501339  0.667906  0.908454  1
  Yb  Yb6  1  0.001595  0.832374  0.591051  1
  U  U7  1  0.995231  0.167333  0.094876  1
  Si  Si8  1  0.658480  0.041441  0.545473  1
  Si  Si9  1  0.159896  0.458155  0.956370  1
  Si  Si10  1  0.340942  0.958465  0.046520  1
  Si  Si11  1  0.843362  0.541894  0.452404  1
  Si  Si12  1  0.341661  0.956469  0.453217  1
  Si  Si13  1  0.841423  0.544973  0.046016  1
  Si  Si14  1  0.658521  0.043283  0.954532  1
  Si  Si15  1  0.158405  0.458033  0.545481  1
  Si  Si16  1  0.535267  0.373039  0.750978  1
  Si  Si17  1  0.034958  0.123838  0.748836  1
  Si  Si18  1  0.466505  0.633456  0.246978  1
  Si  Si19  1  0.964809  0.867618  0.251126  1
  Si  Si20  1  0.801490  0.629159  0.750033  1
  Si  Si21  1  0.302446  0.870650  0.750366  1
  Si  Si22  1  0.197357  0.369413  0.249540  1
  Si  Si23  1  0.694362  0.129628  0.250900  1
  Mo  Mo24  1  0.835140  0.330816  0.627734  1
  Mo  Mo25  1  0.332634  0.168835  0.873782  1
  Mo  Mo26  1  0.167041  0.666161  0.126271  1
  Mo  Mo27  1  0.666139  0.831443  0.373454  1
  Mo  Mo28  1  0.168385  0.666046  0.372283  1
  Mo  Mo29  1  0.673398  0.840849  0.126241  1
  Mo  Mo30  1  0.839153  0.328194  0.874733  1
  Mo  Mo31  1  0.334312  0.169928  0.627428  1
  Mo  Mo32  1  0.661888  0.009816  0.750020  1
  Mo  Mo33  1  0.161347  0.489290  0.750683  1
  Mo  Mo34  1  0.332374  0.999493  0.248424  1
  Mo  Mo35  1  0.836479  0.497555  0.246412  1
