# generated using pymatgen
data_Sm4FeB16Ru3
_symmetry_space_group_name_H-M   'P 1'
_cell_length_a   3.58006600
_cell_length_b   6.00865157
_cell_length_c   11.62894599
_cell_angle_alpha   89.89386503
_cell_angle_beta   90.00000000
_cell_angle_gamma   90.00000000
_symmetry_Int_Tables_number   1
_chemical_formula_structural   Sm4FeB16Ru3
_chemical_formula_sum   'Sm4 Fe1 B16 Ru3'
_cell_volume   250.15412157
_cell_formula_units_Z   1
loop_
 _symmetry_equiv_pos_site_id
 _symmetry_equiv_pos_as_xyz
  1  'x, y, z'
loop_
 _atom_site_type_symbol
 _atom_site_label
 _atom_site_symmetry_multiplicity
 _atom_site_fract_x
 _atom_site_fract_y
 _atom_site_fract_z
 _atom_site_occupancy
  Sm  Sm0  1  0.000000  0.373155  0.648315  1
  Sm  Sm1  1  0.000000  0.624888  0.351102  1
  Sm  Sm2  1  0.000000  0.873088  0.849315  1
  Sm  Sm3  1  0.000000  0.127238  0.152880  1
  Fe  Fe4  1  0.000000  0.137069  0.408812  1
  B  B5  1  0.500000  0.025561  0.689233  1
  B  B6  1  0.500000  0.977748  0.311535  1
  B  B7  1  0.500000  0.525936  0.809354  1
  B  B8  1  0.500000  0.473526  0.191280  1
  B  B9  1  0.500000  0.111704  0.544442  1
  B  B10  1  0.500000  0.890294  0.453641  1
  B  B11  1  0.500000  0.611215  0.954343  1
  B  B12  1  0.500000  0.388218  0.046473  1
  B  B13  1  0.500000  0.280359  0.317968  1
  B  B14  1  0.500000  0.716402  0.683481  1
  B  B15  1  0.500000  0.784366  0.185857  1
  B  B16  1  0.500000  0.215747  0.814584  1
  B  B17  1  0.500000  0.358684  0.467782  1
  B  B18  1  0.500000  0.638482  0.530081  1
  B  B19  1  0.500000  0.861961  0.031105  1
  B  B20  1  0.500000  0.138001  0.969660  1
  Ru  Ru21  1  0.000000  0.361257  0.908046  1
  Ru  Ru22  1  0.000000  0.638664  0.092151  1
  Ru  Ru23  1  0.000000  0.866438  0.588561  1
