# generated using pymatgen
data_Er2As2RuRhO2
_symmetry_space_group_name_H-M   'P 1'
_cell_length_a   4.02288700
_cell_length_b   4.02289700
_cell_length_c   8.05020400
_cell_angle_alpha   90.00017798
_cell_angle_beta   90.00011391
_cell_angle_gamma   90.00005697
_symmetry_Int_Tables_number   1
_chemical_formula_structural   Er2As2RuRhO2
_chemical_formula_sum   'Er2 As2 Ru1 Rh1 O2'
_cell_volume   130.28176482
_cell_formula_units_Z   1
loop_
 _symmetry_equiv_pos_site_id
 _symmetry_equiv_pos_as_xyz
  1  'x, y, z'
loop_
 _atom_site_type_symbol
 _atom_site_label
 _atom_site_symmetry_multiplicity
 _atom_site_fract_x
 _atom_site_fract_y
 _atom_site_fract_z
 _atom_site_occupancy
  Er  Er0  1  0.250008  0.250007  0.127694  1
  Er  Er1  1  0.750010  0.749997  0.872308  1
  As  As2  1  0.749999  0.750003  0.329101  1
  As  As3  1  0.249999  0.250003  0.670899  1
  Ru  Ru4  1  0.749998  0.250004  0.499998  1
  Rh  Rh5  1  0.250003  0.750001  0.499999  1
  O  O6  1  0.750003  0.250000  0.000000  1
  O  O7  1  0.250001  0.750006  0.999999  1
