# generated using pymatgen
data_Nd3Bi(Pb2O7)2
_symmetry_space_group_name_H-M   'P 1'
_cell_length_a   7.75935167
_cell_length_b   7.75935199
_cell_length_c   7.75935141
_cell_angle_alpha   60.27927121
_cell_angle_beta   60.27926173
_cell_angle_gamma   60.27926220
_symmetry_Int_Tables_number   1
_chemical_formula_structural   Nd3Bi(Pb2O7)2
_chemical_formula_sum   'Nd3 Bi1 Pb4 O14'
_cell_volume   332.42799143
_cell_formula_units_Z   1
loop_
 _symmetry_equiv_pos_site_id
 _symmetry_equiv_pos_as_xyz
  1  'x, y, z'
loop_
 _atom_site_type_symbol
 _atom_site_label
 _atom_site_symmetry_multiplicity
 _atom_site_fract_x
 _atom_site_fract_y
 _atom_site_fract_z
 _atom_site_occupancy
  Nd  Nd0  1  0.125000  0.125000  0.625000  1
  Nd  Nd1  1  0.125000  0.625000  0.125000  1
  Nd  Nd2  1  0.625000  0.125000  0.125000  1
  Bi  Bi3  1  0.125000  0.125000  0.125000  1
  Pb  Pb4  1  0.625000  0.625000  0.125000  1
  Pb  Pb5  1  0.625000  0.125000  0.625000  1
  Pb  Pb6  1  0.125000  0.625000  0.625000  1
  Pb  Pb7  1  0.625000  0.625000  0.625000  1
  O  O8  1  0.250527  0.250527  0.250527  1
  O  O9  1  0.999473  0.999473  0.999473  1
  O  O10  1  0.530679  0.969122  0.530679  1
  O  O11  1  0.282126  0.715758  0.282126  1
  O  O12  1  0.530679  0.530679  0.969122  1
  O  O13  1  0.969122  0.530679  0.530679  1
  O  O14  1  0.534242  0.967874  0.967874  1
  O  O15  1  0.967874  0.967874  0.534242  1
  O  O16  1  0.967874  0.534242  0.967874  1
  O  O17  1  0.715758  0.282126  0.282126  1
  O  O18  1  0.280878  0.719321  0.719321  1
  O  O19  1  0.719321  0.280878  0.719321  1
  O  O20  1  0.282126  0.282126  0.715758  1
  O  O21  1  0.719321  0.719321  0.280878  1
