# generated using pymatgen
data_Dy8TaTi10Si16Rh
_symmetry_space_group_name_H-M   'P 1'
_cell_length_a   7.04261481
_cell_length_b   7.04261489
_cell_length_c   12.89344710
_cell_angle_alpha   89.84442027
_cell_angle_beta   90.15557847
_cell_angle_gamma   89.86606116
_symmetry_Int_Tables_number   1
_chemical_formula_structural   Dy8TaTi10Si16Rh
_chemical_formula_sum   'Dy8 Ta1 Ti10 Si16 Rh1'
_cell_volume   639.48818238
_cell_formula_units_Z   1
loop_
 _symmetry_equiv_pos_site_id
 _symmetry_equiv_pos_as_xyz
  1  'x, y, z'
loop_
 _atom_site_type_symbol
 _atom_site_label
 _atom_site_symmetry_multiplicity
 _atom_site_fract_x
 _atom_site_fract_y
 _atom_site_fract_z
 _atom_site_occupancy
  Dy  Dy0  1  0.996174  0.659702  0.032548  1
  Dy  Dy1  1  0.001801  0.342339  0.531542  1
  Dy  Dy2  1  0.659702  0.996174  0.967452  1
  Dy  Dy3  1  0.158504  0.503050  0.782273  1
  Dy  Dy4  1  0.840550  0.498873  0.285124  1
  Dy  Dy5  1  0.503050  0.158504  0.217727  1
  Dy  Dy6  1  0.498873  0.840550  0.714876  1
  Dy  Dy7  1  0.342339  0.001801  0.468458  1
  Ta  Ta8  1  0.326273  0.326273  0.000000  1
  Ti  Ti9  1  0.344356  0.506577  0.375121  1
  Ti  Ti10  1  0.850308  0.995877  0.376639  1
  Ti  Ti11  1  0.007534  0.152471  0.124341  1
  Ti  Ti12  1  0.995877  0.850308  0.623361  1
  Ti  Ti13  1  0.506577  0.344356  0.624879  1
  Ti  Ti14  1  0.152471  0.007534  0.875659  1
  Ti  Ti15  1  0.824405  0.173296  0.748569  1
  Ti  Ti16  1  0.173296  0.824405  0.251431  1
  Ti  Ti17  1  0.492108  0.650671  0.127125  1
  Ti  Ti18  1  0.650671  0.492108  0.872875  1
  Si  Si19  1  0.050458  0.713335  0.436041  1
  Si  Si20  1  0.952093  0.291567  0.934369  1
  Si  Si21  1  0.713335  0.050458  0.563959  1
  Si  Si22  1  0.207337  0.453514  0.185263  1
  Si  Si23  1  0.789499  0.550892  0.682513  1
  Si  Si24  1  0.453514  0.207337  0.814737  1
  Si  Si25  1  0.550892  0.789499  0.317487  1
  Si  Si26  1  0.291567  0.952093  0.065631  1
  Si  Si27  1  0.798350  0.867880  0.185730  1
  Si  Si28  1  0.297598  0.627684  0.565363  1
  Si  Si29  1  0.703587  0.369255  0.065558  1
  Si  Si30  1  0.627684  0.297598  0.434637  1
  Si  Si31  1  0.369255  0.703587  0.934442  1
  Si  Si32  1  0.130778  0.203232  0.316130  1
  Si  Si33  1  0.203232  0.130778  0.683870  1
  Si  Si34  1  0.867880  0.798350  0.814270  1
  Rh  Rh35  1  0.668069  0.668069  0.500000  1
