# generated using pymatgen
data_Y4Ho2Al24Os7Ru
_symmetry_space_group_name_H-M   'P 1'
_cell_length_a   8.83362300
_cell_length_b   8.83456333
_cell_length_c   9.55960900
_cell_angle_alpha   90.00055917
_cell_angle_beta   90.00000000
_cell_angle_gamma   119.99647537
_symmetry_Int_Tables_number   1
_chemical_formula_structural   Y4Ho2Al24Os7Ru
_chemical_formula_sum   'Y4 Ho2 Al24 Os7 Ru1'
_cell_volume   646.11546144
_cell_formula_units_Z   1
loop_
 _symmetry_equiv_pos_site_id
 _symmetry_equiv_pos_as_xyz
  1  'x, y, z'
loop_
 _atom_site_type_symbol
 _atom_site_label
 _atom_site_symmetry_multiplicity
 _atom_site_fract_x
 _atom_site_fract_y
 _atom_site_fract_z
 _atom_site_occupancy
  Y  Y0  1  0.613922  0.806949  0.249672  1
  Y  Y1  1  0.386078  0.193051  0.750328  1
  Y  Y2  1  0.193027  0.806949  0.249672  1
  Y  Y3  1  0.806973  0.193051  0.750328  1
  Ho  Ho4  1  0.193074  0.386147  0.249686  1
  Ho  Ho5  1  0.806926  0.613853  0.750314  1
  Al  Al6  1  0.333315  0.666632  0.014598  1
  Al  Al7  1  0.666685  0.333368  0.985402  1
  Al  Al8  1  0.666684  0.333366  0.514596  1
  Al  Al9  1  0.333316  0.666634  0.485404  1
  Al  Al10  1  0.162538  0.325075  0.575738  1
  Al  Al11  1  0.837462  0.674925  0.424262  1
  Al  Al12  1  0.674934  0.837444  0.575799  1
  Al  Al13  1  0.837483  0.674965  0.075745  1
  Al  Al14  1  0.325066  0.162556  0.424201  1
  Al  Al15  1  0.162517  0.325035  0.924255  1
  Al  Al16  1  0.162512  0.837444  0.575799  1
  Al  Al17  1  0.325025  0.162535  0.075806  1
  Al  Al18  1  0.837488  0.162556  0.424201  1
  Al  Al19  1  0.674975  0.837465  0.924194  1
  Al  Al20  1  0.837512  0.162535  0.075806  1
  Al  Al21  1  0.162488  0.837465  0.924194  1
  Al  Al22  1  0.560263  0.120524  0.249887  1
  Al  Al23  1  0.439737  0.879476  0.750113  1
  Al  Al24  1  0.879522  0.439712  0.249885  1
  Al  Al25  1  0.120478  0.560288  0.750115  1
  Al  Al26  1  0.560191  0.439712  0.249885  1
  Al  Al27  1  0.439809  0.560288  0.750115  1
  Al  Al28  1  0.000053  0.000106  0.248296  1
  Al  Al29  1  0.999947  0.999894  0.751704  1
  Os  Os30  1  0.500000  0.000000  0.000000  1
  Os  Os31  1  0.000000  0.500000  0.000000  1
  Os  Os32  1  0.500000  0.000000  0.500000  1
  Os  Os33  1  0.500000  0.500000  0.000000  1
  Os  Os34  1  0.000000  0.500000  0.500000  1
  Os  Os35  1  0.500000  0.500000  0.500000  1
  Os  Os36  1  0.000000  0.000000  0.500000  1
  Ru  Ru37  1  0.000000  0.000000  0.000000  1
