# generated using pymatgen
data_Pr2DyEr(Zn5Sn)2
_symmetry_space_group_name_H-M   'P 1'
_cell_length_a   8.48003002
_cell_length_b   8.48003052
_cell_length_c   9.04332300
_cell_angle_alpha   90.00000000
_cell_angle_beta   90.00000000
_cell_angle_gamma   149.75266012
_symmetry_Int_Tables_number   1
_chemical_formula_structural   Pr2DyEr(Zn5Sn)2
_chemical_formula_sum   'Pr2 Dy1 Er1 Zn10 Sn2'
_cell_volume   327.58499552
_cell_formula_units_Z   1
loop_
 _symmetry_equiv_pos_site_id
 _symmetry_equiv_pos_as_xyz
  1  'x, y, z'
loop_
 _atom_site_type_symbol
 _atom_site_label
 _atom_site_symmetry_multiplicity
 _atom_site_fract_x
 _atom_site_fract_y
 _atom_site_fract_z
 _atom_site_occupancy
  Pr  Pr0  1  0.999982  0.000018  0.500035  1
  Pr  Pr1  1  0.999982  0.000018  0.999965  1
  Dy  Dy2  1  0.205222  0.794778  0.250000  1
  Er  Er3  1  0.794767  0.205233  0.750000  1
  Zn  Zn4  1  0.812153  0.187847  0.390418  1
  Zn  Zn5  1  0.187875  0.812125  0.609689  1
  Zn  Zn6  1  0.812153  0.187847  0.109582  1
  Zn  Zn7  1  0.187875  0.812125  0.890311  1
  Zn  Zn8  1  0.658383  0.341617  0.482174  1
  Zn  Zn9  1  0.341622  0.658378  0.517915  1
  Zn  Zn10  1  0.658383  0.341617  0.017826  1
  Zn  Zn11  1  0.341622  0.658378  0.982085  1
  Zn  Zn12  1  0.393720  0.606280  0.250000  1
  Zn  Zn13  1  0.606320  0.393680  0.750000  1
  Sn  Sn14  1  0.557162  0.442838  0.250000  1
  Sn  Sn15  1  0.442778  0.557222  0.750000  1
