# generated using pymatgen
data_Y8Er8CdIn3Ir4
_symmetry_space_group_name_H-M   'P 1'
_cell_length_a   9.61835613
_cell_length_b   9.62564473
_cell_length_c   9.64997600
_cell_angle_alpha   59.91634725
_cell_angle_beta   59.89119230
_cell_angle_gamma   60.10829716
_symmetry_Int_Tables_number   1
_chemical_formula_structural   Y8Er8CdIn3Ir4
_chemical_formula_sum   'Y8 Er8 Cd1 In3 Ir4'
_cell_volume   631.33781356
_cell_formula_units_Z   1
loop_
 _symmetry_equiv_pos_site_id
 _symmetry_equiv_pos_as_xyz
  1  'x, y, z'
loop_
 _atom_site_type_symbol
 _atom_site_label
 _atom_site_symmetry_multiplicity
 _atom_site_fract_x
 _atom_site_fract_y
 _atom_site_fract_z
 _atom_site_occupancy
  Y  Y0  1  0.189822  0.189422  0.810378  1
  Y  Y1  1  0.808295  0.808692  0.191506  1
  Y  Y2  1  0.941243  0.560797  0.560392  1
  Y  Y3  1  0.561248  0.939493  0.939376  1
  Y  Y4  1  0.561248  0.939493  0.559883  1
  Y  Y5  1  0.941243  0.560797  0.937568  1
  Y  Y6  1  0.561761  0.559461  0.939390  1
  Y  Y7  1  0.942439  0.939716  0.558923  1
  Er  Er8  1  0.348949  0.348368  0.346871  1
  Er  Er9  1  0.348949  0.348368  0.955811  1
  Er  Er10  1  0.349640  0.953857  0.348252  1
  Er  Er11  1  0.953396  0.349724  0.348441  1
  Er  Er12  1  0.808148  0.190286  0.192312  1
  Er  Er13  1  0.189001  0.809790  0.810366  1
  Er  Er14  1  0.189001  0.809790  0.190842  1
  Er  Er15  1  0.808148  0.190286  0.809254  1
  Cd  Cd16  1  0.254696  0.581223  0.582041  1
  In  In17  1  0.581234  0.583319  0.583310  1
  In  In18  1  0.581234  0.583319  0.252139  1
  In  In19  1  0.580624  0.252570  0.583404  1
  Ir  Ir20  1  0.140283  0.140640  0.144309  1
  Ir  Ir21  1  0.140283  0.140640  0.574769  1
  Ir  Ir22  1  0.143728  0.575726  0.140273  1
  Ir  Ir23  1  0.575388  0.144226  0.140194  1
