# generated using pymatgen
data_Er4Al11Ga6SiIr6
_symmetry_space_group_name_H-M   'P 1'
_cell_length_a   7.51611966
_cell_length_b   7.49943140
_cell_length_c   9.52742649
_cell_angle_alpha   90.10969455
_cell_angle_beta   89.75167740
_cell_angle_gamma   119.84962019
_symmetry_Int_Tables_number   1
_chemical_formula_structural   Er4Al11Ga6SiIr6
_chemical_formula_sum   'Er4 Al11 Ga6 Si1 Ir6'
_cell_volume   465.77939292
_cell_formula_units_Z   1
loop_
 _symmetry_equiv_pos_site_id
 _symmetry_equiv_pos_as_xyz
  1  'x, y, z'
loop_
 _atom_site_type_symbol
 _atom_site_label
 _atom_site_symmetry_multiplicity
 _atom_site_fract_x
 _atom_site_fract_y
 _atom_site_fract_z
 _atom_site_occupancy
  Er  Er0  1  0.997335  0.661779  0.747026  1
  Er  Er1  1  0.002203  0.330701  0.254407  1
  Er  Er2  1  0.677181  0.005884  0.747014  1
  Er  Er3  1  0.329501  0.002671  0.249635  1
  Al  Al4  1  0.996557  0.670622  0.424343  1
  Al  Al5  1  0.998602  0.665939  0.073089  1
  Al  Al6  1  0.334249  0.999296  0.926129  1
  Al  Al7  1  0.003143  0.334366  0.930711  1
  Al  Al8  1  0.665460  0.998632  0.073303  1
  Al  Al9  1  0.658911  0.992788  0.424051  1
  Al  Al10  1  0.333078  0.000060  0.573990  1
  Al  Al11  1  0.335152  0.333915  0.058446  1
  Al  Al12  1  0.667925  0.667951  0.940596  1
  Al  Al13  1  0.665795  0.667153  0.561147  1
  Al  Al14  1  0.337180  0.334518  0.442080  1
  Ga  Ga15  1  0.130029  0.125691  0.750476  1
  Ga  Ga16  1  0.872435  0.874928  0.249692  1
  Ga  Ga17  1  0.343941  0.550477  0.751511  1
  Ga  Ga18  1  0.661555  0.451443  0.250044  1
  Ga  Ga19  1  0.546009  0.338342  0.749766  1
  Ga  Ga20  1  0.449976  0.658742  0.249918  1
  Si  Si21  1  0.998836  0.334334  0.571482  1
  Ir  Ir22  1  0.678669  0.328377  0.500955  1
  Ir  Ir23  1  0.317201  0.661962  0.501120  1
  Ir  Ir24  1  0.327821  0.671011  0.000170  1
  Ir  Ir25  1  0.672746  0.328412  0.998728  1
  Ir  Ir26  1  0.998191  0.009218  0.500681  1
  Ir  Ir27  1  0.000320  0.000785  0.999492  1
