# generated using pymatgen
data_Dy4Zn4Ir3Pt
_symmetry_space_group_name_H-M   'P 1'
_cell_length_a   4.07005200
_cell_length_b   6.98817831
_cell_length_c   8.15749147
_cell_angle_alpha   89.98428920
_cell_angle_beta   90.00000000
_cell_angle_gamma   90.00000000
_symmetry_Int_Tables_number   1
_chemical_formula_structural   Dy4Zn4Ir3Pt
_chemical_formula_sum   'Dy4 Zn4 Ir3 Pt1'
_cell_volume   232.01739562
_cell_formula_units_Z   1
loop_
 _symmetry_equiv_pos_site_id
 _symmetry_equiv_pos_as_xyz
  1  'x, y, z'
loop_
 _atom_site_type_symbol
 _atom_site_label
 _atom_site_symmetry_multiplicity
 _atom_site_fract_x
 _atom_site_fract_y
 _atom_site_fract_z
 _atom_site_occupancy
  Dy  Dy0  1  0.250000  0.036309  0.321430  1
  Dy  Dy1  1  0.250000  0.545962  0.183789  1
  Dy  Dy2  1  0.750000  0.959628  0.682314  1
  Dy  Dy3  1  0.750000  0.463242  0.812956  1
  Zn  Zn4  1  0.250000  0.636844  0.564656  1
  Zn  Zn5  1  0.250000  0.133939  0.932680  1
  Zn  Zn6  1  0.750000  0.364398  0.438118  1
  Zn  Zn7  1  0.750000  0.860969  0.064694  1
  Ir  Ir8  1  0.250000  0.254322  0.622394  1
  Ir  Ir9  1  0.250000  0.754225  0.878774  1
  Ir  Ir10  1  0.750000  0.744904  0.376965  1
  Pt  Pt11  1  0.750000  0.245258  0.121231  1
