# generated using pymatgen
data_CeSnF24
_symmetry_space_group_name_H-M   'P 1'
_cell_length_a   7.19693440
_cell_length_b   7.77797065
_cell_length_c   8.74242306
_cell_angle_alpha   101.18491964
_cell_angle_beta   86.26045118
_cell_angle_gamma   106.40208519
_symmetry_Int_Tables_number   1
_chemical_formula_structural   CeSnF24
_chemical_formula_sum   'Ce1 Sn1 F24'
_cell_volume   460.51819437
_cell_formula_units_Z   1
loop_
 _symmetry_equiv_pos_site_id
 _symmetry_equiv_pos_as_xyz
  1  'x, y, z'
loop_
 _atom_site_type_symbol
 _atom_site_label
 _atom_site_symmetry_multiplicity
 _atom_site_fract_x
 _atom_site_fract_y
 _atom_site_fract_z
 _atom_site_occupancy
  Ce  Ce0  1  0.243033  0.973088  0.015190  1
  Sn  Sn1  1  0.758766  0.020282  0.986240  1
  F  F2  1  0.522798  0.456484  0.174232  1
  F  F3  1  0.474355  0.545314  0.831729  1
  F  F4  1  0.219830  0.570513  0.195868  1
  F  F5  1  0.784904  0.441573  0.799731  1
  F  F6  1  0.366922  0.761341  0.511112  1
  F  F7  1  0.633787  0.238818  0.488668  1
  F  F8  1  0.838136  0.809101  0.458498  1
  F  F9  1  0.160814  0.190427  0.543712  1
  F  F10  1  0.317594  0.389615  0.853545  1
  F  F11  1  0.680740  0.606934  0.145627  1
  F  F12  1  0.275023  0.173447  0.205504  1
  F  F13  1  0.718648  0.826390  0.806847  1
  F  F14  1  0.091803  0.682884  0.197561  1
  F  F15  1  0.907639  0.324967  0.797521  1
  F  F16  1  0.915852  0.895878  0.098548  1
  F  F17  1  0.045639  0.102651  0.900900  1
  F  F18  1  0.229146  0.044402  0.571669  1
  F  F19  1  0.771981  0.956322  0.430458  1
  F  F20  1  0.817017  0.241599  0.137433  1
  F  F21  1  0.179511  0.747745  0.848883  1
  F  F22  1  0.509501  0.900641  0.102197  1
  F  F23  1  0.536584  0.099608  0.898764  1
  F  F24  1  0.336649  0.574962  0.521558  1
  F  F25  1  0.663329  0.425016  0.478005  1
