# generated using pymatgen
data_YbSmHo2(B6Os)2
_symmetry_space_group_name_H-M   'P 1'
_cell_length_a   3.65780800
_cell_length_b   9.16868971
_cell_length_c   11.57314073
_cell_angle_alpha   89.85138875
_cell_angle_beta   90.00000000
_cell_angle_gamma   90.00000000
_symmetry_Int_Tables_number   1
_chemical_formula_structural   YbSmHo2(B6Os)2
_chemical_formula_sum   'Yb2 Sm2 Ho4 B24 Os4'
_cell_volume   388.13066315
_cell_formula_units_Z   2
loop_
 _symmetry_equiv_pos_site_id
 _symmetry_equiv_pos_as_xyz
  1  'x, y, z'
loop_
 _atom_site_type_symbol
 _atom_site_label
 _atom_site_symmetry_multiplicity
 _atom_site_fract_x
 _atom_site_fract_y
 _atom_site_fract_z
 _atom_site_occupancy
  Yb  Yb0  1  0.000000  0.325060  0.414938  1
  Yb  Yb1  1  0.000000  0.674940  0.585062  1
  Sm  Sm2  1  0.000000  0.822135  0.086639  1
  Sm  Sm3  1  0.000000  0.177865  0.913361  1
  Ho  Ho4  1  0.000000  0.942215  0.371192  1
  Ho  Ho5  1  0.000000  0.057785  0.628808  1
  Ho  Ho6  1  0.000000  0.443133  0.131186  1
  Ho  Ho7  1  0.000000  0.556867  0.868814  1
  B  B8  1  0.500000  0.553847  0.432920  1
  B  B9  1  0.500000  0.446153  0.567080  1
  B  B10  1  0.500000  0.054967  0.068728  1
  B  B11  1  0.500000  0.945033  0.931272  1
  B  B12  1  0.500000  0.747721  0.418601  1
  B  B13  1  0.500000  0.252279  0.581399  1
  B  B14  1  0.500000  0.249139  0.083296  1
  B  B15  1  0.500000  0.750861  0.916704  1
  B  B16  1  0.500000  0.790278  0.266798  1
  B  B17  1  0.500000  0.209722  0.733202  1
  B  B18  1  0.500000  0.290770  0.235440  1
  B  B19  1  0.500000  0.709230  0.764560  1
  B  B20  1  0.500000  0.630555  0.186920  1
  B  B21  1  0.500000  0.369445  0.813080  1
  B  B22  1  0.500000  0.131536  0.314990  1
  B  B23  1  0.500000  0.868464  0.685010  1
  B  B24  1  0.500000  0.984853  0.213469  1
  B  B25  1  0.500000  0.015147  0.786531  1
  B  B26  1  0.500000  0.483857  0.288961  1
  B  B27  1  0.500000  0.516143  0.711039  1
  B  B28  1  0.500000  0.600871  0.027817  1
  B  B29  1  0.500000  0.399129  0.972183  1
  B  B30  1  0.500000  0.100492  0.472316  1
  B  B31  1  0.500000  0.899508  0.527684  1
  Os  Os32  1  0.000000  0.639078  0.320205  1
  Os  Os33  1  0.000000  0.360922  0.679795  1
  Os  Os34  1  0.000000  0.138308  0.179794  1
  Os  Os35  1  0.000000  0.861692  0.820206  1
