# generated using pymatgen
data_Cs7K(CrN2)8
_symmetry_space_group_name_H-M   'P 1'
_cell_length_a   5.80723604
_cell_length_b   8.21964700
_cell_length_c   11.63101707
_cell_angle_alpha   90.00000000
_cell_angle_beta   90.01290085
_cell_angle_gamma   90.00000000
_symmetry_Int_Tables_number   1
_chemical_formula_structural   Cs7K(CrN2)8
_chemical_formula_sum   'Cs7 K1 Cr8 N16'
_cell_volume   555.18832836
_cell_formula_units_Z   1
loop_
 _symmetry_equiv_pos_site_id
 _symmetry_equiv_pos_as_xyz
  1  'x, y, z'
loop_
 _atom_site_type_symbol
 _atom_site_label
 _atom_site_symmetry_multiplicity
 _atom_site_fract_x
 _atom_site_fract_y
 _atom_site_fract_z
 _atom_site_occupancy
  Cs  Cs0  1  0.250000  0.874453  0.500000  1
  Cs  Cs1  1  0.250000  0.882596  0.000000  1
  Cs  Cs2  1  0.750000  0.127678  0.500000  1
  Cs  Cs3  1  0.746671  0.369968  0.244704  1
  Cs  Cs4  1  0.246611  0.625343  0.248963  1
  Cs  Cs5  1  0.253389  0.625343  0.751037  1
  Cs  Cs6  1  0.753329  0.369968  0.755296  1
  K  K7  1  0.750000  0.121769  0.000000  1
  Cr  Cr8  1  0.250000  0.373445  0.000000  1
  Cr  Cr9  1  0.750000  0.625558  0.500000  1
  Cr  Cr10  1  0.750000  0.625018  0.000000  1
  Cr  Cr11  1  0.250000  0.375351  0.500000  1
  Cr  Cr12  1  0.247518  0.125204  0.250028  1
  Cr  Cr13  1  0.747631  0.875563  0.249242  1
  Cr  Cr14  1  0.752369  0.875563  0.750758  1
  Cr  Cr15  1  0.252482  0.125204  0.749972  1
  N  N16  1  0.995895  0.001761  0.248803  1
  N  N17  1  0.497015  0.999549  0.249018  1
  N  N18  1  0.002985  0.999549  0.750982  1
  N  N19  1  0.504105  0.001761  0.751197  1
  N  N20  1  0.248951  0.250132  0.374934  1
  N  N21  1  0.748940  0.751355  0.124324  1
  N  N22  1  0.751060  0.751355  0.875676  1
  N  N23  1  0.251049  0.250132  0.625066  1
  N  N24  1  0.750844  0.750398  0.625335  1
  N  N25  1  0.250896  0.248897  0.875633  1
  N  N26  1  0.249104  0.248897  0.124367  1
  N  N27  1  0.749156  0.750398  0.374665  1
  N  N28  1  0.499895  0.500202  0.499962  1
  N  N29  1  0.999376  0.498696  0.000047  1
  N  N30  1  0.500624  0.498696  0.999953  1
  N  N31  1  0.000105  0.500202  0.500038  1
