# generated using pymatgen
data_Tb2Ho6CdNi2Ag
_symmetry_space_group_name_H-M   'P 1'
_cell_length_a   9.45338237
_cell_length_b   9.45338281
_cell_length_c   9.44113200
_cell_angle_alpha   60.04286636
_cell_angle_beta   60.04286482
_cell_angle_gamma   60.06167454
_symmetry_Int_Tables_number   1
_chemical_formula_structural   Tb2Ho6CdNi2Ag
_chemical_formula_sum   'Tb4 Ho12 Cd2 Ni4 Ag2'
_cell_volume   597.26477596
_cell_formula_units_Z   2
loop_
 _symmetry_equiv_pos_site_id
 _symmetry_equiv_pos_as_xyz
  1  'x, y, z'
loop_
 _atom_site_type_symbol
 _atom_site_label
 _atom_site_symmetry_multiplicity
 _atom_site_fract_x
 _atom_site_fract_y
 _atom_site_fract_z
 _atom_site_occupancy
  Tb  Tb0  1  0.349376  0.349376  0.348755  1
  Tb  Tb1  1  0.349376  0.349376  0.952491  1
  Tb  Tb2  1  0.351740  0.947545  0.350357  1
  Tb  Tb3  1  0.947545  0.351740  0.350357  1
  Ho  Ho4  1  0.812001  0.188416  0.189164  1
  Ho  Ho5  1  0.188416  0.812001  0.810419  1
  Ho  Ho6  1  0.188416  0.812001  0.189164  1
  Ho  Ho7  1  0.812001  0.188416  0.810419  1
  Ho  Ho8  1  0.189192  0.189192  0.810808  1
  Ho  Ho9  1  0.811984  0.811984  0.188016  1
  Ho  Ho10  1  0.932659  0.563835  0.565337  1
  Ho  Ho11  1  0.563835  0.932659  0.938168  1
  Ho  Ho12  1  0.563835  0.932659  0.565337  1
  Ho  Ho13  1  0.932659  0.563835  0.938168  1
  Ho  Ho14  1  0.563497  0.563497  0.936503  1
  Ho  Ho15  1  0.935357  0.935357  0.564643  1
  Cd  Cd16  1  0.581785  0.258717  0.579750  1
  Cd  Cd17  1  0.258717  0.581785  0.579750  1
  Ni  Ni18  1  0.142350  0.142350  0.143056  1
  Ni  Ni19  1  0.142350  0.142350  0.572244  1
  Ni  Ni20  1  0.141218  0.573928  0.142428  1
  Ni  Ni21  1  0.573928  0.141218  0.142428  1
  Ag  Ag22  1  0.583881  0.583881  0.582019  1
  Ag  Ag23  1  0.583881  0.583881  0.250221  1
