# generated using pymatgen
data_Li8ZnPPt6
_symmetry_space_group_name_H-M   'P 1'
_cell_length_a   6.82356562
_cell_length_b   6.82356490
_cell_length_c   6.82356452
_cell_angle_alpha   61.58908295
_cell_angle_beta   61.58908957
_cell_angle_gamma   61.58908302
_symmetry_Int_Tables_number   1
_chemical_formula_structural   Li8ZnPPt6
_chemical_formula_sum   'Li8 Zn1 P1 Pt6'
_cell_volume   232.66518806
_cell_formula_units_Z   1
loop_
 _symmetry_equiv_pos_site_id
 _symmetry_equiv_pos_as_xyz
  1  'x, y, z'
loop_
 _atom_site_type_symbol
 _atom_site_label
 _atom_site_symmetry_multiplicity
 _atom_site_fract_x
 _atom_site_fract_y
 _atom_site_fract_z
 _atom_site_occupancy
  Li  Li0  1  0.283686  0.283686  0.283686  1
  Li  Li1  1  0.722939  0.722939  0.722939  1
  Li  Li2  1  0.575739  0.843218  0.334551  1
  Li  Li3  1  0.334551  0.575739  0.843218  1
  Li  Li4  1  0.843218  0.334551  0.575739  1
  Li  Li5  1  0.657413  0.155345  0.456831  1
  Li  Li6  1  0.155345  0.456831  0.657413  1
  Li  Li7  1  0.456831  0.657413  0.155345  1
  Zn  Zn8  1  0.884899  0.884899  0.884899  1
  P  P9  1  0.085631  0.085631  0.085631  1
  Pt  Pt10  1  0.916750  0.457401  0.134579  1
  Pt  Pt11  1  0.134579  0.916750  0.457401  1
  Pt  Pt12  1  0.457401  0.134579  0.916750  1
  Pt  Pt13  1  0.263213  0.008177  0.719628  1
  Pt  Pt14  1  0.719628  0.263213  0.008177  1
  Pt  Pt15  1  0.008177  0.719628  0.263213  1
