# generated using pymatgen
data_Dy7Sn23Ir6
_symmetry_space_group_name_H-M   'P 1'
_cell_length_a   9.87391000
_cell_length_b   9.87390959
_cell_length_c   10.12158700
_cell_angle_alpha   90.00000000
_cell_angle_beta   90.00000000
_cell_angle_gamma   119.99999467
_symmetry_Int_Tables_number   1
_chemical_formula_structural   Dy7Sn23Ir6
_chemical_formula_sum   'Dy7 Sn23 Ir6'
_cell_volume   854.58955046
_cell_formula_units_Z   1
loop_
 _symmetry_equiv_pos_site_id
 _symmetry_equiv_pos_as_xyz
  1  'x, y, z'
loop_
 _atom_site_type_symbol
 _atom_site_label
 _atom_site_symmetry_multiplicity
 _atom_site_fract_x
 _atom_site_fract_y
 _atom_site_fract_z
 _atom_site_occupancy
  Dy  Dy0  1  0.000000  0.000000  0.000000  1
  Dy  Dy1  1  0.479610  0.520390  0.307137  1
  Dy  Dy2  1  0.520390  0.479610  0.692863  1
  Dy  Dy3  1  0.479610  0.959220  0.307137  1
  Dy  Dy4  1  0.520390  0.040780  0.692863  1
  Dy  Dy5  1  0.040780  0.520390  0.307137  1
  Dy  Dy6  1  0.959220  0.479610  0.692863  1
  Sn  Sn7  1  0.352271  0.000000  0.000000  1
  Sn  Sn8  1  0.647729  0.000000  0.000000  1
  Sn  Sn9  1  0.000000  0.352271  0.000000  1
  Sn  Sn10  1  0.000000  0.647729  0.000000  1
  Sn  Sn11  1  0.647729  0.647729  0.000000  1
  Sn  Sn12  1  0.352271  0.352271  0.000000  1
  Sn  Sn13  1  0.333333  0.666667  0.824236  1
  Sn  Sn14  1  0.666667  0.333333  0.175764  1
  Sn  Sn15  1  0.000000  0.000000  0.500000  1
  Sn  Sn16  1  0.778048  0.221952  0.455810  1
  Sn  Sn17  1  0.221952  0.778048  0.544190  1
  Sn  Sn18  1  0.778048  0.556097  0.455810  1
  Sn  Sn19  1  0.221952  0.443903  0.544190  1
  Sn  Sn20  1  0.443903  0.221952  0.455810  1
  Sn  Sn21  1  0.556097  0.778048  0.544190  1
  Sn  Sn22  1  0.333333  0.666667  0.121465  1
  Sn  Sn23  1  0.666667  0.333333  0.878535  1
  Sn  Sn24  1  0.119126  0.880874  0.283323  1
  Sn  Sn25  1  0.880874  0.119126  0.716677  1
  Sn  Sn26  1  0.119126  0.238252  0.283323  1
  Sn  Sn27  1  0.880874  0.761748  0.716677  1
  Sn  Sn28  1  0.761748  0.880874  0.283323  1
  Sn  Sn29  1  0.238252  0.119126  0.716677  1
  Ir  Ir30  1  0.831352  0.168648  0.198084  1
  Ir  Ir31  1  0.168648  0.831352  0.801916  1
  Ir  Ir32  1  0.831352  0.662703  0.198084  1
  Ir  Ir33  1  0.168648  0.337297  0.801916  1
  Ir  Ir34  1  0.337297  0.168648  0.198084  1
  Ir  Ir35  1  0.662703  0.831352  0.801916  1
