# generated using pymatgen
data_Eu4HfNb3O14
_symmetry_space_group_name_H-M   'P 1'
_cell_length_a   7.53990781
_cell_length_b   7.55646017
_cell_length_c   7.55646000
_cell_angle_alpha   60.00000074
_cell_angle_beta   59.92735420
_cell_angle_gamma   59.92735659
_symmetry_Int_Tables_number   1
_chemical_formula_structural   Eu4HfNb3O14
_chemical_formula_sum   'Eu4 Hf1 Nb3 O14'
_cell_volume   304.09556530
_cell_formula_units_Z   1
loop_
 _symmetry_equiv_pos_site_id
 _symmetry_equiv_pos_as_xyz
  1  'x, y, z'
loop_
 _atom_site_type_symbol
 _atom_site_label
 _atom_site_symmetry_multiplicity
 _atom_site_fract_x
 _atom_site_fract_y
 _atom_site_fract_z
 _atom_site_occupancy
  Eu  Eu0  1  0.625000  0.125000  0.125000  1
  Eu  Eu1  1  0.125000  0.625000  0.125000  1
  Eu  Eu2  1  0.125000  0.125000  0.625000  1
  Eu  Eu3  1  0.125000  0.125000  0.125000  1
  Hf  Hf4  1  0.125000  0.625000  0.625000  1
  Nb  Nb5  1  0.625000  0.125000  0.625000  1
  Nb  Nb6  1  0.625000  0.625000  0.125000  1
  Nb  Nb7  1  0.625000  0.625000  0.625000  1
  O  O8  1  0.250436  0.249855  0.249855  1
  O  O9  1  0.999564  0.000145  0.000145  1
  O  O10  1  0.691512  0.696137  0.306175  1
  O  O11  1  0.306890  0.297149  0.697981  1
  O  O12  1  0.691512  0.306175  0.696137  1
  O  O13  1  0.306890  0.697981  0.297149  1
  O  O14  1  0.306890  0.697981  0.697981  1
  O  O15  1  0.691512  0.306175  0.306175  1
  O  O16  1  0.558488  0.553863  0.943825  1
  O  O17  1  0.943110  0.952851  0.552019  1
  O  O18  1  0.558488  0.943825  0.553863  1
  O  O19  1  0.943110  0.552019  0.952851  1
  O  O20  1  0.943110  0.552019  0.552019  1
  O  O21  1  0.558488  0.943825  0.943825  1
