# generated using pymatgen
data_Y4GaSi11Ni20
_symmetry_space_group_name_H-M   'P 1'
_cell_length_a   3.82008800
_cell_length_b   6.59426649
_cell_length_c   18.91927732
_cell_angle_alpha   90.10014520
_cell_angle_beta   90.00000000
_cell_angle_gamma   90.00000000
_symmetry_Int_Tables_number   1
_chemical_formula_structural   Y4GaSi11Ni20
_chemical_formula_sum   'Y4 Ga1 Si11 Ni20'
_cell_volume   476.58870006
_cell_formula_units_Z   1
loop_
 _symmetry_equiv_pos_site_id
 _symmetry_equiv_pos_as_xyz
  1  'x, y, z'
loop_
 _atom_site_type_symbol
 _atom_site_label
 _atom_site_symmetry_multiplicity
 _atom_site_fract_x
 _atom_site_fract_y
 _atom_site_fract_z
 _atom_site_occupancy
  Y  Y0  1  0.250000  0.623500  0.642660  1
  Y  Y1  1  0.750000  0.376011  0.356376  1
  Y  Y2  1  0.750000  0.126647  0.853952  1
  Y  Y3  1  0.250000  0.877327  0.144794  1
  Ga  Ga4  1  0.250000  0.844059  0.924519  1
  Si  Si5  1  0.750000  0.159757  0.074981  1
  Si  Si6  1  0.750000  0.342244  0.573694  1
  Si  Si7  1  0.250000  0.656734  0.426036  1
  Si  Si8  1  0.750000  0.621556  0.760199  1
  Si  Si9  1  0.250000  0.380231  0.238724  1
  Si  Si10  1  0.250000  0.421753  0.914890  1
  Si  Si11  1  0.750000  0.576055  0.087380  1
  Si  Si12  1  0.750000  0.921153  0.584987  1
  Si  Si13  1  0.250000  0.078127  0.413766  1
  Si  Si14  1  0.250000  0.122427  0.736122  1
  Si  Si15  1  0.750000  0.880737  0.263351  1
  Ni  Ni16  1  0.250000  0.142836  0.998879  1
  Ni  Ni17  1  0.750000  0.387949  0.984001  1
  Ni  Ni18  1  0.750000  0.114509  0.483695  1
  Ni  Ni19  1  0.250000  0.608542  0.019171  1
  Ni  Ni20  1  0.250000  0.355512  0.118588  1
  Ni  Ni21  1  0.750000  0.627499  0.879858  1
  Ni  Ni22  1  0.750000  0.854713  0.384649  1
  Ni  Ni23  1  0.250000  0.143691  0.615044  1
  Ni  Ni24  1  0.250000  0.070926  0.293403  1
  Ni  Ni25  1  0.750000  0.932355  0.704897  1
  Ni  Ni26  1  0.750000  0.570892  0.207872  1
  Ni  Ni27  1  0.250000  0.431073  0.793438  1
  Ni  Ni28  1  0.750000  0.633709  0.505098  1
  Ni  Ni29  1  0.250000  0.365308  0.494616  1
  Ni  Ni30  1  0.250000  0.812967  0.794511  1
  Ni  Ni31  1  0.750000  0.187251  0.200553  1
  Ni  Ni32  1  0.750000  0.314902  0.698337  1
  Ni  Ni33  1  0.250000  0.687218  0.301304  1
  Ni  Ni34  1  0.250000  0.886017  0.515242  1
  Ni  Ni35  1  0.750000  0.863811  0.010414  1
