# generated using pymatgen
data_Tb8Er11Si16Ag
_symmetry_space_group_name_H-M   'P 1'
_cell_length_a   7.64666281
_cell_length_b   7.64666231
_cell_length_c   13.89961063
_cell_angle_alpha   89.68703821
_cell_angle_beta   90.31295969
_cell_angle_gamma   90.12933715
_symmetry_Int_Tables_number   1
_chemical_formula_structural   Tb8Er11Si16Ag
_chemical_formula_sum   'Tb8 Er11 Si16 Ag1'
_cell_volume   812.70410008
_cell_formula_units_Z   1
loop_
 _symmetry_equiv_pos_site_id
 _symmetry_equiv_pos_as_xyz
  1  'x, y, z'
loop_
 _atom_site_type_symbol
 _atom_site_label
 _atom_site_symmetry_multiplicity
 _atom_site_fract_x
 _atom_site_fract_y
 _atom_site_fract_z
 _atom_site_occupancy
  Tb  Tb0  1  0.999424  0.352940  0.204495  1
  Tb  Tb1  1  0.005643  0.646247  0.713858  1
  Tb  Tb2  1  0.144328  0.494793  0.459835  1
  Tb  Tb3  1  0.499055  0.862097  0.037512  1
  Tb  Tb4  1  0.862097  0.499055  0.962488  1
  Tb  Tb5  1  0.494793  0.144328  0.540165  1
  Tb  Tb6  1  0.352940  0.999424  0.795505  1
  Tb  Tb7  1  0.646247  0.005643  0.286142  1
  Er  Er8  1  0.818868  0.818868  0.500000  1
  Er  Er9  1  0.319527  0.682582  0.248310  1
  Er  Er10  1  0.682582  0.319527  0.751690  1
  Er  Er11  1  0.137769  0.006233  0.375071  1
  Er  Er12  1  0.867602  0.998715  0.880152  1
  Er  Er13  1  0.494460  0.641397  0.627145  1
  Er  Er14  1  0.358196  0.496179  0.877122  1
  Er  Er15  1  0.496179  0.358196  0.122878  1
  Er  Er16  1  0.641397  0.494460  0.372855  1
  Er  Er17  1  0.006233  0.137769  0.624929  1
  Er  Er18  1  0.998715  0.867602  0.119848  1
  Si  Si19  1  0.349367  0.293944  0.313985  1
  Si  Si20  1  0.648428  0.709569  0.819201  1
  Si  Si21  1  0.206240  0.850632  0.566756  1
  Si  Si22  1  0.143023  0.777086  0.929444  1
  Si  Si23  1  0.777086  0.143023  0.070556  1
  Si  Si24  1  0.850632  0.206240  0.433244  1
  Si  Si25  1  0.293944  0.349367  0.686015  1
  Si  Si26  1  0.709569  0.648428  0.180799  1
  Si  Si27  1  0.293137  0.062402  0.188098  1
  Si  Si28  1  0.701515  0.940156  0.691595  1
  Si  Si29  1  0.441058  0.795781  0.437675  1
  Si  Si30  1  0.207688  0.573191  0.062238  1
  Si  Si31  1  0.573191  0.207688  0.937762  1
  Si  Si32  1  0.795781  0.441058  0.562325  1
  Si  Si33  1  0.062402  0.293137  0.811902  1
  Si  Si34  1  0.940156  0.701515  0.308405  1
  Ag  Ag35  1  0.180728  0.180728  0.000000  1
