# generated using pymatgen
data_Lu2Be2GeIr5
_symmetry_space_group_name_H-M   'P 1'
_cell_length_a   9.59841800
_cell_length_b   9.59841800
_cell_length_c   3.18482000
_cell_angle_alpha   90.00000000
_cell_angle_beta   90.00000000
_cell_angle_gamma   90.00000000
_symmetry_Int_Tables_number   1
_chemical_formula_structural   Lu2Be2GeIr5
_chemical_formula_sum   'Lu4 Be4 Ge2 Ir10'
_cell_volume   293.41628217
_cell_formula_units_Z   2
loop_
 _symmetry_equiv_pos_site_id
 _symmetry_equiv_pos_as_xyz
  1  'x, y, z'
loop_
 _atom_site_type_symbol
 _atom_site_label
 _atom_site_symmetry_multiplicity
 _atom_site_fract_x
 _atom_site_fract_y
 _atom_site_fract_z
 _atom_site_occupancy
  Lu  Lu0  1  0.675191  0.175191  0.000000  1
  Lu  Lu1  1  0.324809  0.824809  0.000000  1
  Lu  Lu2  1  0.175191  0.324809  0.000000  1
  Lu  Lu3  1  0.824809  0.675191  0.000000  1
  Be  Be4  1  0.122697  0.622697  0.000000  1
  Be  Be5  1  0.877303  0.377303  0.000000  1
  Be  Be6  1  0.622697  0.877303  0.000000  1
  Be  Be7  1  0.377303  0.122697  0.000000  1
  Ge  Ge8  1  0.000000  0.000000  0.000000  1
  Ge  Ge9  1  0.500000  0.500000  0.000000  1
  Ir  Ir10  1  0.210119  0.067758  0.500000  1
  Ir  Ir11  1  0.789881  0.932242  0.500000  1
  Ir  Ir12  1  0.067758  0.789881  0.500000  1
  Ir  Ir13  1  0.710119  0.432242  0.500000  1
  Ir  Ir14  1  0.932242  0.210119  0.500000  1
  Ir  Ir15  1  0.289881  0.567758  0.500000  1
  Ir  Ir16  1  0.567758  0.710119  0.500000  1
  Ir  Ir17  1  0.432242  0.289881  0.500000  1
  Ir  Ir18  1  0.500000  0.000000  0.500000  1
  Ir  Ir19  1  0.000000  0.500000  0.500000  1
