# generated using pymatgen
data_Pr2HoCd(Ir2O7)2
_symmetry_space_group_name_H-M   'P 1'
_cell_length_a   7.25135485
_cell_length_b   7.39286581
_cell_length_c   7.39286639
_cell_angle_alpha   60.39195180
_cell_angle_beta   59.56775695
_cell_angle_gamma   59.56775558
_symmetry_Int_Tables_number   1
_chemical_formula_structural   Pr2HoCd(Ir2O7)2
_chemical_formula_sum   'Pr2 Ho1 Cd1 Ir4 O14'
_cell_volume   279.19911885
_cell_formula_units_Z   1
loop_
 _symmetry_equiv_pos_site_id
 _symmetry_equiv_pos_as_xyz
  1  'x, y, z'
loop_
 _atom_site_type_symbol
 _atom_site_label
 _atom_site_symmetry_multiplicity
 _atom_site_fract_x
 _atom_site_fract_y
 _atom_site_fract_z
 _atom_site_occupancy
  Pr  Pr0  1  0.125000  0.125000  0.625000  1
  Pr  Pr1  1  0.125000  0.625000  0.125000  1
  Ho  Ho2  1  0.125000  0.125000  0.125000  1
  Cd  Cd3  1  0.625000  0.125000  0.125000  1
  Ir  Ir4  1  0.625000  0.625000  0.625000  1
  Ir  Ir5  1  0.125000  0.625000  0.625000  1
  Ir  Ir6  1  0.625000  0.125000  0.625000  1
  Ir  Ir7  1  0.625000  0.625000  0.125000  1
  O  O8  1  0.961254  0.540869  0.540869  1
  O  O9  1  0.289138  0.292511  0.718009  1
  O  O10  1  0.960862  0.531991  0.957489  1
  O  O11  1  0.713046  0.299065  0.299065  1
  O  O12  1  0.551026  0.547276  0.951589  1
  O  O13  1  0.551026  0.951589  0.547276  1
  O  O14  1  0.536954  0.950935  0.950935  1
  O  O15  1  0.256147  0.241407  0.241407  1
  O  O16  1  0.288746  0.709131  0.709131  1
  O  O17  1  0.698974  0.298411  0.702724  1
  O  O18  1  0.993853  0.008593  0.008593  1
  O  O19  1  0.960862  0.957489  0.531991  1
  O  O20  1  0.289138  0.718009  0.292511  1
  O  O21  1  0.698974  0.702724  0.298411  1
