# generated using pymatgen
data_Ho3Pa(CdNi2)2
_symmetry_space_group_name_H-M   'P 1'
_cell_length_a   7.44241660
_cell_length_b   7.44241610
_cell_length_c   3.55954500
_cell_angle_alpha   90.00000000
_cell_angle_beta   90.00000000
_cell_angle_gamma   92.24408946
_symmetry_Int_Tables_number   1
_chemical_formula_structural   Ho3Pa(CdNi2)2
_chemical_formula_sum   'Ho3 Pa1 Cd2 Ni4'
_cell_volume   197.01042833
_cell_formula_units_Z   1
loop_
 _symmetry_equiv_pos_site_id
 _symmetry_equiv_pos_as_xyz
  1  'x, y, z'
loop_
 _atom_site_type_symbol
 _atom_site_label
 _atom_site_symmetry_multiplicity
 _atom_site_fract_x
 _atom_site_fract_y
 _atom_site_fract_z
 _atom_site_occupancy
  Ho  Ho0  1  0.325870  0.825870  0.500000  1
  Ho  Ho1  1  0.171533  0.329080  0.500000  1
  Ho  Ho2  1  0.829080  0.671533  0.500000  1
  Pa  Pa3  1  0.671091  0.171091  0.500000  1
  Cd  Cd4  1  0.495146  0.506509  0.000000  1
  Cd  Cd5  1  0.006509  0.995146  0.000000  1
  Ni  Ni6  1  0.861620  0.361620  0.000000  1
  Ni  Ni7  1  0.112662  0.612662  0.000000  1
  Ni  Ni8  1  0.396695  0.129793  0.000000  1
  Ni  Ni9  1  0.629793  0.896695  0.000000  1
