# generated using pymatgen
data_Lu20GaBi8Sb3
_symmetry_space_group_name_H-M   'P 1'
_cell_length_a   8.01574349
_cell_length_b   9.30390200
_cell_length_c   11.71971547
_cell_angle_alpha   90.00000000
_cell_angle_beta   89.77518842
_cell_angle_gamma   90.00000000
_symmetry_Int_Tables_number   1
_chemical_formula_structural   Lu20GaBi8Sb3
_chemical_formula_sum   'Lu20 Ga1 Bi8 Sb3'
_cell_volume   874.02260057
_cell_formula_units_Z   1
loop_
 _symmetry_equiv_pos_site_id
 _symmetry_equiv_pos_as_xyz
  1  'x, y, z'
loop_
 _atom_site_type_symbol
 _atom_site_label
 _atom_site_symmetry_multiplicity
 _atom_site_fract_x
 _atom_site_fract_y
 _atom_site_fract_z
 _atom_site_occupancy
  Lu  Lu0  1  0.183301  0.570292  0.444579  1
  Lu  Lu1  1  0.689207  0.934282  0.058296  1
  Lu  Lu2  1  0.811126  0.055388  0.557796  1
  Lu  Lu3  1  0.311016  0.434354  0.942292  1
  Lu  Lu4  1  0.811126  0.444612  0.557796  1
  Lu  Lu5  1  0.311016  0.065646  0.942292  1
  Lu  Lu6  1  0.183301  0.929708  0.444579  1
  Lu  Lu7  1  0.689207  0.565718  0.058296  1
  Lu  Lu8  1  0.026493  0.750000  0.989627  1
  Lu  Lu9  1  0.536672  0.750000  0.510552  1
  Lu  Lu10  1  0.973724  0.250000  0.010296  1
  Lu  Lu11  1  0.475480  0.250000  0.489263  1
  Lu  Lu12  1  0.177320  0.750000  0.711919  1
  Lu  Lu13  1  0.686737  0.750000  0.781185  1
  Lu  Lu14  1  0.815608  0.250000  0.282926  1
  Lu  Lu15  1  0.314541  0.250000  0.215900  1
  Lu  Lu16  1  0.854753  0.750000  0.291870  1
  Lu  Lu17  1  0.353821  0.750000  0.214200  1
  Lu  Lu18  1  0.146571  0.250000  0.715376  1
  Lu  Lu19  1  0.647736  0.250000  0.785348  1
  Ga  Ga20  1  0.905974  0.750000  0.540367  1
  Bi  Bi21  1  0.935478  0.497228  0.824580  1
  Bi  Bi22  1  0.435346  0.002948  0.675794  1
  Bi  Bi23  1  0.064618  0.996717  0.175207  1
  Bi  Bi24  1  0.563969  0.502502  0.323761  1
  Bi  Bi25  1  0.064618  0.503283  0.175207  1
  Bi  Bi26  1  0.563969  0.997498  0.323761  1
  Bi  Bi27  1  0.935478  0.002772  0.824580  1
  Bi  Bi28  1  0.435346  0.497052  0.675794  1
  Sb  Sb29  1  0.403188  0.750000  0.956398  1
  Sb  Sb30  1  0.096113  0.250000  0.457691  1
  Sb  Sb31  1  0.597147  0.250000  0.042473  1
