# generated using pymatgen
data_ThCu4SnRu
_symmetry_space_group_name_H-M   'P 1'
_cell_length_a   4.94420500
_cell_length_b   8.52454900
_cell_length_c   10.83457700
_cell_angle_alpha   90.00000000
_cell_angle_beta   90.00000000
_cell_angle_gamma   90.00000000
_symmetry_Int_Tables_number   1
_chemical_formula_structural   ThCu4SnRu
_chemical_formula_sum   'Th4 Cu16 Sn4 Ru4'
_cell_volume   456.64619301
_cell_formula_units_Z   4
loop_
 _symmetry_equiv_pos_site_id
 _symmetry_equiv_pos_as_xyz
  1  'x, y, z'
loop_
 _atom_site_type_symbol
 _atom_site_label
 _atom_site_symmetry_multiplicity
 _atom_site_fract_x
 _atom_site_fract_y
 _atom_site_fract_z
 _atom_site_occupancy
  Th  Th0  1  0.750000  0.239297  0.935709  1
  Th  Th1  1  0.250000  0.760703  0.064291  1
  Th  Th2  1  0.750000  0.739297  0.564291  1
  Th  Th3  1  0.250000  0.260703  0.435709  1
  Cu  Cu4  1  0.999049  0.431923  0.188762  1
  Cu  Cu5  1  0.499049  0.568077  0.811238  1
  Cu  Cu6  1  0.500951  0.931923  0.311238  1
  Cu  Cu7  1  0.000951  0.068077  0.688762  1
  Cu  Cu8  1  0.000951  0.568077  0.811238  1
  Cu  Cu9  1  0.500951  0.431923  0.188762  1
  Cu  Cu10  1  0.499049  0.068077  0.688762  1
  Cu  Cu11  1  0.999049  0.931923  0.311238  1
  Cu  Cu12  1  0.750000  0.189486  0.264241  1
  Cu  Cu13  1  0.250000  0.810514  0.735759  1
  Cu  Cu14  1  0.750000  0.689486  0.235759  1
  Cu  Cu15  1  0.250000  0.310514  0.764241  1
  Cu  Cu16  1  0.750000  0.073881  0.486049  1
  Cu  Cu17  1  0.250000  0.926119  0.513951  1
  Cu  Cu18  1  0.750000  0.573881  0.013951  1
  Cu  Cu19  1  0.250000  0.426119  0.986049  1
  Sn  Sn20  1  0.750000  0.358833  0.641354  1
  Sn  Sn21  1  0.250000  0.641167  0.358646  1
  Sn  Sn22  1  0.750000  0.858833  0.858646  1
  Sn  Sn23  1  0.250000  0.141167  0.141354  1
  Ru  Ru24  1  0.750000  0.458298  0.407712  1
  Ru  Ru25  1  0.250000  0.541702  0.592288  1
  Ru  Ru26  1  0.750000  0.958298  0.092288  1
  Ru  Ru27  1  0.250000  0.041702  0.907712  1
