# generated using pymatgen
data_Er5Hg2Ru
_symmetry_space_group_name_H-M   'P 1'
_cell_length_a   7.43241200
_cell_length_b   9.31409100
_cell_length_c   11.94286800
_cell_angle_alpha   90.00000000
_cell_angle_beta   90.00000000
_cell_angle_gamma   90.00000000
_symmetry_Int_Tables_number   1
_chemical_formula_structural   Er5Hg2Ru
_chemical_formula_sum   'Er20 Hg8 Ru4'
_cell_volume   826.75891154
_cell_formula_units_Z   4
loop_
 _symmetry_equiv_pos_site_id
 _symmetry_equiv_pos_as_xyz
  1  'x, y, z'
loop_
 _atom_site_type_symbol
 _atom_site_label
 _atom_site_symmetry_multiplicity
 _atom_site_fract_x
 _atom_site_fract_y
 _atom_site_fract_z
 _atom_site_occupancy
  Er  Er0  1  0.658805  0.750000  0.719695  1
  Er  Er1  1  0.341195  0.250000  0.280305  1
  Er  Er2  1  0.158805  0.250000  0.780305  1
  Er  Er3  1  0.841195  0.750000  0.219695  1
  Er  Er4  1  0.131376  0.750000  0.810181  1
  Er  Er5  1  0.868624  0.250000  0.189819  1
  Er  Er6  1  0.631376  0.250000  0.689819  1
  Er  Er7  1  0.368624  0.750000  0.310181  1
  Er  Er8  1  0.540879  0.750000  0.000328  1
  Er  Er9  1  0.459121  0.250000  0.999672  1
  Er  Er10  1  0.040879  0.250000  0.499672  1
  Er  Er11  1  0.959121  0.750000  0.500328  1
  Er  Er12  1  0.825888  0.471900  0.919365  1
  Er  Er13  1  0.174112  0.528100  0.080635  1
  Er  Er14  1  0.325888  0.528100  0.580635  1
  Er  Er15  1  0.174112  0.971900  0.080635  1
  Er  Er16  1  0.674112  0.471900  0.419365  1
  Er  Er17  1  0.825888  0.028100  0.919365  1
  Er  Er18  1  0.674112  0.028100  0.419365  1
  Er  Er19  1  0.325888  0.971900  0.580635  1
  Hg  Hg20  1  0.923588  0.005262  0.662193  1
  Hg  Hg21  1  0.076412  0.994738  0.337807  1
  Hg  Hg22  1  0.423588  0.994738  0.837807  1
  Hg  Hg23  1  0.076412  0.505262  0.337807  1
  Hg  Hg24  1  0.576412  0.005262  0.162193  1
  Hg  Hg25  1  0.923588  0.494738  0.662193  1
  Hg  Hg26  1  0.576412  0.494738  0.162193  1
  Hg  Hg27  1  0.423588  0.505262  0.837807  1
  Ru  Ru28  1  0.931431  0.750000  0.997919  1
  Ru  Ru29  1  0.068569  0.250000  0.002081  1
  Ru  Ru30  1  0.431431  0.250000  0.502081  1
  Ru  Ru31  1  0.568569  0.750000  0.497919  1
