# generated using pymatgen
data_NaDy7(Sn11Ru3)2
_symmetry_space_group_name_H-M   'P 1'
_cell_length_a   9.84950200
_cell_length_b   9.84950291
_cell_length_c   10.10537300
_cell_angle_alpha   90.00000000
_cell_angle_beta   90.00000000
_cell_angle_gamma   119.99999694
_symmetry_Int_Tables_number   1
_chemical_formula_structural   NaDy7(Sn11Ru3)2
_chemical_formula_sum   'Na1 Dy7 Sn22 Ru6'
_cell_volume   849.00760250
_cell_formula_units_Z   1
loop_
 _symmetry_equiv_pos_site_id
 _symmetry_equiv_pos_as_xyz
  1  'x, y, z'
loop_
 _atom_site_type_symbol
 _atom_site_label
 _atom_site_symmetry_multiplicity
 _atom_site_fract_x
 _atom_site_fract_y
 _atom_site_fract_z
 _atom_site_occupancy
  Na  Na0  1  0.000000  0.000000  0.500000  1
  Dy  Dy1  1  0.000000  0.000000  0.000000  1
  Dy  Dy2  1  0.483448  0.516552  0.306055  1
  Dy  Dy3  1  0.516552  0.483448  0.693945  1
  Dy  Dy4  1  0.483448  0.966895  0.306055  1
  Dy  Dy5  1  0.516552  0.033105  0.693945  1
  Dy  Dy6  1  0.033105  0.516552  0.306055  1
  Dy  Dy7  1  0.966895  0.483448  0.693945  1
  Sn  Sn8  1  0.348858  0.000000  0.000000  1
  Sn  Sn9  1  0.651142  0.000000  0.000000  1
  Sn  Sn10  1  0.000000  0.348858  0.000000  1
  Sn  Sn11  1  0.000000  0.651142  0.000000  1
  Sn  Sn12  1  0.651142  0.651142  0.000000  1
  Sn  Sn13  1  0.348858  0.348858  0.000000  1
  Sn  Sn14  1  0.333333  0.666667  0.822356  1
  Sn  Sn15  1  0.666667  0.333333  0.177644  1
  Sn  Sn16  1  0.779412  0.220588  0.462581  1
  Sn  Sn17  1  0.220588  0.779412  0.537419  1
  Sn  Sn18  1  0.779412  0.558826  0.462581  1
  Sn  Sn19  1  0.220588  0.441174  0.537419  1
  Sn  Sn20  1  0.441174  0.220588  0.462581  1
  Sn  Sn21  1  0.558826  0.779412  0.537419  1
  Sn  Sn22  1  0.333333  0.666667  0.126455  1
  Sn  Sn23  1  0.666667  0.333333  0.873545  1
  Sn  Sn24  1  0.123510  0.876490  0.265113  1
  Sn  Sn25  1  0.876490  0.123510  0.734887  1
  Sn  Sn26  1  0.123510  0.247019  0.265113  1
  Sn  Sn27  1  0.876490  0.752981  0.734887  1
  Sn  Sn28  1  0.752981  0.876490  0.265113  1
  Sn  Sn29  1  0.247019  0.123510  0.734887  1
  Ru  Ru30  1  0.831740  0.168260  0.204905  1
  Ru  Ru31  1  0.168260  0.831740  0.795095  1
  Ru  Ru32  1  0.831740  0.663480  0.204905  1
  Ru  Ru33  1  0.168260  0.336520  0.795095  1
  Ru  Ru34  1  0.336520  0.168260  0.204905  1
  Ru  Ru35  1  0.663480  0.831740  0.795095  1
