# generated using pymatgen
data_Np5CdCl30
_symmetry_space_group_name_H-M   'P 1'
_cell_length_a   14.91453222
_cell_length_b   14.91453306
_cell_length_c   7.39650282
_cell_angle_alpha   87.47309989
_cell_angle_beta   87.47310527
_cell_angle_gamma   86.18631988
_symmetry_Int_Tables_number   1
_chemical_formula_structural   Np5CdCl30
_chemical_formula_sum   'Np5 Cd1 Cl30'
_cell_volume   1638.66428527
_cell_formula_units_Z   1
loop_
 _symmetry_equiv_pos_site_id
 _symmetry_equiv_pos_as_xyz
  1  'x, y, z'
loop_
 _atom_site_type_symbol
 _atom_site_label
 _atom_site_symmetry_multiplicity
 _atom_site_fract_x
 _atom_site_fract_y
 _atom_site_fract_z
 _atom_site_occupancy
  Np  Np0  1  0.897654  0.102346  0.000000  1
  Np  Np1  1  0.768662  0.567053  0.432854  1
  Np  Np2  1  0.231425  0.434177  0.567028  1
  Np  Np3  1  0.432947  0.231338  0.567146  1
  Np  Np4  1  0.565823  0.768575  0.432972  1
  Cd  Cd5  1  0.136839  0.863161  0.000000  1
  Cl  Cl6  1  0.504420  0.306740  0.807785  1
  Cl  Cl7  1  0.271378  0.272548  0.728852  1
  Cl  Cl8  1  0.192740  0.972487  0.764279  1
  Cl  Cl9  1  0.606851  0.607034  0.595230  1
  Cl  Cl10  1  0.217461  0.578780  0.392946  1
  Cl  Cl11  1  0.727452  0.728622  0.271148  1
  Cl  Cl12  1  0.159875  0.359467  0.326183  1
  Cl  Cl13  1  0.048120  0.082037  0.127770  1
  Cl  Cl14  1  0.640533  0.840125  0.673817  1
  Cl  Cl15  1  0.577728  0.216666  0.392658  1
  Cl  Cl16  1  0.079144  0.715752  0.925763  1
  Cl  Cl17  1  0.027513  0.807260  0.235721  1
  Cl  Cl18  1  0.912906  0.552349  0.258208  1
  Cl  Cl19  1  0.832830  0.035964  0.281371  1
  Cl  Cl20  1  0.421220  0.782539  0.607054  1
  Cl  Cl21  1  0.783334  0.422272  0.607342  1
  Cl  Cl22  1  0.551204  0.913036  0.258228  1
  Cl  Cl23  1  0.964036  0.167170  0.718629  1
  Cl  Cl24  1  0.839895  0.642381  0.672874  1
  Cl  Cl25  1  0.878167  0.252432  0.123917  1
  Cl  Cl26  1  0.494612  0.693008  0.192644  1
  Cl  Cl27  1  0.357619  0.160105  0.327126  1
  Cl  Cl28  1  0.086964  0.448796  0.741772  1
  Cl  Cl29  1  0.747568  0.121833  0.876083  1
  Cl  Cl30  1  0.447651  0.087094  0.741792  1
  Cl  Cl31  1  0.392966  0.393149  0.404770  1
  Cl  Cl32  1  0.306992  0.505388  0.807356  1
  Cl  Cl33  1  0.284248  0.920856  0.074237  1
  Cl  Cl34  1  0.917963  0.951880  0.872230  1
  Cl  Cl35  1  0.693260  0.495580  0.192215  1
