# generated using pymatgen
data_Tb4TcPt3F28
_symmetry_space_group_name_H-M   'P 1'
_cell_length_a   5.57412674
_cell_length_b   8.93705781
_cell_length_c   12.04248416
_cell_angle_alpha   62.34145041
_cell_angle_beta   90.02341264
_cell_angle_gamma   90.05925395
_symmetry_Int_Tables_number   1
_chemical_formula_structural   Tb4TcPt3F28
_chemical_formula_sum   'Tb4 Tc1 Pt3 F28'
_cell_volume   531.35950707
_cell_formula_units_Z   1
loop_
 _symmetry_equiv_pos_site_id
 _symmetry_equiv_pos_as_xyz
  1  'x, y, z'
loop_
 _atom_site_type_symbol
 _atom_site_label
 _atom_site_symmetry_multiplicity
 _atom_site_fract_x
 _atom_site_fract_y
 _atom_site_fract_z
 _atom_site_occupancy
  Tb  Tb0  1  0.259428  0.813321  0.265177  1
  Tb  Tb1  1  0.740101  0.186111  0.735905  1
  Tb  Tb2  1  0.760196  0.185263  0.236459  1
  Tb  Tb3  1  0.239900  0.813951  0.763521  1
  Tc  Tc4  1  0.757458  0.726313  0.042767  1
  Pt  Pt5  1  0.241032  0.272941  0.957411  1
  Pt  Pt6  1  0.258997  0.272838  0.457340  1
  Pt  Pt7  1  0.741161  0.726442  0.543137  1
  F  F8  1  0.935075  0.704638  0.415065  1
  F  F9  1  0.064095  0.294841  0.584951  1
  F  F10  1  0.436272  0.295032  0.085123  1
  F  F11  1  0.555233  0.708650  0.916732  1
  F  F12  1  0.473847  0.729194  0.138166  1
  F  F13  1  0.532418  0.272686  0.865385  1
  F  F14  1  0.967696  0.273279  0.364806  1
  F  F15  1  0.032940  0.726395  0.635046  1
  F  F16  1  0.955095  0.744386  0.171833  1
  F  F17  1  0.050535  0.256618  0.825552  1
  F  F18  1  0.450412  0.257105  0.325448  1
  F  F19  1  0.551530  0.742521  0.675342  1
  F  F20  1  0.770549  0.479229  0.140373  1
  F  F21  1  0.229575  0.520778  0.858989  1
  F  F22  1  0.269624  0.520617  0.358760  1
  F  F23  1  0.730491  0.478585  0.641594  1
  F  F24  1  0.943028  0.279706  0.043569  1
  F  F25  1  0.052693  0.720733  0.954317  1
  F  F26  1  0.442761  0.718952  0.457772  1
  F  F27  1  0.556758  0.279926  0.543298  1
  F  F28  1  0.741635  0.974256  0.449449  1
  F  F29  1  0.258781  0.025047  0.550702  1
  F  F30  1  0.241243  0.025093  0.051122  1
  F  F31  1  0.759170  0.973095  0.946313  1
  F  F32  1  0.586378  0.969086  0.232064  1
  F  F33  1  0.413174  0.031263  0.767452  1
  F  F34  1  0.086504  0.030729  0.268396  1
  F  F35  1  0.914216  0.970384  0.730664  1
