# generated using pymatgen
data_Yb2Al16FePt8
_symmetry_space_group_name_H-M   'P 1'
_cell_length_a   11.16772065
_cell_length_b   11.16772133
_cell_length_c   11.16772042
_cell_angle_alpha   158.63110556
_cell_angle_beta   116.59860344
_cell_angle_gamma   67.72880318
_symmetry_Int_Tables_number   1
_chemical_formula_structural   Yb2Al16FePt8
_chemical_formula_sum   'Yb2 Al16 Fe1 Pt8'
_cell_volume   450.69907277
_cell_formula_units_Z   1
loop_
 _symmetry_equiv_pos_site_id
 _symmetry_equiv_pos_as_xyz
  1  'x, y, z'
loop_
 _atom_site_type_symbol
 _atom_site_label
 _atom_site_symmetry_multiplicity
 _atom_site_fract_x
 _atom_site_fract_y
 _atom_site_fract_z
 _atom_site_occupancy
  Yb  Yb0  1  0.228813  0.228920  0.999893  1
  Yb  Yb1  1  0.770972  0.771080  0.999893  1
  Al  Al2  1  0.274454  0.391586  0.882869  1
  Al  Al3  1  0.088045  0.923057  0.164987  1
  Al  Al4  1  0.506972  0.202539  0.304434  1
  Al  Al5  1  0.241930  0.076943  0.164987  1
  Al  Al6  1  0.910240  0.416938  0.493302  1
  Al  Al7  1  0.724741  0.597584  0.127156  1
  Al  Al8  1  0.901793  0.207661  0.694132  1
  Al  Al9  1  0.486472  0.792339  0.694132  1
  Al  Al10  1  0.387015  0.000000  0.387015  1
  Al  Al11  1  0.626927  0.000000  0.626927  1
  Al  Al12  1  0.491282  0.608414  0.882869  1
  Al  Al13  1  0.101895  0.797461  0.304434  1
  Al  Al14  1  0.901200  0.081925  0.819276  1
  Al  Al15  1  0.737351  0.918075  0.819276  1
  Al  Al16  1  0.529572  0.402416  0.127156  1
  Al  Al17  1  0.076365  0.583062  0.493302  1
  Fe  Fe18  1  0.777727  0.500000  0.277727  1
  Pt  Pt19  1  0.024202  0.342568  0.681634  1
  Pt  Pt20  1  0.627865  0.123753  0.504112  1
  Pt  Pt21  1  0.253224  0.500000  0.753224  1
  Pt  Pt22  1  0.380358  0.876247  0.504112  1
  Pt  Pt23  1  0.985557  0.000000  0.985557  1
  Pt  Pt24  1  0.650726  0.337745  0.312981  1
  Pt  Pt25  1  0.339066  0.657432  0.681634  1
  Pt  Pt26  1  0.975235  0.662255  0.312981  1
