# generated using pymatgen
data_Ba4LuReWO12
_symmetry_space_group_name_H-M   'P 1'
_cell_length_a   10.10712446
_cell_length_b   10.10712413
_cell_length_c   10.10712430
_cell_angle_alpha   33.86618978
_cell_angle_beta   33.86619103
_cell_angle_gamma   33.86619026
_symmetry_Int_Tables_number   1
_chemical_formula_structural   Ba4LuReWO12
_chemical_formula_sum   'Ba4 Lu1 Re1 W1 O12'
_cell_volume   285.72983163
_cell_formula_units_Z   1
loop_
 _symmetry_equiv_pos_site_id
 _symmetry_equiv_pos_as_xyz
  1  'x, y, z'
loop_
 _atom_site_type_symbol
 _atom_site_label
 _atom_site_symmetry_multiplicity
 _atom_site_fract_x
 _atom_site_fract_y
 _atom_site_fract_z
 _atom_site_occupancy
  Ba  Ba0  1  0.708666  0.708666  0.708666  1
  Ba  Ba1  1  0.287719  0.287719  0.287719  1
  Ba  Ba2  1  0.869010  0.869010  0.869010  1
  Ba  Ba3  1  0.136877  0.136877  0.136877  1
  Lu  Lu4  1  0.999555  0.999555  0.999555  1
  Re  Re5  1  0.420325  0.420325  0.420325  1
  W  W6  1  0.579077  0.579077  0.579077  1
  O  O7  1  0.385739  0.385739  0.864002  1
  O  O8  1  0.864002  0.385739  0.385739  1
  O  O9  1  0.385739  0.864002  0.385739  1
  O  O10  1  0.608278  0.608278  0.143509  1
  O  O11  1  0.143509  0.608278  0.608278  1
  O  O12  1  0.608278  0.143509  0.608278  1
  O  O13  1  0.223152  0.223152  0.686562  1
  O  O14  1  0.686562  0.223152  0.223152  1
  O  O15  1  0.223152  0.686562  0.223152  1
  O  O16  1  0.780876  0.780876  0.308605  1
  O  O17  1  0.308605  0.780876  0.780876  1
  O  O18  1  0.780876  0.308605  0.780876  1
