# generated using pymatgen
data_Sr4Sb7Pt6Pb
_symmetry_space_group_name_H-M   'P 1'
_cell_length_a   14.90783500
_cell_length_b   14.95949293
_cell_length_c   4.61932700
_cell_angle_alpha   90.00000000
_cell_angle_beta   90.00000000
_cell_angle_gamma   120.57803216
_symmetry_Int_Tables_number   1
_chemical_formula_structural   Sr4Sb7Pt6Pb
_chemical_formula_sum   'Sr8 Sb14 Pt12 Pb2'
_cell_volume   886.91417966
_cell_formula_units_Z   2
loop_
 _symmetry_equiv_pos_site_id
 _symmetry_equiv_pos_as_xyz
  1  'x, y, z'
loop_
 _atom_site_type_symbol
 _atom_site_label
 _atom_site_symmetry_multiplicity
 _atom_site_fract_x
 _atom_site_fract_y
 _atom_site_fract_z
 _atom_site_occupancy
  Sr  Sr0  1  0.580443  0.996749  0.000000  1
  Sr  Sr1  1  0.665347  0.333665  0.000000  1
  Sr  Sr2  1  0.416698  0.420848  0.000000  1
  Sr  Sr3  1  0.000878  0.580319  0.000000  1
  Sr  Sr4  1  0.327385  0.662938  0.000000  1
  Sr  Sr5  1  0.181305  0.005291  0.500001  1
  Sr  Sr6  1  0.999537  0.181382  0.500001  1
  Sr  Sr7  1  0.822341  0.818789  0.500001  1
  Sb  Sb8  1  0.999739  0.000030  0.000000  1
  Sb  Sb9  1  0.829412  0.195311  0.000000  1
  Sb  Sb10  1  0.367499  0.175788  0.000000  1
  Sb  Sb11  1  0.169850  0.365028  0.000000  1
  Sb  Sb12  1  0.809113  0.634110  0.000000  1
  Sb  Sb13  1  0.728630  0.995154  0.500001  1
  Sb  Sb14  1  0.518800  0.132695  0.500001  1
  Sb  Sb15  1  0.268087  0.268946  0.500001  1
  Sb  Sb16  1  0.866654  0.387105  0.500001  1
  Sb  Sb17  1  0.125531  0.510042  0.500001  1
  Sb  Sb18  1  0.613659  0.483937  0.500001  1
  Sb  Sb19  1  0.478502  0.615874  0.500001  1
  Sb  Sb20  1  0.005353  0.732610  0.500001  1
  Sb  Sb21  1  0.382324  0.869780  0.500001  1
  Pt  Pt22  1  0.397656  0.016738  0.000000  1
  Pt  Pt23  1  0.825992  0.007025  0.000000  1
  Pt  Pt24  1  0.178654  0.179673  0.000000  1
  Pt  Pt25  1  0.001442  0.384948  0.000000  1
  Pt  Pt26  1  0.620231  0.604178  0.000000  1
  Pt  Pt27  1  0.996075  0.821131  0.000000  1
  Pt  Pt28  1  0.727139  0.180098  0.500001  1
  Pt  Pt29  1  0.457717  0.276182  0.500001  1
  Pt  Pt30  1  0.273243  0.456114  0.500001  1
  Pt  Pt31  1  0.817855  0.543555  0.500001  1
  Pt  Pt32  1  0.180774  0.713514  0.500001  1
  Pt  Pt33  1  0.531698  0.817299  0.500001  1
  Pb  Pb34  1  0.201066  0.836146  0.000000  1
  Pb  Pb35  1  0.633278  0.796915  0.000000  1
