# generated using pymatgen
data_Tb8DyY3Co5Bi
_symmetry_space_group_name_H-M   'P 1'
_cell_length_a   8.36539221
_cell_length_b   8.36511185
_cell_length_c   8.35652399
_cell_angle_alpha   110.67271286
_cell_angle_beta   110.69843898
_cell_angle_gamma   107.11340129
_symmetry_Int_Tables_number   1
_chemical_formula_structural   Tb8DyY3Co5Bi
_chemical_formula_sum   'Tb8 Dy1 Y3 Co5 Bi1'
_cell_volume   449.32778498
_cell_formula_units_Z   1
loop_
 _symmetry_equiv_pos_site_id
 _symmetry_equiv_pos_as_xyz
  1  'x, y, z'
loop_
 _atom_site_type_symbol
 _atom_site_label
 _atom_site_symmetry_multiplicity
 _atom_site_fract_x
 _atom_site_fract_y
 _atom_site_fract_z
 _atom_site_occupancy
  Tb  Tb0  1  0.816938  0.290327  0.107064  1
  Tb  Tb1  1  0.688963  0.378714  0.690850  1
  Tb  Tb2  1  0.311500  0.620850  0.309299  1
  Tb  Tb3  1  0.688761  0.998094  0.309960  1
  Tb  Tb4  1  0.311774  0.002181  0.690830  1
  Tb  Tb5  1  0.600995  0.794894  0.806270  1
  Tb  Tb6  1  0.399896  0.205705  0.194009  1
  Tb  Tb7  1  0.988540  0.794051  0.194305  1
  Dy  Dy8  1  0.011384  0.205296  0.806229  1
  Y  Y9  1  0.815871  0.710517  0.526169  1
  Y  Y10  1  0.184341  0.289660  0.474222  1
  Y  Y11  1  0.183786  0.709434  0.893440  1
  Co  Co12  1  0.623719  0.999698  0.622932  1
  Co  Co13  1  0.376400  0.000219  0.376786  1
  Co  Co14  1  0.109473  0.610520  0.498507  1
  Co  Co15  1  0.887978  0.388844  0.498690  1
  Co  Co16  1  0.000346  0.000979  0.000734  1
  Bi  Bi17  1  0.499336  0.500019  0.999703  1
