# generated using pymatgen
data_ErTm5(Zn3C)2
_symmetry_space_group_name_H-M   'P 1'
_cell_length_a   9.04675469
_cell_length_b   9.05019266
_cell_length_c   9.04605424
_cell_angle_alpha   59.98877341
_cell_angle_beta   59.99743087
_cell_angle_gamma   60.01256395
_symmetry_Int_Tables_number   1
_chemical_formula_structural   ErTm5(Zn3C)2
_chemical_formula_sum   'Er2 Tm10 Zn12 C4'
_cell_volume   523.70985577
_cell_formula_units_Z   2
loop_
 _symmetry_equiv_pos_site_id
 _symmetry_equiv_pos_as_xyz
  1  'x, y, z'
loop_
 _atom_site_type_symbol
 _atom_site_label
 _atom_site_symmetry_multiplicity
 _atom_site_fract_x
 _atom_site_fract_y
 _atom_site_fract_z
 _atom_site_occupancy
  Er  Er0  1  0.446867  0.446881  0.053171  1
  Er  Er1  1  0.053081  0.446881  0.053171  1
  Tm  Tm2  1  0.446745  0.053160  0.053350  1
  Tm  Tm3  1  0.053338  0.053234  0.446718  1
  Tm  Tm4  1  0.446710  0.053234  0.446718  1
  Tm  Tm5  1  0.053254  0.446735  0.446756  1
  Tm  Tm6  1  0.803198  0.803364  0.196763  1
  Tm  Tm7  1  0.196676  0.803364  0.196763  1
  Tm  Tm8  1  0.803373  0.196543  0.196710  1
  Tm  Tm9  1  0.196687  0.196606  0.803269  1
  Tm  Tm10  1  0.803438  0.196606  0.803269  1
  Tm  Tm11  1  0.196628  0.803532  0.803211  1
  Zn  Zn12  1  0.827313  0.827275  0.518099  1
  Zn  Zn13  1  0.827317  0.518147  0.827220  1
  Zn  Zn14  1  0.518127  0.827346  0.827287  1
  Zn  Zn15  1  0.827241  0.827346  0.827287  1
  Zn  Zn16  1  0.422794  0.422720  0.731690  1
  Zn  Zn17  1  0.422706  0.731888  0.422699  1
  Zn  Zn18  1  0.731787  0.422720  0.422779  1
  Zn  Zn19  1  0.422714  0.422720  0.422779  1
  Zn  Zn20  1  0.624941  0.625098  0.125019  1
  Zn  Zn21  1  0.625013  0.124978  0.624997  1
  Zn  Zn22  1  0.125000  0.625070  0.624883  1
  Zn  Zn23  1  0.625047  0.625070  0.624883  1
  C  C24  1  0.124992  0.124991  0.625024  1
  C  C25  1  0.124616  0.625522  0.125247  1
  C  C26  1  0.625276  0.124485  0.125120  1
  C  C27  1  0.125120  0.124485  0.125120  1
