# generated using pymatgen
data_Nd4B4Ir9Rh
_symmetry_space_group_name_H-M   'P 1'
_cell_length_a   5.54028000
_cell_length_b   5.54532791
_cell_length_c   21.30703900
_cell_angle_alpha   90.00000000
_cell_angle_beta   90.00000000
_cell_angle_gamma   119.96974029
_symmetry_Int_Tables_number   1
_chemical_formula_structural   Nd4B4Ir9Rh
_chemical_formula_sum   'Nd8 B8 Ir18 Rh2'
_cell_volume   567.08090254
_cell_formula_units_Z   2
loop_
 _symmetry_equiv_pos_site_id
 _symmetry_equiv_pos_as_xyz
  1  'x, y, z'
loop_
 _atom_site_type_symbol
 _atom_site_label
 _atom_site_symmetry_multiplicity
 _atom_site_fract_x
 _atom_site_fract_y
 _atom_site_fract_z
 _atom_site_occupancy
  Nd  Nd0  1  0.666721  0.333437  0.522370  1
  Nd  Nd1  1  0.333174  0.666332  0.477804  1
  Nd  Nd2  1  0.333174  0.666332  0.022196  1
  Nd  Nd3  1  0.666721  0.333437  0.977630  1
  Nd  Nd4  1  0.666619  0.333299  0.675104  1
  Nd  Nd5  1  0.333205  0.666366  0.325084  1
  Nd  Nd6  1  0.333205  0.666366  0.174916  1
  Nd  Nd7  1  0.666619  0.333299  0.824896  1
  B  B8  1  0.000163  0.000405  0.678077  1
  B  B9  1  0.998740  0.997392  0.322342  1
  B  B10  1  0.998740  0.997392  0.177658  1
  B  B11  1  0.000163  0.000405  0.821923  1
  B  B12  1  0.668167  0.336257  0.325804  1
  B  B13  1  0.333249  0.666575  0.674512  1
  B  B14  1  0.333249  0.666575  0.825488  1
  B  B15  1  0.668167  0.336257  0.174196  1
  Ir  Ir16  1  0.999606  0.999211  0.499735  1
  Ir  Ir17  1  0.999606  0.999211  0.000265  1
  Ir  Ir18  1  0.167675  0.335415  0.750000  1
  Ir  Ir19  1  0.167657  0.832343  0.750000  1
  Ir  Ir20  1  0.664619  0.832340  0.750000  1
  Ir  Ir21  1  0.832221  0.664365  0.250000  1
  Ir  Ir22  1  0.162795  0.325662  0.607616  1
  Ir  Ir23  1  0.162571  0.837367  0.607734  1
  Ir  Ir24  1  0.674714  0.837361  0.607728  1
  Ir  Ir25  1  0.837398  0.674722  0.392254  1
  Ir  Ir26  1  0.836872  0.162945  0.391594  1
  Ir  Ir27  1  0.326156  0.162946  0.391598  1
  Ir  Ir28  1  0.837398  0.674722  0.107746  1
  Ir  Ir29  1  0.836872  0.162945  0.108406  1
  Ir  Ir30  1  0.326156  0.162946  0.108402  1
  Ir  Ir31  1  0.162795  0.325662  0.892384  1
  Ir  Ir32  1  0.162571  0.837367  0.892266  1
  Ir  Ir33  1  0.674714  0.837361  0.892272  1
  Rh  Rh34  1  0.832345  0.167497  0.250000  1
  Rh  Rh35  1  0.335183  0.167486  0.250000  1
