# generated using pymatgen
data_TaNb4Ga(B2Ru5)2
_symmetry_space_group_name_H-M   'P 1'
_cell_length_a   9.40151000
_cell_length_b   9.40151000
_cell_length_c   3.01839300
_cell_angle_alpha   90.00000000
_cell_angle_beta   90.00000000
_cell_angle_gamma   90.00000000
_symmetry_Int_Tables_number   1
_chemical_formula_structural   TaNb4Ga(B2Ru5)2
_chemical_formula_sum   'Ta1 Nb4 Ga1 B4 Ru10'
_cell_volume   266.79089850
_cell_formula_units_Z   1
loop_
 _symmetry_equiv_pos_site_id
 _symmetry_equiv_pos_as_xyz
  1  'x, y, z'
loop_
 _atom_site_type_symbol
 _atom_site_label
 _atom_site_symmetry_multiplicity
 _atom_site_fract_x
 _atom_site_fract_y
 _atom_site_fract_z
 _atom_site_occupancy
  Ta  Ta0  1  0.000000  0.000000  0.000000  1
  Nb  Nb1  1  0.820358  0.674999  0.000000  1
  Nb  Nb2  1  0.179642  0.325001  0.000000  1
  Nb  Nb3  1  0.325001  0.820358  0.000000  1
  Nb  Nb4  1  0.674999  0.179642  0.000000  1
  Ga  Ga5  1  0.500000  0.500000  0.000000  1
  B  B6  1  0.616375  0.870788  0.000000  1
  B  B7  1  0.383625  0.129212  0.000000  1
  B  B8  1  0.129212  0.616375  0.000000  1
  B  B9  1  0.870788  0.383625  0.000000  1
  Ru  Ru10  1  0.569021  0.715533  0.500000  1
  Ru  Ru11  1  0.430979  0.284467  0.500000  1
  Ru  Ru12  1  0.071137  0.780367  0.500000  1
  Ru  Ru13  1  0.928863  0.219633  0.500000  1
  Ru  Ru14  1  0.284467  0.569021  0.500000  1
  Ru  Ru15  1  0.715533  0.430979  0.500000  1
  Ru  Ru16  1  0.219633  0.071137  0.500000  1
  Ru  Ru17  1  0.780367  0.928863  0.500000  1
  Ru  Ru18  1  0.500000  0.000000  0.500000  1
  Ru  Ru19  1  0.000000  0.500000  0.500000  1
