# generated using pymatgen
data_Tb12DyHo3(CdCo)4
_symmetry_space_group_name_H-M   'P 1'
_cell_length_a   9.53242627
_cell_length_b   9.52330468
_cell_length_c   9.52656100
_cell_angle_alpha   59.98869180
_cell_angle_beta   60.02035522
_cell_angle_gamma   59.99284150
_symmetry_Int_Tables_number   1
_chemical_formula_structural   Tb12DyHo3(CdCo)4
_chemical_formula_sum   'Tb12 Dy1 Ho3 Cd4 Co4'
_cell_volume   611.53090273
_cell_formula_units_Z   1
loop_
 _symmetry_equiv_pos_site_id
 _symmetry_equiv_pos_as_xyz
  1  'x, y, z'
loop_
 _atom_site_type_symbol
 _atom_site_label
 _atom_site_symmetry_multiplicity
 _atom_site_fract_x
 _atom_site_fract_y
 _atom_site_fract_z
 _atom_site_occupancy
  Tb  Tb0  1  0.938868  0.560618  0.562052  1
  Tb  Tb1  1  0.540020  0.153306  0.153337  1
  Tb  Tb2  1  0.152553  0.154115  0.538451  1
  Tb  Tb3  1  0.937579  0.938135  0.562143  1
  Tb  Tb4  1  0.313287  0.687790  0.310602  1
  Tb  Tb5  1  0.561074  0.939119  0.938140  1
  Tb  Tb6  1  0.561074  0.939119  0.561665  1
  Tb  Tb7  1  0.689187  0.687191  0.311810  1
  Tb  Tb8  1  0.561429  0.560429  0.939071  1
  Tb  Tb9  1  0.938868  0.560618  0.938462  1
  Tb  Tb10  1  0.313287  0.687790  0.688321  1
  Tb  Tb11  1  0.152553  0.154115  0.154881  1
  Dy  Dy12  1  0.313029  0.311856  0.687557  1
  Ho  Ho13  1  0.152623  0.538927  0.154225  1
  Ho  Ho14  1  0.688726  0.312463  0.687264  1
  Ho  Ho15  1  0.688726  0.312463  0.311547  1
  Cd  Cd16  1  0.919663  0.241944  0.919197  1
  Cd  Cd17  1  0.919935  0.919993  0.919386  1
  Cd  Cd18  1  0.919935  0.919993  0.240685  1
  Cd  Cd19  1  0.242245  0.919445  0.919155  1
  Co  Co20  1  0.357864  0.359633  0.922901  1
  Co  Co21  1  0.358078  0.922073  0.359925  1
  Co  Co22  1  0.921535  0.359229  0.359619  1
  Co  Co23  1  0.357864  0.359633  0.359604  1
