# generated using pymatgen
data_Zr2Tc3Ni
_symmetry_space_group_name_H-M   'P 1'
_cell_length_a   5.13584000
_cell_length_b   5.13584094
_cell_length_c   8.71227100
_cell_angle_alpha   90.00000000
_cell_angle_beta   90.00000000
_cell_angle_gamma   119.99999392
_symmetry_Int_Tables_number   1
_chemical_formula_structural   Zr2Tc3Ni
_chemical_formula_sum   'Zr4 Tc6 Ni2'
_cell_volume   199.01466731
_cell_formula_units_Z   2
loop_
 _symmetry_equiv_pos_site_id
 _symmetry_equiv_pos_as_xyz
  1  'x, y, z'
loop_
 _atom_site_type_symbol
 _atom_site_label
 _atom_site_symmetry_multiplicity
 _atom_site_fract_x
 _atom_site_fract_y
 _atom_site_fract_z
 _atom_site_occupancy
  Zr  Zr0  1  0.333333  0.666667  0.431475  1
  Zr  Zr1  1  0.666667  0.333333  0.568525  1
  Zr  Zr2  1  0.666667  0.333333  0.931475  1
  Zr  Zr3  1  0.333333  0.666667  0.068525  1
  Tc  Tc4  1  0.831881  0.168119  0.250000  1
  Tc  Tc5  1  0.831881  0.663761  0.250000  1
  Tc  Tc6  1  0.336239  0.168119  0.250000  1
  Tc  Tc7  1  0.168119  0.831881  0.750000  1
  Tc  Tc8  1  0.168119  0.336239  0.750000  1
  Tc  Tc9  1  0.663761  0.831881  0.750000  1
  Ni  Ni10  1  0.000000  0.000000  0.500000  1
  Ni  Ni11  1  0.000000  0.000000  0.000000  1
