# generated using pymatgen
data_ErSc2Ni8Ir
_symmetry_space_group_name_H-M   'P 1'
_cell_length_a   8.61063989
_cell_length_b   8.61063988
_cell_length_c   8.61064040
_cell_angle_alpha   32.65739622
_cell_angle_beta   32.65739295
_cell_angle_gamma   32.65739714
_symmetry_Int_Tables_number   1
_chemical_formula_structural   ErSc2Ni8Ir
_chemical_formula_sum   'Er1 Sc2 Ni8 Ir1'
_cell_volume   165.34137225
_cell_formula_units_Z   1
loop_
 _symmetry_equiv_pos_site_id
 _symmetry_equiv_pos_as_xyz
  1  'x, y, z'
loop_
 _atom_site_type_symbol
 _atom_site_label
 _atom_site_symmetry_multiplicity
 _atom_site_fract_x
 _atom_site_fract_y
 _atom_site_fract_z
 _atom_site_occupancy
  Er  Er0  1  0.000000  0.000000  0.000000  1
  Sc  Sc1  1  0.859861  0.859861  0.859861  1
  Sc  Sc2  1  0.140139  0.140139  0.140139  1
  Ni  Ni3  1  0.666497  0.666497  0.666497  1
  Ni  Ni4  1  0.333503  0.333503  0.333503  1
  Ni  Ni5  1  0.416377  0.922059  0.416377  1
  Ni  Ni6  1  0.416377  0.416377  0.922059  1
  Ni  Ni7  1  0.922059  0.416377  0.416377  1
  Ni  Ni8  1  0.583623  0.077941  0.583623  1
  Ni  Ni9  1  0.583623  0.583623  0.077941  1
  Ni  Ni10  1  0.077941  0.583623  0.583623  1
  Ir  Ir11  1  0.500000  0.500000  0.500000  1
