# generated using pymatgen
data_Li2Ca2DyAlGe3
_symmetry_space_group_name_H-M   'P 1'
_cell_length_a   7.14136232
_cell_length_b   7.21507769
_cell_length_c   4.31466600
_cell_angle_alpha   90.00000000
_cell_angle_beta   90.00000000
_cell_angle_gamma   120.68151839
_symmetry_Int_Tables_number   1
_chemical_formula_structural   Li2Ca2DyAlGe3
_chemical_formula_sum   'Li2 Ca2 Dy1 Al1 Ge3'
_cell_volume   191.19487755
_cell_formula_units_Z   1
loop_
 _symmetry_equiv_pos_site_id
 _symmetry_equiv_pos_as_xyz
  1  'x, y, z'
loop_
 _atom_site_type_symbol
 _atom_site_label
 _atom_site_symmetry_multiplicity
 _atom_site_fract_x
 _atom_site_fract_y
 _atom_site_fract_z
 _atom_site_occupancy
  Li  Li0  1  0.239454  0.997377  0.500000  1
  Li  Li1  1  0.996719  0.236428  0.500000  1
  Ca  Ca2  1  0.421113  0.422445  0.000000  1
  Ca  Ca3  1  0.574402  0.007613  0.000000  1
  Dy  Dy4  1  0.006677  0.580755  0.000000  1
  Al  Al5  1  0.754971  0.753554  0.500000  1
  Ge  Ge6  1  0.336065  0.668226  0.500000  1
  Ge  Ge7  1  0.682632  0.353112  0.500000  1
  Ge  Ge8  1  0.987970  0.980494  0.000000  1
