# generated using pymatgen
data_Ho6Al24Os7Au
_symmetry_space_group_name_H-M   'P 1'
_cell_length_a   8.85645819
_cell_length_b   8.85645879
_cell_length_c   9.55032574
_cell_angle_alpha   89.76503426
_cell_angle_beta   90.23496741
_cell_angle_gamma   119.93271967
_symmetry_Int_Tables_number   1
_chemical_formula_structural   Ho6Al24Os7Au
_chemical_formula_sum   'Ho6 Al24 Os7 Au1'
_cell_volume   649.16958235
_cell_formula_units_Z   1
loop_
 _symmetry_equiv_pos_site_id
 _symmetry_equiv_pos_as_xyz
  1  'x, y, z'
loop_
 _atom_site_type_symbol
 _atom_site_label
 _atom_site_symmetry_multiplicity
 _atom_site_fract_x
 _atom_site_fract_y
 _atom_site_fract_z
 _atom_site_occupancy
  Ho  Ho0  1  0.190575  0.387339  0.251456  1
  Ho  Ho1  1  0.809425  0.612661  0.748544  1
  Ho  Ho2  1  0.612661  0.809425  0.251456  1
  Ho  Ho3  1  0.387339  0.190575  0.748544  1
  Ho  Ho4  1  0.194910  0.805090  0.253112  1
  Ho  Ho5  1  0.805090  0.194910  0.746888  1
  Al  Al6  1  0.328749  0.671251  0.021164  1
  Al  Al7  1  0.671251  0.328749  0.978836  1
  Al  Al8  1  0.666340  0.333660  0.518150  1
  Al  Al9  1  0.333660  0.666340  0.481850  1
  Al  Al10  1  0.162575  0.325638  0.575655  1
  Al  Al11  1  0.837425  0.674362  0.424345  1
  Al  Al12  1  0.674362  0.837425  0.575655  1
  Al  Al13  1  0.848126  0.677715  0.079415  1
  Al  Al14  1  0.325638  0.162575  0.424345  1
  Al  Al15  1  0.151874  0.322285  0.920585  1
  Al  Al16  1  0.163200  0.836800  0.575165  1
  Al  Al17  1  0.322285  0.151874  0.079415  1
  Al  Al18  1  0.836800  0.163200  0.424835  1
  Al  Al19  1  0.677715  0.848126  0.920585  1
  Al  Al20  1  0.836894  0.163106  0.076192  1
  Al  Al21  1  0.163106  0.836894  0.923808  1
  Al  Al22  1  0.560773  0.121301  0.249368  1
  Al  Al23  1  0.439227  0.878699  0.750632  1
  Al  Al24  1  0.878699  0.439227  0.249368  1
  Al  Al25  1  0.121301  0.560773  0.750632  1
  Al  Al26  1  0.563497  0.436503  0.255619  1
  Al  Al27  1  0.436503  0.563497  0.744381  1
  Al  Al28  1  0.999432  0.000568  0.250376  1
  Al  Al29  1  0.000568  0.999432  0.749624  1
  Os  Os30  1  0.500000  0.000000  0.000000  1
  Os  Os31  1  0.000000  0.500000  0.000000  1
  Os  Os32  1  0.500000  0.000000  0.500000  1
  Os  Os33  1  0.000000  0.500000  0.500000  1
  Os  Os34  1  0.500000  0.500000  0.500000  1
  Os  Os35  1  0.000000  0.000000  0.000000  1
  Os  Os36  1  0.000000  0.000000  0.500000  1
  Au  Au37  1  0.500000  0.500000  0.000000  1
