# generated using pymatgen
data_Zr3Al2CuN
_symmetry_space_group_name_H-M   'P 1'
_cell_length_a   8.60850237
_cell_length_b   8.60995689
_cell_length_c   8.60915804
_cell_angle_alpha   59.99758094
_cell_angle_beta   60.00434966
_cell_angle_gamma   59.99346502
_symmetry_Int_Tables_number   1
_chemical_formula_structural   Zr3Al2CuN
_chemical_formula_sum   'Zr12 Al8 Cu4 N4'
_cell_volume   451.18966427
_cell_formula_units_Z   4
loop_
 _symmetry_equiv_pos_site_id
 _symmetry_equiv_pos_as_xyz
  1  'x, y, z'
loop_
 _atom_site_type_symbol
 _atom_site_label
 _atom_site_symmetry_multiplicity
 _atom_site_fract_x
 _atom_site_fract_y
 _atom_site_fract_z
 _atom_site_occupancy
  Zr  Zr0  1  0.814806  0.185189  0.185202  1
  Zr  Zr1  1  0.185099  0.814902  0.185100  1
  Zr  Zr2  1  0.814783  0.814789  0.185213  1
  Zr  Zr3  1  0.185158  0.814849  0.814834  1
  Zr  Zr4  1  0.814873  0.185127  0.814854  1
  Zr  Zr5  1  0.185198  0.185180  0.814806  1
  Zr  Zr6  1  0.435194  0.064811  0.064798  1
  Zr  Zr7  1  0.064901  0.435098  0.064900  1
  Zr  Zr8  1  0.435217  0.435211  0.064787  1
  Zr  Zr9  1  0.064842  0.435151  0.435166  1
  Zr  Zr10  1  0.435127  0.064873  0.435146  1
  Zr  Zr11  1  0.064802  0.064820  0.435194  1
  Al  Al12  1  0.419021  0.419079  0.742839  1
  Al  Al13  1  0.419017  0.419096  0.419042  1
  Al  Al14  1  0.742834  0.419073  0.419045  1
  Al  Al15  1  0.419016  0.742883  0.419044  1
  Al  Al16  1  0.830979  0.830921  0.507161  1
  Al  Al17  1  0.830983  0.830904  0.830958  1
  Al  Al18  1  0.507166  0.830927  0.830955  1
  Al  Al19  1  0.830984  0.507117  0.830956  1
  Cu  Cu20  1  0.625000  0.625000  0.125000  1
  Cu  Cu21  1  0.625000  0.625000  0.625000  1
  Cu  Cu22  1  0.125000  0.625000  0.625000  1
  Cu  Cu23  1  0.625000  0.125000  0.625000  1
  N  N24  1  0.125000  0.125000  0.625000  1
  N  N25  1  0.125000  0.125000  0.125000  1
  N  N26  1  0.625000  0.125000  0.125000  1
  N  N27  1  0.125000  0.625000  0.125000  1
