# generated using pymatgen
data_Nd12CoSiI17
_symmetry_space_group_name_H-M   'P 1'
_cell_length_a   9.97947308
_cell_length_b   11.97401713
_cell_length_c   11.88108750
_cell_angle_alpha   93.71906266
_cell_angle_beta   104.58926830
_cell_angle_gamma   114.81783127
_symmetry_Int_Tables_number   1
_chemical_formula_structural   Nd12CoSiI17
_chemical_formula_sum   'Nd12 Co1 Si1 I17'
_cell_volume   1223.31394106
_cell_formula_units_Z   1
loop_
 _symmetry_equiv_pos_site_id
 _symmetry_equiv_pos_as_xyz
  1  'x, y, z'
loop_
 _atom_site_type_symbol
 _atom_site_label
 _atom_site_symmetry_multiplicity
 _atom_site_fract_x
 _atom_site_fract_y
 _atom_site_fract_z
 _atom_site_occupancy
  Nd  Nd0  1  0.056809  0.511229  0.322991  1
  Nd  Nd1  1  0.987959  0.810589  0.578108  1
  Nd  Nd2  1  0.646983  0.240670  0.283870  1
  Nd  Nd3  1  0.009605  0.192202  0.417178  1
  Nd  Nd4  1  0.221106  0.666459  0.996539  1
  Nd  Nd5  1  0.268193  0.992208  0.898983  1
  Nd  Nd6  1  0.362820  0.760300  0.716530  1
  Nd  Nd7  1  0.939281  0.482362  0.672347  1
  Nd  Nd8  1  0.738449  0.015856  0.105289  1
  Nd  Nd9  1  0.148535  0.288493  0.148349  1
  Nd  Nd10  1  0.778057  0.329549  0.009772  1
  Nd  Nd11  1  0.844448  0.711816  0.853367  1
  Co  Co12  1  0.895946  0.262600  0.213637  1
  Si  Si13  1  0.104530  0.737440  0.785924  1
  I  I14  1  0.780840  0.529928  0.419286  1
  I  I15  1  0.639682  0.418932  0.755711  1
  I  I16  1  0.841532  0.895380  0.322762  1
  I  I17  1  0.326158  0.213134  0.368099  1
  I  I18  1  0.158552  0.103476  0.676417  1
  I  I19  1  0.584927  0.051337  0.836626  1
  I  I20  1  0.747659  0.174677  0.538298  1
  I  I21  1  0.542469  0.702406  0.954967  1
  I  I22  1  0.366758  0.581885  0.247853  1
  I  I23  1  0.220490  0.474050  0.585330  1
  I  I24  1  0.058003  0.368617  0.891484  1
  I  I25  1  0.453850  0.299831  0.046705  1
  I  I26  1  0.999636  0.998694  0.997715  1
  I  I27  1  0.248706  0.819891  0.462118  1
  I  I28  1  0.409372  0.943738  0.158279  1
  I  I29  1  0.676367  0.787092  0.630261  1
  I  I30  1  0.942277  0.635157  0.105204  1
