# generated using pymatgen
data_DyEr9(Bi2P)2
_symmetry_space_group_name_H-M   'P 1'
_cell_length_a   7.92156231
_cell_length_b   8.92210806
_cell_length_c   12.03714853
_cell_angle_alpha   89.98737679
_cell_angle_beta   89.96842420
_cell_angle_gamma   89.99549479
_symmetry_Int_Tables_number   1
_chemical_formula_structural   DyEr9(Bi2P)2
_chemical_formula_sum   'Dy2 Er18 Bi8 P4'
_cell_volume   850.74981446
_cell_formula_units_Z   2
loop_
 _symmetry_equiv_pos_site_id
 _symmetry_equiv_pos_as_xyz
  1  'x, y, z'
loop_
 _atom_site_type_symbol
 _atom_site_label
 _atom_site_symmetry_multiplicity
 _atom_site_fract_x
 _atom_site_fract_y
 _atom_site_fract_z
 _atom_site_occupancy
  Dy  Dy0  1  0.817349  0.449618  0.935501  1
  Dy  Dy1  1  0.182651  0.550382  0.064499  1
  Er  Er2  1  0.651439  0.750077  0.706299  1
  Er  Er3  1  0.348561  0.249923  0.293701  1
  Er  Er4  1  0.151555  0.249850  0.793561  1
  Er  Er5  1  0.848445  0.750150  0.206439  1
  Er  Er6  1  0.125574  0.750054  0.801358  1
  Er  Er7  1  0.874426  0.249946  0.198642  1
  Er  Er8  1  0.625509  0.249843  0.698247  1
  Er  Er9  1  0.374491  0.750157  0.301753  1
  Er  Er10  1  0.541427  0.750160  0.998217  1
  Er  Er11  1  0.458573  0.249840  0.001783  1
  Er  Er12  1  0.041332  0.249888  0.501681  1
  Er  Er13  1  0.958668  0.750112  0.498319  1
  Er  Er14  1  0.318152  0.551077  0.564370  1
  Er  Er15  1  0.182097  0.949295  0.064477  1
  Er  Er16  1  0.681848  0.448923  0.435630  1
  Er  Er17  1  0.817903  0.050705  0.935523  1
  Er  Er18  1  0.681901  0.051067  0.435547  1
  Er  Er19  1  0.318099  0.948933  0.564453  1
  Bi  Bi20  1  0.925059  0.009137  0.673454  1
  Bi  Bi21  1  0.074941  0.990863  0.326546  1
  Bi  Bi22  1  0.424991  0.990911  0.826432  1
  Bi  Bi23  1  0.074807  0.509153  0.326812  1
  Bi  Bi24  1  0.575009  0.009089  0.173568  1
  Bi  Bi25  1  0.925193  0.490847  0.673188  1
  Bi  Bi26  1  0.575207  0.490887  0.173832  1
  Bi  Bi27  1  0.424793  0.509113  0.826168  1
  P  P28  1  0.923707  0.751924  0.987773  1
  P  P29  1  0.076293  0.248076  0.012227  1
  P  P30  1  0.423714  0.250002  0.512267  1
  P  P31  1  0.576286  0.749998  0.487733  1
