# generated using pymatgen
data_TiTc(S2O7)4
_symmetry_space_group_name_H-M   'P 1'
_cell_length_a   6.30497163
_cell_length_b   6.32058148
_cell_length_c   15.52088140
_cell_angle_alpha   79.88236002
_cell_angle_beta   78.44075972
_cell_angle_gamma   87.06877735
_symmetry_Int_Tables_number   1
_chemical_formula_structural   TiTc(S2O7)4
_chemical_formula_sum   'Ti1 Tc1 S8 O28'
_cell_volume   596.47418458
_cell_formula_units_Z   1
loop_
 _symmetry_equiv_pos_site_id
 _symmetry_equiv_pos_as_xyz
  1  'x, y, z'
loop_
 _atom_site_type_symbol
 _atom_site_label
 _atom_site_symmetry_multiplicity
 _atom_site_fract_x
 _atom_site_fract_y
 _atom_site_fract_z
 _atom_site_occupancy
  Ti  Ti0  1  0.121580  0.885915  0.754285  1
  Tc  Tc1  1  0.879787  0.115959  0.256318  1
  S  S2  1  0.569478  0.931509  0.814053  1
  S  S3  1  0.941304  0.565892  0.307130  1
  S  S4  1  0.241882  0.700397  0.950057  1
  S  S5  1  0.248658  0.755421  0.554697  1
  S  S6  1  0.727793  0.245378  0.455875  1
  S  S7  1  0.762686  0.270032  0.059846  1
  S  S8  1  0.228846  0.411623  0.702423  1
  S  S9  1  0.432311  0.046616  0.205966  1
  O  O10  1  0.797577  0.882286  0.774596  1
  O  O11  1  0.879328  0.787532  0.271145  1
  O  O12  1  0.438001  0.910812  0.743754  1
  O  O13  1  0.507788  0.725234  0.887696  1
  O  O14  1  0.469639  0.828164  0.195534  1
  O  O15  1  0.789064  0.181073  0.980359  1
  O  O16  1  0.479039  0.741669  0.538107  1
  O  O17  1  0.882035  0.436466  0.240832  1
  O  O18  1  0.162741  0.889910  0.628670  1
  O  O19  1  0.763625  0.509727  0.394309  1
  O  O20  1  0.116525  0.827216  0.881785  1
  O  O21  1  0.126451  0.797456  0.485915  1
  O  O22  1  0.761370  0.495219  0.060401  1
  O  O23  1  0.838992  0.238204  0.527521  1
  O  O24  1  0.457580  0.386656  0.689882  1
  O  O25  1  0.216713  0.474154  0.961026  1
  O  O26  1  0.892412  0.135411  0.124387  1
  O  O27  1  0.134957  0.567539  0.763825  1
  O  O28  1  0.152481  0.506185  0.610822  1
  O  O29  1  0.852669  0.112364  0.387931  1
  O  O30  1  0.234315  0.811239  0.022816  1
  O  O31  1  0.498575  0.228796  0.468968  1
  O  O32  1  0.531239  0.125089  0.849591  1
  O  O33  1  0.557825  0.120459  0.270051  1
  O  O34  1  0.491712  0.206255  0.115459  1
  O  O35  1  0.099367  0.212512  0.733986  1
  O  O36  1  0.155648  0.528261  0.322688  1
  O  O37  1  0.208175  0.113107  0.241406  1
