# generated using pymatgen
data_Tm20IrPt8Rh3
_symmetry_space_group_name_H-M   'P 1'
_cell_length_a   10.89463100
_cell_length_b   10.89463100
_cell_length_c   6.30325500
_cell_angle_alpha   90.00000000
_cell_angle_beta   90.00000000
_cell_angle_gamma   90.00000000
_symmetry_Int_Tables_number   1
_chemical_formula_structural   Tm20IrPt8Rh3
_chemical_formula_sum   'Tm20 Ir1 Pt8 Rh3'
_cell_volume   748.15214881
_cell_formula_units_Z   1
loop_
 _symmetry_equiv_pos_site_id
 _symmetry_equiv_pos_as_xyz
  1  'x, y, z'
loop_
 _atom_site_type_symbol
 _atom_site_label
 _atom_site_symmetry_multiplicity
 _atom_site_fract_x
 _atom_site_fract_y
 _atom_site_fract_z
 _atom_site_occupancy
  Tm  Tm0  1  0.294596  0.087202  0.374686  1
  Tm  Tm1  1  0.294695  0.912522  0.874488  1
  Tm  Tm2  1  0.705305  0.087478  0.874488  1
  Tm  Tm3  1  0.705404  0.912798  0.374686  1
  Tm  Tm4  1  0.587478  0.794695  0.874488  1
  Tm  Tm5  1  0.587202  0.205404  0.374686  1
  Tm  Tm6  1  0.412798  0.794596  0.374686  1
  Tm  Tm7  1  0.412522  0.205305  0.874488  1
  Tm  Tm8  1  0.204676  0.412913  0.624243  1
  Tm  Tm9  1  0.204963  0.587255  0.126727  1
  Tm  Tm10  1  0.795037  0.412745  0.126727  1
  Tm  Tm11  1  0.795324  0.587087  0.624243  1
  Tm  Tm12  1  0.912745  0.704963  0.126727  1
  Tm  Tm13  1  0.912913  0.295324  0.624243  1
  Tm  Tm14  1  0.087087  0.704676  0.624243  1
  Tm  Tm15  1  0.087255  0.295037  0.126727  1
  Tm  Tm16  1  0.000000  0.000000  0.500192  1
  Tm  Tm17  1  0.000000  0.000000  0.999985  1
  Tm  Tm18  1  0.500000  0.500000  0.999985  1
  Tm  Tm19  1  0.500000  0.500000  0.500192  1
  Ir  Ir20  1  0.000000  0.500000  0.379761  1
  Pt  Pt21  1  0.845197  0.153730  0.249663  1
  Pt  Pt22  1  0.845481  0.845898  0.749928  1
  Pt  Pt23  1  0.154519  0.154102  0.749928  1
  Pt  Pt24  1  0.154803  0.846270  0.249663  1
  Pt  Pt25  1  0.654102  0.345481  0.749928  1
  Pt  Pt26  1  0.653730  0.654803  0.249663  1
  Pt  Pt27  1  0.346270  0.345197  0.249663  1
  Pt  Pt28  1  0.345898  0.654519  0.749928  1
  Rh  Rh29  1  0.500000  0.000000  0.120239  1
  Rh  Rh30  1  0.500000  0.000000  0.620154  1
  Rh  Rh31  1  0.000000  0.500000  0.880552  1
