# generated using pymatgen
data_ErPaInPd2
_symmetry_space_group_name_H-M   'P 1'
_cell_length_a   7.88246900
_cell_length_b   7.73845500
_cell_length_c   3.63649100
_cell_angle_alpha   90.00000000
_cell_angle_beta   90.00000000
_cell_angle_gamma   90.00000000
_symmetry_Int_Tables_number   1
_chemical_formula_structural   ErPaInPd2
_chemical_formula_sum   'Er2 Pa2 In2 Pd4'
_cell_volume   221.81915675
_cell_formula_units_Z   2
loop_
 _symmetry_equiv_pos_site_id
 _symmetry_equiv_pos_as_xyz
  1  'x, y, z'
loop_
 _atom_site_type_symbol
 _atom_site_label
 _atom_site_symmetry_multiplicity
 _atom_site_fract_x
 _atom_site_fract_y
 _atom_site_fract_z
 _atom_site_occupancy
  Er  Er0  1  0.172939  0.325267  0.500000  1
  Er  Er1  1  0.672939  0.174733  0.500000  1
  Pa  Pa2  1  0.329217  0.832933  0.500000  1
  Pa  Pa3  1  0.829217  0.667067  0.500000  1
  In  In4  1  0.996685  0.007284  0.000000  1
  In  In5  1  0.496685  0.492716  0.000000  1
  Pd  Pd6  1  0.371765  0.115806  0.000000  1
  Pd  Pd7  1  0.871765  0.384194  0.000000  1
  Pd  Pd8  1  0.129394  0.641908  0.000000  1
  Pd  Pd9  1  0.629394  0.858092  0.000000  1
