# generated using pymatgen
data_Hf18MnCoRe8
_symmetry_space_group_name_H-M   'P 1'
_cell_length_a   8.58037300
_cell_length_b   8.58037139
_cell_length_c   8.49496500
_cell_angle_alpha   90.00000000
_cell_angle_beta   90.00000000
_cell_angle_gamma   119.99999464
_symmetry_Int_Tables_number   1
_chemical_formula_structural   Hf18MnCoRe8
_chemical_formula_sum   'Hf18 Mn1 Co1 Re8'
_cell_volume   541.63223441
_cell_formula_units_Z   1
loop_
 _symmetry_equiv_pos_site_id
 _symmetry_equiv_pos_as_xyz
  1  'x, y, z'
loop_
 _atom_site_type_symbol
 _atom_site_label
 _atom_site_symmetry_multiplicity
 _atom_site_fract_x
 _atom_site_fract_y
 _atom_site_fract_z
 _atom_site_occupancy
  Hf  Hf0  1  0.200114  0.799886  0.442363  1
  Hf  Hf1  1  0.200114  0.400230  0.442363  1
  Hf  Hf2  1  0.599770  0.799886  0.442363  1
  Hf  Hf3  1  0.800994  0.199006  0.558803  1
  Hf  Hf4  1  0.800994  0.601986  0.558803  1
  Hf  Hf5  1  0.398014  0.199006  0.558803  1
  Hf  Hf6  1  0.800994  0.199006  0.941197  1
  Hf  Hf7  1  0.800994  0.601986  0.941197  1
  Hf  Hf8  1  0.398014  0.199006  0.941197  1
  Hf  Hf9  1  0.200114  0.799886  0.057637  1
  Hf  Hf10  1  0.200114  0.400230  0.057637  1
  Hf  Hf11  1  0.599770  0.799886  0.057637  1
  Hf  Hf12  1  0.539780  0.460220  0.250000  1
  Hf  Hf13  1  0.539780  0.079561  0.250000  1
  Hf  Hf14  1  0.920439  0.460220  0.250000  1
  Hf  Hf15  1  0.459231  0.540769  0.750000  1
  Hf  Hf16  1  0.459231  0.918461  0.750000  1
  Hf  Hf17  1  0.081539  0.540769  0.750000  1
  Mn  Mn18  1  0.333333  0.666667  0.250000  1
  Co  Co19  1  0.666667  0.333333  0.750000  1
  Re  Re20  1  0.889097  0.110903  0.250000  1
  Re  Re21  1  0.889097  0.778195  0.250000  1
  Re  Re22  1  0.221805  0.110903  0.250000  1
  Re  Re23  1  0.110828  0.889172  0.750000  1
  Re  Re24  1  0.110828  0.221655  0.750000  1
  Re  Re25  1  0.778345  0.889172  0.750000  1
  Re  Re26  1  0.000000  0.000000  0.498938  1
  Re  Re27  1  0.000000  0.000000  0.001062  1
