# generated using pymatgen
data_Cs4Yb(VSe4)2
_symmetry_space_group_name_H-M   'P 1'
_cell_length_a   10.02490844
_cell_length_b   10.09665744
_cell_length_c   12.05271804
_cell_angle_alpha   104.96561639
_cell_angle_beta   103.78341117
_cell_angle_gamma   93.18998600
_symmetry_Int_Tables_number   1
_chemical_formula_structural   Cs4Yb(VSe4)2
_chemical_formula_sum   'Cs8 Yb2 V4 Se16'
_cell_volume   1135.67334755
_cell_formula_units_Z   2
loop_
 _symmetry_equiv_pos_site_id
 _symmetry_equiv_pos_as_xyz
  1  'x, y, z'
loop_
 _atom_site_type_symbol
 _atom_site_label
 _atom_site_symmetry_multiplicity
 _atom_site_fract_x
 _atom_site_fract_y
 _atom_site_fract_z
 _atom_site_occupancy
  Cs  Cs0  1  0.938866  0.522147  0.252215  1
  Cs  Cs1  1  0.061134  0.477853  0.747785  1
  Cs  Cs2  1  0.761666  0.989154  0.466287  1
  Cs  Cs3  1  0.238334  0.010846  0.533713  1
  Cs  Cs4  1  0.601432  0.744687  0.019002  1
  Cs  Cs5  1  0.398568  0.255313  0.980998  1
  Cs  Cs6  1  0.617369  0.678581  0.615015  1
  Cs  Cs7  1  0.382631  0.321419  0.384985  1
  Yb  Yb8  1  0.853553  0.133499  0.923784  1
  Yb  Yb9  1  0.146447  0.866501  0.076216  1
  V  V10  1  0.952917  0.110200  0.226581  1
  V  V11  1  0.047083  0.889800  0.773419  1
  V  V12  1  0.370188  0.690220  0.256368  1
  V  V13  1  0.629812  0.309780  0.743632  1
  Se  Se14  1  0.959998  0.884771  0.232316  1
  Se  Se15  1  0.040002  0.115229  0.767684  1
  Se  Se16  1  0.592118  0.077295  0.733803  1
  Se  Se17  1  0.407882  0.922705  0.266197  1
  Se  Se18  1  0.288328  0.666565  0.411856  1
  Se  Se19  1  0.711672  0.333435  0.588144  1
  Se  Se20  1  0.793211  0.415775  0.920087  1
  Se  Se21  1  0.206789  0.584225  0.079913  1
  Se  Se22  1  0.014254  0.251502  0.413831  1
  Se  Se23  1  0.985746  0.748498  0.586169  1
  Se  Se24  1  0.107730  0.165300  0.124282  1
  Se  Se25  1  0.892270  0.834700  0.875718  1
  Se  Se26  1  0.735249  0.136394  0.126270  1
  Se  Se27  1  0.264751  0.863606  0.873730  1
  Se  Se28  1  0.569513  0.589214  0.265373  1
  Se  Se29  1  0.430487  0.410786  0.734627  1
