# generated using pymatgen
data_YbPb(S2O7)2
_symmetry_space_group_name_H-M   'P 1'
_cell_length_a   5.51582727
_cell_length_b   7.36036077
_cell_length_c   9.53127622
_cell_angle_alpha   93.00899426
_cell_angle_beta   96.30876295
_cell_angle_gamma   108.77268640
_symmetry_Int_Tables_number   1
_chemical_formula_structural   YbPb(S2O7)2
_chemical_formula_sum   'Yb1 Pb1 S4 O14'
_cell_volume   362.56131495
_cell_formula_units_Z   1
loop_
 _symmetry_equiv_pos_site_id
 _symmetry_equiv_pos_as_xyz
  1  'x, y, z'
loop_
 _atom_site_type_symbol
 _atom_site_label
 _atom_site_symmetry_multiplicity
 _atom_site_fract_x
 _atom_site_fract_y
 _atom_site_fract_z
 _atom_site_occupancy
  Yb  Yb0  1  0.500000  0.000000  0.500000  1
  Pb  Pb1  1  0.000000  0.500000  0.000000  1
  S  S2  1  0.502149  0.645882  0.757805  1
  S  S3  1  0.497851  0.354118  0.242195  1
  S  S4  1  0.143796  0.250334  0.682743  1
  S  S5  1  0.856204  0.749666  0.317257  1
  O  O6  1  0.707191  0.565833  0.797866  1
  O  O7  1  0.292809  0.434167  0.202134  1
  O  O8  1  0.376713  0.690016  0.876175  1
  O  O9  1  0.623287  0.309984  0.123825  1
  O  O10  1  0.571470  0.799159  0.664642  1
  O  O11  1  0.428530  0.200841  0.335358  1
  O  O12  1  0.277113  0.477514  0.648317  1
  O  O13  1  0.722887  0.522486  0.351683  1
  O  O14  1  0.921661  0.190904  0.573033  1
  O  O15  1  0.078339  0.809096  0.426967  1
  O  O16  1  0.335295  0.156789  0.664395  1
  O  O17  1  0.664705  0.843211  0.335605  1
  O  O18  1  0.080837  0.255015  0.827567  1
  O  O19  1  0.919163  0.744985  0.172433  1
