# generated using pymatgen
data_Zr10Sn6Bi
_symmetry_space_group_name_H-M   'P 1'
_cell_length_a   5.98511105
_cell_length_b   8.71635592
_cell_length_c   8.71638604
_cell_angle_alpha   119.99989636
_cell_angle_beta   89.99856060
_cell_angle_gamma   90.00287282
_symmetry_Int_Tables_number   1
_chemical_formula_structural   Zr10Sn6Bi
_chemical_formula_sum   'Zr10 Sn6 Bi1'
_cell_volume   393.79909078
_cell_formula_units_Z   1
loop_
 _symmetry_equiv_pos_site_id
 _symmetry_equiv_pos_as_xyz
  1  'x, y, z'
loop_
 _atom_site_type_symbol
 _atom_site_label
 _atom_site_symmetry_multiplicity
 _atom_site_fract_x
 _atom_site_fract_y
 _atom_site_fract_z
 _atom_site_occupancy
  Zr  Zr0  1  0.499998  0.333336  0.666683  1
  Zr  Zr1  1  0.499998  0.666653  0.333317  1
  Zr  Zr2  1  0.999999  0.666665  0.333321  1
  Zr  Zr3  1  0.999999  0.333344  0.666679  1
  Zr  Zr4  1  0.775940  0.270093  0.000000  1
  Zr  Zr5  1  0.775933  0.729924  0.729942  1
  Zr  Zr6  1  0.775933  0.999980  0.270058  1
  Zr  Zr7  1  0.224055  0.729904  0.000000  1
  Zr  Zr8  1  0.224071  0.270077  0.270052  1
  Zr  Zr9  1  0.224071  0.000026  0.729948  1
  Sn  Sn10  1  0.741839  0.612644  0.000000  1
  Sn  Sn11  1  0.741868  0.387352  0.387349  1
  Sn  Sn12  1  0.741868  0.000003  0.612651  1
  Sn  Sn13  1  0.258166  0.387366  0.000000  1
  Sn  Sn14  1  0.258129  0.612651  0.612660  1
  Sn  Sn15  1  0.258129  0.999991  0.387340  1
  Bi  Bi16  1  0.500002  0.999992  0.000000  1
