# generated using pymatgen
data_U7(PaSe5)4
_symmetry_space_group_name_H-M   'P 1'
_cell_length_a   10.77971957
_cell_length_b   10.76376283
_cell_length_c   6.72911260
_cell_angle_alpha   89.98091409
_cell_angle_beta   89.88356547
_cell_angle_gamma   89.83720165
_symmetry_Int_Tables_number   1
_chemical_formula_structural   U7(PaSe5)4
_chemical_formula_sum   'U7 Pa4 Se20'
_cell_volume   780.77644947
_cell_formula_units_Z   1
loop_
 _symmetry_equiv_pos_site_id
 _symmetry_equiv_pos_as_xyz
  1  'x, y, z'
loop_
 _atom_site_type_symbol
 _atom_site_label
 _atom_site_symmetry_multiplicity
 _atom_site_fract_x
 _atom_site_fract_y
 _atom_site_fract_z
 _atom_site_occupancy
  U  U0  1  0.161903  0.348177  0.250785  1
  U  U1  1  0.652550  0.843754  0.749834  1
  U  U2  1  0.649857  0.158475  0.250187  1
  U  U3  1  0.348078  0.842875  0.248290  1
  U  U4  1  0.347481  0.155914  0.751605  1
  U  U5  1  0.999713  0.999365  0.859451  1
  U  U6  1  0.999801  0.000513  0.358899  1
  Pa  Pa7  1  0.839389  0.653459  0.250753  1
  Pa  Pa8  1  0.843083  0.343530  0.752099  1
  Pa  Pa9  1  0.157090  0.656120  0.751547  1
  Pa  Pa10  1  0.500800  0.499304  0.638592  1
  Se  Se11  1  0.290474  0.590437  0.393997  1
  Se  Se12  1  0.289194  0.415195  0.873757  1
  Se  Se13  1  0.710598  0.585852  0.880524  1
  Se  Se14  1  0.711843  0.412242  0.391614  1
  Se  Se15  1  0.588111  0.291729  0.876112  1
  Se  Se16  1  0.590460  0.706663  0.385825  1
  Se  Se17  1  0.413668  0.293058  0.388417  1
  Se  Se18  1  0.412061  0.708912  0.874974  1
  Se  Se19  1  0.208061  0.911752  0.616284  1
  Se  Se20  1  0.208669  0.086864  0.115660  1
  Se  Se21  1  0.790823  0.909887  0.118280  1
  Se  Se22  1  0.791227  0.088354  0.616258  1
  Se  Se23  1  0.910446  0.209101  0.114905  1
  Se  Se24  1  0.912942  0.789906  0.614903  1
  Se  Se25  1  0.086341  0.208201  0.617206  1
  Se  Se26  1  0.087365  0.788848  0.117660  1
  Se  Se27  1  0.998834  0.501136  0.502795  1
  Se  Se28  1  0.998803  0.500877  0.000903  1
  Se  Se29  1  0.501017  0.000499  0.001395  1
  Se  Se30  1  0.499317  0.999001  0.500492  1
