# generated using pymatgen
data_Gd2HoAl3Si2Pt
_symmetry_space_group_name_H-M   'P 1'
_cell_length_a   6.95413174
_cell_length_b   6.95453825
_cell_length_c   4.22300200
_cell_angle_alpha   90.00000000
_cell_angle_beta   90.00000000
_cell_angle_gamma   120.00191970
_symmetry_Int_Tables_number   1
_chemical_formula_structural   Gd2HoAl3Si2Pt
_chemical_formula_sum   'Gd2 Ho1 Al3 Si2 Pt1'
_cell_volume   176.87022617
_cell_formula_units_Z   1
loop_
 _symmetry_equiv_pos_site_id
 _symmetry_equiv_pos_as_xyz
  1  'x, y, z'
loop_
 _atom_site_type_symbol
 _atom_site_label
 _atom_site_symmetry_multiplicity
 _atom_site_fract_x
 _atom_site_fract_y
 _atom_site_fract_z
 _atom_site_occupancy
  Gd  Gd0  1  0.582741  0.000396  0.000000  1
  Gd  Gd1  1  0.417259  0.417653  0.000000  1
  Ho  Ho2  1  0.000000  0.584140  0.000000  1
  Al  Al3  1  0.236164  0.999274  0.499999  1
  Al  Al4  1  0.000000  0.237363  0.499999  1
  Al  Al5  1  0.763836  0.763110  0.499999  1
  Si  Si6  1  0.669821  0.335688  0.499999  1
  Si  Si7  1  0.330178  0.665868  0.499999  1
  Pt  Pt8  1  0.000000  0.996508  0.000000  1
