# generated using pymatgen
data_Nb4Al5VCo2
_symmetry_space_group_name_H-M   'P 1'
_cell_length_a   5.15699800
_cell_length_b   5.15397216
_cell_length_c   7.79807300
_cell_angle_alpha   90.00000000
_cell_angle_beta   90.00000000
_cell_angle_gamma   120.01942261
_symmetry_Int_Tables_number   1
_chemical_formula_structural   Nb4Al5VCo2
_chemical_formula_sum   'Nb4 Al5 V1 Co2'
_cell_volume   179.46176246
_cell_formula_units_Z   1
loop_
 _symmetry_equiv_pos_site_id
 _symmetry_equiv_pos_as_xyz
  1  'x, y, z'
loop_
 _atom_site_type_symbol
 _atom_site_label
 _atom_site_symmetry_multiplicity
 _atom_site_fract_x
 _atom_site_fract_y
 _atom_site_fract_z
 _atom_site_occupancy
  Nb  Nb0  1  0.668601  0.337199  0.072609  1
  Nb  Nb1  1  0.668601  0.337199  0.427390  1
  Nb  Nb2  1  0.333637  0.667275  0.563144  1
  Nb  Nb3  1  0.333637  0.667275  0.936856  1
  Al  Al4  1  0.164768  0.824337  0.250000  1
  Al  Al5  1  0.659569  0.824337  0.250000  1
  Al  Al6  1  0.333866  0.167997  0.750000  1
  Al  Al7  1  0.834131  0.167997  0.750000  1
  Al  Al8  1  0.833089  0.666177  0.750000  1
  V  V9  1  0.162445  0.324891  0.250000  1
  Co  Co10  1  0.003828  0.007656  0.003711  1
  Co  Co11  1  0.003828  0.007656  0.496288  1
