# generated using pymatgen
data_Sr4Ce4Ni3Bi4
_symmetry_space_group_name_H-M   'P 1'
_cell_length_a   4.83692800
_cell_length_b   4.80627200
_cell_length_c   19.30779300
_cell_angle_alpha   90.00000000
_cell_angle_beta   90.00000000
_cell_angle_gamma   90.00000000
_symmetry_Int_Tables_number   1
_chemical_formula_structural   Sr4Ce4Ni3Bi4
_chemical_formula_sum   'Sr4 Ce4 Ni3 Bi4'
_cell_volume   448.85968660
_cell_formula_units_Z   1
loop_
 _symmetry_equiv_pos_site_id
 _symmetry_equiv_pos_as_xyz
  1  'x, y, z'
loop_
 _atom_site_type_symbol
 _atom_site_label
 _atom_site_symmetry_multiplicity
 _atom_site_fract_x
 _atom_site_fract_y
 _atom_site_fract_z
 _atom_site_occupancy
  Sr  Sr0  1  0.500000  0.500000  0.747384  1
  Sr  Sr1  1  0.500000  0.500000  0.238422  1
  Sr  Sr2  1  0.000000  0.000000  0.761508  1
  Sr  Sr3  1  0.500000  0.000000  0.905874  1
  Ce  Ce4  1  0.500000  0.000000  0.081294  1
  Ce  Ce5  1  0.500000  0.000000  0.582762  1
  Ce  Ce6  1  0.000000  0.500000  0.928951  1
  Ce  Ce7  1  0.000000  0.500000  0.418711  1
  Ni  Ni8  1  0.500000  0.500000  0.506078  1
  Ni  Ni9  1  0.000000  0.000000  0.994723  1
  Ni  Ni10  1  0.000000  0.000000  0.497934  1
  Bi  Bi11  1  0.000000  0.000000  0.233405  1
  Bi  Bi12  1  0.500000  0.000000  0.411324  1
  Bi  Bi13  1  0.000000  0.500000  0.093063  1
  Bi  Bi14  1  0.000000  0.500000  0.598566  1
