# generated using pymatgen
data_Nd2Er4TcSb2
_symmetry_space_group_name_H-M   'P 1'
_cell_length_a   8.21312178
_cell_length_b   8.21312109
_cell_length_c   4.30596300
_cell_angle_alpha   90.00000000
_cell_angle_beta   90.00000000
_cell_angle_gamma   119.55915475
_symmetry_Int_Tables_number   1
_chemical_formula_structural   Nd2Er4TcSb2
_chemical_formula_sum   'Nd2 Er4 Tc1 Sb2'
_cell_volume   252.65597192
_cell_formula_units_Z   1
loop_
 _symmetry_equiv_pos_site_id
 _symmetry_equiv_pos_as_xyz
  1  'x, y, z'
loop_
 _atom_site_type_symbol
 _atom_site_label
 _atom_site_symmetry_multiplicity
 _atom_site_fract_x
 _atom_site_fract_y
 _atom_site_fract_z
 _atom_site_occupancy
  Nd  Nd0  1  0.598343  0.997635  0.000000  1
  Nd  Nd1  1  0.997635  0.598343  0.000000  1
  Er  Er2  1  0.235127  0.000836  0.500000  1
  Er  Er3  1  0.000836  0.235127  0.500000  1
  Er  Er4  1  0.770291  0.770291  0.500000  1
  Er  Er5  1  0.394437  0.394437  0.000000  1
  Tc  Tc6  1  0.008916  0.008916  0.000000  1
  Sb  Sb7  1  0.334600  0.659816  0.500000  1
  Sb  Sb8  1  0.659816  0.334600  0.500000  1
