# generated using pymatgen
data_MgSc4FeCo2(BIr2)4
_symmetry_space_group_name_H-M   'P 1'
_cell_length_a   3.03427300
_cell_length_b   9.29666200
_cell_length_c   9.29666200
_cell_angle_alpha   90.00000000
_cell_angle_beta   90.00000000
_cell_angle_gamma   90.00000000
_symmetry_Int_Tables_number   1
_chemical_formula_structural   MgSc4FeCo2(BIr2)4
_chemical_formula_sum   'Mg1 Sc4 Fe1 Co2 B4 Ir8'
_cell_volume   262.24591728
_cell_formula_units_Z   1
loop_
 _symmetry_equiv_pos_site_id
 _symmetry_equiv_pos_as_xyz
  1  'x, y, z'
loop_
 _atom_site_type_symbol
 _atom_site_label
 _atom_site_symmetry_multiplicity
 _atom_site_fract_x
 _atom_site_fract_y
 _atom_site_fract_z
 _atom_site_occupancy
  Mg  Mg0  1  0.000000  0.500000  0.500000  1
  Sc  Sc1  1  0.000000  0.177301  0.673719  1
  Sc  Sc2  1  0.000000  0.822699  0.326281  1
  Sc  Sc3  1  0.000000  0.326281  0.177301  1
  Sc  Sc4  1  0.000000  0.673719  0.822699  1
  Fe  Fe5  1  0.000000  0.000000  0.000000  1
  Co  Co6  1  0.500000  0.000000  0.500000  1
  Co  Co7  1  0.500000  0.500000  0.000000  1
  B  B8  1  0.000000  0.612180  0.112850  1
  B  B9  1  0.000000  0.387820  0.887150  1
  B  B10  1  0.000000  0.887150  0.612180  1
  B  B11  1  0.000000  0.112850  0.387820  1
  Ir  Ir12  1  0.500000  0.060822  0.220343  1
  Ir  Ir13  1  0.500000  0.939178  0.779657  1
  Ir  Ir14  1  0.500000  0.779657  0.060822  1
  Ir  Ir15  1  0.500000  0.433164  0.726510  1
  Ir  Ir16  1  0.500000  0.220343  0.939178  1
  Ir  Ir17  1  0.500000  0.566836  0.273490  1
  Ir  Ir18  1  0.500000  0.726510  0.566836  1
  Ir  Ir19  1  0.500000  0.273490  0.433164  1
