# generated using pymatgen
data_Pr2ThSn3IrPt2
_symmetry_space_group_name_H-M   'P 1'
_cell_length_a   7.66634000
_cell_length_b   7.65618397
_cell_length_c   4.15641600
_cell_angle_alpha   90.00000000
_cell_angle_beta   90.00000000
_cell_angle_gamma   120.04388179
_symmetry_Int_Tables_number   1
_chemical_formula_structural   Pr2ThSn3IrPt2
_chemical_formula_sum   'Pr2 Th1 Sn3 Ir1 Pt2'
_cell_volume   211.18247190
_cell_formula_units_Z   1
loop_
 _symmetry_equiv_pos_site_id
 _symmetry_equiv_pos_as_xyz
  1  'x, y, z'
loop_
 _atom_site_type_symbol
 _atom_site_label
 _atom_site_symmetry_multiplicity
 _atom_site_fract_x
 _atom_site_fract_y
 _atom_site_fract_z
 _atom_site_occupancy
  Pr  Pr0  1  0.999951  0.591553  0.000000  1
  Pr  Pr1  1  0.408398  0.408447  0.000000  1
  Th  Th2  1  0.590526  0.000000  0.000000  1
  Sn  Sn3  1  0.241071  0.000000  0.500000  1
  Sn  Sn4  1  0.006413  0.254567  0.500000  1
  Sn  Sn5  1  0.751846  0.745433  0.500000  1
  Ir  Ir6  1  0.987807  0.000000  0.000000  1
  Pt  Pt7  1  0.348910  0.683832  0.500000  1
  Pt  Pt8  1  0.665078  0.316168  0.500000  1
