# generated using pymatgen
data_Sr4EuPN5
_symmetry_space_group_name_H-M   'P 1'
_cell_length_a   7.48792756
_cell_length_b   7.48792677
_cell_length_c   8.56195534
_cell_angle_alpha   76.28441742
_cell_angle_beta   76.28441599
_cell_angle_gamma   95.54400966
_symmetry_Int_Tables_number   1
_chemical_formula_structural   Sr4EuPN5
_chemical_formula_sum   'Sr8 Eu2 P2 N10'
_cell_volume   447.09326277
_cell_formula_units_Z   2
loop_
 _symmetry_equiv_pos_site_id
 _symmetry_equiv_pos_as_xyz
  1  'x, y, z'
loop_
 _atom_site_type_symbol
 _atom_site_label
 _atom_site_symmetry_multiplicity
 _atom_site_fract_x
 _atom_site_fract_y
 _atom_site_fract_z
 _atom_site_occupancy
  Sr  Sr0  1  0.676519  0.676519  0.000416  1
  Sr  Sr1  1  0.323481  0.323481  0.999584  1
  Sr  Sr2  1  0.925261  0.925261  0.203895  1
  Sr  Sr3  1  0.074739  0.074739  0.796105  1
  Sr  Sr4  1  0.557802  0.086769  0.755204  1
  Sr  Sr5  1  0.913231  0.442198  0.244796  1
  Sr  Sr6  1  0.442198  0.913231  0.244796  1
  Sr  Sr7  1  0.086769  0.557802  0.755204  1
  Eu  Eu8  1  0.410078  0.410078  0.364840  1
  Eu  Eu9  1  0.589922  0.589922  0.635160  1
  P  P10  1  0.757814  0.242186  0.000000  1
  P  P11  1  0.242186  0.757814  0.000000  1
  N  N12  1  0.647046  0.647046  0.338600  1
  N  N13  1  0.352954  0.352954  0.661400  1
  N  N14  1  0.722081  0.022895  0.987342  1
  N  N15  1  0.977105  0.277919  0.012658  1
  N  N16  1  0.277919  0.977105  0.012658  1
  N  N17  1  0.022895  0.722081  0.987342  1
  N  N18  1  0.393785  0.727037  0.830733  1
  N  N19  1  0.272963  0.606215  0.169266  1
  N  N20  1  0.606215  0.272963  0.169266  1
  N  N21  1  0.727037  0.393785  0.830733  1
