# generated using pymatgen
data_Hf2ZrScMo8
_symmetry_space_group_name_H-M   'P 1'
_cell_length_a   9.31607967
_cell_length_b   9.31607985
_cell_length_c   9.31607964
_cell_angle_alpha   33.48612494
_cell_angle_beta   33.48612090
_cell_angle_gamma   33.48612738
_symmetry_Int_Tables_number   1
_chemical_formula_structural   Hf2ZrScMo8
_chemical_formula_sum   'Hf2 Zr1 Sc1 Mo8'
_cell_volume   219.20620102
_cell_formula_units_Z   1
loop_
 _symmetry_equiv_pos_site_id
 _symmetry_equiv_pos_as_xyz
  1  'x, y, z'
loop_
 _atom_site_type_symbol
 _atom_site_label
 _atom_site_symmetry_multiplicity
 _atom_site_fract_x
 _atom_site_fract_y
 _atom_site_fract_z
 _atom_site_occupancy
  Hf  Hf0  1  0.000044  0.000044  0.000044  1
  Hf  Hf1  1  0.499827  0.499827  0.499827  1
  Zr  Zr2  1  0.875099  0.875099  0.875099  1
  Sc  Sc3  1  0.374971  0.374971  0.374971  1
  Mo  Mo4  1  0.437472  0.938019  0.437472  1
  Mo  Mo5  1  0.937455  0.437147  0.937455  1
  Mo  Mo6  1  0.437472  0.437472  0.938019  1
  Mo  Mo7  1  0.937455  0.937455  0.437147  1
  Mo  Mo8  1  0.187461  0.187461  0.187461  1
  Mo  Mo9  1  0.687579  0.687579  0.687579  1
  Mo  Mo10  1  0.938019  0.437472  0.437472  1
  Mo  Mo11  1  0.437147  0.937455  0.937455  1
