# generated using pymatgen
data_Y3ThZnFe
_symmetry_space_group_name_H-M   'P 1'
_cell_length_a   9.47212845
_cell_length_b   9.47212795
_cell_length_c   9.47212900
_cell_angle_alpha   59.99999982
_cell_angle_beta   60.00000159
_cell_angle_gamma   59.99999929
_symmetry_Int_Tables_number   1
_chemical_formula_structural   Y3ThZnFe
_chemical_formula_sum   'Y12 Th4 Zn4 Fe4'
_cell_volume   600.93533770
_cell_formula_units_Z   4
loop_
 _symmetry_equiv_pos_site_id
 _symmetry_equiv_pos_as_xyz
  1  'x, y, z'
loop_
 _atom_site_type_symbol
 _atom_site_label
 _atom_site_symmetry_multiplicity
 _atom_site_fract_x
 _atom_site_fract_y
 _atom_site_fract_z
 _atom_site_occupancy
  Y  Y0  1  0.809581  0.190419  0.190419  1
  Y  Y1  1  0.190419  0.809581  0.809581  1
  Y  Y2  1  0.190419  0.809581  0.190419  1
  Y  Y3  1  0.809581  0.190419  0.809581  1
  Y  Y4  1  0.190419  0.190419  0.809581  1
  Y  Y5  1  0.809581  0.809581  0.190419  1
  Y  Y6  1  0.937288  0.562712  0.562712  1
  Y  Y7  1  0.562712  0.937288  0.937288  1
  Y  Y8  1  0.562712  0.937288  0.562712  1
  Y  Y9  1  0.937288  0.562712  0.937288  1
  Y  Y10  1  0.562712  0.562712  0.937288  1
  Y  Y11  1  0.937288  0.937288  0.562712  1
  Th  Th12  1  0.346262  0.346262  0.346262  1
  Th  Th13  1  0.346262  0.346262  0.961214  1
  Th  Th14  1  0.346262  0.961214  0.346262  1
  Th  Th15  1  0.961214  0.346262  0.346262  1
  Zn  Zn16  1  0.577789  0.577789  0.577789  1
  Zn  Zn17  1  0.577789  0.577789  0.266632  1
  Zn  Zn18  1  0.577789  0.266632  0.577789  1
  Zn  Zn19  1  0.266632  0.577789  0.577789  1
  Fe  Fe20  1  0.144764  0.144764  0.144764  1
  Fe  Fe21  1  0.144764  0.144764  0.565708  1
  Fe  Fe22  1  0.144764  0.565708  0.144764  1
  Fe  Fe23  1  0.565708  0.144764  0.144764  1
