# generated using pymatgen
data_NbBWC
_symmetry_space_group_name_H-M   'P 1'
_cell_length_a   8.94071946
_cell_length_b   8.94071789
_cell_length_c   3.15389200
_cell_angle_alpha   90.00000000
_cell_angle_beta   90.00000000
_cell_angle_gamma   159.48804603
_symmetry_Int_Tables_number   1
_chemical_formula_structural   NbBWC
_chemical_formula_sum   'Nb2 B2 W2 C2'
_cell_volume   88.34037563
_cell_formula_units_Z   2
loop_
 _symmetry_equiv_pos_site_id
 _symmetry_equiv_pos_as_xyz
  1  'x, y, z'
loop_
 _atom_site_type_symbol
 _atom_site_label
 _atom_site_symmetry_multiplicity
 _atom_site_fract_x
 _atom_site_fract_y
 _atom_site_fract_z
 _atom_site_occupancy
  Nb  Nb0  1  0.684376  0.315624  0.750000  1
  Nb  Nb1  1  0.315624  0.684376  0.250000  1
  B  B2  1  0.530111  0.469889  0.750000  1
  B  B3  1  0.469889  0.530111  0.250000  1
  W  W4  1  0.930965  0.069035  0.750000  1
  W  W5  1  0.069035  0.930965  0.250000  1
  C  C6  1  0.810807  0.189193  0.750000  1
  C  C7  1  0.189193  0.810807  0.250000  1
