# generated using pymatgen
data_Sc2Be4ZnRu4
_symmetry_space_group_name_H-M   'P 1'
_cell_length_a   3.23883600
_cell_length_b   8.51982705
_cell_length_c   10.21340104
_cell_angle_alpha   90.00109195
_cell_angle_beta   90.00000000
_cell_angle_gamma   90.00000000
_symmetry_Int_Tables_number   1
_chemical_formula_structural   Sc2Be4ZnRu4
_chemical_formula_sum   'Sc4 Be8 Zn2 Ru8'
_cell_volume   281.83188287
_cell_formula_units_Z   2
loop_
 _symmetry_equiv_pos_site_id
 _symmetry_equiv_pos_as_xyz
  1  'x, y, z'
loop_
 _atom_site_type_symbol
 _atom_site_label
 _atom_site_symmetry_multiplicity
 _atom_site_fract_x
 _atom_site_fract_y
 _atom_site_fract_z
 _atom_site_occupancy
  Sc  Sc0  1  0.500000  0.835168  0.192126  1
  Sc  Sc1  1  0.500000  0.164832  0.807874  1
  Sc  Sc2  1  0.500000  0.664840  0.692112  1
  Sc  Sc3  1  0.500000  0.335160  0.307888  1
  Be  Be4  1  0.500000  0.967041  0.596221  1
  Be  Be5  1  0.500000  0.032959  0.403779  1
  Be  Be6  1  0.500000  0.839297  0.901448  1
  Be  Be7  1  0.500000  0.160703  0.098552  1
  Be  Be8  1  0.500000  0.660703  0.401433  1
  Be  Be9  1  0.500000  0.339297  0.598567  1
  Be  Be10  1  0.500000  0.467075  0.903770  1
  Be  Be11  1  0.500000  0.532925  0.096230  1
  Zn  Zn12  1  0.000000  0.000000  0.000000  1
  Zn  Zn13  1  0.000000  0.500000  0.500000  1
  Ru  Ru14  1  0.000000  0.664336  0.963072  1
  Ru  Ru15  1  0.000000  0.335664  0.036928  1
  Ru  Ru16  1  0.000000  0.835675  0.463027  1
  Ru  Ru17  1  0.000000  0.164325  0.536973  1
  Ru  Ru18  1  0.000000  0.412825  0.749608  1
  Ru  Ru19  1  0.000000  0.587175  0.250392  1
  Ru  Ru20  1  0.000000  0.912805  0.750386  1
  Ru  Ru21  1  0.000000  0.087195  0.249614  1
