# generated using pymatgen
data_Pr2Ga9Ir2Pd
_symmetry_space_group_name_H-M   'P 1'
_cell_length_a   7.69668219
_cell_length_b   7.69668346
_cell_length_c   9.65703000
_cell_angle_alpha   90.00000000
_cell_angle_beta   90.00000000
_cell_angle_gamma   119.48139166
_symmetry_Int_Tables_number   1
_chemical_formula_structural   Pr2Ga9Ir2Pd
_chemical_formula_sum   'Pr4 Ga18 Ir4 Pd2'
_cell_volume   497.99766612
_cell_formula_units_Z   2
loop_
 _symmetry_equiv_pos_site_id
 _symmetry_equiv_pos_as_xyz
  1  'x, y, z'
loop_
 _atom_site_type_symbol
 _atom_site_label
 _atom_site_symmetry_multiplicity
 _atom_site_fract_x
 _atom_site_fract_y
 _atom_site_fract_z
 _atom_site_occupancy
  Pr  Pr0  1  0.997386  0.672801  0.250000  1
  Pr  Pr1  1  0.002614  0.327199  0.750000  1
  Pr  Pr2  1  0.672801  0.997386  0.250000  1
  Pr  Pr3  1  0.327199  0.002614  0.750000  1
  Ga  Ga4  1  0.135620  0.135620  0.250000  1
  Ga  Ga5  1  0.864380  0.864380  0.750000  1
  Ga  Ga6  1  0.002841  0.338729  0.077712  1
  Ga  Ga7  1  0.997160  0.661271  0.922288  1
  Ga  Ga8  1  0.997160  0.661271  0.577712  1
  Ga  Ga9  1  0.338729  0.002841  0.422288  1
  Ga  Ga10  1  0.002841  0.338729  0.422288  1
  Ga  Ga11  1  0.661271  0.997159  0.577712  1
  Ga  Ga12  1  0.661271  0.997159  0.922288  1
  Ga  Ga13  1  0.338729  0.002841  0.077712  1
  Ga  Ga14  1  0.339311  0.339311  0.563272  1
  Ga  Ga15  1  0.660689  0.660689  0.436728  1
  Ga  Ga16  1  0.660689  0.660689  0.063272  1
  Ga  Ga17  1  0.339311  0.339311  0.936728  1
  Ga  Ga18  1  0.336435  0.546338  0.250000  1
  Ga  Ga19  1  0.663565  0.453662  0.750000  1
  Ga  Ga20  1  0.546338  0.336435  0.250000  1
  Ga  Ga21  1  0.453662  0.663565  0.750000  1
  Ir  Ir22  1  0.671290  0.328710  0.000000  1
  Ir  Ir23  1  0.328710  0.671290  0.000000  1
  Ir  Ir24  1  0.328710  0.671290  0.500000  1
  Ir  Ir25  1  0.671290  0.328710  0.500000  1
  Pd  Pd26  1  0.000000  0.000000  0.000000  1
  Pd  Pd27  1  0.000000  0.000000  0.500000  1
