# generated using pymatgen
data_Ca2Er4Ga3(GeRh4)3
_symmetry_space_group_name_H-M   'P 1'
_cell_length_a   5.58816800
_cell_length_b   5.58816761
_cell_length_c   15.57619900
_cell_angle_alpha   90.00000000
_cell_angle_beta   90.00000000
_cell_angle_gamma   120.00000230
_symmetry_Int_Tables_number   1
_chemical_formula_structural   Ca2Er4Ga3(GeRh4)3
_chemical_formula_sum   'Ca2 Er4 Ga3 Ge3 Rh12'
_cell_volume   421.24134096
_cell_formula_units_Z   1
loop_
 _symmetry_equiv_pos_site_id
 _symmetry_equiv_pos_as_xyz
  1  'x, y, z'
loop_
 _atom_site_type_symbol
 _atom_site_label
 _atom_site_symmetry_multiplicity
 _atom_site_fract_x
 _atom_site_fract_y
 _atom_site_fract_z
 _atom_site_occupancy
  Ca  Ca0  1  0.333333  0.666667  0.750000  1
  Ca  Ca1  1  0.666667  0.333333  0.250000  1
  Er  Er2  1  0.333333  0.666667  0.543178  1
  Er  Er3  1  0.666667  0.333333  0.458564  1
  Er  Er4  1  0.666667  0.333333  0.041436  1
  Er  Er5  1  0.333333  0.666667  0.956822  1
  Ga  Ga6  1  0.000000  0.000000  0.250000  1
  Ga  Ga7  1  0.000000  0.000000  0.750000  1
  Ga  Ga8  1  0.333333  0.666667  0.250000  1
  Ge  Ge9  1  0.666667  0.333333  0.750000  1
  Ge  Ge10  1  0.000000  0.000000  0.999096  1
  Ge  Ge11  1  0.000000  0.000000  0.500904  1
  Rh  Rh12  1  0.169430  0.338860  0.122088  1
  Rh  Rh13  1  0.831030  0.662060  0.875523  1
  Rh  Rh14  1  0.661140  0.830570  0.122088  1
  Rh  Rh15  1  0.831030  0.662060  0.624477  1
  Rh  Rh16  1  0.337940  0.168970  0.875523  1
  Rh  Rh17  1  0.169430  0.338860  0.377912  1
  Rh  Rh18  1  0.169430  0.830570  0.122088  1
  Rh  Rh19  1  0.337940  0.168970  0.624477  1
  Rh  Rh20  1  0.831030  0.168970  0.875523  1
  Rh  Rh21  1  0.661140  0.830570  0.377912  1
  Rh  Rh22  1  0.831030  0.168970  0.624477  1
  Rh  Rh23  1  0.169430  0.830570  0.377912  1
