# generated using pymatgen
data_Pr12Ru3AuCl12
_symmetry_space_group_name_H-M   'P 1'
_cell_length_a   10.35891983
_cell_length_b   10.35283509
_cell_length_c   10.35891526
_cell_angle_alpha   109.64283747
_cell_angle_beta   109.71873371
_cell_angle_gamma   109.65921388
_symmetry_Int_Tables_number   1
_chemical_formula_structural   Pr12Ru3AuCl12
_chemical_formula_sum   'Pr12 Ru3 Au1 Cl12'
_cell_volume   848.72846415
_cell_formula_units_Z   1
loop_
 _symmetry_equiv_pos_site_id
 _symmetry_equiv_pos_as_xyz
  1  'x, y, z'
loop_
 _atom_site_type_symbol
 _atom_site_label
 _atom_site_symmetry_multiplicity
 _atom_site_fract_x
 _atom_site_fract_y
 _atom_site_fract_z
 _atom_site_occupancy
  Pr  Pr0  1  0.478107  0.499145  0.232040  1
  Pr  Pr1  1  0.749973  0.238595  0.261351  1
  Pr  Pr2  1  0.750022  0.010891  0.489181  1
  Pr  Pr3  1  0.232070  0.478070  0.499102  1
  Pr  Pr4  1  0.261362  0.749991  0.238635  1
  Pr  Pr5  1  0.021927  0.268004  0.000860  1
  Pr  Pr6  1  0.000864  0.021898  0.267941  1
  Pr  Pr7  1  0.489155  0.749983  0.010820  1
  Pr  Pr8  1  0.499151  0.232007  0.478099  1
  Pr  Pr9  1  0.010837  0.489184  0.750024  1
  Pr  Pr10  1  0.267956  0.000878  0.021898  1
  Pr  Pr11  1  0.238628  0.261394  0.750028  1
  Ru  Ru12  1  0.501335  0.998770  0.250087  1
  Ru  Ru13  1  0.998693  0.249978  0.501282  1
  Ru  Ru14  1  0.249939  0.501246  0.998680  1
  Au  Au15  1  0.249985  0.249969  0.250020  1
  Cl  Cl16  1  0.250007  0.751949  0.748026  1
  Cl  Cl17  1  0.496884  0.496973  0.748286  1
  Cl  Cl18  1  0.003100  0.751709  0.003014  1
  Cl  Cl19  1  0.748104  0.250028  0.751955  1
  Cl  Cl20  1  0.002975  0.003033  0.751668  1
  Cl  Cl21  1  0.249963  0.002387  0.497562  1
  Cl  Cl22  1  0.748315  0.496965  0.497028  1
  Cl  Cl23  1  0.497596  0.250001  0.002400  1
  Cl  Cl24  1  0.751895  0.748054  0.249969  1
  Cl  Cl25  1  0.751710  0.002986  0.003083  1
  Cl  Cl26  1  0.002435  0.497597  0.250022  1
  Cl  Cl27  1  0.497011  0.748314  0.496939  1
