# generated using pymatgen
data_Y8TaGe16Mo11
_symmetry_space_group_name_H-M   'P 1'
_cell_length_a   6.95618709
_cell_length_b   7.08826900
_cell_length_c   13.18708400
_cell_angle_alpha   90.00000000
_cell_angle_beta   90.00000000
_cell_angle_gamma   90.13819738
_symmetry_Int_Tables_number   1
_chemical_formula_structural   Y8TaGe16Mo11
_chemical_formula_sum   'Y8 Ta1 Ge16 Mo11'
_cell_volume   650.21794933
_cell_formula_units_Z   1
loop_
 _symmetry_equiv_pos_site_id
 _symmetry_equiv_pos_as_xyz
  1  'x, y, z'
loop_
 _atom_site_type_symbol
 _atom_site_label
 _atom_site_symmetry_multiplicity
 _atom_site_fract_x
 _atom_site_fract_y
 _atom_site_fract_z
 _atom_site_occupancy
  Y  Y0  1  0.491210  0.329540  0.092435  1
  Y  Y1  1  0.988957  0.170650  0.407730  1
  Y  Y2  1  0.510824  0.669971  0.592431  1
  Y  Y3  1  0.010726  0.830731  0.907785  1
  Y  Y4  1  0.510824  0.669971  0.907569  1
  Y  Y5  1  0.010726  0.830731  0.592215  1
  Y  Y6  1  0.491210  0.329540  0.407565  1
  Y  Y7  1  0.988957  0.170650  0.092270  1
  Ta  Ta8  1  0.836449  0.511303  0.250000  1
  Ge  Ge9  1  0.813276  0.643559  0.750000  1
  Ge  Ge10  1  0.312681  0.857544  0.750000  1
  Ge  Ge11  1  0.191827  0.353990  0.250000  1
  Ge  Ge12  1  0.687805  0.139535  0.250000  1
  Ge  Ge13  1  0.530604  0.367021  0.750000  1
  Ge  Ge14  1  0.032406  0.133723  0.750000  1
  Ge  Ge15  1  0.464648  0.632491  0.250000  1
  Ge  Ge16  1  0.969928  0.872077  0.250000  1
  Ge  Ge17  1  0.669799  0.046553  0.548261  1
  Ge  Ge18  1  0.169748  0.452920  0.951969  1
  Ge  Ge19  1  0.328872  0.953371  0.047938  1
  Ge  Ge20  1  0.829321  0.546225  0.454739  1
  Ge  Ge21  1  0.328872  0.953371  0.452062  1
  Ge  Ge22  1  0.829321  0.546225  0.045261  1
  Ge  Ge23  1  0.669799  0.046553  0.951739  1
  Ge  Ge24  1  0.169748  0.452920  0.548031  1
  Mo  Mo25  1  0.668557  0.005599  0.750000  1
  Mo  Mo26  1  0.167074  0.494216  0.750000  1
  Mo  Mo27  1  0.331558  0.992685  0.250000  1
  Mo  Mo28  1  0.830651  0.344104  0.628393  1
  Mo  Mo29  1  0.332095  0.156627  0.872781  1
  Mo  Mo30  1  0.167371  0.655276  0.126660  1
  Mo  Mo31  1  0.667019  0.842160  0.373759  1
  Mo  Mo32  1  0.167371  0.655276  0.373340  1
  Mo  Mo33  1  0.667019  0.842160  0.126241  1
  Mo  Mo34  1  0.830651  0.344104  0.871607  1
  Mo  Mo35  1  0.332095  0.156627  0.627219  1
