# generated using pymatgen
data_Ba3Ti2MnO9
_symmetry_space_group_name_H-M   'P 1'
_cell_length_a   5.76515500
_cell_length_b   5.76515466
_cell_length_c   14.14505400
_cell_angle_alpha   90.00000000
_cell_angle_beta   90.00000000
_cell_angle_gamma   120.00000772
_symmetry_Int_Tables_number   1
_chemical_formula_structural   Ba3Ti2MnO9
_chemical_formula_sum   'Ba6 Ti4 Mn2 O18'
_cell_volume   407.15254883
_cell_formula_units_Z   2
loop_
 _symmetry_equiv_pos_site_id
 _symmetry_equiv_pos_as_xyz
  1  'x, y, z'
loop_
 _atom_site_type_symbol
 _atom_site_label
 _atom_site_symmetry_multiplicity
 _atom_site_fract_x
 _atom_site_fract_y
 _atom_site_fract_z
 _atom_site_occupancy
  Ba  Ba0  1  0.666667  0.333333  0.588851  1
  Ba  Ba1  1  0.333333  0.666667  0.402098  1
  Ba  Ba2  1  0.333333  0.666667  0.088851  1
  Ba  Ba3  1  0.666667  0.333333  0.902098  1
  Ba  Ba4  1  0.000000  0.000000  0.747460  1
  Ba  Ba5  1  0.000000  0.000000  0.247460  1
  Ti  Ti6  1  0.000000  0.000000  0.491063  1
  Ti  Ti7  1  0.000000  0.000000  0.991063  1
  Ti  Ti8  1  0.333333  0.666667  0.648169  1
  Ti  Ti9  1  0.666667  0.333333  0.148169  1
  Mn  Mn10  1  0.666667  0.333333  0.340002  1
  Mn  Mn11  1  0.333333  0.666667  0.840002  1
  O  O12  1  0.480622  0.961244  0.755272  1
  O  O13  1  0.480622  0.519378  0.755272  1
  O  O14  1  0.038756  0.519378  0.755272  1
  O  O15  1  0.519378  0.038756  0.255272  1
  O  O16  1  0.519378  0.480622  0.255272  1
  O  O17  1  0.961244  0.480622  0.255272  1
  O  O18  1  0.166781  0.333563  0.583594  1
  O  O19  1  0.166781  0.833219  0.583594  1
  O  O20  1  0.666437  0.833219  0.583594  1
  O  O21  1  0.834749  0.669499  0.421927  1
  O  O22  1  0.834749  0.165251  0.421927  1
  O  O23  1  0.330501  0.165251  0.421927  1
  O  O24  1  0.833219  0.666437  0.083594  1
  O  O25  1  0.833219  0.166781  0.083594  1
  O  O26  1  0.333563  0.166781  0.083594  1
  O  O27  1  0.165251  0.330501  0.921927  1
  O  O28  1  0.165251  0.834749  0.921927  1
  O  O29  1  0.669499  0.834749  0.921927  1
