# generated using pymatgen
data_Ho4Tm6CoRu3
_symmetry_space_group_name_H-M   'P 1'
_cell_length_a   6.26068638
_cell_length_b   7.21410499
_cell_length_c   8.36813216
_cell_angle_alpha   96.69848678
_cell_angle_beta   111.77091038
_cell_angle_gamma   90.26869951
_symmetry_Int_Tables_number   1
_chemical_formula_structural   Ho4Tm6CoRu3
_chemical_formula_sum   'Ho4 Tm6 Co1 Ru3'
_cell_volume   348.12388394
_cell_formula_units_Z   1
loop_
 _symmetry_equiv_pos_site_id
 _symmetry_equiv_pos_as_xyz
  1  'x, y, z'
loop_
 _atom_site_type_symbol
 _atom_site_label
 _atom_site_symmetry_multiplicity
 _atom_site_fract_x
 _atom_site_fract_y
 _atom_site_fract_z
 _atom_site_occupancy
  Ho  Ho0  1  0.789441  0.088582  0.813944  1
  Ho  Ho1  1  0.978939  0.415936  0.189386  1
  Ho  Ho2  1  0.209653  0.916872  0.185512  1
  Ho  Ho3  1  0.014348  0.584007  0.814057  1
  Tm  Tm4  1  0.208942  0.186716  0.566299  1
  Tm  Tm5  1  0.644308  0.315618  0.435089  1
  Tm  Tm6  1  0.794711  0.814934  0.435812  1
  Tm  Tm7  1  0.358484  0.680606  0.566748  1
  Tm  Tm8  1  0.421095  0.252943  0.998471  1
  Tm  Tm9  1  0.579713  0.745981  0.997520  1
  Co  Co10  1  0.602316  0.422159  0.776555  1
  Ru  Ru11  1  0.822010  0.075022  0.218923  1
  Ru  Ru12  1  0.398431  0.575311  0.221542  1
  Ru  Ru13  1  0.177610  0.925312  0.780140  1
