# generated using pymatgen
data_Sr3Ca6SmV7O28
_symmetry_space_group_name_H-M   'P 1'
_cell_length_a   11.15857748
_cell_length_b   11.15857733
_cell_length_c   14.41680133
_cell_angle_alpha   67.43910414
_cell_angle_beta   67.43910367
_cell_angle_gamma   60.00652947
_symmetry_Int_Tables_number   1
_chemical_formula_structural   Sr3Ca6SmV7O28
_chemical_formula_sum   'Sr6 Ca12 Sm2 V14 O56'
_cell_volume   1393.79421482
_cell_formula_units_Z   2
loop_
 _symmetry_equiv_pos_site_id
 _symmetry_equiv_pos_as_xyz
  1  'x, y, z'
loop_
 _atom_site_type_symbol
 _atom_site_label
 _atom_site_symmetry_multiplicity
 _atom_site_fract_x
 _atom_site_fract_y
 _atom_site_fract_z
 _atom_site_occupancy
  Sr  Sr0  1  0.554936  0.467738  0.021828  1
  Sr  Sr1  1  0.953894  0.054869  0.020258  1
  Sr  Sr2  1  0.970798  0.452839  0.018102  1
  Sr  Sr3  1  0.054869  0.953894  0.520258  1
  Sr  Sr4  1  0.452839  0.970798  0.518102  1
  Sr  Sr5  1  0.467738  0.554936  0.521828  1
  Ca  Ca6  1  0.502544  0.005117  0.999421  1
  Ca  Ca7  1  0.566868  0.075638  0.201972  1
  Ca  Ca8  1  0.570320  0.659829  0.200486  1
  Ca  Ca9  1  0.157006  0.065719  0.201319  1
  Ca  Ca10  1  0.659829  0.570320  0.700486  1
  Ca  Ca11  1  0.065719  0.157006  0.701319  1
  Ca  Ca12  1  0.075638  0.566868  0.701972  1
  Ca  Ca13  1  0.005117  0.502544  0.499421  1
  Ca  Ca14  1  0.945221  0.849971  0.295716  1
  Ca  Ca15  1  0.350340  0.413771  0.295596  1
  Ca  Ca16  1  0.849971  0.945221  0.795716  1
  Ca  Ca17  1  0.413771  0.350340  0.795596  1
  Sm  Sm18  1  0.909989  0.443691  0.297364  1
  Sm  Sm19  1  0.443691  0.909989  0.797364  1
  V  V20  1  0.769520  0.267926  0.194964  1
  V  V21  1  0.691425  0.221916  0.896096  1
  V  V22  1  0.719634  0.692853  0.896396  1
  V  V23  1  0.193121  0.187791  0.896743  1
  V  V24  1  0.780278  0.308033  0.595272  1
  V  V25  1  0.808189  0.815596  0.597866  1
  V  V26  1  0.692853  0.719634  0.396396  1
  V  V27  1  0.316408  0.278007  0.597655  1
  V  V28  1  0.187791  0.193121  0.396743  1
  V  V29  1  0.221916  0.691425  0.396096  1
  V  V30  1  0.815596  0.808189  0.097866  1
  V  V31  1  0.278007  0.316408  0.097655  1
  V  V32  1  0.308033  0.780278  0.095272  1
  V  V33  1  0.267926  0.769520  0.694964  1
  O  O34  1  0.600572  0.269552  0.229915  1
  O  O35  1  0.772969  0.401315  0.230498  1
  O  O36  1  0.902405  0.099649  0.229303  1
  O  O37  1  0.665264  0.183194  0.029323  1
  O  O38  1  0.683447  0.619932  0.028475  1
  O  O39  1  0.813395  0.313425  0.060032  1
  O  O40  1  0.617275  0.142138  0.864045  1
  O  O41  1  0.635444  0.879217  0.866211  1
  O  O42  1  0.641634  0.646500  0.839460  1
  O  O43  1  0.603893  0.405403  0.855364  1
  O  O44  1  0.120859  0.166003  0.028923  1
  O  O45  1  0.873573  0.151928  0.842994  1
  O  O46  1  0.902344  0.637607  0.854400  1
  O  O47  1  0.604242  0.398827  0.659564  1
  O  O48  1  0.133378  0.368584  0.841762  1
  O  O49  1  0.621849  0.886630  0.641543  1
  O  O50  1  0.148643  0.091181  0.855063  1
  O  O51  1  0.379798  0.111565  0.865690  1
  O  O52  1  0.853713  0.124678  0.638785  1
  O  O53  1  0.898991  0.839635  0.660369  1
  O  O54  1  0.619932  0.683447  0.528475  1
  O  O55  1  0.876368  0.371101  0.621929  1
  O  O56  1  0.869118  0.629710  0.627265  1
  O  O57  1  0.130421  0.372222  0.628026  1
  O  O58  1  0.789075  0.361265  0.463856  1
  O  O59  1  0.862605  0.877912  0.467573  1
  O  O60  1  0.646500  0.641634  0.339460  1
  O  O61  1  0.342169  0.098387  0.661481  1
  O  O62  1  0.637607  0.902344  0.354400  1
  O  O63  1  0.385807  0.351776  0.638883  1
  O  O64  1  0.166003  0.120859  0.528923  1
  O  O65  1  0.183194  0.665264  0.529323  1
  O  O66  1  0.879217  0.635444  0.366211  1
  O  O67  1  0.111565  0.379798  0.365690  1
  O  O68  1  0.142138  0.617275  0.364045  1
  O  O69  1  0.376622  0.289597  0.467311  1
  O  O70  1  0.151928  0.873573  0.342994  1
  O  O71  1  0.091181  0.148643  0.355063  1
  O  O72  1  0.629710  0.869118  0.127265  1
  O  O73  1  0.839635  0.898991  0.160369  1
  O  O74  1  0.368584  0.133378  0.341762  1
  O  O75  1  0.886630  0.621849  0.141543  1
  O  O76  1  0.405403  0.603893  0.355364  1
  O  O77  1  0.098387  0.342169  0.161481  1
  O  O78  1  0.124678  0.853713  0.138785  1
  O  O79  1  0.877912  0.862605  0.967573  1
  O  O80  1  0.351776  0.385807  0.138883  1
  O  O81  1  0.398827  0.604242  0.159564  1
  O  O82  1  0.372222  0.130421  0.128026  1
  O  O83  1  0.371101  0.876368  0.121929  1
  O  O84  1  0.289597  0.376622  0.967311  1
  O  O85  1  0.361265  0.789075  0.963856  1
  O  O86  1  0.099649  0.902405  0.729303  1
  O  O87  1  0.269552  0.600572  0.729915  1
  O  O88  1  0.401315  0.772969  0.730498  1
  O  O89  1  0.313425  0.813395  0.560032  1
