# generated using pymatgen
data_SiW2Cl13
_symmetry_space_group_name_H-M   'P 1'
_cell_length_a   9.98615367
_cell_length_b   11.51295500
_cell_length_c   10.47274300
_cell_angle_alpha   90.00000000
_cell_angle_beta   96.11184127
_cell_angle_gamma   90.00000000
_symmetry_Int_Tables_number   1
_chemical_formula_structural   SiW2Cl13
_chemical_formula_sum   'Si2 W4 Cl26'
_cell_volume   1197.20882425
_cell_formula_units_Z   2
loop_
 _symmetry_equiv_pos_site_id
 _symmetry_equiv_pos_as_xyz
  1  'x, y, z'
loop_
 _atom_site_type_symbol
 _atom_site_label
 _atom_site_symmetry_multiplicity
 _atom_site_fract_x
 _atom_site_fract_y
 _atom_site_fract_z
 _atom_site_occupancy
  Si  Si0  1  0.258754  0.750000  0.499120  1
  Si  Si1  1  0.741247  0.250000  0.500880  1
  W  W2  1  0.172448  0.250000  0.084634  1
  W  W3  1  0.686919  0.750000  0.125855  1
  W  W4  1  0.313081  0.250000  0.874145  1
  W  W5  1  0.827552  0.750000  0.915366  1
  Cl  Cl6  1  0.944709  0.250000  0.043648  1
  Cl  Cl7  1  0.819794  0.583262  0.061091  1
  Cl  Cl8  1  0.819794  0.916739  0.061091  1
  Cl  Cl9  1  0.422284  0.250000  0.098101  1
  Cl  Cl10  1  0.538410  0.608235  0.174616  1
  Cl  Cl11  1  0.538410  0.891765  0.174616  1
  Cl  Cl12  1  0.184086  0.109896  0.242281  1
  Cl  Cl13  1  0.184086  0.390104  0.242281  1
  Cl  Cl14  1  0.202522  0.750000  0.306751  1
  Cl  Cl15  1  0.809870  0.750000  0.320412  1
  Cl  Cl16  1  0.816489  0.106024  0.420930  1
  Cl  Cl17  1  0.816489  0.393976  0.420930  1
  Cl  Cl18  1  0.536820  0.250000  0.468398  1
  Cl  Cl19  1  0.463181  0.750000  0.531602  1
  Cl  Cl20  1  0.183512  0.606024  0.579070  1
  Cl  Cl21  1  0.183512  0.893976  0.579070  1
  Cl  Cl22  1  0.190130  0.250000  0.679588  1
  Cl  Cl23  1  0.797478  0.250000  0.693249  1
  Cl  Cl24  1  0.815915  0.609895  0.757719  1
  Cl  Cl25  1  0.815915  0.890105  0.757719  1
  Cl  Cl26  1  0.461589  0.108235  0.825384  1
  Cl  Cl27  1  0.461589  0.391765  0.825384  1
  Cl  Cl28  1  0.577715  0.750000  0.901899  1
  Cl  Cl29  1  0.180206  0.083262  0.938909  1
  Cl  Cl30  1  0.180206  0.416738  0.938909  1
  Cl  Cl31  1  0.055291  0.750000  0.956353  1
