# generated using pymatgen
data_Tb5Lu2Co4Sn23Os2
_symmetry_space_group_name_H-M   'P 1'
_cell_length_a   9.73457628
_cell_length_b   9.73457604
_cell_length_c   10.03042323
_cell_angle_alpha   90.47763449
_cell_angle_beta   89.52236052
_cell_angle_gamma   119.91574051
_symmetry_Int_Tables_number   1
_chemical_formula_structural   Tb5Lu2Co4Sn23Os2
_chemical_formula_sum   'Tb5 Lu2 Co4 Sn23 Os2'
_cell_volume   823.81929687
_cell_formula_units_Z   1
loop_
 _symmetry_equiv_pos_site_id
 _symmetry_equiv_pos_as_xyz
  1  'x, y, z'
loop_
 _atom_site_type_symbol
 _atom_site_label
 _atom_site_symmetry_multiplicity
 _atom_site_fract_x
 _atom_site_fract_y
 _atom_site_fract_z
 _atom_site_occupancy
  Tb  Tb0  1  0.000000  0.000000  0.000000  1
  Tb  Tb1  1  0.481903  0.959933  0.305159  1
  Tb  Tb2  1  0.518097  0.040067  0.694841  1
  Tb  Tb3  1  0.040067  0.518097  0.305159  1
  Tb  Tb4  1  0.959933  0.481903  0.694841  1
  Lu  Lu5  1  0.481482  0.518518  0.306448  1
  Lu  Lu6  1  0.518518  0.481482  0.693552  1
  Co  Co7  1  0.828338  0.660551  0.198618  1
  Co  Co8  1  0.171662  0.339449  0.801382  1
  Co  Co9  1  0.339449  0.171662  0.198618  1
  Co  Co10  1  0.660551  0.828338  0.801382  1
  Sn  Sn11  1  0.350088  0.004156  0.004296  1
  Sn  Sn12  1  0.649912  0.995844  0.995704  1
  Sn  Sn13  1  0.004156  0.350088  0.995704  1
  Sn  Sn14  1  0.995844  0.649912  0.004296  1
  Sn  Sn15  1  0.653348  0.653348  0.000000  1
  Sn  Sn16  1  0.346652  0.346652  0.000000  1
  Sn  Sn17  1  0.334422  0.665578  0.819385  1
  Sn  Sn18  1  0.665578  0.334422  0.180615  1
  Sn  Sn19  1  0.000000  0.000000  0.500000  1
  Sn  Sn20  1  0.780651  0.219349  0.458984  1
  Sn  Sn21  1  0.219349  0.780651  0.541016  1
  Sn  Sn22  1  0.779690  0.563810  0.451995  1
  Sn  Sn23  1  0.220310  0.436190  0.548005  1
  Sn  Sn24  1  0.436190  0.220310  0.451995  1
  Sn  Sn25  1  0.563810  0.779690  0.548005  1
  Sn  Sn26  1  0.336027  0.663973  0.119101  1
  Sn  Sn27  1  0.663973  0.336027  0.880899  1
  Sn  Sn28  1  0.117132  0.882868  0.270057  1
  Sn  Sn29  1  0.882868  0.117132  0.729943  1
  Sn  Sn30  1  0.125687  0.237504  0.276010  1
  Sn  Sn31  1  0.874313  0.762496  0.723990  1
  Sn  Sn32  1  0.762496  0.874313  0.276010  1
  Sn  Sn33  1  0.237504  0.125687  0.723990  1
  Os  Os34  1  0.832887  0.167113  0.198650  1
  Os  Os35  1  0.167113  0.832887  0.801350  1
