# generated using pymatgen
data_Pr5Nd3(As7Ir8)2
_symmetry_space_group_name_H-M   'P 1'
_cell_length_a   4.14386700
_cell_length_b   13.25144546
_cell_length_c   13.67529744
_cell_angle_alpha   81.79483267
_cell_angle_beta   90.00000000
_cell_angle_gamma   90.00000000
_symmetry_Int_Tables_number   1
_chemical_formula_structural   Pr5Nd3(As7Ir8)2
_chemical_formula_sum   'Pr5 Nd3 As14 Ir16'
_cell_volume   743.25393391
_cell_formula_units_Z   1
loop_
 _symmetry_equiv_pos_site_id
 _symmetry_equiv_pos_as_xyz
  1  'x, y, z'
loop_
 _atom_site_type_symbol
 _atom_site_label
 _atom_site_symmetry_multiplicity
 _atom_site_fract_x
 _atom_site_fract_y
 _atom_site_fract_z
 _atom_site_occupancy
  Pr  Pr0  1  0.250000  0.098667  0.793712  1
  Pr  Pr1  1  0.750000  0.901421  0.206199  1
  Pr  Pr2  1  0.250000  0.287085  0.102581  1
  Pr  Pr3  1  0.750000  0.712866  0.897333  1
  Pr  Pr4  1  0.250000  0.519122  0.293588  1
  Nd  Nd5  1  0.750000  0.480642  0.706173  1
  Nd  Nd6  1  0.250000  0.207803  0.438485  1
  Nd  Nd7  1  0.750000  0.792148  0.561617  1
  As  As8  1  0.250000  0.057411  0.099686  1
  As  As9  1  0.750000  0.942615  0.900254  1
  As  As10  1  0.250000  0.310984  0.688264  1
  As  As11  1  0.750000  0.689441  0.312013  1
  As  As12  1  0.250000  0.607235  0.566846  1
  As  As13  1  0.750000  0.392450  0.433633  1
  As  As14  1  0.250000  0.847472  0.719176  1
  As  As15  1  0.750000  0.152365  0.280808  1
  As  As16  1  0.750000  0.256573  0.917653  1
  As  As17  1  0.250000  0.743473  0.082306  1
  As  As18  1  0.750000  0.095894  0.586624  1
  As  As19  1  0.250000  0.904188  0.413477  1
  As  As20  1  0.750000  0.471937  0.128610  1
  As  As21  1  0.250000  0.528076  0.870843  1
  Ir  Ir22  1  0.250000  0.989897  0.574261  1
  Ir  Ir23  1  0.750000  0.010151  0.425782  1
  Ir  Ir24  1  0.250000  0.665042  0.732910  1
  Ir  Ir25  1  0.750000  0.334616  0.266874  1
  Ir  Ir26  1  0.250000  0.555759  0.044926  1
  Ir  Ir27  1  0.750000  0.444296  0.954582  1
  Ir  Ir28  1  0.250000  0.053936  0.278312  1
  Ir  Ir29  1  0.750000  0.946003  0.721678  1
  Ir  Ir30  1  0.250000  0.424817  0.526420  1
  Ir  Ir31  1  0.750000  0.575188  0.474250  1
  Ir  Ir32  1  0.250000  0.918423  0.997604  1
  Ir  Ir33  1  0.750000  0.081613  0.002358  1
  Ir  Ir34  1  0.250000  0.721799  0.400822  1
  Ir  Ir35  1  0.750000  0.278331  0.599578  1
  Ir  Ir36  1  0.250000  0.343668  0.859936  1
  Ir  Ir37  1  0.750000  0.656595  0.139828  1
