# generated using pymatgen
data_Tb6CeHo13Pb16
_symmetry_space_group_name_H-M   'P 1'
_cell_length_a   8.21107751
_cell_length_b   8.28784319
_cell_length_c   15.63957900
_cell_angle_alpha   90.00572416
_cell_angle_beta   90.06637345
_cell_angle_gamma   89.98927095
_symmetry_Int_Tables_number   1
_chemical_formula_structural   Tb6CeHo13Pb16
_chemical_formula_sum   'Tb6 Ce1 Ho13 Pb16'
_cell_volume   1064.30581242
_cell_formula_units_Z   1
loop_
 _symmetry_equiv_pos_site_id
 _symmetry_equiv_pos_as_xyz
  1  'x, y, z'
loop_
 _atom_site_type_symbol
 _atom_site_label
 _atom_site_symmetry_multiplicity
 _atom_site_fract_x
 _atom_site_fract_y
 _atom_site_fract_z
 _atom_site_occupancy
  Tb  Tb0  1  0.035771  0.176774  0.600286  1
  Tb  Tb1  1  0.464144  0.676256  0.399936  1
  Tb  Tb2  1  0.963369  0.823280  0.100590  1
  Tb  Tb3  1  0.464131  0.676424  0.100055  1
  Tb  Tb4  1  0.964190  0.823323  0.399985  1
  Tb  Tb5  1  0.535904  0.324031  0.599777  1
  Ce  Ce6  1  0.035139  0.177657  0.900739  1
  Ho  Ho7  1  0.376858  0.840703  0.878792  1
  Ho  Ho8  1  0.876224  0.658503  0.620952  1
  Ho  Ho9  1  0.623674  0.158389  0.378952  1
  Ho  Ho10  1  0.123204  0.341640  0.121257  1
  Ho  Ho11  1  0.623481  0.158478  0.121068  1
  Ho  Ho12  1  0.123662  0.341467  0.378967  1
  Ho  Ho13  1  0.376460  0.841558  0.621281  1
  Ho  Ho14  1  0.875762  0.658559  0.878948  1
  Ho  Ho15  1  0.537295  0.324561  0.899463  1
  Ho  Ho16  1  0.208623  0.503965  0.749897  1
  Ho  Ho17  1  0.707884  0.995339  0.749525  1
  Ho  Ho18  1  0.791788  0.496025  0.249996  1
  Ho  Ho19  1  0.291898  0.004276  0.250165  1
  Pb  Pb20  1  0.282318  0.032835  0.043186  1
  Pb  Pb21  1  0.782117  0.466228  0.456971  1
  Pb  Pb22  1  0.718073  0.966376  0.543119  1
  Pb  Pb23  1  0.219342  0.532248  0.956611  1
  Pb  Pb24  1  0.717432  0.966406  0.956958  1
  Pb  Pb25  1  0.218124  0.533908  0.542928  1
  Pb  Pb26  1  0.282215  0.033821  0.457173  1
  Pb  Pb27  1  0.781214  0.465966  0.042575  1
  Pb  Pb28  1  0.571109  0.626550  0.750141  1
  Pb  Pb29  1  0.071091  0.873125  0.750303  1
  Pb  Pb30  1  0.428527  0.373611  0.249864  1
  Pb  Pb31  1  0.928434  0.126384  0.249962  1
  Pb  Pb32  1  0.348279  0.153543  0.750326  1
  Pb  Pb33  1  0.846049  0.347845  0.749321  1
  Pb  Pb34  1  0.653247  0.846752  0.249975  1
  Pb  Pb35  1  0.152968  0.653196  0.249954  1
