# generated using pymatgen
data_Y7Sn23(IrRu)3
_symmetry_space_group_name_H-M   'P 1'
_cell_length_a   9.89905200
_cell_length_b   9.89905293
_cell_length_c   10.09459900
_cell_angle_alpha   90.00000000
_cell_angle_beta   90.00000000
_cell_angle_gamma   120.00000358
_symmetry_Int_Tables_number   1
_chemical_formula_structural   Y7Sn23(IrRu)3
_chemical_formula_sum   'Y7 Sn23 Ir3 Ru3'
_cell_volume   856.65694403
_cell_formula_units_Z   1
loop_
 _symmetry_equiv_pos_site_id
 _symmetry_equiv_pos_as_xyz
  1  'x, y, z'
loop_
 _atom_site_type_symbol
 _atom_site_label
 _atom_site_symmetry_multiplicity
 _atom_site_fract_x
 _atom_site_fract_y
 _atom_site_fract_z
 _atom_site_occupancy
  Y  Y0  1  0.000000  0.000000  0.998799  1
  Y  Y1  1  0.037989  0.518995  0.304791  1
  Y  Y2  1  0.481005  0.962011  0.304791  1
  Y  Y3  1  0.481005  0.518995  0.304791  1
  Y  Y4  1  0.963739  0.481869  0.694157  1
  Y  Y5  1  0.518131  0.036261  0.694157  1
  Y  Y6  1  0.518131  0.481869  0.694157  1
  Sn  Sn7  1  0.000000  0.000000  0.498344  1
  Sn  Sn8  1  0.117361  0.882639  0.283682  1
  Sn  Sn9  1  0.765279  0.882639  0.283682  1
  Sn  Sn10  1  0.117361  0.234721  0.283682  1
  Sn  Sn11  1  0.883601  0.116399  0.722583  1
  Sn  Sn12  1  0.232799  0.116399  0.722583  1
  Sn  Sn13  1  0.883601  0.767201  0.722583  1
  Sn  Sn14  1  0.349707  0.998082  0.998723  1
  Sn  Sn15  1  0.648375  0.650293  0.998723  1
  Sn  Sn16  1  0.001918  0.351625  0.998723  1
  Sn  Sn17  1  0.349707  0.351625  0.998723  1
  Sn  Sn18  1  0.001918  0.650293  0.998723  1
  Sn  Sn19  1  0.648375  0.998082  0.998723  1
  Sn  Sn20  1  0.777834  0.555667  0.457985  1
  Sn  Sn21  1  0.777834  0.222166  0.457985  1
  Sn  Sn22  1  0.444333  0.222166  0.457985  1
  Sn  Sn23  1  0.222365  0.444731  0.543386  1
  Sn  Sn24  1  0.222365  0.777635  0.543386  1
  Sn  Sn25  1  0.555269  0.777635  0.543386  1
  Sn  Sn26  1  0.666667  0.333333  0.176740  1
  Sn  Sn27  1  0.333333  0.666667  0.819310  1
  Sn  Sn28  1  0.666667  0.333333  0.877105  1
  Sn  Sn29  1  0.333333  0.666667  0.121980  1
  Ir  Ir30  1  0.830561  0.169439  0.198908  1
  Ir  Ir31  1  0.338877  0.169439  0.198908  1
  Ir  Ir32  1  0.830561  0.661123  0.198908  1
  Ru  Ru33  1  0.168431  0.831569  0.799634  1
  Ru  Ru34  1  0.663140  0.831569  0.799634  1
  Ru  Ru35  1  0.168431  0.336860  0.799634  1
