# generated using pymatgen
data_Ca14HgBi11
_symmetry_space_group_name_H-M   'P 1'
_cell_length_a   16.60538127
_cell_length_b   16.60538090
_cell_length_c   16.60538100
_cell_angle_alpha   117.56788670
_cell_angle_beta   117.56788604
_cell_angle_gamma   94.26683545
_symmetry_Int_Tables_number   1
_chemical_formula_structural   Ca14HgBi11
_chemical_formula_sum   'Ca56 Hg4 Bi44'
_cell_volume   3346.64356403
_cell_formula_units_Z   4
loop_
 _symmetry_equiv_pos_site_id
 _symmetry_equiv_pos_as_xyz
  1  'x, y, z'
loop_
 _atom_site_type_symbol
 _atom_site_label
 _atom_site_symmetry_multiplicity
 _atom_site_fract_x
 _atom_site_fract_y
 _atom_site_fract_z
 _atom_site_occupancy
  Ca  Ca0  1  0.306501  0.645527  0.017390  1
  Ca  Ca1  1  0.400705  0.003004  0.650153  1
  Ca  Ca2  1  0.395527  0.878137  0.839026  1
  Ca  Ca3  1  0.162329  0.378972  0.132783  1
  Ca  Ca4  1  0.039111  0.556501  0.160974  1
  Ca  Ca5  1  0.253004  0.150705  0.150153  1
  Ca  Ca6  1  0.996996  0.647150  0.397701  1
  Ca  Ca7  1  0.210889  0.871863  0.017390  1
  Ca  Ca8  1  0.477073  0.875000  0.102074  1
  Ca  Ca9  1  0.849295  0.999449  0.102299  1
  Ca  Ca10  1  0.625000  0.522927  0.397927  1
  Ca  Ca11  1  0.349295  0.246996  0.849847  1
  Ca  Ca12  1  0.854473  0.193499  0.982610  1
  Ca  Ca13  1  0.746189  0.878972  0.216643  1
  Ca  Ca14  1  0.772926  0.375000  0.897926  1
  Ca  Ca15  1  0.121028  0.337671  0.867217  1
  Ca  Ca16  1  0.943499  0.460889  0.839026  1
  Ca  Ca17  1  0.753004  0.602850  0.102299  1
  Ca  Ca18  1  0.710889  0.693499  0.339026  1
  Ca  Ca19  1  0.496996  0.099295  0.349847  1
  Ca  Ca20  1  0.900705  0.250551  0.397701  1
  Ca  Ca21  1  0.352850  0.750551  0.349847  1
  Ca  Ca22  1  0.354473  0.371863  0.660974  1
  Ca  Ca23  1  0.503811  0.220454  0.632783  1
  Ca  Ca24  1  0.246189  0.029546  0.867217  1
  Ca  Ca25  1  0.621863  0.104473  0.160974  1
  Ca  Ca26  1  0.852850  0.503004  0.602299  1
  Ca  Ca27  1  0.897150  0.746996  0.897701  1
  Ca  Ca28  1  0.895527  0.056501  0.517390  1
  Ca  Ca29  1  0.121863  0.960889  0.517390  1
  Ca  Ca30  1  0.628972  0.912329  0.632783  1
  Ca  Ca31  1  0.087671  0.720454  0.716643  1
  Ca  Ca32  1  0.128137  0.145527  0.339026  1
  Ca  Ca33  1  0.272927  0.375000  0.397926  1
  Ca  Ca34  1  0.539111  0.378137  0.482610  1
  Ca  Ca35  1  0.625000  0.022926  0.897926  1
  Ca  Ca36  1  0.749449  0.147150  0.650153  1
  Ca  Ca37  1  0.003811  0.371028  0.283357  1
  Ca  Ca38  1  0.128972  0.496189  0.716643  1
  Ca  Ca39  1  0.500551  0.650705  0.897701  1
  Ca  Ca40  1  0.970454  0.837671  0.216643  1
  Ca  Ca41  1  0.587671  0.871028  0.367217  1
  Ca  Ca42  1  0.125000  0.227074  0.602074  1
  Ca  Ca43  1  0.249449  0.599295  0.602299  1
  Ca  Ca44  1  0.779546  0.412329  0.283357  1
  Ca  Ca45  1  0.621028  0.753811  0.783357  1
  Ca  Ca46  1  0.443499  0.604473  0.482610  1
  Ca  Ca47  1  0.125000  0.727074  0.102074  1
  Ca  Ca48  1  0.628137  0.289111  0.982610  1
  Ca  Ca49  1  0.977074  0.875000  0.602074  1
  Ca  Ca50  1  0.397150  0.499449  0.150153  1
  Ca  Ca51  1  0.279546  0.996189  0.367217  1
  Ca  Ca52  1  0.662329  0.529546  0.783357  1
  Ca  Ca53  1  0.000551  0.102850  0.849847  1
  Ca  Ca54  1  0.806501  0.789111  0.660974  1
  Ca  Ca55  1  0.470454  0.253811  0.132783  1
  Hg  Hg56  1  0.000000  0.000000  0.000000  1
  Hg  Hg57  1  0.500000  0.500000  0.000000  1
  Hg  Hg58  1  0.250000  0.750000  0.500000  1
  Hg  Hg59  1  0.750000  0.250000  0.500000  1
  Bi  Bi60  1  0.286593  0.427722  0.847639  1
  Bi  Bi61  1  0.362554  0.862554  0.225110  1
  Bi  Bi62  1  0.786593  0.938954  0.858870  1
  Bi  Bi63  1  0.169916  0.811046  0.347639  1
  Bi  Bi64  1  0.958043  0.050750  0.352936  1
  Bi  Bi65  1  0.177722  0.830084  0.641130  1
  Bi  Bi66  1  0.112554  0.112554  0.725110  1
  Bi  Bi67  1  0.791957  0.199250  0.147064  1
  Bi  Bi68  1  0.355108  0.208043  0.407293  1
  Bi  Bi69  1  0.250000  0.250000  0.000000  1
  Bi  Bi70  1  0.800750  0.947813  0.592707  1
  Bi  Bi71  1  0.463407  0.822278  0.652361  1
  Bi  Bi72  1  0.061046  0.919916  0.847639  1
  Bi  Bi73  1  0.862554  0.637446  0.500000  1
  Bi  Bi74  1  0.552187  0.699250  0.407293  1
  Bi  Bi75  1  0.677722  0.036593  0.347639  1
  Bi  Bi76  1  0.072278  0.213407  0.152361  1
  Bi  Bi77  1  0.137446  0.362554  0.500000  1
  Bi  Bi78  1  0.188954  0.536593  0.358870  1
  Bi  Bi79  1  0.387446  0.387446  0.274890  1
  Bi  Bi80  1  0.500000  0.000000  0.500000  1
  Bi  Bi81  1  0.080084  0.927722  0.141130  1
  Bi  Bi82  1  0.572278  0.419916  0.858870  1
  Bi  Bi83  1  0.449250  0.541957  0.647064  1
  Bi  Bi84  1  0.669916  0.322278  0.358870  1
  Bi  Bi85  1  0.458043  0.105108  0.907293  1
  Bi  Bi86  1  0.394892  0.041957  0.092707  1
  Bi  Bi87  1  0.894892  0.802187  0.352936  1
  Bi  Bi88  1  0.697813  0.605108  0.647064  1
  Bi  Bi89  1  0.688954  0.330084  0.652361  1
  Bi  Bi90  1  0.750000  0.750000  0.000000  1
  Bi  Bi91  1  0.197813  0.550750  0.092707  1
  Bi  Bi92  1  0.963407  0.311046  0.641130  1
  Bi  Bi93  1  0.855108  0.447813  0.147064  1
  Bi  Bi94  1  0.887446  0.612554  0.000000  1
  Bi  Bi95  1  0.300750  0.708043  0.852936  1
  Bi  Bi96  1  0.000000  0.500000  0.500000  1
  Bi  Bi97  1  0.291957  0.144892  0.592707  1
  Bi  Bi98  1  0.637446  0.137446  0.774890  1
  Bi  Bi99  1  0.561046  0.713407  0.141130  1
  Bi  Bi100  1  0.580084  0.438954  0.152361  1
  Bi  Bi101  1  0.052187  0.644892  0.852936  1
  Bi  Bi102  1  0.949250  0.302187  0.907293  1
  Bi  Bi103  1  0.612554  0.887446  0.000000  1
