# generated using pymatgen
data_NbI10Br
_symmetry_space_group_name_H-M   'P 1'
_cell_length_a   8.44106466
_cell_length_b   9.00655960
_cell_length_c   9.19193084
_cell_angle_alpha   93.83105388
_cell_angle_beta   89.84392820
_cell_angle_gamma   108.04970158
_symmetry_Int_Tables_number   1
_chemical_formula_structural   NbI10Br
_chemical_formula_sum   'Nb1 I10 Br1'
_cell_volume   662.82225281
_cell_formula_units_Z   1
loop_
 _symmetry_equiv_pos_site_id
 _symmetry_equiv_pos_as_xyz
  1  'x, y, z'
loop_
 _atom_site_type_symbol
 _atom_site_label
 _atom_site_symmetry_multiplicity
 _atom_site_fract_x
 _atom_site_fract_y
 _atom_site_fract_z
 _atom_site_occupancy
  Nb  Nb0  1  0.021923  0.510085  0.519888  1
  I  I1  1  0.022219  0.994575  0.984043  1
  I  I2  1  0.698284  0.764308  0.857629  1
  I  I3  1  0.324426  0.211463  0.102027  1
  I  I4  1  0.671350  0.283325  0.541373  1
  I  I5  1  0.308062  0.732102  0.473721  1
  I  I6  1  0.517444  0.745454  0.119562  1
  I  I7  1  0.523406  0.250872  0.825677  1
  I  I8  1  0.852265  0.752954  0.547031  1
  I  I9  1  0.138754  0.265535  0.500028  1
  I  I10  1  0.899917  0.464743  0.240121  1
  Br  Br11  1  0.021949  0.524583  0.788899  1
