# generated using pymatgen
data_TbDy5Al21Si3Os8
_symmetry_space_group_name_H-M   'P 1'
_cell_length_a   8.72427400
_cell_length_b   8.72426525
_cell_length_c   9.65324100
_cell_angle_alpha   90.00113044
_cell_angle_beta   89.99876539
_cell_angle_gamma   119.99882887
_symmetry_Int_Tables_number   1
_chemical_formula_structural   TbDy5Al21Si3Os8
_chemical_formula_sum   'Tb1 Dy5 Al21 Si3 Os8'
_cell_volume   636.30753154
_cell_formula_units_Z   1
loop_
 _symmetry_equiv_pos_site_id
 _symmetry_equiv_pos_as_xyz
  1  'x, y, z'
loop_
 _atom_site_type_symbol
 _atom_site_label
 _atom_site_symmetry_multiplicity
 _atom_site_fract_x
 _atom_site_fract_y
 _atom_site_fract_z
 _atom_site_occupancy
  Tb  Tb0  1  0.804986  0.195014  0.752896  1
  Dy  Dy1  1  0.194764  0.389498  0.247456  1
  Dy  Dy2  1  0.804728  0.609570  0.752900  1
  Dy  Dy3  1  0.610501  0.805235  0.247456  1
  Dy  Dy4  1  0.390431  0.195273  0.752900  1
  Dy  Dy5  1  0.194743  0.805257  0.247460  1
  Al  Al6  1  0.333330  0.666671  0.476569  1
  Al  Al7  1  0.164319  0.328497  0.573776  1
  Al  Al8  1  0.834984  0.669966  0.424026  1
  Al  Al9  1  0.671503  0.835682  0.573775  1
  Al  Al10  1  0.834868  0.669740  0.076465  1
  Al  Al11  1  0.330034  0.165016  0.424026  1
  Al  Al12  1  0.165567  0.330979  0.923164  1
  Al  Al13  1  0.164233  0.835768  0.573803  1
  Al  Al14  1  0.330261  0.165132  0.076465  1
  Al  Al15  1  0.834988  0.165011  0.423963  1
  Al  Al16  1  0.669021  0.834433  0.923164  1
  Al  Al17  1  0.834874  0.165125  0.076555  1
  Al  Al18  1  0.165470  0.834531  0.923135  1
  Al  Al19  1  0.563553  0.127109  0.248767  1
  Al  Al20  1  0.436636  0.873467  0.748746  1
  Al  Al21  1  0.872891  0.436447  0.248768  1
  Al  Al22  1  0.126533  0.563364  0.748746  1
  Al  Al23  1  0.563549  0.436451  0.248768  1
  Al  Al24  1  0.436828  0.563173  0.748747  1
  Al  Al25  1  0.000002  0.999998  0.248903  1
  Al  Al26  1  0.000088  0.999912  0.749566  1
  Si  Si27  1  0.333328  0.666672  0.038907  1
  Si  Si28  1  0.666552  0.333448  0.962411  1
  Si  Si29  1  0.666568  0.333431  0.538914  1
  Os  Os30  1  0.499788  0.999777  0.998940  1
  Os  Os31  1  0.000222  0.500211  0.998941  1
  Os  Os32  1  0.504139  0.008479  0.501276  1
  Os  Os33  1  0.499908  0.500092  0.998866  1
  Os  Os34  1  0.991521  0.495860  0.501276  1
  Os  Os35  1  0.504245  0.495755  0.501359  1
  Os  Os36  1  0.000024  0.999976  0.998928  1
  Os  Os37  1  0.000021  0.999979  0.499212  1
