# generated using pymatgen
data_Ce6Al24Os6PtRh
_symmetry_space_group_name_H-M   'P 1'
_cell_length_a   8.89971722
_cell_length_b   8.89971735
_cell_length_c   9.55045726
_cell_angle_alpha   90.02326607
_cell_angle_beta   89.97673259
_cell_angle_gamma   119.61484692
_symmetry_Int_Tables_number   1
_chemical_formula_structural   Ce6Al24Os6PtRh
_chemical_formula_sum   'Ce6 Al24 Os6 Pt1 Rh1'
_cell_volume   657.62701150
_cell_formula_units_Z   1
loop_
 _symmetry_equiv_pos_site_id
 _symmetry_equiv_pos_as_xyz
  1  'x, y, z'
loop_
 _atom_site_type_symbol
 _atom_site_label
 _atom_site_symmetry_multiplicity
 _atom_site_fract_x
 _atom_site_fract_y
 _atom_site_fract_z
 _atom_site_occupancy
  Ce  Ce0  1  0.185114  0.385114  0.249641  1
  Ce  Ce1  1  0.814886  0.614886  0.750359  1
  Ce  Ce2  1  0.614886  0.814886  0.249641  1
  Ce  Ce3  1  0.385114  0.185114  0.750359  1
  Ce  Ce4  1  0.194006  0.805994  0.249498  1
  Ce  Ce5  1  0.805994  0.194006  0.750502  1
  Al  Al6  1  0.333521  0.666479  0.021171  1
  Al  Al7  1  0.666479  0.333521  0.978829  1
  Al  Al8  1  0.667989  0.332011  0.522272  1
  Al  Al9  1  0.332011  0.667989  0.477728  1
  Al  Al10  1  0.158714  0.323636  0.576610  1
  Al  Al11  1  0.841286  0.676364  0.423390  1
  Al  Al12  1  0.676364  0.841286  0.576610  1
  Al  Al13  1  0.838275  0.675476  0.076395  1
  Al  Al14  1  0.323636  0.158714  0.423390  1
  Al  Al15  1  0.161725  0.324524  0.923605  1
  Al  Al16  1  0.163709  0.836291  0.576648  1
  Al  Al17  1  0.324524  0.161725  0.076395  1
  Al  Al18  1  0.836291  0.163709  0.423352  1
  Al  Al19  1  0.675476  0.838275  0.923605  1
  Al  Al20  1  0.836132  0.163868  0.076288  1
  Al  Al21  1  0.163868  0.836132  0.923712  1
  Al  Al22  1  0.561554  0.127228  0.250208  1
  Al  Al23  1  0.438446  0.872772  0.749792  1
  Al  Al24  1  0.872772  0.438446  0.250208  1
  Al  Al25  1  0.127228  0.561554  0.749792  1
  Al  Al26  1  0.561031  0.438969  0.247174  1
  Al  Al27  1  0.438969  0.561031  0.752826  1
  Al  Al28  1  0.999042  0.000958  0.249898  1
  Al  Al29  1  0.000958  0.999042  0.750102  1
  Os  Os30  1  0.500000  0.000000  0.000000  1
  Os  Os31  1  0.000000  0.500000  0.000000  1
  Os  Os32  1  0.500000  0.000000  0.500000  1
  Os  Os33  1  0.000000  0.500000  0.500000  1
  Os  Os34  1  0.000000  0.000000  0.000000  1
  Os  Os35  1  0.000000  0.000000  0.500000  1
  Pt  Pt36  1  0.500000  0.500000  0.500000  1
  Rh  Rh37  1  0.500000  0.500000  0.000000  1
