# generated using pymatgen
data_Nb6Ga4CoReC2
_symmetry_space_group_name_H-M   'P 1'
_cell_length_a   8.29326973
_cell_length_b   8.32138101
_cell_length_c   8.29326994
_cell_angle_alpha   59.88782212
_cell_angle_beta   59.87013466
_cell_angle_gamma   59.88781877
_symmetry_Int_Tables_number   1
_chemical_formula_structural   Nb6Ga4CoReC2
_chemical_formula_sum   'Nb12 Ga8 Co2 Re2 C4'
_cell_volume   403.61465191
_cell_formula_units_Z   2
loop_
 _symmetry_equiv_pos_site_id
 _symmetry_equiv_pos_as_xyz
  1  'x, y, z'
loop_
 _atom_site_type_symbol
 _atom_site_label
 _atom_site_symmetry_multiplicity
 _atom_site_fract_x
 _atom_site_fract_y
 _atom_site_fract_z
 _atom_site_occupancy
  Nb  Nb0  1  0.691079  0.308921  0.691079  1
  Nb  Nb1  1  0.945553  0.561430  0.549057  1
  Nb  Nb2  1  0.549057  0.943959  0.945553  1
  Nb  Nb3  1  0.949880  0.550120  0.949880  1
  Nb  Nb4  1  0.549057  0.561430  0.945553  1
  Nb  Nb5  1  0.945553  0.943959  0.549057  1
  Nb  Nb6  1  0.700943  0.688570  0.304447  1
  Nb  Nb7  1  0.304447  0.688570  0.700943  1
  Nb  Nb8  1  0.700943  0.306041  0.304447  1
  Nb  Nb9  1  0.304447  0.306041  0.700943  1
  Nb  Nb10  1  0.558921  0.941079  0.558921  1
  Nb  Nb11  1  0.300120  0.699880  0.300120  1
  Ga  Ga12  1  0.342070  0.324311  0.342070  1
  Ga  Ga13  1  0.253774  0.922118  0.901988  1
  Ga  Ga14  1  0.907930  0.258451  0.907930  1
  Ga  Ga15  1  0.901988  0.922118  0.253774  1
  Ga  Ga16  1  0.342070  0.991549  0.342070  1
  Ga  Ga17  1  0.348012  0.327882  0.996226  1
  Ga  Ga18  1  0.996226  0.327882  0.348012  1
  Ga  Ga19  1  0.907930  0.925689  0.907930  1
  Co  Co20  1  0.625000  0.125000  0.125000  1
  Co  Co21  1  0.125000  0.125000  0.625000  1
  Re  Re22  1  0.125000  0.125000  0.125000  1
  Re  Re23  1  0.125000  0.625000  0.125000  1
  C  C24  1  0.625000  0.625000  0.625000  1
  C  C25  1  0.125000  0.625000  0.625000  1
  C  C26  1  0.625000  0.125000  0.625000  1
  C  C27  1  0.625000  0.625000  0.125000  1
