# generated using pymatgen
data_Lu7ZrTi11Si16Mo
_symmetry_space_group_name_H-M   'P 1'
_cell_length_a   6.97307711
_cell_length_b   6.97573496
_cell_length_c   12.80155700
_cell_angle_alpha   89.91743703
_cell_angle_beta   90.05415637
_cell_angle_gamma   89.97409849
_symmetry_Int_Tables_number   1
_chemical_formula_structural   Lu7ZrTi11Si16Mo
_chemical_formula_sum   'Lu7 Zr1 Ti11 Si16 Mo1'
_cell_volume   622.69667136
_cell_formula_units_Z   1
loop_
 _symmetry_equiv_pos_site_id
 _symmetry_equiv_pos_as_xyz
  1  'x, y, z'
loop_
 _atom_site_type_symbol
 _atom_site_label
 _atom_site_symmetry_multiplicity
 _atom_site_fract_x
 _atom_site_fract_y
 _atom_site_fract_z
 _atom_site_occupancy
  Lu  Lu0  1  0.341569  0.001726  0.466084  1
  Lu  Lu1  1  0.498679  0.840584  0.718583  1
  Lu  Lu2  1  0.499977  0.158999  0.214310  1
  Lu  Lu3  1  0.840599  0.498524  0.281953  1
  Lu  Lu4  1  0.159152  0.499840  0.784047  1
  Lu  Lu5  1  0.658517  0.998619  0.968868  1
  Lu  Lu6  1  0.002500  0.340523  0.532837  1
  Zr  Zr7  1  0.003490  0.654339  0.033495  1
  Ti  Ti8  1  0.171828  0.825915  0.248316  1
  Ti  Ti9  1  0.827437  0.173127  0.751357  1
  Ti  Ti10  1  0.673340  0.673299  0.500087  1
  Ti  Ti11  1  0.150524  0.007984  0.876733  1
  Ti  Ti12  1  0.492349  0.652048  0.122909  1
  Ti  Ti13  1  0.506656  0.348979  0.625788  1
  Ti  Ti14  1  0.650549  0.495004  0.877527  1
  Ti  Ti15  1  0.349090  0.506813  0.373512  1
  Ti  Ti16  1  0.848644  0.992508  0.373762  1
  Ti  Ti17  1  0.006781  0.154550  0.123834  1
  Ti  Ti18  1  0.993383  0.848934  0.625955  1
  Si  Si19  1  0.203822  0.131939  0.683120  1
  Si  Si20  1  0.364841  0.703768  0.932312  1
  Si  Si21  1  0.632996  0.296217  0.432245  1
  Si  Si22  1  0.705957  0.370687  0.068293  1
  Si  Si23  1  0.297042  0.633225  0.567508  1
  Si  Si24  1  0.798875  0.864705  0.179491  1
  Si  Si25  1  0.132140  0.203509  0.316412  1
  Si  Si26  1  0.868176  0.793983  0.821445  1
  Si  Si27  1  0.289660  0.952379  0.064629  1
  Si  Si28  1  0.546473  0.792895  0.313518  1
  Si  Si29  1  0.453539  0.207115  0.815745  1
  Si  Si30  1  0.793333  0.545972  0.685970  1
  Si  Si31  1  0.206014  0.454057  0.184049  1
  Si  Si32  1  0.706965  0.046634  0.565092  1
  Si  Si33  1  0.953419  0.294880  0.935578  1
  Si  Si34  1  0.047084  0.707105  0.434830  1
  Mo  Mo35  1  0.324598  0.328614  0.999803  1
