# generated using pymatgen
data_SrTbY5PtI12
_symmetry_space_group_name_H-M   'P 1'
_cell_length_a   9.83642619
_cell_length_b   9.83827060
_cell_length_c   9.83861036
_cell_angle_alpha   106.47580350
_cell_angle_beta   106.45318128
_cell_angle_gamma   106.46293178
_symmetry_Int_Tables_number   1
_chemical_formula_structural   SrTbY5PtI12
_chemical_formula_sum   'Sr1 Tb1 Y5 Pt1 I12'
_cell_volume   804.24410621
_cell_formula_units_Z   1
loop_
 _symmetry_equiv_pos_site_id
 _symmetry_equiv_pos_as_xyz
  1  'x, y, z'
loop_
 _atom_site_type_symbol
 _atom_site_label
 _atom_site_symmetry_multiplicity
 _atom_site_fract_x
 _atom_site_fract_y
 _atom_site_fract_z
 _atom_site_occupancy
  Sr  Sr0  1  0.499972  0.500025  0.499982  1
  Tb  Tb1  1  0.976422  0.700422  0.903800  1
  Y  Y2  1  0.096146  0.023874  0.299601  1
  Y  Y3  1  0.299554  0.096321  0.023773  1
  Y  Y4  1  0.023686  0.299396  0.096026  1
  Y  Y5  1  0.903866  0.976535  0.700535  1
  Y  Y6  1  0.700473  0.903979  0.976314  1
  Pt  Pt7  1  0.000007  0.999732  0.999947  1
  I  I8  1  0.073979  0.677075  0.223238  1
  I  I9  1  0.222887  0.073903  0.677074  1
  I  I10  1  0.677041  0.222914  0.073905  1
  I  I11  1  0.926049  0.322405  0.777033  1
  I  I12  1  0.777143  0.926151  0.322944  1
  I  I13  1  0.323165  0.777223  0.926169  1
  I  I14  1  0.451735  0.137357  0.372159  1
  I  I15  1  0.372182  0.451784  0.137358  1
  I  I16  1  0.137313  0.372190  0.451735  1
  I  I17  1  0.548251  0.862699  0.627858  1
  I  I18  1  0.627623  0.548207  0.862637  1
  I  I19  1  0.862506  0.627809  0.547912  1
