# generated using pymatgen
data_Hf2Nb4Si7Ni16
_symmetry_space_group_name_H-M   'P 1'
_cell_length_a   8.00431104
_cell_length_b   8.00758700
_cell_length_c   8.00758688
_cell_angle_alpha   60.05292529
_cell_angle_beta   60.01353748
_cell_angle_gamma   60.01353667
_symmetry_Int_Tables_number   1
_chemical_formula_structural   Hf2Nb4Si7Ni16
_chemical_formula_sum   'Hf2 Nb4 Si7 Ni16'
_cell_volume   363.14042417
_cell_formula_units_Z   1
loop_
 _symmetry_equiv_pos_site_id
 _symmetry_equiv_pos_as_xyz
  1  'x, y, z'
loop_
 _atom_site_type_symbol
 _atom_site_label
 _atom_site_symmetry_multiplicity
 _atom_site_fract_x
 _atom_site_fract_y
 _atom_site_fract_z
 _atom_site_occupancy
  Hf  Hf0  1  0.795629  0.793997  0.206003  1
  Hf  Hf1  1  0.795629  0.206003  0.793997  1
  Nb  Nb2  1  0.204021  0.798801  0.201199  1
  Nb  Nb3  1  0.797430  0.204704  0.204704  1
  Nb  Nb4  1  0.206839  0.795296  0.795296  1
  Nb  Nb5  1  0.204021  0.201199  0.798801  1
  Si  Si6  1  0.502757  0.500000  0.500000  1
  Si  Si7  1  0.496905  0.003146  0.501905  1
  Si  Si8  1  0.001956  0.498095  0.996854  1
  Si  Si9  1  0.001956  0.996854  0.498095  1
  Si  Si10  1  0.495225  0.000000  0.000000  1
  Si  Si11  1  0.005788  0.500000  0.500000  1
  Si  Si12  1  0.496905  0.501905  0.003146  1
  Ni  Ni13  1  0.166302  0.168710  0.495947  1
  Ni  Ni14  1  0.496788  0.167212  0.167212  1
  Ni  Ni15  1  0.168362  0.169082  0.169082  1
  Ni  Ni16  1  0.506524  0.830918  0.830918  1
  Ni  Ni17  1  0.831211  0.832788  0.832788  1
  Ni  Ni18  1  0.830958  0.831290  0.504053  1
  Ni  Ni19  1  0.166302  0.495947  0.168710  1
  Ni  Ni20  1  0.616222  0.148963  0.616031  1
  Ni  Ni21  1  0.381216  0.383969  0.851037  1
  Ni  Ni22  1  0.852616  0.381233  0.381233  1
  Ni  Ni23  1  0.383984  0.383496  0.383496  1
  Ni  Ni24  1  0.150977  0.616504  0.616504  1
  Ni  Ni25  1  0.615082  0.618767  0.618767  1
  Ni  Ni26  1  0.616222  0.616031  0.148963  1
  Ni  Ni27  1  0.381216  0.851037  0.383969  1
  Ni  Ni28  1  0.830958  0.504053  0.831290  1
