# generated using pymatgen
data_LiNdHgPt3
_symmetry_space_group_name_H-M   'P 1'
_cell_length_a   5.50029024
_cell_length_b   5.50029049
_cell_length_c   5.27156469
_cell_angle_alpha   58.55402416
_cell_angle_beta   58.55402874
_cell_angle_gamma   59.99998761
_symmetry_Int_Tables_number   1
_chemical_formula_structural   LiNdHgPt3
_chemical_formula_sum   'Li1 Nd1 Hg1 Pt3'
_cell_volume   110.24266911
_cell_formula_units_Z   1
loop_
 _symmetry_equiv_pos_site_id
 _symmetry_equiv_pos_as_xyz
  1  'x, y, z'
loop_
 _atom_site_type_symbol
 _atom_site_label
 _atom_site_symmetry_multiplicity
 _atom_site_fract_x
 _atom_site_fract_y
 _atom_site_fract_z
 _atom_site_occupancy
  Li  Li0  1  0.621088  0.621088  0.136737  1
  Nd  Nd1  1  0.004686  0.004686  0.985942  1
  Hg  Hg2  1  0.253735  0.253735  0.238795  1
  Pt  Pt3  1  0.623387  0.123720  0.629509  1
  Pt  Pt4  1  0.123720  0.623387  0.629509  1
  Pt  Pt5  1  0.623387  0.623387  0.629509  1
