# generated using pymatgen
data_Tm8Sc12Si13Ni3
_symmetry_space_group_name_H-M   'P 1'
_cell_length_a   6.91561501
_cell_length_b   7.46103313
_cell_length_c   13.81433800
_cell_angle_alpha   90.00000000
_cell_angle_beta   90.00000000
_cell_angle_gamma   90.01356029
_symmetry_Int_Tables_number   1
_chemical_formula_structural   Tm8Sc12Si13Ni3
_chemical_formula_sum   'Tm8 Sc12 Si13 Ni3'
_cell_volume   712.78711815
_cell_formula_units_Z   1
loop_
 _symmetry_equiv_pos_site_id
 _symmetry_equiv_pos_as_xyz
  1  'x, y, z'
loop_
 _atom_site_type_symbol
 _atom_site_label
 _atom_site_symmetry_multiplicity
 _atom_site_fract_x
 _atom_site_fract_y
 _atom_site_fract_z
 _atom_site_occupancy
  Tm  Tm0  1  0.005983  0.178052  0.093775  1
  Tm  Tm1  1  0.992265  0.820661  0.908860  1
  Tm  Tm2  1  0.491007  0.680239  0.907690  1
  Tm  Tm3  1  0.992265  0.820661  0.591140  1
  Tm  Tm4  1  0.507502  0.320883  0.094613  1
  Tm  Tm5  1  0.005983  0.178052  0.406225  1
  Tm  Tm6  1  0.507502  0.320883  0.405387  1
  Tm  Tm7  1  0.491007  0.680239  0.592310  1
  Sc  Sc8  1  0.161576  0.511224  0.750000  1
  Sc  Sc9  1  0.824400  0.494784  0.250000  1
  Sc  Sc10  1  0.323195  0.007988  0.250000  1
  Sc  Sc11  1  0.675918  0.996061  0.750000  1
  Sc  Sc12  1  0.317611  0.172703  0.626615  1
  Sc  Sc13  1  0.677849  0.828758  0.370004  1
  Sc  Sc14  1  0.179404  0.673034  0.369528  1
  Sc  Sc15  1  0.677849  0.828758  0.129996  1
  Sc  Sc16  1  0.834626  0.320778  0.626132  1
  Sc  Sc17  1  0.317611  0.172703  0.873385  1
  Sc  Sc18  1  0.834626  0.320778  0.873868  1
  Sc  Sc19  1  0.179404  0.673034  0.130472  1
  Si  Si20  1  0.532143  0.389378  0.750000  1
  Si  Si21  1  0.283030  0.871500  0.750000  1
  Si  Si22  1  0.720088  0.129047  0.250000  1
  Si  Si23  1  0.218573  0.374029  0.250000  1
  Si  Si24  1  0.780944  0.626636  0.750000  1
  Si  Si25  1  0.160635  0.466382  0.537801  1
  Si  Si26  1  0.838555  0.534303  0.460919  1
  Si  Si27  1  0.339682  0.967994  0.460087  1
  Si  Si28  1  0.838555  0.534303  0.039081  1
  Si  Si29  1  0.658693  0.033106  0.539801  1
  Si  Si30  1  0.160635  0.466382  0.962199  1
  Si  Si31  1  0.658693  0.033106  0.960199  1
  Si  Si32  1  0.339682  0.967994  0.039913  1
  Ni  Ni33  1  0.034716  0.103407  0.750000  1
  Ni  Ni34  1  0.968015  0.900603  0.250000  1
  Ni  Ni35  1  0.469779  0.601553  0.250000  1
