# generated using pymatgen
data_TbZnCdPt3
_symmetry_space_group_name_H-M   'P 1'
_cell_length_a   5.22237579
_cell_length_b   5.22237587
_cell_length_c   5.22237555
_cell_angle_alpha   63.67867110
_cell_angle_beta   63.67867345
_cell_angle_gamma   63.67866331
_symmetry_Int_Tables_number   1
_chemical_formula_structural   TbZnCdPt3
_chemical_formula_sum   'Tb1 Zn1 Cd1 Pt3'
_cell_volume   108.89495948
_cell_formula_units_Z   1
loop_
 _symmetry_equiv_pos_site_id
 _symmetry_equiv_pos_as_xyz
  1  'x, y, z'
loop_
 _atom_site_type_symbol
 _atom_site_label
 _atom_site_symmetry_multiplicity
 _atom_site_fract_x
 _atom_site_fract_y
 _atom_site_fract_z
 _atom_site_occupancy
  Tb  Tb0  1  0.245911  0.245911  0.245911  1
  Zn  Zn1  1  0.626995  0.626995  0.626995  1
  Cd  Cd2  1  0.997455  0.997455  0.997455  1
  Pt  Pt3  1  0.627046  0.627046  0.125547  1
  Pt  Pt4  1  0.627046  0.125547  0.627046  1
  Pt  Pt5  1  0.125547  0.627046  0.627046  1
