# generated using pymatgen
data_TbEr9(In2Pt)4
_symmetry_space_group_name_H-M   'P 1'
_cell_length_a   3.58996400
_cell_length_b   8.14455129
_cell_length_c   18.19704066
_cell_angle_alpha   89.96923832
_cell_angle_beta   90.00000000
_cell_angle_gamma   90.00000000
_symmetry_Int_Tables_number   1
_chemical_formula_structural   TbEr9(In2Pt)4
_chemical_formula_sum   'Tb1 Er9 In8 Pt4'
_cell_volume   532.05675220
_cell_formula_units_Z   1
loop_
 _symmetry_equiv_pos_site_id
 _symmetry_equiv_pos_as_xyz
  1  'x, y, z'
loop_
 _atom_site_type_symbol
 _atom_site_label
 _atom_site_symmetry_multiplicity
 _atom_site_fract_x
 _atom_site_fract_y
 _atom_site_fract_z
 _atom_site_occupancy
  Tb  Tb0  1  0.000000  0.000000  0.000000  1
  Er  Er1  1  0.000000  0.116511  0.414755  1
  Er  Er2  1  0.000000  0.883489  0.585245  1
  Er  Er3  1  0.000000  0.382537  0.914428  1
  Er  Er4  1  0.000000  0.617463  0.085572  1
  Er  Er5  1  0.000000  0.242687  0.220556  1
  Er  Er6  1  0.000000  0.757313  0.779444  1
  Er  Er7  1  0.000000  0.257426  0.720100  1
  Er  Er8  1  0.000000  0.742574  0.279900  1
  Er  Er9  1  0.000000  0.500000  0.500000  1
  In  In10  1  0.500000  0.422776  0.351377  1
  In  In11  1  0.500000  0.577224  0.648623  1
  In  In12  1  0.500000  0.077464  0.850475  1
  In  In13  1  0.500000  0.922536  0.149525  1
  In  In14  1  0.500000  0.293911  0.066964  1
  In  In15  1  0.500000  0.706089  0.933036  1
  In  In16  1  0.500000  0.207834  0.566462  1
  In  In17  1  0.500000  0.792166  0.433538  1
  Pt  Pt18  1  0.500000  0.024706  0.303715  1
  Pt  Pt19  1  0.500000  0.975294  0.696285  1
  Pt  Pt20  1  0.500000  0.475192  0.803065  1
  Pt  Pt21  1  0.500000  0.524808  0.196935  1
