# generated using pymatgen
data_BaReNO2
_symmetry_space_group_name_H-M   'P 1'
_cell_length_a   8.28702900
_cell_length_b   5.66731522
_cell_length_c   5.70166822
_cell_angle_alpha   89.98743495
_cell_angle_beta   90.00000000
_cell_angle_gamma   90.00000000
_symmetry_Int_Tables_number   1
_chemical_formula_structural   BaReNO2
_chemical_formula_sum   'Ba4 Re4 N4 O8'
_cell_volume   267.78001350
_cell_formula_units_Z   4
loop_
 _symmetry_equiv_pos_site_id
 _symmetry_equiv_pos_as_xyz
  1  'x, y, z'
loop_
 _atom_site_type_symbol
 _atom_site_label
 _atom_site_symmetry_multiplicity
 _atom_site_fract_x
 _atom_site_fract_y
 _atom_site_fract_z
 _atom_site_occupancy
  Ba  Ba0  1  0.750907  0.999515  0.999052  1
  Ba  Ba1  1  0.749827  0.500317  0.499814  1
  Ba  Ba2  1  0.249827  0.499683  0.500186  1
  Ba  Ba3  1  0.250907  0.000485  0.000948  1
  Re  Re4  1  0.500138  0.000752  0.525824  1
  Re  Re5  1  0.000138  0.999248  0.474176  1
  Re  Re6  1  0.000008  0.498566  0.025698  1
  Re  Re7  1  0.500008  0.501434  0.974302  1
  N  N8  1  0.000502  0.748034  0.251305  1
  N  N9  1  0.500237  0.752315  0.751081  1
  N  N10  1  0.000237  0.247685  0.248919  1
  N  N11  1  0.500502  0.251966  0.748695  1
  O  O12  1  0.499900  0.749556  0.251638  1
  O  O13  1  0.749948  0.499200  0.000877  1
  O  O14  1  0.249777  0.000910  0.502393  1
  O  O15  1  0.998755  0.750586  0.751370  1
  O  O16  1  0.498755  0.249414  0.248630  1
  O  O17  1  0.249948  0.500800  0.999123  1
  O  O18  1  0.749777  0.999090  0.497607  1
  O  O19  1  0.999900  0.250444  0.748362  1
