# generated using pymatgen
data_La5PrAl24(RuRh3)2
_symmetry_space_group_name_H-M   'P 1'
_cell_length_a   8.97794900
_cell_length_b   8.97794754
_cell_length_c   9.67921400
_cell_angle_alpha   90.00000000
_cell_angle_beta   90.00000000
_cell_angle_gamma   120.00019962
_symmetry_Int_Tables_number   1
_chemical_formula_structural   La5PrAl24(RuRh3)2
_chemical_formula_sum   'La5 Pr1 Al24 Ru2 Rh6'
_cell_volume   675.65352548
_cell_formula_units_Z   1
loop_
 _symmetry_equiv_pos_site_id
 _symmetry_equiv_pos_as_xyz
  1  'x, y, z'
loop_
 _atom_site_type_symbol
 _atom_site_label
 _atom_site_symmetry_multiplicity
 _atom_site_fract_x
 _atom_site_fract_y
 _atom_site_fract_z
 _atom_site_occupancy
  La  La0  1  0.190487  0.380904  0.250000  1
  La  La1  1  0.808715  0.618776  0.750000  1
  La  La2  1  0.619096  0.809513  0.250000  1
  La  La3  1  0.381224  0.191285  0.750000  1
  La  La4  1  0.190561  0.809439  0.250000  1
  Pr  Pr5  1  0.810060  0.189940  0.750000  1
  Al  Al6  1  0.333244  0.666756  0.005348  1
  Al  Al7  1  0.667490  0.332510  0.985460  1
  Al  Al8  1  0.667490  0.332510  0.514540  1
  Al  Al9  1  0.333244  0.666756  0.494652  1
  Al  Al10  1  0.161115  0.324309  0.575608  1
  Al  Al11  1  0.837271  0.674245  0.424997  1
  Al  Al12  1  0.675691  0.838885  0.575608  1
  Al  Al13  1  0.837271  0.674245  0.075003  1
  Al  Al14  1  0.325755  0.162729  0.424997  1
  Al  Al15  1  0.161115  0.324309  0.924392  1
  Al  Al16  1  0.162209  0.837791  0.576078  1
  Al  Al17  1  0.325755  0.162729  0.075003  1
  Al  Al18  1  0.837341  0.162659  0.425334  1
  Al  Al19  1  0.675691  0.838885  0.924392  1
  Al  Al20  1  0.837341  0.162659  0.074666  1
  Al  Al21  1  0.162209  0.837791  0.923922  1
  Al  Al22  1  0.564670  0.128688  0.250000  1
  Al  Al23  1  0.436863  0.873347  0.750000  1
  Al  Al24  1  0.871312  0.435330  0.250000  1
  Al  Al25  1  0.126653  0.563137  0.750000  1
  Al  Al26  1  0.564606  0.435394  0.250000  1
  Al  Al27  1  0.435400  0.564600  0.750000  1
  Al  Al28  1  0.000038  0.999962  0.250000  1
  Al  Al29  1  0.999585  0.000415  0.750000  1
  Ru  Ru30  1  0.999968  0.000032  0.000651  1
  Ru  Ru31  1  0.999968  0.000032  0.499349  1
  Rh  Rh32  1  0.499270  0.998463  0.000830  1
  Rh  Rh33  1  0.001537  0.500730  0.000830  1
  Rh  Rh34  1  0.499270  0.998463  0.499170  1
  Rh  Rh35  1  0.499474  0.500526  0.000395  1
  Rh  Rh36  1  0.001537  0.500730  0.499170  1
  Rh  Rh37  1  0.499474  0.500526  0.499605  1
