# generated using pymatgen
data_La6GdRhO12
_symmetry_space_group_name_H-M   'P 1'
_cell_length_a   6.96657526
_cell_length_b   6.96657484
_cell_length_c   6.96657500
_cell_angle_alpha   96.45920420
_cell_angle_beta   96.45919554
_cell_angle_gamma   96.45920637
_symmetry_Int_Tables_number   1
_chemical_formula_structural   La6GdRhO12
_chemical_formula_sum   'La6 Gd1 Rh1 O12'
_cell_volume   331.13840959
_cell_formula_units_Z   1
loop_
 _symmetry_equiv_pos_site_id
 _symmetry_equiv_pos_as_xyz
  1  'x, y, z'
loop_
 _atom_site_type_symbol
 _atom_site_label
 _atom_site_symmetry_multiplicity
 _atom_site_fract_x
 _atom_site_fract_y
 _atom_site_fract_z
 _atom_site_occupancy
  La  La0  1  0.726886  0.902195  0.418443  1
  La  La1  1  0.418443  0.726886  0.902195  1
  La  La2  1  0.097805  0.581557  0.273114  1
  La  La3  1  0.902195  0.418443  0.726886  1
  La  La4  1  0.581557  0.273114  0.097805  1
  La  La5  1  0.273114  0.097805  0.581557  1
  Gd  Gd6  1  0.000000  0.000000  0.000000  1
  Rh  Rh7  1  0.500000  0.500000  0.500000  1
  O  O8  1  0.061256  0.921032  0.315770  1
  O  O9  1  0.684230  0.938744  0.078968  1
  O  O10  1  0.442795  0.791048  0.573344  1
  O  O11  1  0.078968  0.684230  0.938744  1
  O  O12  1  0.791048  0.573344  0.442795  1
  O  O13  1  0.426656  0.557205  0.208952  1
  O  O14  1  0.573344  0.442795  0.791048  1
  O  O15  1  0.208952  0.426656  0.557205  1
  O  O16  1  0.921032  0.315770  0.061256  1
  O  O17  1  0.557205  0.208952  0.426656  1
  O  O18  1  0.315770  0.061256  0.921032  1
  O  O19  1  0.938744  0.078968  0.684230  1
