# generated using pymatgen
data_Zr3ScReMo7
_symmetry_space_group_name_H-M   'P 1'
_cell_length_a   9.33682706
_cell_length_b   9.33044225
_cell_length_c   9.33682730
_cell_angle_alpha   33.45118892
_cell_angle_beta   33.48338667
_cell_angle_gamma   33.45119225
_symmetry_Int_Tables_number   1
_chemical_formula_structural   Zr3ScReMo7
_chemical_formula_sum   'Zr3 Sc1 Re1 Mo7'
_cell_volume   220.23266482
_cell_formula_units_Z   1
loop_
 _symmetry_equiv_pos_site_id
 _symmetry_equiv_pos_as_xyz
  1  'x, y, z'
loop_
 _atom_site_type_symbol
 _atom_site_label
 _atom_site_symmetry_multiplicity
 _atom_site_fract_x
 _atom_site_fract_y
 _atom_site_fract_z
 _atom_site_occupancy
  Zr  Zr0  1  0.625034  0.626905  0.625034  1
  Zr  Zr1  1  0.001369  0.000766  0.001369  1
  Zr  Zr2  1  0.499826  0.496956  0.499826  1
  Sc  Sc3  1  0.124340  0.124498  0.124340  1
  Re  Re4  1  0.562408  0.062711  0.562408  1
  Mo  Mo5  1  0.062586  0.562158  0.062586  1
  Mo  Mo6  1  0.062812  0.562490  0.562532  1
  Mo  Mo7  1  0.562196  0.062393  0.062604  1
  Mo  Mo8  1  0.811074  0.815480  0.811074  1
  Mo  Mo9  1  0.313220  0.310758  0.313220  1
  Mo  Mo10  1  0.562532  0.562490  0.062812  1
  Mo  Mo11  1  0.062604  0.062393  0.562196  1
