# generated using pymatgen
data_Dy2Co3Si(P2Ru3)3
_symmetry_space_group_name_H-M   'P 1'
_cell_length_a   9.35556604
_cell_length_b   9.35959673
_cell_length_c   3.83415200
_cell_angle_alpha   90.00000000
_cell_angle_beta   90.00000000
_cell_angle_gamma   120.16937715
_symmetry_Int_Tables_number   1
_chemical_formula_structural   Dy2Co3Si(P2Ru3)3
_chemical_formula_sum   'Dy2 Co3 Si1 P6 Ru9'
_cell_volume   290.25746323
_cell_formula_units_Z   1
loop_
 _symmetry_equiv_pos_site_id
 _symmetry_equiv_pos_as_xyz
  1  'x, y, z'
loop_
 _atom_site_type_symbol
 _atom_site_label
 _atom_site_symmetry_multiplicity
 _atom_site_fract_x
 _atom_site_fract_y
 _atom_site_fract_z
 _atom_site_occupancy
  Dy  Dy0  1  0.334009  0.666396  0.000000  1
  Dy  Dy1  1  0.668056  0.334887  0.500000  1
  Co  Co2  1  0.158142  0.890705  0.000000  1
  Co  Co3  1  0.110413  0.265973  0.000000  1
  Co  Co4  1  0.728931  0.841253  0.000000  1
  Si  Si5  1  0.114605  0.715504  0.500000  1
  P  P6  1  0.412799  0.109592  0.000000  1
  P  P7  1  0.892249  0.304156  0.000000  1
  P  P8  1  0.698040  0.589063  0.000000  1
  P  P9  1  0.284007  0.397980  0.500000  1
  P  P10  1  0.599998  0.885750  0.500000  1
  P  P11  1  0.998962  0.997527  0.000000  1
  Ru  Ru12  1  0.424754  0.362952  0.000000  1
  Ru  Ru13  1  0.639760  0.063195  0.000000  1
  Ru  Ru14  1  0.936670  0.574454  0.000000  1
  Ru  Ru15  1  0.388017  0.952886  0.500000  1
  Ru  Ru16  1  0.051794  0.431024  0.500000  1
  Ru  Ru17  1  0.563051  0.616907  0.500000  1
  Ru  Ru18  1  0.205393  0.118832  0.500000  1
  Ru  Ru19  1  0.879907  0.082906  0.500000  1
  Ru  Ru20  1  0.910443  0.798057  0.500000  1
