# generated using pymatgen
data_PaTe4Pb
_symmetry_space_group_name_H-M   'P 1'
_cell_length_a   8.41391107
_cell_length_b   8.41390910
_cell_length_c   8.41391042
_cell_angle_alpha   149.99979341
_cell_angle_beta   136.88595811
_cell_angle_gamma   53.41472346
_symmetry_Int_Tables_number   1
_chemical_formula_structural   PaTe4Pb
_chemical_formula_sum   'Pa1 Te4 Pb1'
_cell_volume   202.40805768
_cell_formula_units_Z   1
loop_
 _symmetry_equiv_pos_site_id
 _symmetry_equiv_pos_as_xyz
  1  'x, y, z'
loop_
 _atom_site_type_symbol
 _atom_site_label
 _atom_site_symmetry_multiplicity
 _atom_site_fract_x
 _atom_site_fract_y
 _atom_site_fract_z
 _atom_site_occupancy
  Pa  Pa0  1  0.865646  0.865646  0.000000  1
  Te  Te1  1  0.717474  0.217474  0.500000  1
  Te  Te2  1  0.302030  0.802030  0.500000  1
  Te  Te3  1  0.732231  0.479733  0.252495  1
  Te  Te4  1  0.227238  0.479733  0.747505  1
  Pb  Pb5  1  0.155383  0.155383  0.000000  1
