# generated using pymatgen
data_Er15Lu(CdCo)4
_symmetry_space_group_name_H-M   'P 1'
_cell_length_a   9.38818310
_cell_length_b   9.38818249
_cell_length_c   9.40056100
_cell_angle_alpha   59.95637762
_cell_angle_beta   59.95637978
_cell_angle_gamma   59.89936841
_symmetry_Int_Tables_number   1
_chemical_formula_structural   Er15Lu(CdCo)4
_chemical_formula_sum   'Er15 Lu1 Cd4 Co4'
_cell_volume   585.03822533
_cell_formula_units_Z   1
loop_
 _symmetry_equiv_pos_site_id
 _symmetry_equiv_pos_as_xyz
  1  'x, y, z'
loop_
 _atom_site_type_symbol
 _atom_site_label
 _atom_site_symmetry_multiplicity
 _atom_site_fract_x
 _atom_site_fract_y
 _atom_site_fract_z
 _atom_site_occupancy
  Er  Er0  1  0.595932  0.595932  0.596494  1
  Er  Er1  1  0.188623  0.811461  0.812662  1
  Er  Er2  1  0.061849  0.061849  0.438151  1
  Er  Er3  1  0.437566  0.062676  0.062354  1
  Er  Er4  1  0.811461  0.188623  0.812662  1
  Er  Er5  1  0.437566  0.062676  0.437403  1
  Er  Er6  1  0.596344  0.211559  0.596049  1
  Er  Er7  1  0.811825  0.811825  0.188175  1
  Er  Er8  1  0.211559  0.596344  0.596049  1
  Er  Er9  1  0.811461  0.188623  0.187254  1
  Er  Er10  1  0.062676  0.437566  0.437403  1
  Er  Er11  1  0.188623  0.811461  0.187254  1
  Er  Er12  1  0.595932  0.595932  0.211642  1
  Er  Er13  1  0.187908  0.187908  0.812092  1
  Er  Er14  1  0.062676  0.437566  0.062354  1
  Lu  Lu15  1  0.438013  0.438013  0.061987  1
  Cd  Cd16  1  0.830311  0.830311  0.508766  1
  Cd  Cd17  1  0.830311  0.830311  0.830610  1
  Cd  Cd18  1  0.508019  0.829945  0.831018  1
  Cd  Cd19  1  0.829945  0.508019  0.831018  1
  Co  Co20  1  0.391181  0.391181  0.389567  1
  Co  Co21  1  0.827641  0.391394  0.390483  1
  Co  Co22  1  0.391394  0.827641  0.390483  1
  Co  Co23  1  0.391181  0.391181  0.828071  1
