# generated using pymatgen
data_Tb3GaP3Rh7
_symmetry_space_group_name_H-M   'P 1'
_cell_length_a   7.82981487
_cell_length_b   7.82981495
_cell_length_c   9.26061841
_cell_angle_alpha   56.57357400
_cell_angle_beta   56.57357419
_cell_angle_gamma   29.46389536
_symmetry_Int_Tables_number   1
_chemical_formula_structural   Tb3GaP3Rh7
_chemical_formula_sum   'Tb3 Ga1 P3 Rh7'
_cell_volume   229.52600084
_cell_formula_units_Z   1
loop_
 _symmetry_equiv_pos_site_id
 _symmetry_equiv_pos_as_xyz
  1  'x, y, z'
loop_
 _atom_site_type_symbol
 _atom_site_label
 _atom_site_symmetry_multiplicity
 _atom_site_fract_x
 _atom_site_fract_y
 _atom_site_fract_z
 _atom_site_occupancy
  Tb  Tb0  1  0.667923  0.667923  0.336782  1
  Tb  Tb1  1  0.328881  0.328881  0.666732  1
  Tb  Tb2  1  0.008664  0.008664  0.989779  1
  Ga  Ga3  1  0.337038  0.337038  0.266208  1
  P  P4  1  0.667610  0.667610  0.719894  1
  P  P5  1  0.889138  0.889138  0.831749  1
  P  P6  1  0.107471  0.107471  0.175065  1
  Rh  Rh7  1  0.295711  0.295711  0.035091  1
  Rh  Rh8  1  0.697919  0.697919  0.948470  1
  Rh  Rh9  1  0.503362  0.503362  0.732128  1
  Rh  Rh10  1  0.834274  0.834274  0.433481  1
  Rh  Rh11  1  0.499605  0.499605  0.274011  1
  Rh  Rh12  1  0.162375  0.162375  0.587590  1
  Rh  Rh13  1  0.000027  0.000027  0.503018  1
