# generated using pymatgen
data_Gd6TcI10
_symmetry_space_group_name_H-M   'P 1'
_cell_length_a   7.82236926
_cell_length_b   9.81845566
_cell_length_c   9.88162648
_cell_angle_alpha   107.39959687
_cell_angle_beta   97.02746445
_cell_angle_gamma   105.17360135
_symmetry_Int_Tables_number   1
_chemical_formula_structural   Gd6TcI10
_chemical_formula_sum   'Gd6 Tc1 I10'
_cell_volume   682.18419434
_cell_formula_units_Z   1
loop_
 _symmetry_equiv_pos_site_id
 _symmetry_equiv_pos_as_xyz
  1  'x, y, z'
loop_
 _atom_site_type_symbol
 _atom_site_label
 _atom_site_symmetry_multiplicity
 _atom_site_fract_x
 _atom_site_fract_y
 _atom_site_fract_z
 _atom_site_occupancy
  Gd  Gd0  1  0.530574  0.221502  0.418261  1
  Gd  Gd1  1  0.469426  0.778498  0.581739  1
  Gd  Gd2  1  0.144162  0.370192  0.329065  1
  Gd  Gd3  1  0.855838  0.629808  0.670935  1
  Gd  Gd4  1  0.615038  0.542218  0.256822  1
  Gd  Gd5  1  0.384962  0.457782  0.743178  1
  Tc  Tc6  1  0.500000  0.500000  0.500000  1
  I  I7  1  0.148234  0.045978  0.227198  1
  I  I8  1  0.851766  0.954022  0.772802  1
  I  I9  1  0.238013  0.411540  0.038946  1
  I  I10  1  0.761987  0.588460  0.961054  1
  I  I11  1  0.708991  0.239014  0.152283  1
  I  I12  1  0.291009  0.760986  0.847717  1
  I  I13  1  0.048746  0.683310  0.410083  1
  I  I14  1  0.951254  0.316690  0.589917  1
  I  I15  1  0.413375  0.130818  0.678030  1
  I  I16  1  0.586625  0.869182  0.321970  1
