# generated using pymatgen
data_LiAl2Br7
_symmetry_space_group_name_H-M   'P 1'
_cell_length_a   7.51063455
_cell_length_b   7.54071457
_cell_length_c   8.80408400
_cell_angle_alpha   58.91524721
_cell_angle_beta   84.29917465
_cell_angle_gamma   98.60891698
_symmetry_Int_Tables_number   1
_chemical_formula_structural   LiAl2Br7
_chemical_formula_sum   'Li1 Al2 Br7'
_cell_volume   412.92595794
_cell_formula_units_Z   1
loop_
 _symmetry_equiv_pos_site_id
 _symmetry_equiv_pos_as_xyz
  1  'x, y, z'
loop_
 _atom_site_type_symbol
 _atom_site_label
 _atom_site_symmetry_multiplicity
 _atom_site_fract_x
 _atom_site_fract_y
 _atom_site_fract_z
 _atom_site_occupancy
  Li  Li0  1  0.926482  0.037174  0.849995  1
  Al  Al1  1  0.454168  0.861353  0.904532  1
  Al  Al2  1  0.023598  0.582484  0.325207  1
  Br  Br3  1  0.302500  0.530421  0.193785  1
  Br  Br4  1  0.585070  0.111669  0.960489  1
  Br  Br5  1  0.238648  0.942405  0.723889  1
  Br  Br6  1  0.060444  0.467434  0.618307  1
  Br  Br7  1  0.036053  0.944980  0.161290  1
  Br  Br8  1  0.779747  0.376878  0.311962  1
  Br  Br9  1  0.696657  0.770006  0.797703  1
