# generated using pymatgen
data_Rb4GaGe7Pt8
_symmetry_space_group_name_H-M   'P 1'
_cell_length_a   7.08038685
_cell_length_b   8.09129548
_cell_length_c   8.50018086
_cell_angle_alpha   93.12460481
_cell_angle_beta   89.82047826
_cell_angle_gamma   90.05999591
_symmetry_Int_Tables_number   1
_chemical_formula_structural   Rb4GaGe7Pt8
_chemical_formula_sum   'Rb4 Ga1 Ge7 Pt8'
_cell_volume   486.24460195
_cell_formula_units_Z   1
loop_
 _symmetry_equiv_pos_site_id
 _symmetry_equiv_pos_as_xyz
  1  'x, y, z'
loop_
 _atom_site_type_symbol
 _atom_site_label
 _atom_site_symmetry_multiplicity
 _atom_site_fract_x
 _atom_site_fract_y
 _atom_site_fract_z
 _atom_site_occupancy
  Rb  Rb0  1  0.881807  0.499532  0.750986  1
  Rb  Rb1  1  0.378485  0.000962  0.246767  1
  Rb  Rb2  1  0.619143  0.001854  0.748788  1
  Rb  Rb3  1  0.125020  0.501366  0.249989  1
  Ga  Ga4  1  0.401219  0.361206  0.929163  1
  Ge  Ge5  1  0.895806  0.854639  0.432887  1
  Ge  Ge6  1  0.097635  0.860713  0.931093  1
  Ge  Ge7  1  0.605074  0.356212  0.432571  1
  Ge  Ge8  1  0.099183  0.135682  0.567866  1
  Ge  Ge9  1  0.602792  0.641651  0.068473  1
  Ge  Ge10  1  0.896299  0.143956  0.067172  1
  Ge  Ge11  1  0.400462  0.638139  0.574216  1
  Pt  Pt12  1  0.855156  0.151408  0.363135  1
  Pt  Pt13  1  0.141873  0.839376  0.635726  1
  Pt  Pt14  1  0.141138  0.155921  0.860814  1
  Pt  Pt15  1  0.352301  0.338871  0.630705  1
  Pt  Pt16  1  0.360549  0.668328  0.866945  1
  Pt  Pt17  1  0.853936  0.846940  0.138526  1
  Pt  Pt18  1  0.649603  0.349392  0.138876  1
  Pt  Pt19  1  0.642520  0.653851  0.365303  1
