# generated using pymatgen
data_LiSc(Se2O5)2
_symmetry_space_group_name_H-M   'P 1'
_cell_length_a   6.18698200
_cell_length_b   7.00757700
_cell_length_c   10.66788800
_cell_angle_alpha   90.00000000
_cell_angle_beta   90.00000000
_cell_angle_gamma   90.00000000
_symmetry_Int_Tables_number   1
_chemical_formula_structural   LiSc(Se2O5)2
_chemical_formula_sum   'Li2 Sc2 Se8 O20'
_cell_volume   462.51431463
_cell_formula_units_Z   2
loop_
 _symmetry_equiv_pos_site_id
 _symmetry_equiv_pos_as_xyz
  1  'x, y, z'
loop_
 _atom_site_type_symbol
 _atom_site_label
 _atom_site_symmetry_multiplicity
 _atom_site_fract_x
 _atom_site_fract_y
 _atom_site_fract_z
 _atom_site_occupancy
  Li  Li0  1  0.500000  0.500000  0.272200  1
  Li  Li1  1  0.500000  0.000000  0.772200  1
  Sc  Sc2  1  0.000000  0.500000  0.399049  1
  Sc  Sc3  1  0.000000  0.000000  0.899049  1
  Se  Se4  1  0.712239  0.366642  0.001346  1
  Se  Se5  1  0.287760  0.633357  0.001346  1
  Se  Se6  1  0.220590  0.135178  0.189116  1
  Se  Se7  1  0.779411  0.864821  0.189116  1
  Se  Se8  1  0.712239  0.133358  0.501346  1
  Se  Se9  1  0.287760  0.866642  0.501346  1
  Se  Se10  1  0.220590  0.364822  0.689116  1
  Se  Se11  1  0.779411  0.635177  0.689116  1
  O  O12  1  0.102185  0.183808  0.048078  1
  O  O13  1  0.897815  0.816192  0.048078  1
  O  O14  1  0.580313  0.297952  0.131207  1
  O  O15  1  0.419687  0.702047  0.131207  1
  O  O16  1  0.186724  0.345159  0.268438  1
  O  O17  1  0.813276  0.654840  0.268438  1
  O  O18  1  0.000000  0.000000  0.269445  1
  O  O19  1  0.714109  0.334059  0.407578  1
  O  O20  1  0.285891  0.665942  0.407578  1
  O  O21  1  0.500000  0.000000  0.411095  1
  O  O22  1  0.102185  0.316192  0.548078  1
  O  O23  1  0.897815  0.683807  0.548078  1
  O  O24  1  0.580313  0.202047  0.631208  1
  O  O25  1  0.419687  0.797952  0.631208  1
  O  O26  1  0.186724  0.154841  0.768437  1
  O  O27  1  0.813276  0.845158  0.768437  1
  O  O28  1  0.000000  0.500000  0.769445  1
  O  O29  1  0.714109  0.165941  0.907578  1
  O  O30  1  0.285891  0.834058  0.907578  1
  O  O31  1  0.500000  0.500000  0.911095  1
