# generated using pymatgen
data_Ce3U(Al3Rh)6
_symmetry_space_group_name_H-M   'P 1'
_cell_length_a   7.63387638
_cell_length_b   7.63890477
_cell_length_c   9.45738000
_cell_angle_alpha   90.00000000
_cell_angle_beta   90.00000000
_cell_angle_gamma   119.59711073
_symmetry_Int_Tables_number   1
_chemical_formula_structural   Ce3U(Al3Rh)6
_chemical_formula_sum   'Ce3 U1 Al18 Rh6'
_cell_volume   479.54189177
_cell_formula_units_Z   1
loop_
 _symmetry_equiv_pos_site_id
 _symmetry_equiv_pos_as_xyz
  1  'x, y, z'
loop_
 _atom_site_type_symbol
 _atom_site_label
 _atom_site_symmetry_multiplicity
 _atom_site_fract_x
 _atom_site_fract_y
 _atom_site_fract_z
 _atom_site_occupancy
  Ce  Ce0  1  0.997059  0.670714  0.250000  1
  Ce  Ce1  1  0.003757  0.330024  0.750000  1
  Ce  Ce2  1  0.669113  0.996213  0.250000  1
  U  U3  1  0.330045  0.004325  0.750000  1
  Al  Al4  1  0.128854  0.127899  0.250000  1
  Al  Al5  1  0.873473  0.871555  0.750000  1
  Al  Al6  1  0.002695  0.334854  0.075061  1
  Al  Al7  1  0.997765  0.665168  0.923634  1
  Al  Al8  1  0.997765  0.665168  0.576366  1
  Al  Al9  1  0.334876  0.002606  0.427549  1
  Al  Al10  1  0.002695  0.334854  0.424939  1
  Al  Al11  1  0.664786  0.997614  0.576234  1
  Al  Al12  1  0.664786  0.997614  0.923766  1
  Al  Al13  1  0.334876  0.002606  0.072451  1
  Al  Al14  1  0.334464  0.334245  0.553795  1
  Al  Al15  1  0.665443  0.665458  0.448199  1
  Al  Al16  1  0.665443  0.665458  0.051801  1
  Al  Al17  1  0.334464  0.334245  0.946205  1
  Al  Al18  1  0.340771  0.547628  0.250000  1
  Al  Al19  1  0.656658  0.449888  0.750000  1
  Al  Al20  1  0.547605  0.339781  0.250000  1
  Al  Al21  1  0.452352  0.661626  0.750000  1
  Rh  Rh22  1  0.672223  0.328284  0.999574  1
  Rh  Rh23  1  0.328053  0.671797  0.999485  1
  Rh  Rh24  1  0.328053  0.671797  0.500515  1
  Rh  Rh25  1  0.672223  0.328284  0.500426  1
  Rh  Rh26  1  0.999851  0.000145  0.999556  1
  Rh  Rh27  1  0.999851  0.000145  0.500444  1
