# generated using pymatgen
data_Pr5Ho2Sn23Rh6
_symmetry_space_group_name_H-M   'P 1'
_cell_length_a   9.97077091
_cell_length_b   9.97404395
_cell_length_c   10.21379099
_cell_angle_alpha   89.99999742
_cell_angle_beta   89.95629305
_cell_angle_gamma   120.01085177
_symmetry_Int_Tables_number   1
_chemical_formula_structural   Pr5Ho2Sn23Rh6
_chemical_formula_sum   'Pr5 Ho2 Sn23 Rh6'
_cell_volume   879.56906079
_cell_formula_units_Z   1
loop_
 _symmetry_equiv_pos_site_id
 _symmetry_equiv_pos_as_xyz
  1  'x, y, z'
loop_
 _atom_site_type_symbol
 _atom_site_label
 _atom_site_symmetry_multiplicity
 _atom_site_fract_x
 _atom_site_fract_y
 _atom_site_fract_z
 _atom_site_occupancy
  Pr  Pr0  1  0.999207  0.999604  0.000698  1
  Pr  Pr1  1  0.522317  0.477683  0.693341  1
  Pr  Pr2  1  0.522317  0.044633  0.693341  1
  Pr  Pr3  1  0.955643  0.477821  0.692564  1
  Pr  Pr4  1  0.044890  0.522445  0.305903  1
  Ho  Ho5  1  0.479400  0.959632  0.305018  1
  Ho  Ho6  1  0.479400  0.519769  0.305018  1
  Sn  Sn7  1  0.666183  0.333091  0.179392  1
  Sn  Sn8  1  0.666854  0.333427  0.888459  1
  Sn  Sn9  1  0.340706  0.670353  0.118470  1
  Sn  Sn10  1  0.351265  0.351232  0.001384  1
  Sn  Sn11  1  0.999361  0.648772  0.000644  1
  Sn  Sn12  1  0.647710  0.998592  0.001202  1
  Sn  Sn13  1  0.647710  0.649118  0.001202  1
  Sn  Sn14  1  0.333104  0.666552  0.823214  1
  Sn  Sn15  1  0.443854  0.221927  0.451221  1
  Sn  Sn16  1  0.223832  0.780524  0.543915  1
  Sn  Sn17  1  0.223832  0.443307  0.543915  1
  Sn  Sn18  1  0.555918  0.777959  0.541580  1
  Sn  Sn19  1  0.119605  0.883599  0.281939  1
  Sn  Sn20  1  0.775072  0.556440  0.451907  1
  Sn  Sn21  1  0.775072  0.218632  0.451907  1
  Sn  Sn22  1  0.351265  0.000034  0.001384  1
  Sn  Sn23  1  0.119605  0.236005  0.281939  1
  Sn  Sn24  1  0.759513  0.879756  0.282426  1
  Sn  Sn25  1  0.233185  0.116593  0.717641  1
  Sn  Sn26  1  0.883345  0.766606  0.718352  1
  Sn  Sn27  1  0.883345  0.116741  0.718352  1
  Sn  Sn28  1  0.998704  0.999352  0.498703  1
  Sn  Sn29  1  0.999361  0.350589  0.000644  1
  Rh  Rh30  1  0.168472  0.832194  0.803227  1
  Rh  Rh31  1  0.168472  0.336278  0.803227  1
  Rh  Rh32  1  0.663383  0.831691  0.802522  1
  Rh  Rh33  1  0.338630  0.169315  0.198732  1
  Rh  Rh34  1  0.829734  0.664230  0.198310  1
  Rh  Rh35  1  0.829734  0.165505  0.198310  1
