# generated using pymatgen
data_Sc8Ta4Nb7Si16W
_symmetry_space_group_name_H-M   'P 1'
_cell_length_a   6.69304316
_cell_length_b   6.88589738
_cell_length_c   13.12413005
_cell_angle_alpha   89.99961380
_cell_angle_beta   90.00984674
_cell_angle_gamma   89.96966822
_symmetry_Int_Tables_number   1
_chemical_formula_structural   Sc8Ta4Nb7Si16W
_chemical_formula_sum   'Sc8 Ta4 Nb7 Si16 W1'
_cell_volume   604.85967144
_cell_formula_units_Z   1
loop_
 _symmetry_equiv_pos_site_id
 _symmetry_equiv_pos_as_xyz
  1  'x, y, z'
loop_
 _atom_site_type_symbol
 _atom_site_label
 _atom_site_symmetry_multiplicity
 _atom_site_fract_x
 _atom_site_fract_y
 _atom_site_fract_z
 _atom_site_occupancy
  Sc  Sc0  1  0.500124  0.673736  0.595200  1
  Sc  Sc1  1  0.999882  0.825167  0.905232  1
  Sc  Sc2  1  0.500743  0.325597  0.094702  1
  Sc  Sc3  1  0.001491  0.174333  0.405424  1
  Sc  Sc4  1  0.500828  0.325450  0.405302  1
  Sc  Sc5  1  0.001489  0.174491  0.094611  1
  Sc  Sc6  1  0.500309  0.673878  0.904793  1
  Sc  Sc7  1  0.999695  0.825444  0.594772  1
  Ta  Ta8  1  0.163420  0.325478  0.625125  1
  Ta  Ta9  1  0.838193  0.494346  0.749918  1
  Ta  Ta10  1  0.338077  0.006878  0.749852  1
  Ta  Ta11  1  0.162305  0.506347  0.250098  1
  Nb  Nb12  1  0.663324  0.174188  0.624601  1
  Nb  Nb13  1  0.163748  0.325606  0.874967  1
  Nb  Nb14  1  0.335640  0.827522  0.125719  1
  Nb  Nb15  1  0.836092  0.673603  0.374361  1
  Nb  Nb16  1  0.335918  0.827586  0.374291  1
  Nb  Nb17  1  0.836072  0.673680  0.125694  1
  Nb  Nb18  1  0.663119  0.173903  0.875384  1
  Si  Si19  1  0.668853  0.967063  0.458858  1
  Si  Si20  1  0.169031  0.532668  0.039861  1
  Si  Si21  1  0.330781  0.032537  0.960532  1
  Si  Si22  1  0.831241  0.467471  0.539819  1
  Si  Si23  1  0.330213  0.032557  0.539492  1
  Si  Si24  1  0.830931  0.467525  0.960170  1
  Si  Si25  1  0.668695  0.967104  0.041087  1
  Si  Si26  1  0.169055  0.532707  0.460289  1
  Si  Si27  1  0.460662  0.387982  0.749943  1
  Si  Si28  1  0.959278  0.113340  0.750079  1
  Si  Si29  1  0.539958  0.612643  0.250000  1
  Si  Si30  1  0.035691  0.889547  0.250036  1
  Si  Si31  1  0.704429  0.860448  0.749975  1
  Si  Si32  1  0.204264  0.640072  0.749837  1
  Si  Si33  1  0.299842  0.139859  0.249959  1
  Si  Si34  1  0.795679  0.355509  0.250038  1
  W  W35  1  0.660927  0.993733  0.249978  1
