# generated using pymatgen
data_K4UBiTe6
_symmetry_space_group_name_H-M   'P 1'
_cell_length_a   8.16259264
_cell_length_b   8.16215521
_cell_length_c   8.61981850
_cell_angle_alpha   80.74050896
_cell_angle_beta   80.73572272
_cell_angle_gamma   120.12374320
_symmetry_Int_Tables_number   1
_chemical_formula_structural   K4UBiTe6
_chemical_formula_sum   'K4 U1 Bi1 Te6'
_cell_volume   470.18812276
_cell_formula_units_Z   1
loop_
 _symmetry_equiv_pos_site_id
 _symmetry_equiv_pos_as_xyz
  1  'x, y, z'
loop_
 _atom_site_type_symbol
 _atom_site_label
 _atom_site_symmetry_multiplicity
 _atom_site_fract_x
 _atom_site_fract_y
 _atom_site_fract_z
 _atom_site_occupancy
  K  K0  1  0.344513  0.655446  0.500012  1
  K  K1  1  0.653747  0.346251  0.500001  1
  K  K2  1  0.001940  0.998092  0.499988  1
  K  K3  1  0.499903  0.500095  0.000001  1
  U  U4  1  0.832088  0.167913  0.999999  1
  Bi  Bi5  1  0.169130  0.830874  0.000000  1
  Te  Te6  1  0.789240  0.804866  0.208736  1
  Te  Te7  1  0.443014  0.066493  0.212921  1
  Te  Te8  1  0.050213  0.412424  0.212318  1
  Te  Te9  1  0.587571  0.949788  0.787689  1
  Te  Te10  1  0.933509  0.556994  0.787076  1
  Te  Te11  1  0.195134  0.210764  0.791259  1
