# generated using pymatgen
data_Pr9Dy(GaTe)4
_symmetry_space_group_name_H-M   'P 1'
_cell_length_a   8.99160471
_cell_length_b   8.99160511
_cell_length_c   8.25620600
_cell_angle_alpha   89.95548422
_cell_angle_beta   89.95548421
_cell_angle_gamma   126.24165731
_symmetry_Int_Tables_number   1
_chemical_formula_structural   Pr9Dy(GaTe)4
_chemical_formula_sum   'Pr9 Dy1 Ga4 Te4'
_cell_volume   538.36300860
_cell_formula_units_Z   1
loop_
 _symmetry_equiv_pos_site_id
 _symmetry_equiv_pos_as_xyz
  1  'x, y, z'
loop_
 _atom_site_type_symbol
 _atom_site_label
 _atom_site_symmetry_multiplicity
 _atom_site_fract_x
 _atom_site_fract_y
 _atom_site_fract_z
 _atom_site_occupancy
  Pr  Pr0  1  0.000000  0.000000  0.000000  1
  Pr  Pr1  1  0.798684  0.538906  0.168003  1
  Pr  Pr2  1  0.461094  0.201316  0.831997  1
  Pr  Pr3  1  0.963912  0.699989  0.667262  1
  Pr  Pr4  1  0.300011  0.036088  0.332738  1
  Pr  Pr5  1  0.201316  0.461094  0.831997  1
  Pr  Pr6  1  0.538906  0.798684  0.168003  1
  Pr  Pr7  1  0.036088  0.300011  0.332738  1
  Pr  Pr8  1  0.699989  0.963912  0.667262  1
  Dy  Dy9  1  0.500000  0.500000  0.500000  1
  Ga  Ga10  1  0.872507  0.872507  0.383601  1
  Ga  Ga11  1  0.127493  0.127493  0.616399  1
  Ga  Ga12  1  0.621374  0.621374  0.873069  1
  Ga  Ga13  1  0.378626  0.378626  0.126931  1
  Te  Te14  1  0.203115  0.796885  0.000000  1
  Te  Te15  1  0.698883  0.301117  0.500000  1
  Te  Te16  1  0.796885  0.203115  0.000000  1
  Te  Te17  1  0.301117  0.698883  0.500000  1
