# generated using pymatgen
data_CaLa10Pr(GaRh)8
_symmetry_space_group_name_H-M   'P 1'
_cell_length_a   5.76411679
_cell_length_b   8.31020883
_cell_length_c   13.81647000
_cell_angle_alpha   90.00000000
_cell_angle_beta   90.00000000
_cell_angle_gamma   90.51826115
_symmetry_Int_Tables_number   1
_chemical_formula_structural   CaLa10Pr(GaRh)8
_chemical_formula_sum   'Ca1 La10 Pr1 Ga8 Rh8'
_cell_volume   661.79585142
_cell_formula_units_Z   1
loop_
 _symmetry_equiv_pos_site_id
 _symmetry_equiv_pos_as_xyz
  1  'x, y, z'
loop_
 _atom_site_type_symbol
 _atom_site_label
 _atom_site_symmetry_multiplicity
 _atom_site_fract_x
 _atom_site_fract_y
 _atom_site_fract_z
 _atom_site_occupancy
  Ca  Ca0  1  0.358679  0.743134  0.750000  1
  La  La1  1  0.361978  0.756078  0.250000  1
  La  La2  1  0.639089  0.244454  0.750000  1
  La  La3  1  0.155969  0.399350  0.094996  1
  La  La4  1  0.844012  0.602024  0.904695  1
  La  La5  1  0.844012  0.602024  0.595305  1
  La  La6  1  0.844574  0.901624  0.403356  1
  La  La7  1  0.155969  0.399350  0.405004  1
  La  La8  1  0.155032  0.096722  0.596343  1
  La  La9  1  0.155032  0.096722  0.903657  1
  La  La10  1  0.844574  0.901624  0.096644  1
  Pr  Pr11  1  0.645102  0.255935  0.250000  1
  Ga  Ga12  1  0.145326  0.109299  0.250000  1
  Ga  Ga13  1  0.850075  0.891623  0.750000  1
  Ga  Ga14  1  0.858145  0.602476  0.250000  1
  Ga  Ga15  1  0.143696  0.400009  0.750000  1
  Ga  Ga16  1  0.633992  0.250137  0.002466  1
  Ga  Ga17  1  0.365730  0.749644  0.997399  1
  Ga  Ga18  1  0.365730  0.749644  0.502601  1
  Ga  Ga19  1  0.633992  0.250137  0.497534  1
  Rh  Rh20  1  0.356003  0.028788  0.090689  1
  Rh  Rh21  1  0.645769  0.971219  0.909272  1
  Rh  Rh22  1  0.645769  0.971219  0.590728  1
  Rh  Rh23  1  0.633218  0.536021  0.408531  1
  Rh  Rh24  1  0.356003  0.028788  0.409311  1
  Rh  Rh25  1  0.364657  0.462967  0.590410  1
  Rh  Rh26  1  0.364657  0.462967  0.909590  1
  Rh  Rh27  1  0.633218  0.536021  0.091469  1
