# generated using pymatgen
data_RbLu(NbBr3)6
_symmetry_space_group_name_H-M   'P 1'
_cell_length_a   10.76002241
_cell_length_b   10.76002206
_cell_length_c   10.76002300
_cell_angle_alpha   55.51259592
_cell_angle_beta   55.51259717
_cell_angle_gamma   55.51260114
_symmetry_Int_Tables_number   1
_chemical_formula_structural   RbLu(NbBr3)6
_chemical_formula_sum   'Rb1 Lu1 Nb6 Br18'
_cell_volume   789.12076439
_cell_formula_units_Z   1
loop_
 _symmetry_equiv_pos_site_id
 _symmetry_equiv_pos_as_xyz
  1  'x, y, z'
loop_
 _atom_site_type_symbol
 _atom_site_label
 _atom_site_symmetry_multiplicity
 _atom_site_fract_x
 _atom_site_fract_y
 _atom_site_fract_z
 _atom_site_occupancy
  Rb  Rb0  1  0.221528  0.221528  0.221528  1
  Lu  Lu1  1  0.498317  0.498317  0.498317  1
  Nb  Nb2  1  0.809412  0.143151  0.914725  1
  Nb  Nb3  1  0.914725  0.809412  0.143151  1
  Nb  Nb4  1  0.143151  0.914725  0.809412  1
  Nb  Nb5  1  0.191733  0.857398  0.084405  1
  Nb  Nb6  1  0.084405  0.191733  0.857398  1
  Nb  Nb7  1  0.857398  0.084405  0.191733  1
  Br  Br8  1  0.866395  0.411555  0.724594  1
  Br  Br9  1  0.724594  0.866395  0.411555  1
  Br  Br10  1  0.411555  0.724594  0.866395  1
  Br  Br11  1  0.132600  0.588910  0.278223  1
  Br  Br12  1  0.278223  0.132600  0.588910  1
  Br  Br13  1  0.588910  0.278223  0.132600  1
  Br  Br14  1  0.534136  0.343773  0.797985  1
  Br  Br15  1  0.797985  0.534136  0.343773  1
  Br  Br16  1  0.343773  0.797985  0.534136  1
  Br  Br17  1  0.464236  0.658049  0.202750  1
  Br  Br18  1  0.202750  0.464236  0.658049  1
  Br  Br19  1  0.658049  0.202750  0.464236  1
  Br  Br20  1  0.662857  0.939305  0.069555  1
  Br  Br21  1  0.069555  0.662857  0.939305  1
  Br  Br22  1  0.939305  0.069555  0.662857  1
  Br  Br23  1  0.341505  0.058862  0.925178  1
  Br  Br24  1  0.925178  0.341505  0.058862  1
  Br  Br25  1  0.058862  0.925178  0.341505  1
