# generated using pymatgen
data_Dy10Co3Rh
_symmetry_space_group_name_H-M   'P 1'
_cell_length_a   6.33868172
_cell_length_b   6.98796537
_cell_length_c   8.59395648
_cell_angle_alpha   96.45500019
_cell_angle_beta   111.51625521
_cell_angle_gamma   89.87357371
_symmetry_Int_Tables_number   1
_chemical_formula_structural   Dy10Co3Rh
_chemical_formula_sum   'Dy10 Co3 Rh1'
_cell_volume   351.57892182
_cell_formula_units_Z   1
loop_
 _symmetry_equiv_pos_site_id
 _symmetry_equiv_pos_as_xyz
  1  'x, y, z'
loop_
 _atom_site_type_symbol
 _atom_site_label
 _atom_site_symmetry_multiplicity
 _atom_site_fract_x
 _atom_site_fract_y
 _atom_site_fract_z
 _atom_site_occupancy
  Dy  Dy0  1  0.800330  0.579599  0.812994  1
  Dy  Dy1  1  0.984947  0.911768  0.189130  1
  Dy  Dy2  1  0.203164  0.412169  0.188516  1
  Dy  Dy3  1  0.026673  0.088820  0.811001  1
  Dy  Dy4  1  0.209027  0.680684  0.564836  1
  Dy  Dy5  1  0.647880  0.814935  0.431560  1
  Dy  Dy6  1  0.783173  0.315442  0.432221  1
  Dy  Dy7  1  0.347350  0.190343  0.562496  1
  Dy  Dy8  1  0.426603  0.747296  0.002702  1
  Dy  Dy9  1  0.572665  0.256049  0.003891  1
  Co  Co10  1  0.823856  0.573449  0.222307  1
  Co  Co11  1  0.397703  0.072356  0.221221  1
  Co  Co12  1  0.178252  0.427167  0.778236  1
  Rh  Rh13  1  0.598376  0.929919  0.778886  1
