# generated using pymatgen
data_Rb2ErInBr6
_symmetry_space_group_name_H-M   'P 1'
_cell_length_a   8.12952572
_cell_length_b   8.12952632
_cell_length_c   8.35911589
_cell_angle_alpha   118.33046090
_cell_angle_beta   118.33046115
_cell_angle_gamma   60.87935055
_symmetry_Int_Tables_number   1
_chemical_formula_structural   Rb2ErInBr6
_chemical_formula_sum   'Rb2 Er1 In1 Br6'
_cell_volume   402.92876825
_cell_formula_units_Z   1
loop_
 _symmetry_equiv_pos_site_id
 _symmetry_equiv_pos_as_xyz
  1  'x, y, z'
loop_
 _atom_site_type_symbol
 _atom_site_label
 _atom_site_symmetry_multiplicity
 _atom_site_fract_x
 _atom_site_fract_y
 _atom_site_fract_z
 _atom_site_occupancy
  Rb  Rb0  1  0.244980  0.244980  0.221304  1
  Rb  Rb1  1  0.755020  0.755020  0.778697  1
  Er  Er2  1  0.500000  0.500000  0.000000  1
  In  In3  1  0.000000  0.000000  0.499999  1
  Br  Br4  1  0.673160  0.196473  0.158927  1
  Br  Br5  1  0.196473  0.673160  0.158927  1
  Br  Br6  1  0.721567  0.721567  0.331085  1
  Br  Br7  1  0.278433  0.278433  0.668915  1
  Br  Br8  1  0.803527  0.326841  0.841072  1
  Br  Br9  1  0.326841  0.803527  0.841072  1
