# generated using pymatgen
data_CoCu5Ni2(Mo3N)4
_symmetry_space_group_name_H-M   'P 1'
_cell_length_a   6.69444325
_cell_length_b   6.69506465
_cell_length_c   6.69882939
_cell_angle_alpha   90.09475768
_cell_angle_beta   90.11438283
_cell_angle_gamma   89.95686197
_symmetry_Int_Tables_number   1
_chemical_formula_structural   CoCu5Ni2(Mo3N)4
_chemical_formula_sum   'Co1 Cu5 Ni2 Mo12 N4'
_cell_volume   300.23863392
_cell_formula_units_Z   1
loop_
 _symmetry_equiv_pos_site_id
 _symmetry_equiv_pos_as_xyz
  1  'x, y, z'
loop_
 _atom_site_type_symbol
 _atom_site_label
 _atom_site_symmetry_multiplicity
 _atom_site_fract_x
 _atom_site_fract_y
 _atom_site_fract_z
 _atom_site_occupancy
  Co  Co0  1  0.682144  0.680475  0.683337  1
  Cu  Cu1  1  0.069419  0.067772  0.068123  1
  Cu  Cu2  1  0.317625  0.181951  0.819097  1
  Cu  Cu3  1  0.819880  0.318141  0.182740  1
  Cu  Cu4  1  0.181939  0.819152  0.318575  1
  Cu  Cu5  1  0.431158  0.932759  0.568994  1
  Ni  Ni6  1  0.568780  0.431861  0.933056  1
  Ni  Ni7  1  0.932106  0.568714  0.434108  1
  Mo  Mo8  1  0.124229  0.206339  0.453606  1
  Mo  Mo9  1  0.380360  0.789410  0.948899  1
  Mo  Mo10  1  0.873333  0.700741  0.042315  1
  Mo  Mo11  1  0.202675  0.456253  0.126561  1
  Mo  Mo12  1  0.793326  0.946948  0.379579  1
  Mo  Mo13  1  0.039341  0.871103  0.700512  1
  Mo  Mo14  1  0.456294  0.127609  0.200814  1
  Mo  Mo15  1  0.301661  0.544366  0.628902  1
  Mo  Mo16  1  0.946177  0.380694  0.790496  1
  Mo  Mo17  1  0.548313  0.626470  0.299311  1
  Mo  Mo18  1  0.704027  0.045006  0.875797  1
  Mo  Mo19  1  0.627035  0.303359  0.547061  1
  N  N20  1  0.375461  0.376023  0.374569  1
  N  N21  1  0.625660  0.874773  0.125295  1
  N  N22  1  0.125239  0.624392  0.873948  1
  N  N23  1  0.873816  0.125693  0.624304  1
