# generated using pymatgen
data_Sc2Ta4C5
_symmetry_space_group_name_H-M   'P 1'
_cell_length_a   5.53078194
_cell_length_b   5.53078069
_cell_length_c   5.56877372
_cell_angle_alpha   100.12642424
_cell_angle_beta   100.12644297
_cell_angle_gamma   119.62260755
_symmetry_Int_Tables_number   1
_chemical_formula_structural   Sc2Ta4C5
_chemical_formula_sum   'Sc2 Ta4 C5'
_cell_volume   138.73514524
_cell_formula_units_Z   1
loop_
 _symmetry_equiv_pos_site_id
 _symmetry_equiv_pos_as_xyz
  1  'x, y, z'
loop_
 _atom_site_type_symbol
 _atom_site_label
 _atom_site_symmetry_multiplicity
 _atom_site_fract_x
 _atom_site_fract_y
 _atom_site_fract_z
 _atom_site_occupancy
  Sc  Sc0  1  0.422479  0.080101  0.246159  1
  Sc  Sc1  1  0.080101  0.422479  0.246159  1
  Ta  Ta2  1  0.736289  0.736289  0.271985  1
  Ta  Ta3  1  0.274178  0.274178  0.731849  1
  Ta  Ta4  1  0.919939  0.558328  0.744762  1
  Ta  Ta5  1  0.558328  0.919939  0.744762  1
  C  C6  1  0.663355  0.338443  0.993378  1
  C  C7  1  0.338443  0.663355  0.993378  1
  C  C8  1  0.835453  0.163706  0.510145  1
  C  C9  1  0.507735  0.507735  0.507281  1
  C  C10  1  0.163706  0.835453  0.510145  1
