# generated using pymatgen
data_Pr3Hg3PtAu2
_symmetry_space_group_name_H-M   'P 1'
_cell_length_a   8.09915000
_cell_length_b   8.09914980
_cell_length_c   3.90402600
_cell_angle_alpha   90.00000000
_cell_angle_beta   90.00000000
_cell_angle_gamma   119.99999263
_symmetry_Int_Tables_number   1
_chemical_formula_structural   Pr3Hg3PtAu2
_chemical_formula_sum   'Pr3 Hg3 Pt1 Au2'
_cell_volume   221.77992869
_cell_formula_units_Z   1
loop_
 _symmetry_equiv_pos_site_id
 _symmetry_equiv_pos_as_xyz
  1  'x, y, z'
loop_
 _atom_site_type_symbol
 _atom_site_label
 _atom_site_symmetry_multiplicity
 _atom_site_fract_x
 _atom_site_fract_y
 _atom_site_fract_z
 _atom_site_occupancy
  Pr  Pr0  1  0.590271  0.985035  0.000000  1
  Pr  Pr1  1  0.014965  0.605236  0.000000  1
  Pr  Pr2  1  0.394764  0.409729  0.000000  1
  Hg  Hg3  1  0.270290  0.002336  0.500000  1
  Hg  Hg4  1  0.997664  0.267954  0.500000  1
  Hg  Hg5  1  0.732046  0.729710  0.500000  1
  Pt  Pt6  1  0.333333  0.666667  0.500000  1
  Au  Au7  1  0.666667  0.333333  0.500000  1
  Au  Au8  1  0.000000  0.000000  0.000000  1
