# generated using pymatgen
data_PrNd2(GaCo)4
_symmetry_space_group_name_H-M   'P 1'
_cell_length_a   6.44407572
_cell_length_b   6.44407535
_cell_length_c   6.44407540
_cell_angle_alpha   109.39572996
_cell_angle_beta   109.50898261
_cell_angle_gamma   109.50897495
_symmetry_Int_Tables_number   1
_chemical_formula_structural   PrNd2(GaCo)4
_chemical_formula_sum   'Pr1 Nd2 Ga4 Co4'
_cell_volume   205.99629347
_cell_formula_units_Z   1
loop_
 _symmetry_equiv_pos_site_id
 _symmetry_equiv_pos_as_xyz
  1  'x, y, z'
loop_
 _atom_site_type_symbol
 _atom_site_label
 _atom_site_symmetry_multiplicity
 _atom_site_fract_x
 _atom_site_fract_y
 _atom_site_fract_z
 _atom_site_occupancy
  Pr  Pr0  1  0.000000  0.499999  0.499999  1
  Nd  Nd1  1  0.499999  0.499999  0.000000  1
  Nd  Nd2  1  0.499999  0.000000  0.499999  1
  Ga  Ga3  1  0.399237  0.000342  0.000342  1
  Ga  Ga4  1  0.000000  0.398895  0.999658  1
  Ga  Ga5  1  0.000000  0.999658  0.398895  1
  Ga  Ga6  1  0.600762  0.601104  0.601104  1
  Co  Co7  1  0.765895  0.999648  0.999648  1
  Co  Co8  1  0.000000  0.766247  0.000352  1
  Co  Co9  1  0.234104  0.233752  0.233752  1
  Co  Co10  1  0.000000  0.000352  0.766247  1
