# generated using pymatgen
data_Gd3ErAu12
_symmetry_space_group_name_H-M   'P 1'
_cell_length_a   5.02203100
_cell_length_b   5.14767800
_cell_length_c   12.35786100
_cell_angle_alpha   90.00000000
_cell_angle_beta   90.00000000
_cell_angle_gamma   90.00000000
_symmetry_Int_Tables_number   1
_chemical_formula_structural   Gd3ErAu12
_chemical_formula_sum   'Gd3 Er1 Au12'
_cell_volume   319.47293239
_cell_formula_units_Z   1
loop_
 _symmetry_equiv_pos_site_id
 _symmetry_equiv_pos_as_xyz
  1  'x, y, z'
loop_
 _atom_site_type_symbol
 _atom_site_label
 _atom_site_symmetry_multiplicity
 _atom_site_fract_x
 _atom_site_fract_y
 _atom_site_fract_z
 _atom_site_occupancy
  Gd  Gd0  1  0.500000  0.655954  0.500000  1
  Gd  Gd1  1  0.000000  0.342231  0.751477  1
  Gd  Gd2  1  0.000000  0.342231  0.248523  1
  Er  Er3  1  0.500000  0.657350  0.000000  1
  Au  Au4  1  0.000000  0.336413  0.000000  1
  Au  Au5  1  0.000000  0.324139  0.500000  1
  Au  Au6  1  0.500000  0.672672  0.755116  1
  Au  Au7  1  0.500000  0.672672  0.244884  1
  Au  Au8  1  0.500000  0.162909  0.122279  1
  Au  Au9  1  0.500000  0.161121  0.632099  1
  Au  Au10  1  0.500000  0.162909  0.877721  1
  Au  Au11  1  0.500000  0.161121  0.367901  1
  Au  Au12  1  0.000000  0.838931  0.119084  1
  Au  Au13  1  0.000000  0.835210  0.623696  1
  Au  Au14  1  0.000000  0.838931  0.880916  1
  Au  Au15  1  0.000000  0.835210  0.376304  1
