# generated using pymatgen
data_Ho4Tm4Sc12Si15P
_symmetry_space_group_name_H-M   'P 1'
_cell_length_a   7.06518667
_cell_length_b   7.35082794
_cell_length_c   13.93194609
_cell_angle_alpha   90.00301307
_cell_angle_beta   89.98746302
_cell_angle_gamma   90.13170958
_symmetry_Int_Tables_number   1
_chemical_formula_structural   Ho4Tm4Sc12Si15P
_chemical_formula_sum   'Ho4 Tm4 Sc12 Si15 P1'
_cell_volume   723.55329400
_cell_formula_units_Z   1
loop_
 _symmetry_equiv_pos_site_id
 _symmetry_equiv_pos_as_xyz
  1  'x, y, z'
loop_
 _atom_site_type_symbol
 _atom_site_label
 _atom_site_symmetry_multiplicity
 _atom_site_fract_x
 _atom_site_fract_y
 _atom_site_fract_z
 _atom_site_occupancy
  Ho  Ho0  1  0.010173  0.175732  0.096292  1
  Ho  Ho1  1  0.990776  0.826127  0.900711  1
  Ho  Ho2  1  0.489883  0.675925  0.904404  1
  Ho  Ho3  1  0.990823  0.826076  0.598823  1
  Tm  Tm4  1  0.511268  0.323457  0.096203  1
  Tm  Tm5  1  0.010383  0.176040  0.403599  1
  Tm  Tm6  1  0.511252  0.323448  0.404221  1
  Tm  Tm7  1  0.489731  0.676270  0.595745  1
  Sc  Sc8  1  0.160152  0.502464  0.749803  1
  Sc  Sc9  1  0.838488  0.496702  0.250186  1
  Sc  Sc10  1  0.338781  0.003304  0.250226  1
  Sc  Sc11  1  0.662838  0.998624  0.749758  1
  Sc  Sc12  1  0.327847  0.173982  0.627071  1
  Sc  Sc13  1  0.667761  0.823112  0.375397  1
  Sc  Sc14  1  0.168164  0.677271  0.375151  1
  Sc  Sc15  1  0.667881  0.823222  0.124862  1
  Sc  Sc16  1  0.832681  0.322491  0.626234  1
  Sc  Sc17  1  0.327951  0.173787  0.872662  1
  Sc  Sc18  1  0.832455  0.322718  0.873506  1
  Sc  Sc19  1  0.168184  0.677155  0.125078  1
  Si  Si20  1  0.964976  0.885378  0.250342  1
  Si  Si21  1  0.466500  0.612874  0.250165  1
  Si  Si22  1  0.531459  0.384657  0.749669  1
  Si  Si23  1  0.295796  0.862965  0.749546  1
  Si  Si24  1  0.714080  0.128136  0.250479  1
  Si  Si25  1  0.215331  0.371752  0.250433  1
  Si  Si26  1  0.786117  0.629349  0.749584  1
  Si  Si27  1  0.159637  0.463588  0.539578  1
  Si  Si28  1  0.840547  0.534563  0.461125  1
  Si  Si29  1  0.338828  0.965884  0.460639  1
  Si  Si30  1  0.840686  0.535190  0.038724  1
  Si  Si31  1  0.660294  0.036470  0.539981  1
  Si  Si32  1  0.158591  0.463720  0.960322  1
  Si  Si33  1  0.660164  0.037123  0.960193  1
  Si  Si34  1  0.339969  0.965962  0.039414  1
  P  P35  1  0.029552  0.124483  0.749874  1
