# generated using pymatgen
data_Li2PAu
_symmetry_space_group_name_H-M   'P 1'
_cell_length_a   4.31242100
_cell_length_b   4.31242150
_cell_length_c   7.74732400
_cell_angle_alpha   90.00000000
_cell_angle_beta   90.00000000
_cell_angle_gamma   119.99998852
_symmetry_Int_Tables_number   1
_chemical_formula_structural   Li2PAu
_chemical_formula_sum   'Li4 P2 Au2'
_cell_volume   124.77418889
_cell_formula_units_Z   2
loop_
 _symmetry_equiv_pos_site_id
 _symmetry_equiv_pos_as_xyz
  1  'x, y, z'
loop_
 _atom_site_type_symbol
 _atom_site_label
 _atom_site_symmetry_multiplicity
 _atom_site_fract_x
 _atom_site_fract_y
 _atom_site_fract_z
 _atom_site_occupancy
  Li  Li0  1  0.333333  0.666667  0.417042  1
  Li  Li1  1  0.333333  0.666667  0.079798  1
  Li  Li2  1  0.666667  0.333333  0.920202  1
  Li  Li3  1  0.666667  0.333333  0.582958  1
  P  P4  1  0.333333  0.666667  0.749107  1
  P  P5  1  0.666667  0.333333  0.250893  1
  Au  Au6  1  0.000000  0.000000  0.754075  1
  Au  Au7  1  0.000000  0.000000  0.245925  1
