# generated using pymatgen
data_Y16In3Ni4Ag
_symmetry_space_group_name_H-M   'P 1'
_cell_length_a   9.61574269
_cell_length_b   9.57819658
_cell_length_c   9.57819600
_cell_angle_alpha   60.00000200
_cell_angle_beta   60.12908293
_cell_angle_gamma   60.12908259
_symmetry_Int_Tables_number   1
_chemical_formula_structural   Y16In3Ni4Ag
_chemical_formula_sum   'Y16 In3 Ni4 Ag1'
_cell_volume   624.99983656
_cell_formula_units_Z   1
loop_
 _symmetry_equiv_pos_site_id
 _symmetry_equiv_pos_as_xyz
  1  'x, y, z'
loop_
 _atom_site_type_symbol
 _atom_site_label
 _atom_site_symmetry_multiplicity
 _atom_site_fract_x
 _atom_site_fract_y
 _atom_site_fract_z
 _atom_site_occupancy
  Y  Y0  1  0.599569  0.599048  0.599048  1
  Y  Y1  1  0.599569  0.599048  0.202333  1
  Y  Y2  1  0.599569  0.202333  0.599048  1
  Y  Y3  1  0.203312  0.598896  0.598896  1
  Y  Y4  1  0.060135  0.439481  0.439481  1
  Y  Y5  1  0.438188  0.061708  0.061708  1
  Y  Y6  1  0.438188  0.061708  0.438396  1
  Y  Y7  1  0.060135  0.439481  0.060902  1
  Y  Y8  1  0.438188  0.438396  0.061708  1
  Y  Y9  1  0.060135  0.060902  0.439481  1
  Y  Y10  1  0.190380  0.813072  0.813072  1
  Y  Y11  1  0.814976  0.186065  0.186065  1
  Y  Y12  1  0.814976  0.186065  0.812895  1
  Y  Y13  1  0.190380  0.813072  0.183476  1
  Y  Y14  1  0.814976  0.812895  0.186065  1
  Y  Y15  1  0.190380  0.183476  0.813072  1
  In  In16  1  0.829482  0.833094  0.833094  1
  In  In17  1  0.829482  0.833094  0.504330  1
  In  In18  1  0.829482  0.504330  0.833094  1
  Ni  Ni19  1  0.392372  0.392375  0.392375  1
  Ni  Ni20  1  0.392372  0.392375  0.822877  1
  Ni  Ni21  1  0.392372  0.822877  0.392375  1
  Ni  Ni22  1  0.822656  0.392448  0.392448  1
  Ag  Ag23  1  0.498726  0.833758  0.833758  1
