# generated using pymatgen
data_Ta2TiBe6Si2Mo
_symmetry_space_group_name_H-M   'P 1'
_cell_length_a   4.58485400
_cell_length_b   4.58485310
_cell_length_c   7.66397200
_cell_angle_alpha   90.00000000
_cell_angle_beta   90.00000000
_cell_angle_gamma   120.00000648
_symmetry_Int_Tables_number   1
_chemical_formula_structural   Ta2TiBe6Si2Mo
_chemical_formula_sum   'Ta2 Ti1 Be6 Si2 Mo1'
_cell_volume   139.51967272
_cell_formula_units_Z   1
loop_
 _symmetry_equiv_pos_site_id
 _symmetry_equiv_pos_as_xyz
  1  'x, y, z'
loop_
 _atom_site_type_symbol
 _atom_site_label
 _atom_site_symmetry_multiplicity
 _atom_site_fract_x
 _atom_site_fract_y
 _atom_site_fract_z
 _atom_site_occupancy
  Ta  Ta0  1  0.333333  0.666667  0.932111  1
  Ta  Ta1  1  0.666667  0.333333  0.065467  1
  Ti  Ti2  1  0.666667  0.333333  0.437571  1
  Be  Be3  1  0.650705  0.825353  0.253092  1
  Be  Be4  1  0.174647  0.825353  0.253092  1
  Be  Be5  1  0.174647  0.349295  0.253092  1
  Be  Be6  1  0.348625  0.174313  0.746612  1
  Be  Be7  1  0.825687  0.174313  0.746612  1
  Be  Be8  1  0.825687  0.651375  0.746612  1
  Si  Si9  1  0.000000  0.000000  0.500203  1
  Si  Si10  1  0.000000  0.000000  0.000585  1
  Mo  Mo11  1  0.333333  0.666667  0.564951  1
