# generated using pymatgen
data_Ag3BiIrRh3O14
_symmetry_space_group_name_H-M   'P 1'
_cell_length_a   7.17484092
_cell_length_b   7.17484202
_cell_length_c   7.26119470
_cell_angle_alpha   60.39262983
_cell_angle_beta   60.39263709
_cell_angle_gamma   60.00000483
_symmetry_Int_Tables_number   1
_chemical_formula_structural   Ag3BiIrRh3O14
_chemical_formula_sum   'Ag3 Bi1 Ir1 Rh3 O14'
_cell_volume   265.87026804
_cell_formula_units_Z   1
loop_
 _symmetry_equiv_pos_site_id
 _symmetry_equiv_pos_as_xyz
  1  'x, y, z'
loop_
 _atom_site_type_symbol
 _atom_site_label
 _atom_site_symmetry_multiplicity
 _atom_site_fract_x
 _atom_site_fract_y
 _atom_site_fract_z
 _atom_site_occupancy
  Ag  Ag0  1  0.625000  0.125000  0.125000  1
  Ag  Ag1  1  0.125000  0.625000  0.125000  1
  Ag  Ag2  1  0.125000  0.125000  0.125000  1
  Bi  Bi3  1  0.125000  0.125000  0.625000  1
  Ir  Ir4  1  0.625000  0.625000  0.125000  1
  Rh  Rh5  1  0.125000  0.625000  0.625000  1
  Rh  Rh6  1  0.625000  0.125000  0.625000  1
  Rh  Rh7  1  0.625000  0.625000  0.625000  1
  O  O8  1  0.693836  0.693836  0.304741  1
  O  O9  1  0.290384  0.290384  0.709639  1
  O  O10  1  0.709595  0.290384  0.709639  1
  O  O11  1  0.307588  0.693836  0.304741  1
  O  O12  1  0.290384  0.709595  0.709639  1
  O  O13  1  0.693836  0.307588  0.304741  1
  O  O14  1  0.556164  0.556164  0.945259  1
  O  O15  1  0.959616  0.959616  0.540361  1
  O  O16  1  0.540405  0.959616  0.540361  1
  O  O17  1  0.942412  0.556164  0.945259  1
  O  O18  1  0.959616  0.540405  0.540361  1
  O  O19  1  0.556164  0.942412  0.945259  1
  O  O20  1  0.255675  0.255675  0.232974  1
  O  O21  1  0.994325  0.994325  0.017026  1
