# generated using pymatgen
data_SrCo12HgO24
_symmetry_space_group_name_H-M   'P 1'
_cell_length_a   7.87729268
_cell_length_b   7.87729242
_cell_length_c   9.08494096
_cell_angle_alpha   55.81661614
_cell_angle_beta   55.81661802
_cell_angle_gamma   65.91594779
_symmetry_Int_Tables_number   1
_chemical_formula_structural   SrCo12HgO24
_chemical_formula_sum   'Sr1 Co12 Hg1 O24'
_cell_volume   382.24937311
_cell_formula_units_Z   1
loop_
 _symmetry_equiv_pos_site_id
 _symmetry_equiv_pos_as_xyz
  1  'x, y, z'
loop_
 _atom_site_type_symbol
 _atom_site_label
 _atom_site_symmetry_multiplicity
 _atom_site_fract_x
 _atom_site_fract_y
 _atom_site_fract_z
 _atom_site_occupancy
  Sr  Sr0  1  0.325559  0.674441  0.000000  1
  Co  Co1  1  0.337093  0.341933  0.817991  1
  Co  Co2  1  0.000531  0.677701  0.817360  1
  Co  Co3  1  0.668804  0.009733  0.815397  1
  Co  Co4  1  0.990267  0.331196  0.184603  1
  Co  Co5  1  0.658067  0.662907  0.182009  1
  Co  Co6  1  0.322299  0.999469  0.182640  1
  Co  Co7  1  0.140679  0.146253  0.528990  1
  Co  Co8  1  0.475596  0.817486  0.521463  1
  Co  Co9  1  0.804282  0.483432  0.528371  1
  Co  Co10  1  0.853747  0.859321  0.471010  1
  Co  Co11  1  0.182514  0.524404  0.478537  1
  Co  Co12  1  0.516568  0.195718  0.471629  1
  Hg  Hg13  1  0.824306  0.175694  0.000000  1
  O  O14  1  0.357955  0.364184  0.599629  1
  O  O15  1  0.022235  0.699692  0.599223  1
  O  O16  1  0.689698  0.031461  0.596688  1
  O  O17  1  0.968539  0.310302  0.403312  1
  O  O18  1  0.635816  0.642045  0.400371  1
  O  O19  1  0.300308  0.977765  0.400777  1
  O  O20  1  0.329776  0.343578  0.353070  1
  O  O21  1  0.001833  0.672669  0.352317  1
  O  O22  1  0.672640  0.015603  0.340026  1
  O  O23  1  0.984397  0.327360  0.659974  1
  O  O24  1  0.656422  0.670224  0.646930  1
  O  O25  1  0.327331  0.998167  0.647683  1
  O  O26  1  0.618811  0.295686  0.733235  1
  O  O27  1  0.287491  0.628881  0.742716  1
  O  O28  1  0.954009  0.959973  0.732102  1
  O  O29  1  0.704314  0.381189  0.266765  1
  O  O30  1  0.371119  0.712509  0.257284  1
  O  O31  1  0.040027  0.045991  0.267898  1
  O  O32  1  0.954619  0.625556  0.066337  1
  O  O33  1  0.619042  0.959617  0.066308  1
  O  O34  1  0.284739  0.296261  0.066831  1
  O  O35  1  0.374444  0.045381  0.933663  1
  O  O36  1  0.040383  0.380958  0.933692  1
  O  O37  1  0.703739  0.715261  0.933169  1
