# generated using pymatgen
data_Li4TiZn3Pt8
_symmetry_space_group_name_H-M   'P 1'
_cell_length_a   5.73890500
_cell_length_b   6.89277900
_cell_length_c   5.73102800
_cell_angle_alpha   90.00000000
_cell_angle_beta   90.00015985
_cell_angle_gamma   90.00000000
_symmetry_Int_Tables_number   1
_chemical_formula_structural   Li4TiZn3Pt8
_chemical_formula_sum   'Li4 Ti1 Zn3 Pt8'
_cell_volume   226.70229676
_cell_formula_units_Z   1
loop_
 _symmetry_equiv_pos_site_id
 _symmetry_equiv_pos_as_xyz
  1  'x, y, z'
loop_
 _atom_site_type_symbol
 _atom_site_label
 _atom_site_symmetry_multiplicity
 _atom_site_fract_x
 _atom_site_fract_y
 _atom_site_fract_z
 _atom_site_occupancy
  Li  Li0  1  0.749957  0.250001  0.000107  1
  Li  Li1  1  0.249954  0.750000  0.499892  1
  Li  Li2  1  0.750046  0.250001  0.500104  1
  Li  Li3  1  0.250045  0.750000  0.999892  1
  Ti  Ti4  1  0.749961  0.750000  0.500006  1
  Zn  Zn5  1  0.249953  0.250001  0.999999  1
  Zn  Zn6  1  0.750045  0.750000  0.000003  1
  Zn  Zn7  1  0.250040  0.250001  0.499994  1
  Pt  Pt8  1  0.499841  0.999316  0.250876  1
  Pt  Pt9  1  0.499841  0.500684  0.250876  1
  Pt  Pt10  1  0.000155  0.999317  0.250888  1
  Pt  Pt11  1  0.000155  0.500684  0.250888  1
  Pt  Pt12  1  0.000158  0.999320  0.749112  1
  Pt  Pt13  1  0.000158  0.500678  0.749112  1
  Pt  Pt14  1  0.499845  0.999320  0.749124  1
  Pt  Pt15  1  0.499845  0.500680  0.749124  1
