# generated using pymatgen
data_MnSnPd4
_symmetry_space_group_name_H-M   'P 1'
_cell_length_a   4.21834500
_cell_length_b   5.59409300
_cell_length_c   8.25903000
_cell_angle_alpha   90.00000000
_cell_angle_beta   90.00000000
_cell_angle_gamma   90.00000000
_symmetry_Int_Tables_number   1
_chemical_formula_structural   MnSnPd4
_chemical_formula_sum   'Mn2 Sn2 Pd8'
_cell_volume   194.89505571
_cell_formula_units_Z   2
loop_
 _symmetry_equiv_pos_site_id
 _symmetry_equiv_pos_as_xyz
  1  'x, y, z'
loop_
 _atom_site_type_symbol
 _atom_site_label
 _atom_site_symmetry_multiplicity
 _atom_site_fract_x
 _atom_site_fract_y
 _atom_site_fract_z
 _atom_site_occupancy
  Mn  Mn0  1  0.750000  0.824930  0.895300  1
  Mn  Mn1  1  0.750000  0.324930  0.604700  1
  Sn  Sn2  1  0.250000  0.174158  0.096203  1
  Sn  Sn3  1  0.250000  0.674158  0.403797  1
  Pd  Pd4  1  0.750000  0.435012  0.275913  1
  Pd  Pd5  1  0.750000  0.935012  0.224087  1
  Pd  Pd6  1  0.250000  0.562514  0.732170  1
  Pd  Pd7  1  0.250000  0.062514  0.767830  1
  Pd  Pd8  1  0.750000  0.340334  0.924356  1
  Pd  Pd9  1  0.750000  0.840334  0.575644  1
  Pd  Pd10  1  0.250000  0.663052  0.064421  1
  Pd  Pd11  1  0.250000  0.163052  0.435579  1
