# generated using pymatgen
data_Tb5HoAl16(SiOs)8
_symmetry_space_group_name_H-M   'P 1'
_cell_length_a   8.70522322
_cell_length_b   8.70522248
_cell_length_c   9.44093800
_cell_angle_alpha   89.99845347
_cell_angle_beta   90.00154749
_cell_angle_gamma   120.12061696
_symmetry_Int_Tables_number   1
_chemical_formula_structural   Tb5HoAl16(SiOs)8
_chemical_formula_sum   'Tb5 Ho1 Al16 Si8 Os8'
_cell_volume   618.83722585
_cell_formula_units_Z   1
loop_
 _symmetry_equiv_pos_site_id
 _symmetry_equiv_pos_as_xyz
  1  'x, y, z'
loop_
 _atom_site_type_symbol
 _atom_site_label
 _atom_site_symmetry_multiplicity
 _atom_site_fract_x
 _atom_site_fract_y
 _atom_site_fract_z
 _atom_site_occupancy
  Tb  Tb0  1  0.191379  0.385565  0.249976  1
  Tb  Tb1  1  0.808395  0.613982  0.750064  1
  Tb  Tb2  1  0.614435  0.808621  0.249976  1
  Tb  Tb3  1  0.386018  0.191605  0.750064  1
  Tb  Tb4  1  0.194119  0.805881  0.249984  1
  Ho  Ho5  1  0.804731  0.195269  0.750103  1
  Al  Al6  1  0.165256  0.329339  0.578306  1
  Al  Al7  1  0.834477  0.670508  0.422204  1
  Al  Al8  1  0.670661  0.834744  0.578306  1
  Al  Al9  1  0.834490  0.670520  0.077806  1
  Al  Al10  1  0.329492  0.165523  0.422204  1
  Al  Al11  1  0.165245  0.329355  0.921712  1
  Al  Al12  1  0.164668  0.835332  0.577665  1
  Al  Al13  1  0.329480  0.165510  0.077806  1
  Al  Al14  1  0.835535  0.164465  0.423311  1
  Al  Al15  1  0.670645  0.834755  0.921712  1
  Al  Al16  1  0.835521  0.164479  0.076746  1
  Al  Al17  1  0.164645  0.835355  0.922339  1
  Al  Al18  1  0.565192  0.434808  0.249987  1
  Al  Al19  1  0.434510  0.565490  0.750038  1
  Al  Al20  1  0.000664  0.999336  0.249811  1
  Al  Al21  1  0.998621  0.001379  0.749892  1
  Si  Si22  1  0.335134  0.664866  0.039698  1
  Si  Si23  1  0.665140  0.334860  0.959655  1
  Si  Si24  1  0.665159  0.334841  0.540361  1
  Si  Si25  1  0.335131  0.664869  0.460388  1
  Si  Si26  1  0.565184  0.124757  0.249999  1
  Si  Si27  1  0.436008  0.875630  0.750035  1
  Si  Si28  1  0.875243  0.434816  0.249999  1
  Si  Si29  1  0.124370  0.563992  0.750035  1
  Os  Os30  1  0.500385  0.000281  0.999695  1
  Os  Os31  1  0.999719  0.499615  0.999695  1
  Os  Os32  1  0.500411  0.000279  0.500327  1
  Os  Os33  1  0.500090  0.499910  0.999896  1
  Os  Os34  1  0.999721  0.499589  0.500327  1
  Os  Os35  1  0.500078  0.499922  0.500120  1
  Os  Os36  1  0.000006  0.999994  0.999846  1
  Os  Os37  1  0.000043  0.999957  0.499914  1
