# generated using pymatgen
data_NaSrWN3
_symmetry_space_group_name_H-M   'P 1'
_cell_length_a   6.32849654
_cell_length_b   6.32849702
_cell_length_c   12.66201537
_cell_angle_alpha   89.81029701
_cell_angle_beta   89.81029476
_cell_angle_gamma   122.66892518
_symmetry_Int_Tables_number   1
_chemical_formula_structural   NaSrWN3
_chemical_formula_sum   'Na4 Sr4 W4 N12'
_cell_volume   426.87864425
_cell_formula_units_Z   4
loop_
 _symmetry_equiv_pos_site_id
 _symmetry_equiv_pos_as_xyz
  1  'x, y, z'
loop_
 _atom_site_type_symbol
 _atom_site_label
 _atom_site_symmetry_multiplicity
 _atom_site_fract_x
 _atom_site_fract_y
 _atom_site_fract_z
 _atom_site_occupancy
  Na  Na0  1  0.924136  0.516822  0.381464  1
  Na  Na1  1  0.483178  0.075864  0.118536  1
  Na  Na2  1  0.075864  0.483178  0.618536  1
  Na  Na3  1  0.516822  0.924136  0.881464  1
  Sr  Sr4  1  0.119712  0.341150  0.081277  1
  Sr  Sr5  1  0.658850  0.880288  0.418723  1
  Sr  Sr6  1  0.880288  0.658850  0.918723  1
  Sr  Sr7  1  0.341150  0.119712  0.581277  1
  W  W8  1  0.753524  0.726224  0.164804  1
  W  W9  1  0.273776  0.246476  0.335196  1
  W  W10  1  0.246476  0.273776  0.835196  1
  W  W11  1  0.726224  0.753524  0.664804  1
  N  N12  1  0.449905  0.550095  0.250000  1
  N  N13  1  0.550095  0.449905  0.750000  1
  N  N14  1  0.855558  0.522770  0.116121  1
  N  N15  1  0.477230  0.144442  0.383879  1
  N  N16  1  0.144442  0.477230  0.883879  1
  N  N17  1  0.522770  0.855558  0.616121  1
  N  N18  1  0.864314  0.698130  0.548788  1
  N  N19  1  0.301870  0.135686  0.951212  1
  N  N20  1  0.135686  0.301870  0.451212  1
  N  N21  1  0.698130  0.864314  0.048788  1
  N  N22  1  0.002170  0.997830  0.250000  1
  N  N23  1  0.997830  0.002170  0.750000  1
