# generated using pymatgen
data_LaNdTh6(ReC2)4
_symmetry_space_group_name_H-M   'P 1'
_cell_length_a   5.38062600
_cell_length_b   6.69016330
_cell_length_c   10.17167928
_cell_angle_alpha   89.68838811
_cell_angle_beta   90.00000000
_cell_angle_gamma   90.00000000
_symmetry_Int_Tables_number   1
_chemical_formula_structural   LaNdTh6(ReC2)4
_chemical_formula_sum   'La1 Nd1 Th6 Re4 C8'
_cell_volume   366.14723523
_cell_formula_units_Z   1
loop_
 _symmetry_equiv_pos_site_id
 _symmetry_equiv_pos_as_xyz
  1  'x, y, z'
loop_
 _atom_site_type_symbol
 _atom_site_label
 _atom_site_symmetry_multiplicity
 _atom_site_fract_x
 _atom_site_fract_y
 _atom_site_fract_z
 _atom_site_occupancy
  La  La0  1  0.750000  0.027844  0.282715  1
  Nd  Nd1  1  0.750000  0.191520  0.949850  1
  Th  Th2  1  0.250000  0.472525  0.778771  1
  Th  Th3  1  0.250000  0.975127  0.724057  1
  Th  Th4  1  0.750000  0.523675  0.221574  1
  Th  Th5  1  0.250000  0.812208  0.049170  1
  Th  Th6  1  0.750000  0.693350  0.548643  1
  Th  Th7  1  0.250000  0.308072  0.450772  1
  Re  Re8  1  0.250000  0.273138  0.137308  1
  Re  Re9  1  0.750000  0.231004  0.639100  1
  Re  Re10  1  0.250000  0.771506  0.362125  1
  Re  Re11  1  0.750000  0.730579  0.859653  1
  C  C12  1  0.250000  0.665901  0.551768  1
  C  C13  1  0.750000  0.811179  0.045808  1
  C  C14  1  0.250000  0.170672  0.951775  1
  C  C15  1  0.750000  0.339590  0.451983  1
  C  C16  1  0.250000  0.031196  0.254675  1
  C  C17  1  0.750000  0.468821  0.755294  1
  C  C18  1  0.250000  0.533200  0.243986  1
  C  C19  1  0.750000  0.968893  0.740972  1
