# generated using pymatgen
data_Ho6AlCuRu
_symmetry_space_group_name_H-M   'P 1'
_cell_length_a   8.38000386
_cell_length_b   8.38470057
_cell_length_c   8.38000456
_cell_angle_alpha   112.97227281
_cell_angle_beta   110.79845834
_cell_angle_gamma   104.73041079
_symmetry_Int_Tables_number   1
_chemical_formula_structural   Ho6AlCuRu
_chemical_formula_sum   'Ho12 Al2 Cu2 Ru2'
_cell_volume   450.91734467
_cell_formula_units_Z   2
loop_
 _symmetry_equiv_pos_site_id
 _symmetry_equiv_pos_as_xyz
  1  'x, y, z'
loop_
 _atom_site_type_symbol
 _atom_site_label
 _atom_site_symmetry_multiplicity
 _atom_site_fract_x
 _atom_site_fract_y
 _atom_site_fract_z
 _atom_site_occupancy
  Ho  Ho0  1  0.434176  0.240645  0.193444  1
  Ho  Ho1  1  0.565824  0.759355  0.806556  1
  Ho  Ho2  1  0.047200  0.240645  0.806469  1
  Ho  Ho3  1  0.952800  0.759355  0.193531  1
  Ho  Ho4  1  0.184457  0.277075  0.461359  1
  Ho  Ho5  1  0.815543  0.722925  0.538641  1
  Ho  Ho6  1  0.184285  0.722925  0.907382  1
  Ho  Ho7  1  0.815715  0.277075  0.092618  1
  Ho  Ho8  1  0.332043  0.641214  0.309172  1
  Ho  Ho9  1  0.667957  0.358786  0.690828  1
  Ho  Ho10  1  0.332286  0.023452  0.691166  1
  Ho  Ho11  1  0.667714  0.976548  0.308834  1
  Al  Al12  1  0.500000  0.500000  0.000000  1
  Al  Al13  1  0.000000  0.000000  0.000000  1
  Cu  Cu14  1  0.120742  0.621566  0.500824  1
  Cu  Cu15  1  0.879258  0.378434  0.499176  1
  Ru  Ru16  1  0.326532  0.000000  0.326532  1
  Ru  Ru17  1  0.673468  0.000000  0.673468  1
