# generated using pymatgen
data_Ho8Er7Lu5Pb16
_symmetry_space_group_name_H-M   'P 1'
_cell_length_a   8.12785738
_cell_length_b   15.47409701
_cell_length_c   8.20093500
_cell_angle_alpha   89.99787836
_cell_angle_beta   89.98254591
_cell_angle_gamma   89.99915144
_symmetry_Int_Tables_number   1
_chemical_formula_structural   Ho8Er7Lu5Pb16
_chemical_formula_sum   'Ho8 Er7 Lu5 Pb16'
_cell_volume   1031.44182660
_cell_formula_units_Z   1
loop_
 _symmetry_equiv_pos_site_id
 _symmetry_equiv_pos_as_xyz
  1  'x, y, z'
loop_
 _atom_site_type_symbol
 _atom_site_label
 _atom_site_symmetry_multiplicity
 _atom_site_fract_x
 _atom_site_fract_y
 _atom_site_fract_z
 _atom_site_occupancy
  Ho  Ho0  1  0.463924  0.599559  0.676227  1
  Ho  Ho1  1  0.964037  0.900498  0.823579  1
  Ho  Ho2  1  0.536077  0.099434  0.323689  1
  Ho  Ho3  1  0.035881  0.401055  0.176765  1
  Ho  Ho4  1  0.536300  0.400581  0.323427  1
  Ho  Ho5  1  0.035913  0.099333  0.176440  1
  Ho  Ho6  1  0.463854  0.900490  0.676292  1
  Ho  Ho7  1  0.964134  0.599307  0.823375  1
  Er  Er8  1  0.623470  0.621247  0.158172  1
  Er  Er9  1  0.123613  0.878691  0.341745  1
  Er  Er10  1  0.376464  0.121429  0.841673  1
  Er  Er11  1  0.876296  0.378643  0.658262  1
  Er  Er12  1  0.376167  0.378921  0.841715  1
  Er  Er13  1  0.876294  0.121257  0.657993  1
  Er  Er14  1  0.623680  0.878513  0.158326  1
  Lu  Lu15  1  0.123626  0.621517  0.341775  1
  Lu  Lu16  1  0.792210  0.749853  0.495278  1
  Lu  Lu17  1  0.291712  0.749825  0.004923  1
  Lu  Lu18  1  0.208013  0.250091  0.504578  1
  Lu  Lu19  1  0.707977  0.250004  0.995336  1
  Pb  Pb20  1  0.717707  0.456848  0.966029  1
  Pb  Pb21  1  0.217922  0.043234  0.534192  1
  Pb  Pb22  1  0.282406  0.956905  0.033715  1
  Pb  Pb23  1  0.783380  0.543212  0.465736  1
  Pb  Pb24  1  0.281685  0.543147  0.034941  1
  Pb  Pb25  1  0.782092  0.956911  0.466226  1
  Pb  Pb26  1  0.717654  0.043188  0.966086  1
  Pb  Pb27  1  0.217661  0.457447  0.533451  1
  Pb  Pb28  1  0.428794  0.749637  0.373569  1
  Pb  Pb29  1  0.929424  0.749522  0.126664  1
  Pb  Pb30  1  0.570921  0.250028  0.626426  1
  Pb  Pb31  1  0.070533  0.250080  0.873837  1
  Pb  Pb32  1  0.652161  0.749999  0.844503  1
  Pb  Pb33  1  0.151978  0.749744  0.655068  1
  Pb  Pb34  1  0.347863  0.249949  0.155509  1
  Pb  Pb35  1  0.848176  0.249904  0.344478  1
