# generated using pymatgen
data_Ta6Al3V4Si3B
_symmetry_space_group_name_H-M   'P 1'
_cell_length_a   7.56363400
_cell_length_b   7.56363520
_cell_length_c   5.04085700
_cell_angle_alpha   90.00000000
_cell_angle_beta   90.00000000
_cell_angle_gamma   120.00000349
_symmetry_Int_Tables_number   1
_chemical_formula_structural   Ta6Al3V4Si3B
_chemical_formula_sum   'Ta6 Al3 V4 Si3 B1'
_cell_volume   249.74458109
_cell_formula_units_Z   1
loop_
 _symmetry_equiv_pos_site_id
 _symmetry_equiv_pos_as_xyz
  1  'x, y, z'
loop_
 _atom_site_type_symbol
 _atom_site_label
 _atom_site_symmetry_multiplicity
 _atom_site_fract_x
 _atom_site_fract_y
 _atom_site_fract_z
 _atom_site_occupancy
  Ta  Ta0  1  0.000000  0.758105  0.242071  1
  Ta  Ta1  1  0.241895  0.241895  0.242071  1
  Ta  Ta2  1  0.758105  0.000000  0.242071  1
  Ta  Ta3  1  0.000000  0.240152  0.760542  1
  Ta  Ta4  1  0.759848  0.759848  0.760542  1
  Ta  Ta5  1  0.240152  0.000000  0.760542  1
  Al  Al6  1  0.000000  0.592045  0.747100  1
  Al  Al7  1  0.407955  0.407955  0.747100  1
  Al  Al8  1  0.592045  0.000000  0.747100  1
  V  V9  1  0.333333  0.666667  0.494342  1
  V  V10  1  0.666667  0.333333  0.494342  1
  V  V11  1  0.666667  0.333333  0.003877  1
  V  V12  1  0.333333  0.666667  0.003877  1
  Si  Si13  1  0.000000  0.406774  0.251390  1
  Si  Si14  1  0.593226  0.593226  0.251390  1
  Si  Si15  1  0.406774  0.000000  0.251390  1
  B  B16  1  0.000000  0.000000  0.500251  1
