# generated using pymatgen
data_YbPrDy5FeI12
_symmetry_space_group_name_H-M   'P 1'
_cell_length_a   9.83594824
_cell_length_b   9.80129863
_cell_length_c   9.78856629
_cell_angle_alpha   106.74722433
_cell_angle_beta   106.85702181
_cell_angle_gamma   107.32448853
_symmetry_Int_Tables_number   1
_chemical_formula_structural   YbPrDy5FeI12
_chemical_formula_sum   'Yb1 Pr1 Dy5 Fe1 I12'
_cell_volume   786.38649323
_cell_formula_units_Z   1
loop_
 _symmetry_equiv_pos_site_id
 _symmetry_equiv_pos_as_xyz
  1  'x, y, z'
loop_
 _atom_site_type_symbol
 _atom_site_label
 _atom_site_symmetry_multiplicity
 _atom_site_fract_x
 _atom_site_fract_y
 _atom_site_fract_z
 _atom_site_occupancy
  Yb  Yb0  1  0.999554  0.000388  0.998727  1
  Pr  Pr1  1  0.404300  0.204532  0.476023  1
  Dy  Dy2  1  0.801408  0.526135  0.597825  1
  Dy  Dy3  1  0.524569  0.594291  0.784531  1
  Dy  Dy4  1  0.199159  0.473078  0.402228  1
  Dy  Dy5  1  0.476431  0.408998  0.215649  1
  Dy  Dy6  1  0.593146  0.784199  0.524066  1
  Fe  Fe7  1  0.499510  0.497612  0.500457  1
  I  I8  1  0.735027  0.186539  0.577832  1
  I  I9  1  0.954554  0.879147  0.649903  1
  I  I10  1  0.573946  0.725181  0.186837  1
  I  I11  1  0.123978  0.350427  0.045196  1
  I  I12  1  0.651299  0.954562  0.876282  1
  I  I13  1  0.876021  0.651282  0.955430  1
  I  I14  1  0.033518  0.119957  0.343171  1
  I  I15  1  0.815936  0.427341  0.275423  1
  I  I16  1  0.346383  0.044549  0.111234  1
  I  I17  1  0.276845  0.812530  0.425959  1
  I  I18  1  0.184741  0.574271  0.725046  1
  I  I19  1  0.429678  0.284981  0.828180  1
