# generated using pymatgen
data_Sc2CdSb2(PO4)6
_symmetry_space_group_name_H-M   'P 1'
_cell_length_a   8.40260071
_cell_length_b   8.40260085
_cell_length_c   8.89194300
_cell_angle_alpha   118.19565599
_cell_angle_beta   61.80434351
_cell_angle_gamma   120.00000725
_symmetry_Int_Tables_number   1
_chemical_formula_structural   Sc2CdSb2(PO4)6
_chemical_formula_sum   'Sc2 Cd1 Sb2 P6 O24'
_cell_volume   455.64861366
_cell_formula_units_Z   1
loop_
 _symmetry_equiv_pos_site_id
 _symmetry_equiv_pos_as_xyz
  1  'x, y, z'
loop_
 _atom_site_type_symbol
 _atom_site_label
 _atom_site_symmetry_multiplicity
 _atom_site_fract_x
 _atom_site_fract_y
 _atom_site_fract_z
 _atom_site_occupancy
  Sc  Sc0  1  0.853804  0.146196  0.438588  1
  Sc  Sc1  1  0.146196  0.853804  0.561412  1
  Cd  Cd2  1  0.000000  0.000000  0.000000  1
  Sb  Sb3  1  0.648132  0.351867  0.055603  1
  Sb  Sb4  1  0.351867  0.648132  0.944397  1
  P  P5  1  0.250762  0.040839  0.243576  1
  P  P6  1  0.959161  0.453500  0.243576  1
  P  P7  1  0.546500  0.749237  0.243576  1
  P  P8  1  0.453500  0.250763  0.756423  1
  P  P9  1  0.040839  0.546500  0.756423  1
  P  P10  1  0.749237  0.959161  0.756423  1
  O  O11  1  0.158620  0.472026  0.089882  1
  O  O12  1  0.527974  0.776476  0.089882  1
  O  O13  1  0.223524  0.841380  0.089882  1
  O  O14  1  0.466218  0.180978  0.206539  1
  O  O15  1  0.819023  0.491780  0.206539  1
  O  O16  1  0.508221  0.533782  0.206539  1
  O  O17  1  0.122690  0.118877  0.239799  1
  O  O18  1  0.881124  0.243613  0.239799  1
  O  O19  1  0.756387  0.877310  0.239799  1
  O  O20  1  0.196881  0.013508  0.419665  1
  O  O21  1  0.986491  0.603037  0.419665  1
  O  O22  1  0.396962  0.803119  0.419665  1
  O  O23  1  0.603037  0.196881  0.580336  1
  O  O24  1  0.013508  0.396963  0.580336  1
  O  O25  1  0.803118  0.986491  0.580336  1
  O  O26  1  0.243612  0.122690  0.760201  1
  O  O27  1  0.118877  0.756388  0.760201  1
  O  O28  1  0.877310  0.881124  0.760201  1
  O  O29  1  0.491780  0.466219  0.793461  1
  O  O30  1  0.180979  0.508221  0.793461  1
  O  O31  1  0.533781  0.819022  0.793461  1
  O  O32  1  0.776476  0.158620  0.910119  1
  O  O33  1  0.472025  0.223524  0.910119  1
  O  O34  1  0.841380  0.527975  0.910119  1
