# generated using pymatgen
data_V11Si3AsRh
_symmetry_space_group_name_H-M   'P 1'
_cell_length_a   4.73829100
_cell_length_b   4.69084200
_cell_length_c   9.40707600
_cell_angle_alpha   90.00000000
_cell_angle_beta   90.00000000
_cell_angle_gamma   90.00000000
_symmetry_Int_Tables_number   1
_chemical_formula_structural   V11Si3AsRh
_chemical_formula_sum   'V11 Si3 As1 Rh1'
_cell_volume   209.08707489
_cell_formula_units_Z   1
loop_
 _symmetry_equiv_pos_site_id
 _symmetry_equiv_pos_as_xyz
  1  'x, y, z'
loop_
 _atom_site_type_symbol
 _atom_site_label
 _atom_site_symmetry_multiplicity
 _atom_site_fract_x
 _atom_site_fract_y
 _atom_site_fract_z
 _atom_site_occupancy
  V  V0  1  0.002346  0.500000  0.129610  1
  V  V1  1  0.000883  0.500000  0.623714  1
  V  V2  1  0.498510  0.249928  0.747792  1
  V  V3  1  0.498510  0.249928  0.252208  1
  V  V4  1  0.756155  0.000000  0.000000  1
  V  V5  1  0.002346  0.500000  0.870390  1
  V  V6  1  0.000883  0.500000  0.376286  1
  V  V7  1  0.498510  0.750072  0.747792  1
  V  V8  1  0.498510  0.750072  0.252208  1
  V  V9  1  0.248404  0.000000  0.000000  1
  V  V10  1  0.244294  0.000000  0.500000  1
  Si  Si11  1  0.490963  0.500000  0.500000  1
  Si  Si12  1  0.007114  0.000000  0.755061  1
  Si  Si13  1  0.007114  0.000000  0.244939  1
  As  As14  1  0.498905  0.500000  0.000000  1
  Rh  Rh15  1  0.746555  0.000000  0.500000  1
