# generated using pymatgen
data_Y7Ho9(CdRu)4
_symmetry_space_group_name_H-M   'P 1'
_cell_length_a   9.62197619
_cell_length_b   9.62251083
_cell_length_c   9.63242022
_cell_angle_alpha   59.93494585
_cell_angle_beta   59.93396934
_cell_angle_gamma   59.99099468
_symmetry_Int_Tables_number   1
_chemical_formula_structural   Y7Ho9(CdRu)4
_chemical_formula_sum   'Y7 Ho9 Cd4 Ru4'
_cell_volume   629.95952521
_cell_formula_units_Z   1
loop_
 _symmetry_equiv_pos_site_id
 _symmetry_equiv_pos_as_xyz
  1  'x, y, z'
loop_
 _atom_site_type_symbol
 _atom_site_label
 _atom_site_symmetry_multiplicity
 _atom_site_fract_x
 _atom_site_fract_y
 _atom_site_fract_z
 _atom_site_occupancy
  Y  Y0  1  0.060939  0.060948  0.438635  1
  Y  Y1  1  0.189604  0.810529  0.811636  1
  Y  Y2  1  0.810188  0.189775  0.189217  1
  Y  Y3  1  0.810533  0.189614  0.811626  1
  Y  Y4  1  0.189778  0.810173  0.189239  1
  Y  Y5  1  0.810181  0.810186  0.190681  1
  Y  Y6  1  0.189907  0.189922  0.810352  1
  Ho  Ho7  1  0.598070  0.598064  0.599814  1
  Ho  Ho8  1  0.595109  0.595083  0.211267  1
  Ho  Ho9  1  0.594912  0.212948  0.594804  1
  Ho  Ho10  1  0.212946  0.594900  0.594818  1
  Ho  Ho11  1  0.060718  0.438645  0.438608  1
  Ho  Ho12  1  0.438891  0.060576  0.060989  1
  Ho  Ho13  1  0.438639  0.060727  0.438606  1
  Ho  Ho14  1  0.060574  0.438884  0.061007  1
  Ho  Ho15  1  0.438056  0.438070  0.061522  1
  Cd  Cd16  1  0.829809  0.829814  0.829202  1
  Cd  Cd17  1  0.830330  0.830329  0.509184  1
  Cd  Cd18  1  0.830026  0.509389  0.829848  1
  Cd  Cd19  1  0.509395  0.830019  0.829843  1
  Ru  Ru20  1  0.388643  0.388642  0.388644  1
  Ru  Ru21  1  0.389934  0.389935  0.830947  1
  Ru  Ru22  1  0.394168  0.828664  0.389740  1
  Ru  Ru23  1  0.828654  0.394168  0.389771  1
