# generated using pymatgen
data_Pr2Bi5SbO14
_symmetry_space_group_name_H-M   'P 1'
_cell_length_a   6.63387450
_cell_length_b   6.88335110
_cell_length_c   7.82590300
_cell_angle_alpha   105.80515122
_cell_angle_beta   89.94113122
_cell_angle_gamma   99.19168028
_symmetry_Int_Tables_number   1
_chemical_formula_structural   Pr2Bi5SbO14
_chemical_formula_sum   'Pr2 Bi5 Sb1 O14'
_cell_volume   339.09126945
_cell_formula_units_Z   1
loop_
 _symmetry_equiv_pos_site_id
 _symmetry_equiv_pos_as_xyz
  1  'x, y, z'
loop_
 _atom_site_type_symbol
 _atom_site_label
 _atom_site_symmetry_multiplicity
 _atom_site_fract_x
 _atom_site_fract_y
 _atom_site_fract_z
 _atom_site_occupancy
  Pr  Pr0  1  0.456884  0.998295  0.244303  1
  Pr  Pr1  1  0.543116  0.001705  0.755697  1
  Bi  Bi2  1  0.000000  0.000000  0.500000  1
  Bi  Bi3  1  0.257118  0.509059  0.879172  1
  Bi  Bi4  1  0.742882  0.490941  0.120828  1
  Bi  Bi5  1  0.727160  0.474882  0.608504  1
  Bi  Bi6  1  0.272840  0.525118  0.391496  1
  Sb  Sb7  1  0.000000  0.000000  0.000000  1
  O  O8  1  0.459361  0.640650  0.175233  1
  O  O9  1  0.540639  0.359350  0.824767  1
  O  O10  1  0.283407  0.946676  0.952436  1
  O  O11  1  0.716593  0.053324  0.047564  1
  O  O12  1  0.290145  0.906349  0.502550  1
  O  O13  1  0.709855  0.093651  0.497450  1
  O  O14  1  0.534772  0.357054  0.355392  1
  O  O15  1  0.465228  0.642946  0.644608  1
  O  O16  1  0.916869  0.697661  0.976188  1
  O  O17  1  0.083131  0.302339  0.023812  1
  O  O18  1  0.112282  0.319753  0.614926  1
  O  O19  1  0.887718  0.680247  0.385074  1
  O  O20  1  0.898668  0.930180  0.741940  1
  O  O21  1  0.101332  0.069820  0.258060  1
