# generated using pymatgen
data_ErTm3Ga2(B2Ir5)2
_symmetry_space_group_name_H-M   'P 1'
_cell_length_a   9.55195383
_cell_length_b   9.55195383
_cell_length_c   3.15390300
_cell_angle_alpha   90.00000000
_cell_angle_beta   90.00000000
_cell_angle_gamma   89.95220530
_symmetry_Int_Tables_number   1
_chemical_formula_structural   ErTm3Ga2(B2Ir5)2
_chemical_formula_sum   'Er1 Tm3 Ga2 B4 Ir10'
_cell_volume   287.76144816
_cell_formula_units_Z   1
loop_
 _symmetry_equiv_pos_site_id
 _symmetry_equiv_pos_as_xyz
  1  'x, y, z'
loop_
 _atom_site_type_symbol
 _atom_site_label
 _atom_site_symmetry_multiplicity
 _atom_site_fract_x
 _atom_site_fract_y
 _atom_site_fract_z
 _atom_site_occupancy
  Er  Er0  1  0.823691  0.323691  0.000000  1
  Tm  Tm1  1  0.176364  0.676364  0.000000  1
  Tm  Tm2  1  0.323783  0.176182  0.000000  1
  Tm  Tm3  1  0.676182  0.823783  0.000000  1
  Ga  Ga4  1  0.500007  0.500007  0.000000  1
  Ga  Ga5  1  0.000007  0.000007  0.000000  1
  B  B6  1  0.622929  0.122929  0.000000  1
  B  B7  1  0.376874  0.876874  0.000000  1
  B  B8  1  0.123108  0.377075  0.000000  1
  B  B9  1  0.877075  0.623108  0.000000  1
  Ir  Ir10  1  0.499926  0.999926  0.500000  1
  Ir  Ir11  1  0.000340  0.500340  0.500000  1
  Ir  Ir12  1  0.718810  0.569534  0.500000  1
  Ir  Ir13  1  0.281157  0.430876  0.500000  1
  Ir  Ir14  1  0.219070  0.930649  0.500000  1
  Ir  Ir15  1  0.780779  0.068839  0.500000  1
  Ir  Ir16  1  0.430649  0.719070  0.500000  1
  Ir  Ir17  1  0.568839  0.280779  0.500000  1
  Ir  Ir18  1  0.069534  0.218810  0.500000  1
  Ir  Ir19  1  0.930876  0.781157  0.500000  1
