# generated using pymatgen
data_Dy8Re3B24Ir
_symmetry_space_group_name_H-M   'P 1'
_cell_length_a   3.68070300
_cell_length_b   9.17985859
_cell_length_c   11.56098632
_cell_angle_alpha   90.13741643
_cell_angle_beta   90.00000000
_cell_angle_gamma   90.00000000
_symmetry_Int_Tables_number   1
_chemical_formula_structural   Dy8Re3B24Ir
_chemical_formula_sum   'Dy8 Re3 B24 Ir1'
_cell_volume   390.62533291
_cell_formula_units_Z   1
loop_
 _symmetry_equiv_pos_site_id
 _symmetry_equiv_pos_as_xyz
  1  'x, y, z'
loop_
 _atom_site_type_symbol
 _atom_site_label
 _atom_site_symmetry_multiplicity
 _atom_site_fract_x
 _atom_site_fract_y
 _atom_site_fract_z
 _atom_site_occupancy
  Dy  Dy0  1  0.000000  0.318711  0.415565  1
  Dy  Dy1  1  0.000000  0.678229  0.591311  1
  Dy  Dy2  1  0.000000  0.827343  0.081514  1
  Dy  Dy3  1  0.000000  0.176896  0.912597  1
  Dy  Dy4  1  0.000000  0.944193  0.370366  1
  Dy  Dy5  1  0.000000  0.055801  0.628981  1
  Dy  Dy6  1  0.000000  0.441110  0.128451  1
  Dy  Dy7  1  0.000000  0.556609  0.871601  1
  Re  Re8  1  0.000000  0.362610  0.677352  1
  Re  Re9  1  0.000000  0.138459  0.179831  1
  Re  Re10  1  0.000000  0.861616  0.821152  1
  B  B11  1  0.500000  0.553766  0.433571  1
  B  B12  1  0.500000  0.446771  0.566744  1
  B  B13  1  0.500000  0.053385  0.066717  1
  B  B14  1  0.500000  0.946977  0.932638  1
  B  B15  1  0.500000  0.748767  0.420029  1
  B  B16  1  0.500000  0.251042  0.581007  1
  B  B17  1  0.500000  0.248572  0.081231  1
  B  B18  1  0.500000  0.752038  0.918917  1
  B  B19  1  0.500000  0.791043  0.265406  1
  B  B20  1  0.500000  0.208657  0.733850  1
  B  B21  1  0.500000  0.291431  0.234773  1
  B  B22  1  0.500000  0.708292  0.766131  1
  B  B23  1  0.500000  0.632023  0.184606  1
  B  B24  1  0.500000  0.369069  0.813811  1
  B  B25  1  0.500000  0.131221  0.314590  1
  B  B26  1  0.500000  0.868058  0.685746  1
  B  B27  1  0.500000  0.983524  0.211946  1
  B  B28  1  0.500000  0.016807  0.787092  1
  B  B29  1  0.500000  0.483329  0.287944  1
  B  B30  1  0.500000  0.517731  0.712323  1
  B  B31  1  0.500000  0.604568  0.029672  1
  B  B32  1  0.500000  0.396357  0.971601  1
  B  B33  1  0.500000  0.102959  0.470806  1
  B  B34  1  0.500000  0.894176  0.528616  1
  Ir  Ir35  1  0.000000  0.637859  0.321515  1
