# generated using pymatgen
data_Dy2Ho5Er5Ni4
_symmetry_space_group_name_H-M   'P 1'
_cell_length_a   6.30668112
_cell_length_b   6.78922504
_cell_length_c   9.47063416
_cell_angle_alpha   89.99376508
_cell_angle_beta   89.98009424
_cell_angle_gamma   90.01002724
_symmetry_Int_Tables_number   1
_chemical_formula_structural   Dy2Ho5Er5Ni4
_chemical_formula_sum   'Dy2 Ho5 Er5 Ni4'
_cell_volume   405.50863041
_cell_formula_units_Z   1
loop_
 _symmetry_equiv_pos_site_id
 _symmetry_equiv_pos_as_xyz
  1  'x, y, z'
loop_
 _atom_site_type_symbol
 _atom_site_label
 _atom_site_symmetry_multiplicity
 _atom_site_fract_x
 _atom_site_fract_y
 _atom_site_fract_z
 _atom_site_occupancy
  Dy  Dy0  1  0.861027  0.531973  0.249712  1
  Dy  Dy1  1  0.639076  0.032187  0.250013  1
  Ho  Ho2  1  0.821141  0.822091  0.566190  1
  Ho  Ho3  1  0.321122  0.678049  0.434449  1
  Ho  Ho4  1  0.178966  0.178214  0.065335  1
  Ho  Ho5  1  0.139513  0.467396  0.750162  1
  Ho  Ho6  1  0.360600  0.967634  0.750134  1
  Er  Er7  1  0.321353  0.678112  0.065255  1
  Er  Er8  1  0.178858  0.178188  0.434628  1
  Er  Er9  1  0.678881  0.321976  0.566198  1
  Er  Er10  1  0.820919  0.822058  0.934004  1
  Er  Er11  1  0.678770  0.322056  0.933674  1
  Ni  Ni12  1  0.054933  0.891126  0.249966  1
  Ni  Ni13  1  0.444997  0.390979  0.250003  1
  Ni  Ni14  1  0.945649  0.109125  0.750006  1
  Ni  Ni15  1  0.554194  0.608838  0.750270  1
