# generated using pymatgen
data_Pu3TaO7
_symmetry_space_group_name_H-M   'P 1'
_cell_length_a   6.57813646
_cell_length_b   6.57813611
_cell_length_c   7.70582500
_cell_angle_alpha   90.00000000
_cell_angle_beta   90.00000000
_cell_angle_gamma   109.82460822
_symmetry_Int_Tables_number   1
_chemical_formula_structural   Pu3TaO7
_chemical_formula_sum   'Pu6 Ta2 O14'
_cell_volume   313.68392887
_cell_formula_units_Z   2
loop_
 _symmetry_equiv_pos_site_id
 _symmetry_equiv_pos_as_xyz
  1  'x, y, z'
loop_
 _atom_site_type_symbol
 _atom_site_label
 _atom_site_symmetry_multiplicity
 _atom_site_fract_x
 _atom_site_fract_y
 _atom_site_fract_z
 _atom_site_occupancy
  Pu  Pu0  1  0.471076  0.001150  0.253463  1
  Pu  Pu1  1  0.998850  0.528924  0.246537  1
  Pu  Pu2  1  0.493365  0.493365  0.000000  1
  Pu  Pu3  1  0.506635  0.506635  0.500000  1
  Pu  Pu4  1  0.528924  0.998850  0.753463  1
  Pu  Pu5  1  0.001150  0.471076  0.746537  1
  Ta  Ta6  1  0.999578  0.999578  0.500000  1
  Ta  Ta7  1  0.000422  0.000422  0.000000  1
  O  O8  1  0.946336  0.053664  0.750000  1
  O  O9  1  0.637528  0.362472  0.750000  1
  O  O10  1  0.316773  0.065165  0.531210  1
  O  O11  1  0.934835  0.683227  0.968790  1
  O  O12  1  0.629560  0.370440  0.250000  1
  O  O13  1  0.922920  0.675536  0.524127  1
  O  O14  1  0.324464  0.077080  0.975873  1
  O  O15  1  0.077080  0.324464  0.024127  1
  O  O16  1  0.675536  0.922920  0.475873  1
  O  O17  1  0.370440  0.629560  0.750000  1
  O  O18  1  0.683227  0.934835  0.031210  1
  O  O19  1  0.065165  0.316773  0.468790  1
  O  O20  1  0.362472  0.637528  0.250000  1
  O  O21  1  0.053664  0.946336  0.250000  1
