# generated using pymatgen
data_Dy4Hf3PbF28
_symmetry_space_group_name_H-M   'P 1'
_cell_length_a   5.70053633
_cell_length_b   9.04980548
_cell_length_c   12.18133900
_cell_angle_alpha   62.40053580
_cell_angle_beta   89.94816727
_cell_angle_gamma   90.02148224
_symmetry_Int_Tables_number   1
_chemical_formula_structural   Dy4Hf3PbF28
_chemical_formula_sum   'Dy4 Hf3 Pb1 F28'
_cell_volume   556.91031646
_cell_formula_units_Z   1
loop_
 _symmetry_equiv_pos_site_id
 _symmetry_equiv_pos_as_xyz
  1  'x, y, z'
loop_
 _atom_site_type_symbol
 _atom_site_label
 _atom_site_symmetry_multiplicity
 _atom_site_fract_x
 _atom_site_fract_y
 _atom_site_fract_z
 _atom_site_occupancy
  Dy  Dy0  1  0.757477  0.812049  0.767355  1
  Dy  Dy1  1  0.256830  0.183264  0.736648  1
  Dy  Dy2  1  0.242406  0.184091  0.233876  1
  Dy  Dy3  1  0.743482  0.816314  0.265964  1
  Hf  Hf4  1  0.755667  0.273779  0.956172  1
  Hf  Hf5  1  0.256920  0.725163  0.544915  1
  Hf  Hf6  1  0.244434  0.725377  0.045328  1
  Pb  Pb7  1  0.743496  0.270488  0.458459  1
  F  F8  1  0.461966  0.711165  0.921007  1
  F  F9  1  0.953816  0.296923  0.588850  1
  F  F10  1  0.534452  0.289258  0.077759  1
  F  F11  1  0.039947  0.712026  0.420486  1
  F  F12  1  0.428547  0.279839  0.545715  1
  F  F13  1  0.953693  0.722606  0.951113  1
  F  F14  1  0.547680  0.721569  0.451280  1
  F  F15  1  0.045467  0.277962  0.049723  1
  F  F16  1  0.771942  0.523000  0.860757  1
  F  F17  1  0.272764  0.476090  0.641242  1
  F  F18  1  0.227507  0.477017  0.138748  1
  F  F19  1  0.727188  0.529286  0.354822  1
  F  F20  1  0.759039  0.025488  0.057965  1
  F  F21  1  0.261168  0.973930  0.443222  1
  F  F22  1  0.242471  0.974436  0.942423  1
  F  F23  1  0.739670  0.011011  0.555908  1
  F  F24  1  0.985853  0.730188  0.648586  1
  F  F25  1  0.487077  0.266616  0.852331  1
  F  F26  1  0.036075  0.272484  0.353524  1
  F  F27  1  0.515649  0.735122  0.146031  1
  F  F28  1  0.036557  0.748944  0.170653  1
  F  F29  1  0.543555  0.256325  0.318208  1
  F  F30  1  0.967087  0.252971  0.830931  1
  F  F31  1  0.464249  0.743175  0.673197  1
  F  F32  1  0.423794  0.971452  0.233668  1
  F  F33  1  0.922652  0.028857  0.267842  1
  F  F34  1  0.576212  0.028773  0.762888  1
  F  F35  1  0.073215  0.972964  0.732406  1
