# generated using pymatgen
data_Pa10GaSn7
_symmetry_space_group_name_H-M   'P 1'
_cell_length_a   9.27722900
_cell_length_b   9.27723012
_cell_length_c   6.22959900
_cell_angle_alpha   90.00000000
_cell_angle_beta   90.00000000
_cell_angle_gamma   119.99999956
_symmetry_Int_Tables_number   1
_chemical_formula_structural   Pa10GaSn7
_chemical_formula_sum   'Pa10 Ga1 Sn7'
_cell_volume   464.33062868
_cell_formula_units_Z   1
loop_
 _symmetry_equiv_pos_site_id
 _symmetry_equiv_pos_as_xyz
  1  'x, y, z'
loop_
 _atom_site_type_symbol
 _atom_site_label
 _atom_site_symmetry_multiplicity
 _atom_site_fract_x
 _atom_site_fract_y
 _atom_site_fract_z
 _atom_site_occupancy
  Pa  Pa0  1  0.666667  0.333333  0.000000  1
  Pa  Pa1  1  0.333333  0.666667  0.000000  1
  Pa  Pa2  1  0.333333  0.666667  0.500000  1
  Pa  Pa3  1  0.666667  0.333333  0.500000  1
  Pa  Pa4  1  0.717674  0.717674  0.737722  1
  Pa  Pa5  1  0.282326  0.000000  0.737722  1
  Pa  Pa6  1  0.000000  0.282326  0.737722  1
  Pa  Pa7  1  0.282326  0.282326  0.262278  1
  Pa  Pa8  1  0.717674  0.000000  0.262278  1
  Pa  Pa9  1  0.000000  0.717674  0.262278  1
  Ga  Ga10  1  0.000000  0.000000  0.500000  1
  Sn  Sn11  1  0.000000  0.000000  0.000000  1
  Sn  Sn12  1  0.375936  0.375936  0.756800  1
  Sn  Sn13  1  0.624064  0.000000  0.756800  1
  Sn  Sn14  1  0.000000  0.624064  0.756800  1
  Sn  Sn15  1  0.624064  0.624064  0.243200  1
  Sn  Sn16  1  0.375936  0.000000  0.243200  1
  Sn  Sn17  1  0.000000  0.375936  0.243200  1
