# generated using pymatgen
data_Tm10Al3Bi2Sb
_symmetry_space_group_name_H-M   'P 1'
_cell_length_a   8.77777045
_cell_length_b   8.80759803
_cell_length_c   6.41726400
_cell_angle_alpha   90.00000000
_cell_angle_beta   90.00000000
_cell_angle_gamma   119.68403776
_symmetry_Int_Tables_number   1
_chemical_formula_structural   Tm10Al3Bi2Sb
_chemical_formula_sum   'Tm10 Al3 Bi2 Sb1'
_cell_volume   431.01876988
_cell_formula_units_Z   1
loop_
 _symmetry_equiv_pos_site_id
 _symmetry_equiv_pos_as_xyz
  1  'x, y, z'
loop_
 _atom_site_type_symbol
 _atom_site_label
 _atom_site_symmetry_multiplicity
 _atom_site_fract_x
 _atom_site_fract_y
 _atom_site_fract_z
 _atom_site_occupancy
  Tm  Tm0  1  0.329975  0.682466  0.002621  1
  Tm  Tm1  1  0.669434  0.322385  0.497395  1
  Tm  Tm2  1  0.669434  0.322385  0.002605  1
  Tm  Tm3  1  0.329975  0.682466  0.497379  1
  Tm  Tm4  1  0.232025  0.985173  0.250000  1
  Tm  Tm5  1  0.761054  0.005981  0.750000  1
  Tm  Tm6  1  0.982925  0.231718  0.250000  1
  Tm  Tm7  1  0.767747  0.769003  0.250000  1
  Tm  Tm8  1  0.239000  0.227585  0.750000  1
  Tm  Tm9  1  0.017188  0.771976  0.750000  1
  Al  Al10  1  0.599699  0.998784  0.250000  1
  Al  Al11  1  0.404420  0.004242  0.750000  1
  Al  Al12  1  0.994346  0.600143  0.250000  1
  Bi  Bi13  1  0.387995  0.392048  0.250000  1
  Bi  Bi14  1  0.608835  0.606952  0.750000  1
  Sb  Sb15  1  0.005949  0.396690  0.750000  1
