# generated using pymatgen
data_Ba3LuPd2O9
_symmetry_space_group_name_H-M   'P 1'
_cell_length_a   5.92041800
_cell_length_b   5.92041730
_cell_length_c   14.82577500
_cell_angle_alpha   90.00000000
_cell_angle_beta   90.00000000
_cell_angle_gamma   120.00001510
_symmetry_Int_Tables_number   1
_chemical_formula_structural   Ba3LuPd2O9
_chemical_formula_sum   'Ba6 Lu2 Pd4 O18'
_cell_volume   450.04159956
_cell_formula_units_Z   2
loop_
 _symmetry_equiv_pos_site_id
 _symmetry_equiv_pos_as_xyz
  1  'x, y, z'
loop_
 _atom_site_type_symbol
 _atom_site_label
 _atom_site_symmetry_multiplicity
 _atom_site_fract_x
 _atom_site_fract_y
 _atom_site_fract_z
 _atom_site_occupancy
  Ba  Ba0  1  0.333333  0.666667  0.588134  1
  Ba  Ba1  1  0.666667  0.333333  0.088134  1
  Ba  Ba2  1  0.666667  0.333333  0.411866  1
  Ba  Ba3  1  0.333333  0.666667  0.911866  1
  Ba  Ba4  1  0.000000  0.000000  0.750000  1
  Ba  Ba5  1  0.000000  0.000000  0.250000  1
  Lu  Lu6  1  0.000000  0.000000  0.000000  1
  Lu  Lu7  1  0.000000  0.000000  0.500000  1
  Pd  Pd8  1  0.666667  0.333333  0.658530  1
  Pd  Pd9  1  0.333333  0.666667  0.158530  1
  Pd  Pd10  1  0.666667  0.333333  0.841470  1
  Pd  Pd11  1  0.333333  0.666667  0.341470  1
  O  O12  1  0.172026  0.827974  0.083431  1
  O  O13  1  0.172026  0.344054  0.083431  1
  O  O14  1  0.655946  0.827974  0.083431  1
  O  O15  1  0.344054  0.172026  0.583431  1
  O  O16  1  0.827974  0.655946  0.916569  1
  O  O17  1  0.827974  0.172026  0.583431  1
  O  O18  1  0.827974  0.655946  0.583431  1
  O  O19  1  0.172026  0.827974  0.416569  1
  O  O20  1  0.655946  0.827974  0.416569  1
  O  O21  1  0.344054  0.172026  0.916569  1
  O  O22  1  0.827974  0.172026  0.916569  1
  O  O23  1  0.172026  0.344054  0.416569  1
  O  O24  1  0.483429  0.966857  0.250000  1
  O  O25  1  0.516571  0.483429  0.750000  1
  O  O26  1  0.966857  0.483429  0.750000  1
  O  O27  1  0.033143  0.516571  0.250000  1
  O  O28  1  0.483429  0.516571  0.250000  1
  O  O29  1  0.516571  0.033143  0.750000  1
