# generated using pymatgen
data_Y4Tm5Lu11Bi12
_symmetry_space_group_name_H-M   'P 1'
_cell_length_a   8.16350026
_cell_length_b   9.39253624
_cell_length_c   11.87153300
_cell_angle_alpha   89.98732391
_cell_angle_beta   89.98562605
_cell_angle_gamma   89.99705045
_symmetry_Int_Tables_number   1
_chemical_formula_structural   Y4Tm5Lu11Bi12
_chemical_formula_sum   'Y4 Tm5 Lu11 Bi12'
_cell_volume   910.26128010
_cell_formula_units_Z   1
loop_
 _symmetry_equiv_pos_site_id
 _symmetry_equiv_pos_as_xyz
  1  'x, y, z'
loop_
 _atom_site_type_symbol
 _atom_site_label
 _atom_site_symmetry_multiplicity
 _atom_site_fract_x
 _atom_site_fract_y
 _atom_site_fract_z
 _atom_site_occupancy
  Y  Y0  1  0.315301  0.250167  0.217449  1
  Y  Y1  1  0.815022  0.250115  0.282506  1
  Y  Y2  1  0.684873  0.750341  0.782276  1
  Y  Y3  1  0.184960  0.750276  0.717437  1
  Tm  Tm4  1  0.352436  0.750325  0.218429  1
  Tm  Tm5  1  0.853169  0.750343  0.281790  1
  Tm  Tm6  1  0.647477  0.250327  0.781621  1
  Tm  Tm7  1  0.147239  0.250169  0.718358  1
  Tm  Tm8  1  0.690949  0.566028  0.060131  1
  Lu  Lu9  1  0.191081  0.932653  0.440011  1
  Lu  Lu10  1  0.308626  0.067158  0.939799  1
  Lu  Lu11  1  0.809011  0.432570  0.560014  1
  Lu  Lu12  1  0.309158  0.432443  0.939963  1
  Lu  Lu13  1  0.808666  0.067373  0.560054  1
  Lu  Lu14  1  0.691135  0.932281  0.060202  1
  Lu  Lu15  1  0.191051  0.567456  0.440022  1
  Lu  Lu16  1  0.477975  0.250173  0.489752  1
  Lu  Lu17  1  0.978232  0.250052  0.010246  1
  Lu  Lu18  1  0.521962  0.749996  0.510316  1
  Lu  Lu19  1  0.022378  0.750039  0.989625  1
  Bi  Bi20  1  0.401596  0.750094  0.959038  1
  Bi  Bi21  1  0.901537  0.749963  0.540982  1
  Bi  Bi22  1  0.598097  0.248313  0.040617  1
  Bi  Bi23  1  0.098384  0.250002  0.459107  1
  Bi  Bi24  1  0.566203  0.995081  0.327125  1
  Bi  Bi25  1  0.066289  0.505070  0.173117  1
  Bi  Bi26  1  0.433613  0.495108  0.672956  1
  Bi  Bi27  1  0.933924  0.005139  0.826930  1
  Bi  Bi28  1  0.433815  0.005288  0.673036  1
  Bi  Bi29  1  0.933599  0.495215  0.826930  1
  Bi  Bi30  1  0.566043  0.505194  0.327049  1
  Bi  Bi31  1  0.066200  0.995247  0.173112  1
