# generated using pymatgen
data_Zr6Co15Si7Rh
_symmetry_space_group_name_H-M   'P 1'
_cell_length_a   8.10233988
_cell_length_b   8.10234018
_cell_length_c   8.11599099
_cell_angle_alpha   60.05562312
_cell_angle_beta   60.05562177
_cell_angle_gamma   60.00000240
_symmetry_Int_Tables_number   1
_chemical_formula_structural   Zr6Co15Si7Rh
_chemical_formula_sum   'Zr6 Co15 Si7 Rh1'
_cell_volume   377.06143089
_cell_formula_units_Z   1
loop_
 _symmetry_equiv_pos_site_id
 _symmetry_equiv_pos_as_xyz
  1  'x, y, z'
loop_
 _atom_site_type_symbol
 _atom_site_label
 _atom_site_symmetry_multiplicity
 _atom_site_fract_x
 _atom_site_fract_y
 _atom_site_fract_z
 _atom_site_occupancy
  Zr  Zr0  1  0.707279  0.294266  0.291175  1
  Zr  Zr1  1  0.295381  0.295381  0.706529  1
  Zr  Zr2  1  0.295381  0.702708  0.706529  1
  Zr  Zr3  1  0.707279  0.707279  0.291175  1
  Zr  Zr4  1  0.294266  0.707279  0.291175  1
  Zr  Zr5  1  0.702708  0.295381  0.706529  1
  Co  Co6  1  0.672262  0.982084  0.673391  1
  Co  Co7  1  0.360391  0.878009  0.883590  1
  Co  Co8  1  0.014293  0.330404  0.324902  1
  Co  Co9  1  0.982084  0.672262  0.673391  1
  Co  Co10  1  0.327724  0.327724  0.016829  1
  Co  Co11  1  0.673101  0.673101  0.980695  1
  Co  Co12  1  0.639348  0.120344  0.119964  1
  Co  Co13  1  0.672262  0.672262  0.673391  1
  Co  Co14  1  0.879128  0.879128  0.362616  1
  Co  Co15  1  0.120344  0.120344  0.119964  1
  Co  Co16  1  0.878009  0.360391  0.883590  1
  Co  Co17  1  0.878009  0.878009  0.883590  1
  Co  Co18  1  0.330404  0.330404  0.324902  1
  Co  Co19  1  0.120344  0.639348  0.119964  1
  Co  Co20  1  0.330404  0.014293  0.324902  1
  Si  Si21  1  0.000323  0.500339  0.998998  1
  Si  Si22  1  0.999344  0.999344  0.495128  1
  Si  Si23  1  0.995821  0.995821  0.012539  1
  Si  Si24  1  0.500339  0.500339  0.998998  1
  Si  Si25  1  0.506183  0.999344  0.495128  1
  Si  Si26  1  0.500339  0.000323  0.998998  1
  Si  Si27  1  0.999344  0.506183  0.495128  1
  Rh  Rh28  1  0.117903  0.117903  0.646292  1
