# generated using pymatgen
data_La15Pr(YIr3)4
_symmetry_space_group_name_H-M   'P 1'
_cell_length_a   11.38895874
_cell_length_b   11.38281377
_cell_length_c   6.54959776
_cell_angle_alpha   90.01047213
_cell_angle_beta   90.08337931
_cell_angle_gamma   90.06301914
_symmetry_Int_Tables_number   1
_chemical_formula_structural   La15Pr(YIr3)4
_chemical_formula_sum   'La15 Pr1 Y4 Ir12'
_cell_volume   849.07792334
_cell_formula_units_Z   1
loop_
 _symmetry_equiv_pos_site_id
 _symmetry_equiv_pos_as_xyz
  1  'x, y, z'
loop_
 _atom_site_type_symbol
 _atom_site_label
 _atom_site_symmetry_multiplicity
 _atom_site_fract_x
 _atom_site_fract_y
 _atom_site_fract_z
 _atom_site_occupancy
  La  La0  1  0.288133  0.912401  0.887568  1
  La  La1  1  0.712065  0.088362  0.887361  1
  La  La2  1  0.711913  0.911660  0.387488  1
  La  La3  1  0.588424  0.788002  0.887483  1
  La  La4  1  0.587461  0.211539  0.387586  1
  La  La5  1  0.411528  0.788817  0.387782  1
  La  La6  1  0.411133  0.211575  0.887460  1
  La  La7  1  0.212073  0.411175  0.612109  1
  La  La8  1  0.211898  0.588426  0.112633  1
  La  La9  1  0.788065  0.411435  0.112580  1
  La  La10  1  0.788066  0.588502  0.612699  1
  La  La11  1  0.911662  0.711945  0.112437  1
  La  La12  1  0.911942  0.288012  0.612912  1
  La  La13  1  0.088414  0.711956  0.612282  1
  La  La14  1  0.088682  0.287677  0.112999  1
  Pr  Pr15  1  0.287942  0.088072  0.385910  1
  Y  Y16  1  0.000741  0.000407  0.499790  1
  Y  Y17  1  0.000107  0.999920  0.000361  1
  Y  Y18  1  0.499950  0.500020  0.999774  1
  Y  Y19  1  0.499758  0.500044  0.499760  1
  Ir  Ir20  1  0.850308  0.149871  0.250211  1
  Ir  Ir21  1  0.850418  0.850128  0.749786  1
  Ir  Ir22  1  0.148744  0.150239  0.752032  1
  Ir  Ir23  1  0.149858  0.850344  0.250169  1
  Ir  Ir24  1  0.649668  0.350096  0.749931  1
  Ir  Ir25  1  0.649960  0.649562  0.250144  1
  Ir  Ir26  1  0.350192  0.350252  0.249657  1
  Ir  Ir27  1  0.350139  0.649772  0.749895  1
  Ir  Ir28  1  0.500712  0.999661  0.118461  1
  Ir  Ir29  1  0.500041  0.000055  0.619762  1
  Ir  Ir30  1  0.999921  0.500192  0.880501  1
  Ir  Ir31  1  0.000081  0.499881  0.380474  1
