# generated using pymatgen
data_Zr10Sn5Hg2Bi
_symmetry_space_group_name_H-M   'P 1'
_cell_length_a   8.84688100
_cell_length_b   8.83947927
_cell_length_c   6.01195500
_cell_angle_alpha   90.00000000
_cell_angle_beta   90.00000000
_cell_angle_gamma   120.02769942
_symmetry_Int_Tables_number   1
_chemical_formula_structural   Zr10Sn5Hg2Bi
_chemical_formula_sum   'Zr10 Sn5 Hg2 Bi1'
_cell_volume   407.04453940
_cell_formula_units_Z   1
loop_
 _symmetry_equiv_pos_site_id
 _symmetry_equiv_pos_as_xyz
  1  'x, y, z'
loop_
 _atom_site_type_symbol
 _atom_site_label
 _atom_site_symmetry_multiplicity
 _atom_site_fract_x
 _atom_site_fract_y
 _atom_site_fract_z
 _atom_site_occupancy
  Zr  Zr0  1  0.330471  0.663250  0.998290  1
  Zr  Zr1  1  0.667220  0.336750  0.501710  1
  Zr  Zr2  1  0.667220  0.336750  0.998290  1
  Zr  Zr3  1  0.330471  0.663250  0.501710  1
  Zr  Zr4  1  0.278616  0.000000  0.250000  1
  Zr  Zr5  1  0.281858  0.282713  0.750000  1
  Zr  Zr6  1  0.999145  0.717287  0.750000  1
  Zr  Zr7  1  0.006054  0.285054  0.250000  1
  Zr  Zr8  1  0.721000  0.714946  0.250000  1
  Zr  Zr9  1  0.718390  0.000000  0.750000  1
  Sn  Sn10  1  0.619543  0.620707  0.750000  1
  Sn  Sn11  1  0.998837  0.379293  0.750000  1
  Sn  Sn12  1  0.001054  0.619511  0.250000  1
  Sn  Sn13  1  0.381543  0.380489  0.250000  1
  Sn  Sn14  1  0.379301  0.000000  0.750000  1
  Hg  Hg15  1  0.000158  0.000000  0.998869  1
  Hg  Hg16  1  0.000158  0.000000  0.501131  1
  Bi  Bi17  1  0.618962  0.000000  0.250000  1
