# generated using pymatgen
data_Ca7NdBi6
_symmetry_space_group_name_H-M   'P 1'
_cell_length_a   8.43174372
_cell_length_b   8.32988011
_cell_length_c   8.43174380
_cell_angle_alpha   109.22667389
_cell_angle_beta   109.71464704
_cell_angle_gamma   109.22667832
_symmetry_Int_Tables_number   1
_chemical_formula_structural   Ca7NdBi6
_chemical_formula_sum   'Ca7 Nd1 Bi6'
_cell_volume   457.24978553
_cell_formula_units_Z   1
loop_
 _symmetry_equiv_pos_site_id
 _symmetry_equiv_pos_as_xyz
  1  'x, y, z'
loop_
 _atom_site_type_symbol
 _atom_site_label
 _atom_site_symmetry_multiplicity
 _atom_site_fract_x
 _atom_site_fract_y
 _atom_site_fract_z
 _atom_site_occupancy
  Ca  Ca0  1  0.145663  0.501840  0.001910  1
  Ca  Ca1  1  0.645996  0.500048  0.999948  1
  Ca  Ca2  1  0.500052  0.000100  0.646048  1
  Ca  Ca3  1  0.356247  0.356177  0.354337  1
  Ca  Ca4  1  0.498090  0.999930  0.143753  1
  Ca  Ca5  1  0.000000  0.645563  0.500000  1
  Ca  Ca6  1  0.853952  0.854052  0.854004  1
  Nd  Nd7  1  0.000000  0.142020  0.500000  1
  Bi  Bi8  1  0.372480  0.621939  0.748013  1
  Bi  Bi9  1  0.875532  0.249459  0.127520  1
  Bi  Bi10  1  0.625123  0.751469  0.374338  1
  Bi  Bi11  1  0.125662  0.877131  0.250785  1
  Bi  Bi12  1  0.249215  0.126346  0.874877  1
  Bi  Bi13  1  0.751987  0.373926  0.624468  1
