# generated using pymatgen
data_Yb2Ga9PdRh2
_symmetry_space_group_name_H-M   'P 1'
_cell_length_a   7.57039660
_cell_length_b   7.57039636
_cell_length_c   9.61529065
_cell_angle_alpha   89.90788104
_cell_angle_beta   89.90787509
_cell_angle_gamma   119.50727462
_symmetry_Int_Tables_number   1
_chemical_formula_structural   Yb2Ga9PdRh2
_chemical_formula_sum   'Yb4 Ga18 Pd2 Rh4'
_cell_volume   479.58217004
_cell_formula_units_Z   2
loop_
 _symmetry_equiv_pos_site_id
 _symmetry_equiv_pos_as_xyz
  1  'x, y, z'
loop_
 _atom_site_type_symbol
 _atom_site_label
 _atom_site_symmetry_multiplicity
 _atom_site_fract_x
 _atom_site_fract_y
 _atom_site_fract_z
 _atom_site_occupancy
  Yb  Yb0  1  0.999210  0.669108  0.250892  1
  Yb  Yb1  1  0.000790  0.330892  0.749108  1
  Yb  Yb2  1  0.669108  0.999210  0.250892  1
  Yb  Yb3  1  0.330892  0.000790  0.749108  1
  Ga  Ga4  1  0.124353  0.124353  0.250088  1
  Ga  Ga5  1  0.875647  0.875647  0.749912  1
  Ga  Ga6  1  0.002100  0.332062  0.079951  1
  Ga  Ga7  1  0.997900  0.667938  0.920049  1
  Ga  Ga8  1  0.000094  0.665254  0.577821  1
  Ga  Ga9  1  0.334746  0.999906  0.422179  1
  Ga  Ga10  1  0.999906  0.334746  0.422179  1
  Ga  Ga11  1  0.665254  0.000094  0.577821  1
  Ga  Ga12  1  0.667938  0.997900  0.920049  1
  Ga  Ga13  1  0.332062  0.002100  0.079951  1
  Ga  Ga14  1  0.331716  0.331716  0.559939  1
  Ga  Ga15  1  0.668284  0.668284  0.440061  1
  Ga  Ga16  1  0.670220  0.670220  0.066043  1
  Ga  Ga17  1  0.329780  0.329780  0.933957  1
  Ga  Ga18  1  0.338597  0.546627  0.252085  1
  Ga  Ga19  1  0.661403  0.453373  0.747915  1
  Ga  Ga20  1  0.546627  0.338597  0.252085  1
  Ga  Ga21  1  0.453373  0.661403  0.747915  1
  Pd  Pd22  1  0.671006  0.328994  0.000000  1
  Pd  Pd23  1  0.328994  0.671006  0.000000  1
  Rh  Rh24  1  0.329016  0.670984  0.500000  1
  Rh  Rh25  1  0.670984  0.329016  0.500000  1
  Rh  Rh26  1  0.000000  0.000000  0.000000  1
  Rh  Rh27  1  0.000000  0.000000  0.500000  1
