# generated using pymatgen
data_Rb4HfPaTe6
_symmetry_space_group_name_H-M   'P 1'
_cell_length_a   14.82579400
_cell_length_b   7.17805184
_cell_length_c   9.95608270
_cell_angle_alpha   71.88879360
_cell_angle_beta   90.00000000
_cell_angle_gamma   90.00000000
_symmetry_Int_Tables_number   1
_chemical_formula_structural   Rb4HfPaTe6
_chemical_formula_sum   'Rb8 Hf2 Pa2 Te12'
_cell_volume   1007.03504307
_cell_formula_units_Z   2
loop_
 _symmetry_equiv_pos_site_id
 _symmetry_equiv_pos_as_xyz
  1  'x, y, z'
loop_
 _atom_site_type_symbol
 _atom_site_label
 _atom_site_symmetry_multiplicity
 _atom_site_fract_x
 _atom_site_fract_y
 _atom_site_fract_z
 _atom_site_occupancy
  Rb  Rb0  1  0.956409  0.673927  0.653016  1
  Rb  Rb1  1  0.456409  0.826073  0.346984  1
  Rb  Rb2  1  0.044128  0.325999  0.347240  1
  Rb  Rb3  1  0.544128  0.174001  0.652760  1
  Rb  Rb4  1  0.867061  0.083126  0.904695  1
  Rb  Rb5  1  0.367061  0.416874  0.095305  1
  Rb  Rb6  1  0.132703  0.923191  0.096779  1
  Rb  Rb7  1  0.632703  0.576809  0.903221  1
  Hf  Hf8  1  0.250060  0.342693  0.704818  1
  Hf  Hf9  1  0.750060  0.157307  0.295182  1
  Pa  Pa10  1  0.749995  0.656089  0.297194  1
  Pa  Pa11  1  0.249995  0.843911  0.702806  1
  Te  Te12  1  0.911862  0.924873  0.279908  1
  Te  Te13  1  0.411862  0.575127  0.720092  1
  Te  Te14  1  0.087999  0.098756  0.721246  1
  Te  Te15  1  0.587999  0.401244  0.278754  1
  Te  Te16  1  0.816782  0.295624  0.524898  1
  Te  Te17  1  0.316782  0.204376  0.475102  1
  Te  Te18  1  0.183104  0.680152  0.475120  1
  Te  Te19  1  0.683104  0.819848  0.524880  1
  Te  Te20  1  0.844699  0.487234  0.086386  1
  Te  Te21  1  0.344699  0.012766  0.913614  1
  Te  Te22  1  0.155198  0.491734  0.912891  1
  Te  Te23  1  0.655198  0.008266  0.087109  1
