# generated using pymatgen
data_Er5Tc4(P4Ir5)3
_symmetry_space_group_name_H-M   'P 1'
_cell_length_a   12.68775095
_cell_length_b   12.58425039
_cell_length_c   3.97213700
_cell_angle_alpha   90.00000000
_cell_angle_beta   90.00000000
_cell_angle_gamma   119.82802825
_symmetry_Int_Tables_number   1
_chemical_formula_structural   Er5Tc4(P4Ir5)3
_chemical_formula_sum   'Er5 Tc4 P12 Ir15'
_cell_volume   550.19524294
_cell_formula_units_Z   1
loop_
 _symmetry_equiv_pos_site_id
 _symmetry_equiv_pos_as_xyz
  1  'x, y, z'
loop_
 _atom_site_type_symbol
 _atom_site_label
 _atom_site_symmetry_multiplicity
 _atom_site_fract_x
 _atom_site_fract_y
 _atom_site_fract_z
 _atom_site_occupancy
  Er  Er0  1  0.332018  0.663926  0.000000  1
  Er  Er1  1  0.666794  0.333357  0.000000  1
  Er  Er2  1  0.818737  0.002031  0.500000  1
  Er  Er3  1  0.000838  0.817625  0.500000  1
  Er  Er4  1  0.185348  0.187067  0.500000  1
  Tc  Tc5  1  0.454352  0.998809  0.000000  1
  Tc  Tc6  1  0.994522  0.452339  0.000000  1
  Tc  Tc7  1  0.549135  0.543861  0.000000  1
  Tc  Tc8  1  0.177580  0.378427  0.000000  1
  P  P9  1  0.177790  0.002194  0.000000  1
  P  P10  1  0.004718  0.182836  0.000000  1
  P  P11  1  0.823626  0.825229  0.000000  1
  P  P12  1  0.171466  0.479612  0.500000  1
  P  P13  1  0.516525  0.684213  0.500000  1
  P  P14  1  0.313311  0.827912  0.500000  1
  P  P15  1  0.684455  0.515910  0.500000  1
  P  P16  1  0.829475  0.314831  0.500000  1
  P  P17  1  0.483976  0.167913  0.500000  1
  P  P18  1  0.637915  0.999135  0.000000  1
  P  P19  1  0.000761  0.638824  0.000000  1
  P  P20  1  0.357753  0.363864  0.000000  1
  Ir  Ir21  1  0.363483  0.490352  0.500000  1
  Ir  Ir22  1  0.507956  0.865876  0.500000  1
  Ir  Ir23  1  0.131323  0.638989  0.500000  1
  Ir  Ir24  1  0.866051  0.510148  0.500000  1
  Ir  Ir25  1  0.640661  0.131101  0.500000  1
  Ir  Ir26  1  0.493081  0.356373  0.500000  1
  Ir  Ir27  1  0.627131  0.806350  0.000000  1
  Ir  Ir28  1  0.193815  0.820433  0.000000  1
  Ir  Ir29  1  0.809557  0.630500  0.000000  1
  Ir  Ir30  1  0.816446  0.191233  0.000000  1
  Ir  Ir31  1  0.373048  0.180106  0.000000  1
  Ir  Ir32  1  0.289430  0.999795  0.500000  1
  Ir  Ir33  1  0.994289  0.285865  0.500000  1
  Ir  Ir34  1  0.712039  0.712153  0.500000  1
  Ir  Ir35  1  0.000594  0.000817  0.000000  1
