# generated using pymatgen
data_Zr4Al2ReMo5
_symmetry_space_group_name_H-M   'P 1'
_cell_length_a   5.26546949
_cell_length_b   5.26546890
_cell_length_c   8.96941300
_cell_angle_alpha   90.00000000
_cell_angle_beta   90.00000000
_cell_angle_gamma   119.82013460
_symmetry_Int_Tables_number   1
_chemical_formula_structural   Zr4Al2ReMo5
_chemical_formula_sum   'Zr4 Al2 Re1 Mo5'
_cell_volume   215.75113522
_cell_formula_units_Z   1
loop_
 _symmetry_equiv_pos_site_id
 _symmetry_equiv_pos_as_xyz
  1  'x, y, z'
loop_
 _atom_site_type_symbol
 _atom_site_label
 _atom_site_symmetry_multiplicity
 _atom_site_fract_x
 _atom_site_fract_y
 _atom_site_fract_z
 _atom_site_occupancy
  Zr  Zr0  1  0.333016  0.666984  0.439173  1
  Zr  Zr1  1  0.666666  0.333334  0.933605  1
  Zr  Zr2  1  0.666666  0.333334  0.566395  1
  Zr  Zr3  1  0.333016  0.666984  0.060827  1
  Al  Al4  1  0.001157  0.998843  0.999022  1
  Al  Al5  1  0.001157  0.998843  0.500978  1
  Re  Re6  1  0.167928  0.832072  0.750000  1
  Mo  Mo7  1  0.168679  0.338254  0.750000  1
  Mo  Mo8  1  0.831058  0.168942  0.250000  1
  Mo  Mo9  1  0.338007  0.169096  0.250000  1
  Mo  Mo10  1  0.661746  0.831321  0.750000  1
  Mo  Mo11  1  0.830904  0.661993  0.250000  1
