# generated using pymatgen
data_Ho4Zn8Cd3In
_symmetry_space_group_name_H-M   'P 1'
_cell_length_a   4.44990500
_cell_length_b   7.16575586
_cell_length_c   10.09390789
_cell_angle_alpha   89.86082284
_cell_angle_beta   90.00000000
_cell_angle_gamma   90.00000000
_symmetry_Int_Tables_number   1
_chemical_formula_structural   Ho4Zn8Cd3In
_chemical_formula_sum   'Ho4 Zn8 Cd3 In1'
_cell_volume   321.86281354
_cell_formula_units_Z   1
loop_
 _symmetry_equiv_pos_site_id
 _symmetry_equiv_pos_as_xyz
  1  'x, y, z'
loop_
 _atom_site_type_symbol
 _atom_site_label
 _atom_site_symmetry_multiplicity
 _atom_site_fract_x
 _atom_site_fract_y
 _atom_site_fract_z
 _atom_site_occupancy
  Ho  Ho0  1  0.250000  0.303551  0.673258  1
  Ho  Ho1  1  0.750000  0.696098  0.325177  1
  Ho  Ho2  1  0.250000  0.803431  0.827726  1
  Ho  Ho3  1  0.750000  0.196523  0.171494  1
  Zn  Zn4  1  0.750000  0.312654  0.461942  1
  Zn  Zn5  1  0.250000  0.687711  0.537285  1
  Zn  Zn6  1  0.750000  0.810477  0.037697  1
  Zn  Zn7  1  0.250000  0.189539  0.962725  1
  Zn  Zn8  1  0.750000  0.582421  0.645088  1
  Zn  Zn9  1  0.250000  0.416101  0.355344  1
  Zn  Zn10  1  0.750000  0.085700  0.857622  1
  Zn  Zn11  1  0.250000  0.913953  0.145254  1
  Cd  Cd12  1  0.250000  0.532465  0.098770  1
  Cd  Cd13  1  0.750000  0.466997  0.901097  1
  Cd  Cd14  1  0.250000  0.034770  0.399864  1
  In  In15  1  0.750000  0.967608  0.599658  1
