# generated using pymatgen
data_YbScCo5Si14Rh
_symmetry_space_group_name_H-M   'P 1'
_cell_length_a   7.67915471
_cell_length_b   7.64707648
_cell_length_c   7.64146740
_cell_angle_alpha   57.40454126
_cell_angle_beta   57.16150940
_cell_angle_gamma   57.19319788
_symmetry_Int_Tables_number   1
_chemical_formula_structural   YbScCo5Si14Rh
_chemical_formula_sum   'Yb1 Sc1 Co5 Si14 Rh1'
_cell_volume   297.22533622
_cell_formula_units_Z   1
loop_
 _symmetry_equiv_pos_site_id
 _symmetry_equiv_pos_as_xyz
  1  'x, y, z'
loop_
 _atom_site_type_symbol
 _atom_site_label
 _atom_site_symmetry_multiplicity
 _atom_site_fract_x
 _atom_site_fract_y
 _atom_site_fract_z
 _atom_site_occupancy
  Yb  Yb0  1  0.999744  0.999549  0.002284  1
  Sc  Sc1  1  0.498539  0.500329  0.500869  1
  Co  Co2  1  0.073327  0.431587  0.747568  1
  Co  Co3  1  0.253181  0.925244  0.569695  1
  Co  Co4  1  0.567932  0.253785  0.925612  1
  Co  Co5  1  0.927222  0.568893  0.252618  1
  Co  Co6  1  0.432067  0.745951  0.073731  1
  Si  Si7  1  0.750453  0.739895  0.759748  1
  Si  Si8  1  0.249744  0.250742  0.248821  1
  Si  Si9  1  0.855665  0.072733  0.673013  1
  Si  Si10  1  0.667260  0.848423  0.073407  1
  Si  Si11  1  0.076486  0.666272  0.848463  1
  Si  Si12  1  0.643587  0.826192  0.428752  1
  Si  Si13  1  0.425811  0.649437  0.832866  1
  Si  Si14  1  0.832217  0.428475  0.649624  1
  Si  Si15  1  0.164955  0.574145  0.351563  1
  Si  Si16  1  0.566147  0.359242  0.159921  1
  Si  Si17  1  0.339020  0.170093  0.574364  1
  Si  Si18  1  0.931544  0.341325  0.141915  1
  Si  Si19  1  0.336370  0.150220  0.923067  1
  Si  Si20  1  0.161936  0.923408  0.330822  1
  Rh  Rh21  1  0.746795  0.074062  0.431275  1
