# generated using pymatgen
data_DyHoZr2(Al8Pt3)3
_symmetry_space_group_name_H-M   'P 1'
_cell_length_a   7.50638309
_cell_length_b   7.51244821
_cell_length_c   13.04821401
_cell_angle_alpha   84.52305660
_cell_angle_beta   78.96217245
_cell_angle_gamma   59.93717826
_symmetry_Int_Tables_number   1
_chemical_formula_structural   DyHoZr2(Al8Pt3)3
_chemical_formula_sum   'Dy1 Ho1 Zr2 Al24 Pt9'
_cell_volume   625.04218080
_cell_formula_units_Z   1
loop_
 _symmetry_equiv_pos_site_id
 _symmetry_equiv_pos_as_xyz
  1  'x, y, z'
loop_
 _atom_site_type_symbol
 _atom_site_label
 _atom_site_symmetry_multiplicity
 _atom_site_fract_x
 _atom_site_fract_y
 _atom_site_fract_z
 _atom_site_occupancy
  Dy  Dy0  1  0.266388  0.501332  0.192036  1
  Ho  Ho1  1  0.733688  0.498708  0.807813  1
  Zr  Zr2  1  0.393939  0.167442  0.809769  1
  Zr  Zr3  1  0.606085  0.832524  0.190209  1
  Al  Al4  1  0.681330  0.836017  0.943752  1
  Al  Al5  1  0.318732  0.163824  0.056166  1
  Al  Al6  1  0.146043  0.833061  0.562931  1
  Al  Al7  1  0.853940  0.166951  0.437090  1
  Al  Al8  1  0.479885  0.166895  0.561064  1
  Al  Al9  1  0.520116  0.833100  0.438955  1
  Al  Al10  1  0.220227  0.163381  0.327643  1
  Al  Al11  1  0.779751  0.836499  0.672436  1
  Al  Al12  1  0.436847  0.504382  0.672432  1
  Al  Al13  1  0.563262  0.495619  0.327641  1
  Al  Al14  1  0.111046  0.160385  0.671236  1
  Al  Al15  1  0.888778  0.839741  0.328848  1
  Al  Al16  1  0.353352  0.496769  0.942276  1
  Al  Al17  1  0.646819  0.503252  0.057575  1
  Al  Al18  1  0.018343  0.167769  0.951235  1
  Al  Al19  1  0.981543  0.832335  0.048676  1
  Al  Al20  1  0.186555  0.499610  0.440480  1
  Al  Al21  1  0.813415  0.500387  0.559586  1
  Al  Al22  1  0.734031  0.158523  0.183777  1
  Al  Al23  1  0.266133  0.841338  0.816224  1
  Al  Al24  1  0.066072  0.626558  0.815059  1
  Al  Al25  1  0.933772  0.373419  0.184946  1
  Al  Al26  1  0.850568  0.040879  0.815690  1
  Al  Al27  1  0.149402  0.959309  0.184311  1
  Pt  Pt28  1  0.120090  0.491114  0.639052  1
  Pt  Pt29  1  0.879764  0.508858  0.361022  1
  Pt  Pt30  1  0.657032  0.172833  0.999619  1
  Pt  Pt31  1  0.343023  0.827183  0.000313  1
  Pt  Pt32  1  0.537155  0.166672  0.361633  1
  Pt  Pt33  1  0.462943  0.833220  0.638458  1
  Pt  Pt34  1  0.778579  0.176035  0.637604  1
  Pt  Pt35  1  0.221361  0.824115  0.362484  1
  Pt  Pt36  1  0.999993  0.499959  0.999962  1
