# generated using pymatgen
data_Tb4Th2Fe5Co13P12
_symmetry_space_group_name_H-M   'P 1'
_cell_length_a   3.74456400
_cell_length_b   10.63997502
_cell_length_c   12.18032902
_cell_angle_alpha   90.00614885
_cell_angle_beta   90.00000000
_cell_angle_gamma   90.00000000
_symmetry_Int_Tables_number   1
_chemical_formula_structural   Tb4Th2Fe5Co13P12
_chemical_formula_sum   'Tb4 Th2 Fe5 Co13 P12'
_cell_volume   485.28948692
_cell_formula_units_Z   1
loop_
 _symmetry_equiv_pos_site_id
 _symmetry_equiv_pos_as_xyz
  1  'x, y, z'
loop_
 _atom_site_type_symbol
 _atom_site_label
 _atom_site_symmetry_multiplicity
 _atom_site_fract_x
 _atom_site_fract_y
 _atom_site_fract_z
 _atom_site_occupancy
  Tb  Tb0  1  0.500000  0.817933  0.203091  1
  Tb  Tb1  1  0.500000  0.182535  0.202604  1
  Tb  Tb2  1  0.000000  0.681663  0.797327  1
  Tb  Tb3  1  0.000000  0.317477  0.797648  1
  Th  Th4  1  0.000000  0.500047  0.524551  1
  Th  Th5  1  0.500000  0.000104  0.475412  1
  Fe  Fe6  1  0.500000  0.501591  0.152281  1
  Fe  Fe7  1  0.000000  0.999190  0.847365  1
  Fe  Fe8  1  0.000000  0.501980  0.988714  1
  Fe  Fe9  1  0.500000  0.999194  0.011367  1
  Fe  Fe10  1  0.500000  0.332596  0.996377  1
  Co  Co11  1  0.500000  0.500314  0.701921  1
  Co  Co12  1  0.000000  0.999996  0.298073  1
  Co  Co13  1  0.500000  0.668898  0.995110  1
  Co  Co14  1  0.000000  0.165326  0.004782  1
  Co  Co15  1  0.000000  0.832015  0.004960  1
  Co  Co16  1  0.500000  0.298351  0.429923  1
  Co  Co17  1  0.500000  0.701824  0.429910  1
  Co  Co18  1  0.000000  0.201779  0.569798  1
  Co  Co19  1  0.000000  0.798262  0.570023  1
  Co  Co20  1  0.500000  0.879946  0.712075  1
  Co  Co21  1  0.500000  0.119751  0.712647  1
  Co  Co22  1  0.000000  0.620007  0.287808  1
  Co  Co23  1  0.000000  0.380000  0.286636  1
  P  P24  1  0.500000  0.498819  0.886351  1
  P  P25  1  0.000000  0.999423  0.114621  1
  P  P26  1  0.500000  0.499648  0.336015  1
  P  P27  1  0.000000  0.000101  0.663750  1
  P  P28  1  0.500000  0.305026  0.618858  1
  P  P29  1  0.500000  0.694846  0.618422  1
  P  P30  1  0.000000  0.195231  0.381424  1
  P  P31  1  0.000000  0.805197  0.381748  1
  P  P32  1  0.500000  0.846982  0.894858  1
  P  P33  1  0.500000  0.154501  0.896524  1
  P  P34  1  0.000000  0.653609  0.105044  1
  P  P35  1  0.000000  0.345839  0.101983  1
