# generated using pymatgen
data_DyLuReB6
_symmetry_space_group_name_H-M   'P 1'
_cell_length_a   3.64688800
_cell_length_b   9.11038600
_cell_length_c   11.49740100
_cell_angle_alpha   90.00000000
_cell_angle_beta   90.00000000
_cell_angle_gamma   90.00000000
_symmetry_Int_Tables_number   1
_chemical_formula_structural   DyLuReB6
_chemical_formula_sum   'Dy4 Lu4 Re4 B24'
_cell_volume   381.99605923
_cell_formula_units_Z   4
loop_
 _symmetry_equiv_pos_site_id
 _symmetry_equiv_pos_as_xyz
  1  'x, y, z'
loop_
 _atom_site_type_symbol
 _atom_site_label
 _atom_site_symmetry_multiplicity
 _atom_site_fract_x
 _atom_site_fract_y
 _atom_site_fract_z
 _atom_site_occupancy
  Dy  Dy0  1  0.000000  0.323295  0.413833  1
  Dy  Dy1  1  0.000000  0.676705  0.586167  1
  Dy  Dy2  1  0.000000  0.823295  0.086167  1
  Dy  Dy3  1  0.000000  0.176705  0.913833  1
  Lu  Lu4  1  0.000000  0.944038  0.370498  1
  Lu  Lu5  1  0.000000  0.055962  0.629502  1
  Lu  Lu6  1  0.000000  0.444038  0.129502  1
  Lu  Lu7  1  0.000000  0.555962  0.870498  1
  Re  Re8  1  0.000000  0.639772  0.320072  1
  Re  Re9  1  0.000000  0.360228  0.679928  1
  Re  Re10  1  0.000000  0.139772  0.179928  1
  Re  Re11  1  0.000000  0.860228  0.820072  1
  B  B12  1  0.500000  0.553995  0.432687  1
  B  B13  1  0.500000  0.446005  0.567313  1
  B  B14  1  0.500000  0.053995  0.067313  1
  B  B15  1  0.500000  0.946005  0.932687  1
  B  B16  1  0.500000  0.751137  0.418661  1
  B  B17  1  0.500000  0.248863  0.581339  1
  B  B18  1  0.500000  0.251137  0.081339  1
  B  B19  1  0.500000  0.748863  0.918661  1
  B  B20  1  0.500000  0.793486  0.265803  1
  B  B21  1  0.500000  0.206514  0.734197  1
  B  B22  1  0.500000  0.293486  0.234197  1
  B  B23  1  0.500000  0.706514  0.765803  1
  B  B24  1  0.500000  0.630611  0.185130  1
  B  B25  1  0.500000  0.369389  0.814870  1
  B  B26  1  0.500000  0.130611  0.314870  1
  B  B27  1  0.500000  0.869389  0.685130  1
  B  B28  1  0.500000  0.982255  0.212734  1
  B  B29  1  0.500000  0.017745  0.787266  1
  B  B30  1  0.500000  0.482255  0.287266  1
  B  B31  1  0.500000  0.517745  0.712734  1
  B  B32  1  0.500000  0.598261  0.027381  1
  B  B33  1  0.500000  0.401739  0.972619  1
  B  B34  1  0.500000  0.098261  0.472619  1
  B  B35  1  0.500000  0.901739  0.527381  1
