# generated using pymatgen
data_Sm11YIn8(GaO4)12
_symmetry_space_group_name_H-M   'P 1'
_cell_length_a   11.13062442
_cell_length_b   11.13063710
_cell_length_c   11.12605744
_cell_angle_alpha   109.44692038
_cell_angle_beta   109.44684198
_cell_angle_gamma   109.53672073
_symmetry_Int_Tables_number   1
_chemical_formula_structural   Sm11YIn8(GaO4)12
_chemical_formula_sum   'Sm11 Y1 In8 Ga12 O48'
_cell_volume   1060.88546973
_cell_formula_units_Z   1
loop_
 _symmetry_equiv_pos_site_id
 _symmetry_equiv_pos_as_xyz
  1  'x, y, z'
loop_
 _atom_site_type_symbol
 _atom_site_label
 _atom_site_symmetry_multiplicity
 _atom_site_fract_x
 _atom_site_fract_y
 _atom_site_fract_z
 _atom_site_occupancy
  Sm  Sm0  1  0.250079  0.375169  0.125154  1
  Sm  Sm1  1  0.750093  0.624852  0.875603  1
  Sm  Sm2  1  0.750014  0.124924  0.374846  1
  Sm  Sm3  1  0.124831  0.249921  0.374846  1
  Sm  Sm4  1  0.375076  0.749985  0.125154  1
  Sm  Sm5  1  0.249247  0.874488  0.624396  1
  Sm  Sm6  1  0.875148  0.749907  0.624395  1
  Sm  Sm7  1  0.625511  0.250752  0.875604  1
  Sm  Sm8  1  0.375002  0.125001  0.250000  1
  Sm  Sm9  1  0.625000  0.875000  0.750000  1
  Sm  Sm10  1  0.125000  0.375000  0.750000  1
  Y  Y11  1  0.875001  0.625002  0.250001  1
  In  In12  1  0.999784  0.999919  0.999945  1
  In  In13  1  0.499971  0.999839  0.500057  1
  In  In14  1  0.999847  0.499898  0.499579  1
  In  In15  1  0.500160  0.000031  0.999945  1
  In  In16  1  0.500319  0.500267  0.000420  1
  In  In17  1  0.500084  0.500216  0.500055  1
  In  In18  1  0.999734  0.999682  0.499579  1
  In  In19  1  0.000103  0.500154  0.000421  1
  Ga  Ga20  1  0.248977  0.624704  0.374528  1
  Ga  Ga21  1  0.750012  0.374980  0.624925  1
  Ga  Ga22  1  0.750177  0.874449  0.125472  1
  Ga  Ga23  1  0.374914  0.249944  0.624925  1
  Ga  Ga24  1  0.625549  0.749821  0.374527  1
  Ga  Ga25  1  0.250054  0.125086  0.875074  1
  Ga  Ga26  1  0.125019  0.749987  0.875075  1
  Ga  Ga27  1  0.875295  0.251023  0.125473  1
  Ga  Ga28  1  0.625810  0.375811  0.249999  1
  Ga  Ga29  1  0.374997  0.624996  0.749999  1
  Ga  Ga30  1  0.875003  0.125003  0.750001  1
  Ga  Ga31  1  0.124195  0.874195  0.250000  1
  O  O32  1  0.470378  0.372537  0.284089  1
  O  O33  1  0.530103  0.627649  0.715977  1
  O  O34  1  0.588448  0.186289  0.215912  1
  O  O35  1  0.911811  0.127592  0.597571  1
  O  O36  1  0.283963  0.470059  0.372327  1
  O  O37  1  0.313713  0.911552  0.284089  1
  O  O38  1  0.411673  0.814126  0.784023  1
  O  O39  1  0.084456  0.868581  0.400304  1
  O  O40  1  0.716145  0.530056  0.627376  1
  O  O41  1  0.685874  0.088327  0.715978  1
  O  O42  1  0.030022  0.314240  0.902430  1
  O  O43  1  0.216048  0.588168  0.185692  1
  O  O44  1  0.127463  0.029624  0.215911  1
  O  O45  1  0.968278  0.684151  0.099698  1
  O  O46  1  0.784162  0.411782  0.814127  1
  O  O47  1  0.872350  0.969897  0.784023  1
  O  O48  1  0.597732  0.911636  0.127672  1
  O  O49  1  0.185759  0.469977  0.597570  1
  O  O50  1  0.402680  0.088769  0.872623  1
  O  O51  1  0.815850  0.531722  0.400302  1
  O  O52  1  0.902476  0.030357  0.314308  1
  O  O53  1  0.372407  0.588189  0.902429  1
  O  O54  1  0.097654  0.970035  0.685873  1
  O  O55  1  0.631419  0.415546  0.099695  1
  O  O56  1  0.372274  0.284107  0.469820  1
  O  O57  1  0.588363  0.902268  0.372328  1
  O  O58  1  0.628047  0.716121  0.529983  1
  O  O59  1  0.411231  0.097319  0.627377  1
  O  O60  1  0.127592  0.597647  0.911952  1
  O  O61  1  0.029940  0.216037  0.127673  1
  O  O62  1  0.872546  0.404083  0.089970  1
  O  O63  1  0.969943  0.783855  0.872625  1
  O  O64  1  0.314288  0.902455  0.030181  1
  O  O65  1  0.911832  0.283952  0.314309  1
  O  O66  1  0.686137  0.098064  0.970017  1
  O  O67  1  0.088218  0.715837  0.685873  1
  O  O68  1  0.185697  0.215641  0.588049  1
  O  O69  1  0.469642  0.597522  0.185690  1
  O  O70  1  0.814113  0.782577  0.410030  1
  O  O71  1  0.529964  0.402345  0.814127  1
  O  O72  1  0.284359  0.314304  0.911952  1
  O  O73  1  0.717424  0.685887  0.089970  1
  O  O74  1  0.215893  0.127725  0.030180  1
  O  O75  1  0.783879  0.871952  0.970016  1
  O  O76  1  0.902353  0.372408  0.588048  1
  O  O77  1  0.095918  0.627454  0.410029  1
  O  O78  1  0.597544  0.185711  0.469820  1
  O  O79  1  0.401936  0.813863  0.529984  1
