# generated using pymatgen
data_YbErLu2(B6Os)2
_symmetry_space_group_name_H-M   'P 1'
_cell_length_a   3.60464100
_cell_length_b   9.07315377
_cell_length_c   11.46180501
_cell_angle_alpha   89.86704547
_cell_angle_beta   90.00000000
_cell_angle_gamma   90.00000000
_symmetry_Int_Tables_number   1
_chemical_formula_structural   YbErLu2(B6Os)2
_chemical_formula_sum   'Yb2 Er2 Lu4 B24 Os4'
_cell_volume   374.86261983
_cell_formula_units_Z   2
loop_
 _symmetry_equiv_pos_site_id
 _symmetry_equiv_pos_as_xyz
  1  'x, y, z'
loop_
 _atom_site_type_symbol
 _atom_site_label
 _atom_site_symmetry_multiplicity
 _atom_site_fract_x
 _atom_site_fract_y
 _atom_site_fract_z
 _atom_site_occupancy
  Yb  Yb0  1  0.000000  0.323740  0.414474  1
  Yb  Yb1  1  0.000000  0.676260  0.585526  1
  Er  Er2  1  0.000000  0.821305  0.086304  1
  Er  Er3  1  0.000000  0.178695  0.913696  1
  Lu  Lu4  1  0.000000  0.942416  0.370587  1
  Lu  Lu5  1  0.000000  0.057584  0.629413  1
  Lu  Lu6  1  0.000000  0.443058  0.129595  1
  Lu  Lu7  1  0.000000  0.556942  0.870405  1
  B  B8  1  0.500000  0.554092  0.432252  1
  B  B9  1  0.500000  0.445908  0.567748  1
  B  B10  1  0.500000  0.053624  0.066373  1
  B  B11  1  0.500000  0.946376  0.933627  1
  B  B12  1  0.500000  0.749303  0.417800  1
  B  B13  1  0.500000  0.250697  0.582200  1
  B  B14  1  0.500000  0.249411  0.080823  1
  B  B15  1  0.500000  0.750589  0.919177  1
  B  B16  1  0.500000  0.792007  0.264212  1
  B  B17  1  0.500000  0.207993  0.735787  1
  B  B18  1  0.500000  0.290864  0.234153  1
  B  B19  1  0.500000  0.709136  0.765848  1
  B  B20  1  0.500000  0.630716  0.184258  1
  B  B21  1  0.500000  0.369284  0.815742  1
  B  B22  1  0.500000  0.130109  0.314320  1
  B  B23  1  0.500000  0.869891  0.685680  1
  B  B24  1  0.500000  0.982072  0.211871  1
  B  B25  1  0.500000  0.017928  0.788129  1
  B  B26  1  0.500000  0.482816  0.287200  1
  B  B27  1  0.500000  0.517184  0.712800  1
  B  B28  1  0.500000  0.601867  0.027966  1
  B  B29  1  0.500000  0.398133  0.972034  1
  B  B30  1  0.500000  0.098421  0.472853  1
  B  B31  1  0.500000  0.901579  0.527147  1
  Os  Os32  1  0.000000  0.640259  0.318203  1
  Os  Os33  1  0.000000  0.359741  0.681797  1
  Os  Os34  1  0.000000  0.137070  0.178220  1
  Os  Os35  1  0.000000  0.862930  0.821780  1
