# generated using pymatgen
data_HfZr5Ni20P13
_symmetry_space_group_name_H-M   'P 1'
_cell_length_a   12.50931917
_cell_length_b   12.51808783
_cell_length_c   3.64443800
_cell_angle_alpha   90.00000000
_cell_angle_beta   90.00000000
_cell_angle_gamma   119.95779580
_symmetry_Int_Tables_number   1
_chemical_formula_structural   HfZr5Ni20P13
_chemical_formula_sum   'Hf1 Zr5 Ni20 P13'
_cell_volume   494.44433401
_cell_formula_units_Z   1
loop_
 _symmetry_equiv_pos_site_id
 _symmetry_equiv_pos_as_xyz
  1  'x, y, z'
loop_
 _atom_site_type_symbol
 _atom_site_label
 _atom_site_symmetry_multiplicity
 _atom_site_fract_x
 _atom_site_fract_y
 _atom_site_fract_z
 _atom_site_occupancy
  Hf  Hf0  1  0.808045  0.282716  0.500000  1
  Zr  Zr1  1  0.717525  0.525778  0.500000  1
  Zr  Zr2  1  0.474274  0.191657  0.500000  1
  Zr  Zr3  1  0.191140  0.717864  0.000000  1
  Zr  Zr4  1  0.281510  0.473073  0.000000  1
  Zr  Zr5  1  0.526865  0.808863  0.000000  1
  Ni  Ni6  1  0.418300  0.979686  0.000000  1
  Ni  Ni7  1  0.019240  0.437673  0.000000  1
  Ni  Ni8  1  0.585855  0.021699  0.500000  1
  Ni  Ni9  1  0.561639  0.581825  0.000000  1
  Ni  Ni10  1  0.978627  0.563333  0.500000  1
  Ni  Ni11  1  0.921024  0.081149  0.500000  1
  Ni  Ni12  1  0.160371  0.078995  0.500000  1
  Ni  Ni13  1  0.918546  0.839651  0.500000  1
  Ni  Ni14  1  0.094005  0.895358  0.000000  1
  Ni  Ni15  1  0.801273  0.906249  0.000000  1
  Ni  Ni16  1  0.104198  0.198852  0.000000  1
  Ni  Ni17  1  0.333491  0.666838  0.500000  1
  Ni  Ni18  1  0.667709  0.332881  0.000000  1
  Ni  Ni19  1  0.676696  0.748243  0.500000  1
  Ni  Ni20  1  0.251493  0.928248  0.500000  1
  Ni  Ni21  1  0.920901  0.675512  0.000000  1
  Ni  Ni22  1  0.324220  0.244988  0.000000  1
  Ni  Ni23  1  0.755576  0.080881  0.000000  1
  Ni  Ni24  1  0.436056  0.414875  0.500000  1
  Ni  Ni25  1  0.070929  0.323262  0.500000  1
  P  P26  1  0.000057  0.000153  0.000000  1
  P  P27  1  0.232465  0.285309  0.500000  1
  P  P28  1  0.714713  0.947022  0.500000  1
  P  P29  1  0.052560  0.767164  0.500000  1
  P  P30  1  0.766378  0.713209  0.000000  1
  P  P31  1  0.286903  0.053091  0.000000  1
  P  P32  1  0.472966  0.613240  0.500000  1
  P  P33  1  0.386824  0.859702  0.500000  1
  P  P34  1  0.860113  0.473079  0.000000  1
  P  P35  1  0.526695  0.386338  0.000000  1
  P  P36  1  0.613938  0.140101  0.000000  1
  P  P37  1  0.946188  0.234255  0.000000  1
  P  P38  1  0.140692  0.527184  0.500000  1
