# generated using pymatgen
data_Tm3ThCdIr
_symmetry_space_group_name_H-M   'P 1'
_cell_length_a   9.66327060
_cell_length_b   9.66327095
_cell_length_c   9.66327100
_cell_angle_alpha   60.00000326
_cell_angle_beta   60.00000206
_cell_angle_gamma   60.00000257
_symmetry_Int_Tables_number   1
_chemical_formula_structural   Tm3ThCdIr
_chemical_formula_sum   'Tm12 Th4 Cd4 Ir4'
_cell_volume   638.05407362
_cell_formula_units_Z   4
loop_
 _symmetry_equiv_pos_site_id
 _symmetry_equiv_pos_as_xyz
  1  'x, y, z'
loop_
 _atom_site_type_symbol
 _atom_site_label
 _atom_site_symmetry_multiplicity
 _atom_site_fract_x
 _atom_site_fract_y
 _atom_site_fract_z
 _atom_site_occupancy
  Tm  Tm0  1  0.062198  0.437802  0.437802  1
  Tm  Tm1  1  0.437802  0.062198  0.062198  1
  Tm  Tm2  1  0.437802  0.062198  0.437802  1
  Tm  Tm3  1  0.062198  0.437802  0.062198  1
  Tm  Tm4  1  0.437802  0.437802  0.062198  1
  Tm  Tm5  1  0.062198  0.062198  0.437802  1
  Tm  Tm6  1  0.184901  0.815099  0.815099  1
  Tm  Tm7  1  0.815099  0.184901  0.184901  1
  Tm  Tm8  1  0.815099  0.184901  0.815099  1
  Tm  Tm9  1  0.184901  0.815099  0.184901  1
  Tm  Tm10  1  0.815099  0.815099  0.184901  1
  Tm  Tm11  1  0.184901  0.184901  0.815099  1
  Th  Th12  1  0.600669  0.600669  0.600669  1
  Th  Th13  1  0.600669  0.600669  0.197993  1
  Th  Th14  1  0.600669  0.197993  0.600669  1
  Th  Th15  1  0.197993  0.600669  0.600669  1
  Cd  Cd16  1  0.833274  0.833274  0.833274  1
  Cd  Cd17  1  0.833274  0.833274  0.500178  1
  Cd  Cd18  1  0.833274  0.500178  0.833274  1
  Cd  Cd19  1  0.500178  0.833274  0.833274  1
  Ir  Ir20  1  0.392525  0.392525  0.392525  1
  Ir  Ir21  1  0.392525  0.392525  0.822425  1
  Ir  Ir22  1  0.392525  0.822425  0.392525  1
  Ir  Ir23  1  0.822425  0.392525  0.392525  1
