# generated using pymatgen
data_KTa(CuS2)2
_symmetry_space_group_name_H-M   'P 1'
_cell_length_a   9.68095114
_cell_length_b   9.68095113
_cell_length_c   7.53566000
_cell_angle_alpha   90.00000000
_cell_angle_beta   90.00000000
_cell_angle_gamma   146.68796624
_symmetry_Int_Tables_number   1
_chemical_formula_structural   KTa(CuS2)2
_chemical_formula_sum   'K2 Ta2 Cu4 S8'
_cell_volume   387.87034331
_cell_formula_units_Z   2
loop_
 _symmetry_equiv_pos_site_id
 _symmetry_equiv_pos_as_xyz
  1  'x, y, z'
loop_
 _atom_site_type_symbol
 _atom_site_label
 _atom_site_symmetry_multiplicity
 _atom_site_fract_x
 _atom_site_fract_y
 _atom_site_fract_z
 _atom_site_occupancy
  K  K0  1  0.168703  0.805615  0.750000  1
  K  K1  1  0.805615  0.168703  0.250000  1
  Ta  Ta2  1  0.639810  0.861158  0.750000  1
  Ta  Ta3  1  0.861158  0.639810  0.250000  1
  Cu  Cu4  1  0.732283  0.732283  0.500000  1
  Cu  Cu5  1  0.732283  0.732283  0.000000  1
  Cu  Cu6  1  0.356484  0.144814  0.250000  1
  Cu  Cu7  1  0.144814  0.356484  0.750000  1
  S  S8  1  0.612173  0.399881  0.002146  1
  S  S9  1  0.399881  0.612174  0.502146  1
  S  S10  1  0.979986  0.992990  0.750000  1
  S  S11  1  0.399881  0.612174  0.997854  1
  S  S12  1  0.211046  0.794078  0.250000  1
  S  S13  1  0.794078  0.211046  0.750000  1
  S  S14  1  0.992990  0.979986  0.250000  1
  S  S15  1  0.612173  0.399881  0.497854  1
