# generated using pymatgen
data_Sc12Cd(PtI8)2
_symmetry_space_group_name_H-M   'P 1'
_cell_length_a   9.40473290
_cell_length_b   12.04377329
_cell_length_c   12.67562520
_cell_angle_alpha   117.16985563
_cell_angle_beta   101.41632096
_cell_angle_gamma   100.91901111
_symmetry_Int_Tables_number   1
_chemical_formula_structural   Sc12Cd(PtI8)2
_chemical_formula_sum   'Sc12 Cd1 Pt2 I16'
_cell_volume   1185.85245607
_cell_formula_units_Z   1
loop_
 _symmetry_equiv_pos_site_id
 _symmetry_equiv_pos_as_xyz
  1  'x, y, z'
loop_
 _atom_site_type_symbol
 _atom_site_label
 _atom_site_symmetry_multiplicity
 _atom_site_fract_x
 _atom_site_fract_y
 _atom_site_fract_z
 _atom_site_occupancy
  Sc  Sc0  1  0.094530  0.267339  0.356760  1
  Sc  Sc1  1  0.905470  0.732661  0.643240  1
  Sc  Sc2  1  0.771968  0.535614  0.327236  1
  Sc  Sc3  1  0.228032  0.464386  0.672764  1
  Sc  Sc4  1  0.284660  0.733265  0.642669  1
  Sc  Sc5  1  0.715340  0.266735  0.357331  1
  Sc  Sc6  1  0.151169  0.535639  0.327367  1
  Sc  Sc7  1  0.848831  0.464361  0.672633  1
  Sc  Sc8  1  0.407321  0.360915  0.277341  1
  Sc  Sc9  1  0.592679  0.639085  0.722659  1
  Sc  Sc10  1  0.459305  0.311267  0.520943  1
  Sc  Sc11  1  0.540695  0.688733  0.479057  1
  Cd  Cd12  1  0.000000  0.500000  0.500000  1
  Pt  Pt13  1  0.343733  0.500078  0.499252  1
  Pt  Pt14  1  0.656268  0.499922  0.500748  1
  I  I15  1  0.398519  0.740188  0.883030  1
  I  I16  1  0.601481  0.259812  0.116970  1
  I  I17  1  0.185864  0.958213  0.779464  1
  I  I18  1  0.814136  0.041787  0.220536  1
  I  I19  1  0.338744  0.096985  0.252163  1
  I  I20  1  0.661256  0.903015  0.747837  1
  I  I21  1  0.556889  0.438735  0.799155  1
  I  I22  1  0.443111  0.561265  0.200845  1
  I  I23  1  0.309955  0.824866  0.461700  1
  I  I24  1  0.690045  0.175134  0.538300  1
  I  I25  1  0.170035  0.173674  0.534424  1
  I  I26  1  0.829965  0.826326  0.465576  1
  I  I27  1  0.926003  0.572841  0.162807  1
  I  I28  1  0.073997  0.427159  0.837193  1
  I  I29  1  0.920373  0.738365  0.883362  1
  I  I30  1  0.079627  0.261635  0.116638  1
