# generated using pymatgen
data_La3Pr5(HgIr)2
_symmetry_space_group_name_H-M   'P 1'
_cell_length_a   9.99933096
_cell_length_b   10.07931344
_cell_length_c   10.07997253
_cell_angle_alpha   59.47355249
_cell_angle_beta   60.25994745
_cell_angle_gamma   60.26312171
_symmetry_Int_Tables_number   1
_chemical_formula_structural   La3Pr5(HgIr)2
_chemical_formula_sum   'La6 Pr10 Hg4 Ir4'
_cell_volume   718.25833635
_cell_formula_units_Z   2
loop_
 _symmetry_equiv_pos_site_id
 _symmetry_equiv_pos_as_xyz
  1  'x, y, z'
loop_
 _atom_site_type_symbol
 _atom_site_label
 _atom_site_symmetry_multiplicity
 _atom_site_fract_x
 _atom_site_fract_y
 _atom_site_fract_z
 _atom_site_occupancy
  La  La0  1  0.347014  0.349190  0.349176  1
  La  La1  1  0.349190  0.347014  0.954620  1
  La  La2  1  0.349182  0.954578  0.347034  1
  La  La3  1  0.954578  0.349182  0.349205  1
  La  La4  1  0.812042  0.187962  0.187947  1
  La  La5  1  0.187962  0.812042  0.812049  1
  Pr  Pr6  1  0.192105  0.807884  0.192148  1
  Pr  Pr7  1  0.807884  0.192105  0.807863  1
  Pr  Pr8  1  0.192081  0.192081  0.807919  1
  Pr  Pr9  1  0.807905  0.807905  0.192095  1
  Pr  Pr10  1  0.936480  0.563536  0.563552  1
  Pr  Pr11  1  0.563536  0.936480  0.936431  1
  Pr  Pr12  1  0.561252  0.938781  0.561205  1
  Pr  Pr13  1  0.938781  0.561252  0.938762  1
  Pr  Pr14  1  0.561301  0.561301  0.938699  1
  Pr  Pr15  1  0.938674  0.938674  0.561326  1
  Hg  Hg16  1  0.584876  0.582909  0.582894  1
  Hg  Hg17  1  0.582909  0.584876  0.249320  1
  Hg  Hg18  1  0.582882  0.249339  0.584884  1
  Hg  Hg19  1  0.249339  0.582882  0.582893  1
  Ir  Ir20  1  0.136014  0.144523  0.144488  1
  Ir  Ir21  1  0.144523  0.136014  0.574974  1
  Ir  Ir22  1  0.144507  0.574981  0.136010  1
  Ir  Ir23  1  0.574981  0.144507  0.144500  1
