# generated using pymatgen
data_Yb5Pr8Sm7Sn16
_symmetry_space_group_name_H-M   'P 1'
_cell_length_a   8.06402844
_cell_length_b   8.47384305
_cell_length_c   16.01236879
_cell_angle_alpha   89.99530598
_cell_angle_beta   89.87985691
_cell_angle_gamma   90.05686630
_symmetry_Int_Tables_number   1
_chemical_formula_structural   Yb5Pr8Sm7Sn16
_chemical_formula_sum   'Yb5 Pr8 Sm7 Sn16'
_cell_volume   1094.17523346
_cell_formula_units_Z   1
loop_
 _symmetry_equiv_pos_site_id
 _symmetry_equiv_pos_as_xyz
  1  'x, y, z'
loop_
 _atom_site_type_symbol
 _atom_site_label
 _atom_site_symmetry_multiplicity
 _atom_site_fract_x
 _atom_site_fract_y
 _atom_site_fract_z
 _atom_site_occupancy
  Yb  Yb0  1  0.832963  0.669424  0.876202  1
  Yb  Yb1  1  0.163289  0.499164  0.750989  1
  Yb  Yb2  1  0.664837  0.999962  0.750866  1
  Yb  Yb3  1  0.836137  0.502157  0.249888  1
  Yb  Yb4  1  0.336506  0.997881  0.250158  1
  Pr  Pr5  1  0.492956  0.317247  0.903315  1
  Pr  Pr6  1  0.991643  0.183074  0.595957  1
  Pr  Pr7  1  0.508132  0.681281  0.403311  1
  Pr  Pr8  1  0.007020  0.818034  0.096153  1
  Pr  Pr9  1  0.507850  0.682251  0.096335  1
  Pr  Pr10  1  0.008452  0.818453  0.403835  1
  Pr  Pr11  1  0.493160  0.317451  0.595900  1
  Pr  Pr12  1  0.991264  0.182615  0.903466  1
  Sm  Sm13  1  0.335105  0.828047  0.874827  1
  Sm  Sm14  1  0.835611  0.672588  0.624792  1
  Sm  Sm15  1  0.664420  0.171684  0.374863  1
  Sm  Sm16  1  0.165146  0.329342  0.124938  1
  Sm  Sm17  1  0.666115  0.171927  0.124814  1
  Sm  Sm18  1  0.164902  0.328554  0.375058  1
  Sm  Sm19  1  0.335240  0.827478  0.624646  1
  Sn  Sn20  1  0.326029  0.037875  0.037873  1
  Sn  Sn21  1  0.825081  0.462167  0.462530  1
  Sn  Sn22  1  0.674752  0.961705  0.537479  1
  Sn  Sn23  1  0.174553  0.537731  0.962403  1
  Sn  Sn24  1  0.671503  0.963400  0.961380  1
  Sn  Sn25  1  0.174894  0.537635  0.537879  1
  Sn  Sn26  1  0.325307  0.038278  0.462672  1
  Sn  Sn27  1  0.828365  0.463073  0.038672  1
  Sn  Sn28  1  0.532740  0.608717  0.749485  1
  Sn  Sn29  1  0.032568  0.893723  0.750314  1
  Sn  Sn30  1  0.468154  0.391000  0.250055  1
  Sn  Sn31  1  0.968323  0.108245  0.249784  1
  Sn  Sn32  1  0.293128  0.137998  0.749586  1
  Sn  Sn33  1  0.792478  0.359659  0.749346  1
  Sn  Sn34  1  0.705506  0.860376  0.250154  1
  Sn  Sn35  1  0.205870  0.639806  0.250076  1
