# generated using pymatgen
data_Tb2Al8GaIr2Rh
_symmetry_space_group_name_H-M   'P 1'
_cell_length_a   7.54068100
_cell_length_b   7.54068043
_cell_length_c   9.52323700
_cell_angle_alpha   90.00000000
_cell_angle_beta   90.00000000
_cell_angle_gamma   119.30402969
_symmetry_Int_Tables_number   1
_chemical_formula_structural   Tb2Al8GaIr2Rh
_chemical_formula_sum   'Tb4 Al16 Ga2 Ir4 Rh2'
_cell_volume   472.21474029
_cell_formula_units_Z   2
loop_
 _symmetry_equiv_pos_site_id
 _symmetry_equiv_pos_as_xyz
  1  'x, y, z'
loop_
 _atom_site_type_symbol
 _atom_site_label
 _atom_site_symmetry_multiplicity
 _atom_site_fract_x
 _atom_site_fract_y
 _atom_site_fract_z
 _atom_site_occupancy
  Tb  Tb0  1  0.994244  0.673353  0.250000  1
  Tb  Tb1  1  0.005756  0.326647  0.750000  1
  Tb  Tb2  1  0.673353  0.994244  0.250000  1
  Tb  Tb3  1  0.326647  0.005756  0.750000  1
  Al  Al4  1  0.001738  0.335564  0.073506  1
  Al  Al5  1  0.998262  0.664436  0.926494  1
  Al  Al6  1  0.998262  0.664436  0.573506  1
  Al  Al7  1  0.335564  0.001738  0.426494  1
  Al  Al8  1  0.001738  0.335564  0.426494  1
  Al  Al9  1  0.664436  0.998262  0.573506  1
  Al  Al10  1  0.664436  0.998262  0.926494  1
  Al  Al11  1  0.335564  0.001738  0.073506  1
  Al  Al12  1  0.333974  0.333974  0.550931  1
  Al  Al13  1  0.666026  0.666026  0.449069  1
  Al  Al14  1  0.666026  0.666026  0.050931  1
  Al  Al15  1  0.333974  0.333974  0.949069  1
  Al  Al16  1  0.338092  0.548644  0.250000  1
  Al  Al17  1  0.661908  0.451356  0.750000  1
  Al  Al18  1  0.548644  0.338092  0.250000  1
  Al  Al19  1  0.451356  0.661908  0.750000  1
  Ga  Ga20  1  0.131476  0.131476  0.250000  1
  Ga  Ga21  1  0.868524  0.868524  0.750000  1
  Ir  Ir22  1  0.671772  0.328228  0.000000  1
  Ir  Ir23  1  0.328228  0.671772  0.000000  1
  Ir  Ir24  1  0.328228  0.671772  0.500000  1
  Ir  Ir25  1  0.671772  0.328228  0.500000  1
  Rh  Rh26  1  0.000000  0.000000  0.000000  1
  Rh  Rh27  1  0.000000  0.000000  0.500000  1
