# generated using pymatgen
data_ErTh2In3Ru2
_symmetry_space_group_name_H-M   'P 1'
_cell_length_a   8.40363485
_cell_length_b   8.40363317
_cell_length_c   5.14724274
_cell_angle_alpha   80.20744378
_cell_angle_beta   80.20744486
_cell_angle_gamma   33.46885987
_symmetry_Int_Tables_number   1
_chemical_formula_structural   ErTh2In3Ru2
_chemical_formula_sum   'Er1 Th2 In3 Ru2'
_cell_volume   197.27942373
_cell_formula_units_Z   1
loop_
 _symmetry_equiv_pos_site_id
 _symmetry_equiv_pos_as_xyz
  1  'x, y, z'
loop_
 _atom_site_type_symbol
 _atom_site_label
 _atom_site_symmetry_multiplicity
 _atom_site_fract_x
 _atom_site_fract_y
 _atom_site_fract_z
 _atom_site_occupancy
  Er  Er0  1  0.000000  0.000000  0.000000  1
  Th  Th1  1  0.830534  0.830534  0.586738  1
  Th  Th2  1  0.169466  0.169466  0.413262  1
  In  In3  1  0.371299  0.371299  0.049994  1
  In  In4  1  0.500000  0.500000  0.500000  1
  In  In5  1  0.628701  0.628701  0.950006  1
  Ru  Ru6  1  0.791025  0.791025  0.116787  1
  Ru  Ru7  1  0.208975  0.208975  0.883213  1
