# generated using pymatgen
data_HfZr5(Ga2Sn)2
_symmetry_space_group_name_H-M   'P 1'
_cell_length_a   5.77678500
_cell_length_b   8.84381600
_cell_length_c   9.45282000
_cell_angle_alpha   90.00000000
_cell_angle_beta   90.00000000
_cell_angle_gamma   90.00000000
_symmetry_Int_Tables_number   1
_chemical_formula_structural   HfZr5(Ga2Sn)2
_chemical_formula_sum   'Hf2 Zr10 Ga8 Sn4'
_cell_volume   482.93345361
_cell_formula_units_Z   2
loop_
 _symmetry_equiv_pos_site_id
 _symmetry_equiv_pos_as_xyz
  1  'x, y, z'
loop_
 _atom_site_type_symbol
 _atom_site_label
 _atom_site_symmetry_multiplicity
 _atom_site_fract_x
 _atom_site_fract_y
 _atom_site_fract_z
 _atom_site_occupancy
  Hf  Hf0  1  0.000000  0.250000  0.877812  1
  Hf  Hf1  1  0.500000  0.750000  0.122188  1
  Zr  Zr2  1  0.000000  0.750000  0.121790  1
  Zr  Zr3  1  0.500000  0.250000  0.878210  1
  Zr  Zr4  1  0.749957  0.470372  0.609836  1
  Zr  Zr5  1  0.249957  0.529628  0.390164  1
  Zr  Zr6  1  0.750043  0.970372  0.390164  1
  Zr  Zr7  1  0.250043  0.029628  0.609836  1
  Zr  Zr8  1  0.750016  0.372949  0.199162  1
  Zr  Zr9  1  0.250016  0.627051  0.800838  1
  Zr  Zr10  1  0.749984  0.872949  0.800838  1
  Zr  Zr11  1  0.249984  0.127051  0.199162  1
  Ga  Ga12  1  0.000000  0.750000  0.569680  1
  Ga  Ga13  1  0.500000  0.250000  0.430320  1
  Ga  Ga14  1  0.000000  0.250000  0.430467  1
  Ga  Ga15  1  0.500000  0.750000  0.569533  1
  Ga  Ga16  1  0.750453  0.136592  0.646140  1
  Ga  Ga17  1  0.250453  0.863408  0.353860  1
  Ga  Ga18  1  0.749547  0.636592  0.353860  1
  Ga  Ga19  1  0.249547  0.363408  0.646140  1
  Sn  Sn20  1  0.750027  0.051200  0.085068  1
  Sn  Sn21  1  0.250027  0.948800  0.914932  1
  Sn  Sn22  1  0.749973  0.551200  0.914932  1
  Sn  Sn23  1  0.249973  0.448800  0.085068  1
