# generated using pymatgen
data_Sc22Tc2(RuRh)3
_symmetry_space_group_name_H-M   'P 1'
_cell_length_a   9.49830010
_cell_length_b   9.49453246
_cell_length_c   9.43709409
_cell_angle_alpha   60.22626723
_cell_angle_beta   60.18657743
_cell_angle_gamma   60.50456855
_symmetry_Int_Tables_number   1
_chemical_formula_structural   Sc22Tc2(RuRh)3
_chemical_formula_sum   'Sc22 Tc2 Ru3 Rh3'
_cell_volume   605.94021567
_cell_formula_units_Z   1
loop_
 _symmetry_equiv_pos_site_id
 _symmetry_equiv_pos_as_xyz
  1  'x, y, z'
loop_
 _atom_site_type_symbol
 _atom_site_label
 _atom_site_symmetry_multiplicity
 _atom_site_fract_x
 _atom_site_fract_y
 _atom_site_fract_z
 _atom_site_occupancy
  Sc  Sc0  1  0.802866  0.802866  0.197134  1
  Sc  Sc1  1  0.197476  0.802524  0.198260  1
  Sc  Sc2  1  0.804006  0.195994  0.197053  1
  Sc  Sc3  1  0.197134  0.197134  0.802866  1
  Sc  Sc4  1  0.802524  0.197476  0.801740  1
  Sc  Sc5  1  0.195994  0.804006  0.802947  1
  Sc  Sc6  1  0.614504  0.619547  0.150492  1
  Sc  Sc7  1  0.616073  0.152108  0.617831  1
  Sc  Sc8  1  0.152108  0.616073  0.613989  1
  Sc  Sc9  1  0.619547  0.614504  0.615458  1
  Sc  Sc10  1  0.385496  0.380453  0.849508  1
  Sc  Sc11  1  0.383927  0.847892  0.382169  1
  Sc  Sc12  1  0.847892  0.383927  0.386011  1
  Sc  Sc13  1  0.380453  0.385496  0.384542  1
  Sc  Sc14  1  0.844764  0.844722  0.470768  1
  Sc  Sc15  1  0.844680  0.469683  0.842564  1
  Sc  Sc16  1  0.469683  0.844680  0.843073  1
  Sc  Sc17  1  0.844722  0.844764  0.839744  1
  Sc  Sc18  1  0.155236  0.155278  0.529232  1
  Sc  Sc19  1  0.155320  0.530317  0.157436  1
  Sc  Sc20  1  0.530317  0.155320  0.156927  1
  Sc  Sc21  1  0.155278  0.155236  0.160256  1
  Tc  Tc22  1  0.000000  0.500000  0.500000  1
  Tc  Tc23  1  0.500000  0.000000  0.000000  1
  Ru  Ru24  1  0.000000  0.000000  0.000000  1
  Ru  Ru25  1  0.500000  0.500000  0.500000  1
  Ru  Ru26  1  0.000000  0.000000  0.500000  1
  Rh  Rh27  1  0.500000  0.000000  0.500000  1
  Rh  Rh28  1  0.500000  0.500000  0.000000  1
  Rh  Rh29  1  0.000000  0.500000  0.000000  1
