# generated using pymatgen
data_Y3ErGa18(CuRu2)2
_symmetry_space_group_name_H-M   'P 1'
_cell_length_a   7.55954727
_cell_length_b   7.56127840
_cell_length_c   9.56006900
_cell_angle_alpha   90.00000000
_cell_angle_beta   90.00000000
_cell_angle_gamma   119.91997163
_symmetry_Int_Tables_number   1
_chemical_formula_structural   Y3ErGa18(CuRu2)2
_chemical_formula_sum   'Y3 Er1 Ga18 Cu2 Ru4'
_cell_volume   473.62250744
_cell_formula_units_Z   1
loop_
 _symmetry_equiv_pos_site_id
 _symmetry_equiv_pos_as_xyz
  1  'x, y, z'
loop_
 _atom_site_type_symbol
 _atom_site_label
 _atom_site_symmetry_multiplicity
 _atom_site_fract_x
 _atom_site_fract_y
 _atom_site_fract_z
 _atom_site_occupancy
  Y  Y0  1  0.004011  0.330705  0.750000  1
  Y  Y1  1  0.669355  0.995673  0.250000  1
  Y  Y2  1  0.330642  0.003931  0.750000  1
  Er  Er3  1  0.996038  0.668903  0.250000  1
  Ga  Ga4  1  0.125867  0.125311  0.250000  1
  Ga  Ga5  1  0.874004  0.873998  0.750000  1
  Ga  Ga6  1  0.002110  0.337364  0.077651  1
  Ga  Ga7  1  0.997903  0.663336  0.923262  1
  Ga  Ga8  1  0.997903  0.663336  0.576738  1
  Ga  Ga9  1  0.336005  0.001476  0.422434  1
  Ga  Ga10  1  0.002110  0.337364  0.422349  1
  Ga  Ga11  1  0.663248  0.997878  0.577195  1
  Ga  Ga12  1  0.663248  0.997878  0.922805  1
  Ga  Ga13  1  0.336005  0.001476  0.077566  1
  Ga  Ga14  1  0.338911  0.338933  0.563139  1
  Ga  Ga15  1  0.661692  0.661122  0.436278  1
  Ga  Ga16  1  0.661692  0.661122  0.063722  1
  Ga  Ga17  1  0.338911  0.338933  0.936861  1
  Ga  Ga18  1  0.334172  0.548897  0.250000  1
  Ga  Ga19  1  0.665577  0.451406  0.750000  1
  Ga  Ga20  1  0.549502  0.335214  0.250000  1
  Ga  Ga21  1  0.451331  0.665461  0.750000  1
  Cu  Cu22  1  0.999977  0.999971  0.000005  1
  Cu  Cu23  1  0.999977  0.999971  0.499995  1
  Ru  Ru24  1  0.673234  0.327121  0.000379  1
  Ru  Ru25  1  0.326671  0.673050  0.000344  1
  Ru  Ru26  1  0.326671  0.673050  0.499656  1
  Ru  Ru27  1  0.673234  0.327121  0.499621  1
