# generated using pymatgen
data_ZrZn2Cu2Pd
_symmetry_space_group_name_H-M   'P 1'
_cell_length_a   4.98345782
_cell_length_b   4.97185563
_cell_length_c   4.97185643
_cell_angle_alpha   60.37374242
_cell_angle_beta   59.92276711
_cell_angle_gamma   59.92277055
_symmetry_Int_Tables_number   1
_chemical_formula_structural   ZrZn2Cu2Pd
_chemical_formula_sum   'Zr1 Zn2 Cu2 Pd1'
_cell_volume   87.24764523
_cell_formula_units_Z   1
loop_
 _symmetry_equiv_pos_site_id
 _symmetry_equiv_pos_as_xyz
  1  'x, y, z'
loop_
 _atom_site_type_symbol
 _atom_site_label
 _atom_site_symmetry_multiplicity
 _atom_site_fract_x
 _atom_site_fract_y
 _atom_site_fract_z
 _atom_site_occupancy
  Zr  Zr0  1  0.003096  0.996904  0.996904  1
  Zn  Zn1  1  0.622788  0.624465  0.129960  1
  Zn  Zn2  1  0.622788  0.129960  0.624465  1
  Cu  Cu3  1  0.123146  0.625881  0.625881  1
  Cu  Cu4  1  0.625093  0.625881  0.625881  1
  Pd  Pd5  1  0.253090  0.246910  0.246910  1
