# generated using pymatgen
data_Ho2ScSi2
_symmetry_space_group_name_H-M   'P 1'
_cell_length_a   7.20865300
_cell_length_b   7.20865300
_cell_length_c   4.22124200
_cell_angle_alpha   90.00000000
_cell_angle_beta   90.00000000
_cell_angle_gamma   90.00000000
_symmetry_Int_Tables_number   1
_chemical_formula_structural   Ho2ScSi2
_chemical_formula_sum   'Ho4 Sc2 Si4'
_cell_volume   219.35548160
_cell_formula_units_Z   2
loop_
 _symmetry_equiv_pos_site_id
 _symmetry_equiv_pos_as_xyz
  1  'x, y, z'
loop_
 _atom_site_type_symbol
 _atom_site_label
 _atom_site_symmetry_multiplicity
 _atom_site_fract_x
 _atom_site_fract_y
 _atom_site_fract_z
 _atom_site_occupancy
  Ho  Ho0  1  0.175624  0.324376  0.500000  1
  Ho  Ho1  1  0.324376  0.824376  0.500000  1
  Ho  Ho2  1  0.675624  0.175624  0.500000  1
  Ho  Ho3  1  0.824376  0.675624  0.500000  1
  Sc  Sc4  1  0.000000  0.000000  0.000000  1
  Sc  Sc5  1  0.500000  0.500000  0.000000  1
  Si  Si6  1  0.120641  0.620641  0.000000  1
  Si  Si7  1  0.379359  0.120641  0.000000  1
  Si  Si8  1  0.620641  0.879359  0.000000  1
  Si  Si9  1  0.879359  0.379359  0.000000  1
