# generated using pymatgen
data_NdTh3(Pd2Pb)2
_symmetry_space_group_name_H-M   'P 1'
_cell_length_a   3.84946400
_cell_length_b   8.01873270
_cell_length_c   8.01873270
_cell_angle_alpha   90.92756247
_cell_angle_beta   90.00000000
_cell_angle_gamma   90.00000000
_symmetry_Int_Tables_number   1
_chemical_formula_structural   NdTh3(Pd2Pb)2
_chemical_formula_sum   'Nd1 Th3 Pd4 Pb2'
_cell_volume   247.48838533
_cell_formula_units_Z   1
loop_
 _symmetry_equiv_pos_site_id
 _symmetry_equiv_pos_as_xyz
  1  'x, y, z'
loop_
 _atom_site_type_symbol
 _atom_site_label
 _atom_site_symmetry_multiplicity
 _atom_site_fract_x
 _atom_site_fract_y
 _atom_site_fract_z
 _atom_site_occupancy
  Nd  Nd0  1  0.500000  0.675103  0.824897  1
  Th  Th1  1  0.500000  0.174095  0.674643  1
  Th  Th2  1  0.500000  0.825357  0.325905  1
  Th  Th3  1  0.500000  0.327374  0.172626  1
  Pd  Pd4  1  0.000000  0.622158  0.131934  1
  Pd  Pd5  1  0.000000  0.368066  0.877842  1
  Pd  Pd6  1  0.000000  0.881393  0.618607  1
  Pd  Pd7  1  0.000000  0.127965  0.372035  1
  Pb  Pb8  1  0.000000  0.996526  0.998037  1
  Pb  Pb9  1  0.000000  0.501963  0.503474  1
