# generated using pymatgen
data_ErTm2Si2Ag3Sn
_symmetry_space_group_name_H-M   'P 1'
_cell_length_a   7.12386461
_cell_length_b   7.11874610
_cell_length_c   4.27745900
_cell_angle_alpha   90.00000000
_cell_angle_beta   90.00000000
_cell_angle_gamma   119.97623305
_symmetry_Int_Tables_number   1
_chemical_formula_structural   ErTm2Si2Ag3Sn
_chemical_formula_sum   'Er1 Tm2 Si2 Ag3 Sn1'
_cell_volume   187.90555023
_cell_formula_units_Z   1
loop_
 _symmetry_equiv_pos_site_id
 _symmetry_equiv_pos_as_xyz
  1  'x, y, z'
loop_
 _atom_site_type_symbol
 _atom_site_label
 _atom_site_symmetry_multiplicity
 _atom_site_fract_x
 _atom_site_fract_y
 _atom_site_fract_z
 _atom_site_occupancy
  Er  Er0  1  0.000000  0.434455  0.000000  1
  Tm  Tm1  1  0.565411  0.565487  0.000000  1
  Tm  Tm2  1  0.434589  0.000076  0.000000  1
  Si  Si3  1  0.333880  0.666977  0.500000  1
  Si  Si4  1  0.666120  0.333096  0.500000  1
  Ag  Ag5  1  0.264911  0.264817  0.500000  1
  Ag  Ag6  1  0.735089  0.999906  0.500000  1
  Ag  Ag7  1  0.000000  0.735641  0.500000  1
  Sn  Sn8  1  0.000000  0.999547  0.000000  1
