# generated using pymatgen
data_LiEu4(ZnAs2)3
_symmetry_space_group_name_H-M   'P 1'
_cell_length_a   8.21928292
_cell_length_b   8.21928295
_cell_length_c   11.94062256
_cell_angle_alpha   55.06609444
_cell_angle_beta   55.06609408
_cell_angle_gamma   30.21852771
_symmetry_Int_Tables_number   1
_chemical_formula_structural   LiEu4(ZnAs2)3
_chemical_formula_sum   'Li1 Eu4 Zn3 As6'
_cell_volume   326.86806894
_cell_formula_units_Z   1
loop_
 _symmetry_equiv_pos_site_id
 _symmetry_equiv_pos_as_xyz
  1  'x, y, z'
loop_
 _atom_site_type_symbol
 _atom_site_label
 _atom_site_symmetry_multiplicity
 _atom_site_fract_x
 _atom_site_fract_y
 _atom_site_fract_z
 _atom_site_occupancy
  Li  Li0  1  0.040741  0.040741  0.676960  1
  Eu  Eu1  1  0.264111  0.264111  0.338169  1
  Eu  Eu2  1  0.732912  0.732912  0.666275  1
  Eu  Eu3  1  0.398003  0.398003  0.942756  1
  Eu  Eu4  1  0.603989  0.603989  0.053216  1
  Zn  Zn5  1  0.957110  0.957110  0.314471  1
  Zn  Zn6  1  0.415614  0.415614  0.655945  1
  Zn  Zn7  1  0.592576  0.592576  0.346439  1
  As  As8  1  0.076527  0.076527  0.877874  1
  As  As9  1  0.917818  0.917818  0.128416  1
  As  As10  1  0.156730  0.156730  0.192979  1
  As  As11  1  0.839613  0.839613  0.807757  1
  As  As12  1  0.385843  0.385843  0.464163  1
  As  As13  1  0.618415  0.618415  0.534584  1
