# generated using pymatgen
data_Sr3BSbO3
_symmetry_space_group_name_H-M   'P 1'
_cell_length_a   5.39491600
_cell_length_b   5.39491573
_cell_length_c   13.79089400
_cell_angle_alpha   90.00000000
_cell_angle_beta   90.00000000
_cell_angle_gamma   120.00000163
_symmetry_Int_Tables_number   1
_chemical_formula_structural   Sr3BSbO3
_chemical_formula_sum   'Sr6 B2 Sb2 O6'
_cell_volume   347.61010875
_cell_formula_units_Z   2
loop_
 _symmetry_equiv_pos_site_id
 _symmetry_equiv_pos_as_xyz
  1  'x, y, z'
loop_
 _atom_site_type_symbol
 _atom_site_label
 _atom_site_symmetry_multiplicity
 _atom_site_fract_x
 _atom_site_fract_y
 _atom_site_fract_z
 _atom_site_occupancy
  Sr  Sr0  1  0.333333  0.666667  0.389191  1
  Sr  Sr1  1  0.000000  0.000000  0.250000  1
  Sr  Sr2  1  0.000000  0.000000  0.750000  1
  Sr  Sr3  1  0.666667  0.333333  0.889191  1
  Sr  Sr4  1  0.666667  0.333333  0.610809  1
  Sr  Sr5  1  0.333333  0.666667  0.110809  1
  B  B6  1  0.333333  0.666667  0.750000  1
  B  B7  1  0.666667  0.333333  0.250000  1
  Sb  Sb8  1  0.000000  0.000000  0.000000  1
  Sb  Sb9  1  0.000000  0.000000  0.500000  1
  O  O10  1  0.517417  0.482583  0.250000  1
  O  O11  1  0.965167  0.482583  0.250000  1
  O  O12  1  0.482583  0.965167  0.750000  1
  O  O13  1  0.517417  0.034833  0.250000  1
  O  O14  1  0.034833  0.517417  0.750000  1
  O  O15  1  0.482583  0.517417  0.750000  1
