# generated using pymatgen
data_YbHf(PPd)2
_symmetry_space_group_name_H-M   'P 1'
_cell_length_a   3.88408700
_cell_length_b   6.90626041
_cell_length_c   7.60929796
_cell_angle_alpha   90.63543404
_cell_angle_beta   90.00000000
_cell_angle_gamma   90.00000000
_symmetry_Int_Tables_number   1
_chemical_formula_structural   YbHf(PPd)2
_chemical_formula_sum   'Yb2 Hf2 P4 Pd4'
_cell_volume   204.10318421
_cell_formula_units_Z   2
loop_
 _symmetry_equiv_pos_site_id
 _symmetry_equiv_pos_as_xyz
  1  'x, y, z'
loop_
 _atom_site_type_symbol
 _atom_site_label
 _atom_site_symmetry_multiplicity
 _atom_site_fract_x
 _atom_site_fract_y
 _atom_site_fract_z
 _atom_site_occupancy
  Yb  Yb0  1  0.750000  0.966521  0.686150  1
  Yb  Yb1  1  0.250000  0.033479  0.313850  1
  Hf  Hf2  1  0.250000  0.535607  0.186388  1
  Hf  Hf3  1  0.750000  0.464393  0.813612  1
  P  P4  1  0.250000  0.725670  0.881602  1
  P  P5  1  0.750000  0.274330  0.118398  1
  P  P6  1  0.750000  0.739264  0.366512  1
  P  P7  1  0.250000  0.260736  0.633488  1
  Pd  Pd8  1  0.250000  0.639232  0.563759  1
  Pd  Pd9  1  0.750000  0.360768  0.436241  1
  Pd  Pd10  1  0.750000  0.835720  0.052585  1
  Pd  Pd11  1  0.250000  0.164280  0.947415  1
