# generated using pymatgen
data_Ho4Er4AlPd24
_symmetry_space_group_name_H-M   'P 1'
_cell_length_a   8.34429366
_cell_length_b   8.34349567
_cell_length_c   8.34349500
_cell_angle_alpha   90.00271938
_cell_angle_beta   89.97715528
_cell_angle_gamma   89.97715418
_symmetry_Int_Tables_number   1
_chemical_formula_structural   Ho4Er4AlPd24
_chemical_formula_sum   'Ho4 Er4 Al1 Pd24'
_cell_volume   580.87885203
_cell_formula_units_Z   1
loop_
 _symmetry_equiv_pos_site_id
 _symmetry_equiv_pos_as_xyz
  1  'x, y, z'
loop_
 _atom_site_type_symbol
 _atom_site_label
 _atom_site_symmetry_multiplicity
 _atom_site_fract_x
 _atom_site_fract_y
 _atom_site_fract_z
 _atom_site_occupancy
  Ho  Ho0  1  0.251518  0.251566  0.748461  1
  Ho  Ho1  1  0.251518  0.748461  0.251566  1
  Ho  Ho2  1  0.251622  0.748361  0.748361  1
  Ho  Ho3  1  0.748464  0.251549  0.251549  1
  Er  Er4  1  0.251551  0.251619  0.251619  1
  Er  Er5  1  0.748444  0.748501  0.748501  1
  Er  Er6  1  0.748395  0.748361  0.251620  1
  Er  Er7  1  0.748395  0.251620  0.748361  1
  Al  Al8  1  0.000028  0.999995  0.999995  1
  Pd  Pd9  1  0.259401  0.500139  0.000389  1
  Pd  Pd10  1  0.740509  0.499830  0.999641  1
  Pd  Pd11  1  0.999839  0.259490  0.500055  1
  Pd  Pd12  1  0.500535  0.259502  0.999971  1
  Pd  Pd13  1  0.999071  0.740490  0.499948  1
  Pd  Pd14  1  0.500228  0.740479  0.000036  1
  Pd  Pd15  1  0.500535  0.999971  0.259502  1
  Pd  Pd16  1  0.259401  0.000389  0.500139  1
  Pd  Pd17  1  0.500228  0.000036  0.740479  1
  Pd  Pd18  1  0.740509  0.999641  0.499830  1
  Pd  Pd19  1  0.999839  0.500055  0.259490  1
  Pd  Pd20  1  0.999071  0.499948  0.740490  1
  Pd  Pd21  1  0.252400  0.499786  0.499786  1
  Pd  Pd22  1  0.747547  0.500194  0.500194  1
  Pd  Pd23  1  0.500299  0.252490  0.500011  1
  Pd  Pd24  1  0.500673  0.747517  0.500004  1
  Pd  Pd25  1  0.500299  0.500011  0.252490  1
  Pd  Pd26  1  0.500673  0.500004  0.747517  1
  Pd  Pd27  1  0.289124  0.000200  0.000200  1
  Pd  Pd28  1  0.711524  0.999823  0.999823  1
  Pd  Pd29  1  0.999795  0.288891  0.999990  1
  Pd  Pd30  1  0.999388  0.711111  0.999983  1
  Pd  Pd31  1  0.999795  0.999990  0.288891  1
  Pd  Pd32  1  0.999388  0.999983  0.711111  1
