# generated using pymatgen
data_La2H12PdRh2
_symmetry_space_group_name_H-M   'P 1'
_cell_length_a   4.78943600
_cell_length_b   4.78943579
_cell_length_c   8.00914700
_cell_angle_alpha   90.00000000
_cell_angle_beta   90.00000000
_cell_angle_gamma   120.00000147
_symmetry_Int_Tables_number   1
_chemical_formula_structural   La2H12PdRh2
_chemical_formula_sum   'La2 H12 Pd1 Rh2'
_cell_volume   159.10565628
_cell_formula_units_Z   1
loop_
 _symmetry_equiv_pos_site_id
 _symmetry_equiv_pos_as_xyz
  1  'x, y, z'
loop_
 _atom_site_type_symbol
 _atom_site_label
 _atom_site_symmetry_multiplicity
 _atom_site_fract_x
 _atom_site_fract_y
 _atom_site_fract_z
 _atom_site_occupancy
  La  La0  1  0.000000  0.000000  0.054484  1
  La  La1  1  0.333333  0.666667  0.606804  1
  H  H2  1  0.162264  0.837736  0.349685  1
  H  H3  1  0.675469  0.837736  0.349685  1
  H  H4  1  0.162264  0.324531  0.349685  1
  H  H5  1  0.833796  0.166204  0.640927  1
  H  H6  1  0.332408  0.166204  0.640927  1
  H  H7  1  0.833796  0.667592  0.640927  1
  H  H8  1  0.503478  0.006956  0.878338  1
  H  H9  1  0.503478  0.496522  0.878338  1
  H  H10  1  0.993044  0.496522  0.878338  1
  H  H11  1  0.503291  0.006582  0.124664  1
  H  H12  1  0.503291  0.496709  0.124664  1
  H  H13  1  0.993418  0.496709  0.124664  1
  Pd  Pd14  1  0.666667  0.333333  0.364176  1
  Rh  Rh15  1  0.666667  0.333333  0.758104  1
  Rh  Rh16  1  0.333333  0.666667  0.235589  1
