# generated using pymatgen
data_Er12Co2Ni2BiRu
_symmetry_space_group_name_H-M   'P 1'
_cell_length_a   8.25572471
_cell_length_b   8.25572477
_cell_length_c   8.25572427
_cell_angle_alpha   110.23258660
_cell_angle_beta   111.20330859
_cell_angle_gamma   107.00707253
_symmetry_Int_Tables_number   1
_chemical_formula_structural   Er12Co2Ni2BiRu
_chemical_formula_sum   'Er12 Co2 Ni2 Bi1 Ru1'
_cell_volume   432.52518679
_cell_formula_units_Z   1
loop_
 _symmetry_equiv_pos_site_id
 _symmetry_equiv_pos_as_xyz
  1  'x, y, z'
loop_
 _atom_site_type_symbol
 _atom_site_label
 _atom_site_symmetry_multiplicity
 _atom_site_fract_x
 _atom_site_fract_y
 _atom_site_fract_z
 _atom_site_occupancy
  Er  Er0  1  0.286020  0.181442  0.467462  1
  Er  Er1  1  0.713980  0.818558  0.532538  1
  Er  Er2  1  0.286020  0.818558  0.104580  1
  Er  Er3  1  0.713980  0.181442  0.895420  1
  Er  Er4  1  0.620392  0.311720  0.308672  1
  Er  Er5  1  0.379608  0.688280  0.691328  1
  Er  Er6  1  0.003049  0.311720  0.691328  1
  Er  Er7  1  0.996951  0.688280  0.308672  1
  Er  Er8  1  0.213821  0.408014  0.194191  1
  Er  Er9  1  0.786179  0.591986  0.805809  1
  Er  Er10  1  0.213821  0.019630  0.805809  1
  Er  Er11  1  0.786179  0.980370  0.194191  1
  Co  Co12  1  0.387357  0.887357  0.500000  1
  Co  Co13  1  0.612643  0.112643  0.500000  1
  Ni  Ni14  1  0.000000  0.367585  0.367585  1
  Ni  Ni15  1  0.000000  0.632415  0.632415  1
  Bi  Bi16  1  0.500000  0.500000  0.000000  1
  Ru  Ru17  1  0.000000  0.000000  0.000000  1
