# generated using pymatgen
data_HoTm(GaHg)2
_symmetry_space_group_name_H-M   'P 1'
_cell_length_a   4.60024600
_cell_length_b   4.60024695
_cell_length_c   7.24514600
_cell_angle_alpha   90.00000000
_cell_angle_beta   90.00000000
_cell_angle_gamma   119.99999315
_symmetry_Int_Tables_number   1
_chemical_formula_structural   HoTm(GaHg)2
_chemical_formula_sum   'Ho1 Tm1 Ga2 Hg2'
_cell_volume   132.78224463
_cell_formula_units_Z   1
loop_
 _symmetry_equiv_pos_site_id
 _symmetry_equiv_pos_as_xyz
  1  'x, y, z'
loop_
 _atom_site_type_symbol
 _atom_site_label
 _atom_site_symmetry_multiplicity
 _atom_site_fract_x
 _atom_site_fract_y
 _atom_site_fract_z
 _atom_site_occupancy
  Ho  Ho0  1  0.000000  0.000000  0.996089  1
  Tm  Tm1  1  0.000000  0.000000  0.496098  1
  Ga  Ga2  1  0.666667  0.333333  0.790933  1
  Ga  Ga3  1  0.333333  0.666667  0.292307  1
  Hg  Hg4  1  0.666667  0.333333  0.207808  1
  Hg  Hg5  1  0.333333  0.666667  0.704364  1
