# generated using pymatgen
data_Ta12Co8Re3WN4
_symmetry_space_group_name_H-M   'P 1'
_cell_length_a   8.12537743
_cell_length_b   8.10287231
_cell_length_c   8.12554702
_cell_angle_alpha   59.90938117
_cell_angle_beta   60.00113859
_cell_angle_gamma   59.90888213
_symmetry_Int_Tables_number   1
_chemical_formula_structural   Ta12Co8Re3WN4
_chemical_formula_sum   'Ta12 Co8 Re3 W1 N4'
_cell_volume   377.76873758
_cell_formula_units_Z   1
loop_
 _symmetry_equiv_pos_site_id
 _symmetry_equiv_pos_as_xyz
  1  'x, y, z'
loop_
 _atom_site_type_symbol
 _atom_site_label
 _atom_site_symmetry_multiplicity
 _atom_site_fract_x
 _atom_site_fract_y
 _atom_site_fract_z
 _atom_site_occupancy
  Ta  Ta0  1  0.807642  0.807530  0.192410  1
  Ta  Ta1  1  0.189020  0.192306  0.809334  1
  Ta  Ta2  1  0.809339  0.192305  0.809326  1
  Ta  Ta3  1  0.192412  0.807541  0.192394  1
  Ta  Ta4  1  0.192413  0.807543  0.807643  1
  Ta  Ta5  1  0.809338  0.192316  0.189017  1
  Ta  Ta6  1  0.442358  0.442470  0.057590  1
  Ta  Ta7  1  0.060980  0.057694  0.440666  1
  Ta  Ta8  1  0.440661  0.057695  0.440674  1
  Ta  Ta9  1  0.057588  0.442459  0.057606  1
  Ta  Ta10  1  0.057587  0.442457  0.442357  1
  Ta  Ta11  1  0.440662  0.057684  0.060983  1
  Co  Co12  1  0.736824  0.421325  0.420932  1
  Co  Co13  1  0.422467  0.732581  0.422480  1
  Co  Co14  1  0.420919  0.421322  0.736837  1
  Co  Co15  1  0.420919  0.421324  0.420936  1
  Co  Co16  1  0.513176  0.828675  0.829068  1
  Co  Co17  1  0.827533  0.517419  0.827520  1
  Co  Co18  1  0.829081  0.828678  0.513163  1
  Co  Co19  1  0.829081  0.828676  0.829064  1
  Re  Re20  1  0.125000  0.625000  0.625000  1
  Re  Re21  1  0.625000  0.625000  0.125000  1
  Re  Re22  1  0.625000  0.625000  0.625000  1
  W  W23  1  0.625000  0.125000  0.625000  1
  N  N24  1  0.625000  0.125000  0.125000  1
  N  N25  1  0.125000  0.625000  0.125000  1
  N  N26  1  0.125000  0.125000  0.625000  1
  N  N27  1  0.125000  0.125000  0.125000  1
