# generated using pymatgen
data_La2Al16Pd9
_symmetry_space_group_name_H-M   'P 1'
_cell_length_a   11.16845831
_cell_length_b   11.16845830
_cell_length_c   11.16845900
_cell_angle_alpha   158.48139350
_cell_angle_beta   115.52656213
_cell_angle_gamma   68.82437317
_symmetry_Int_Tables_number   1
_chemical_formula_structural   La2Al16Pd9
_chemical_formula_sum   'La2 Al16 Pd9'
_cell_volume   457.78782494
_cell_formula_units_Z   1
loop_
 _symmetry_equiv_pos_site_id
 _symmetry_equiv_pos_as_xyz
  1  'x, y, z'
loop_
 _atom_site_type_symbol
 _atom_site_label
 _atom_site_symmetry_multiplicity
 _atom_site_fract_x
 _atom_site_fract_y
 _atom_site_fract_z
 _atom_site_occupancy
  La  La0  1  0.770754  0.770754  0.000000  1
  La  La1  1  0.229246  0.229246  0.000000  1
  Al  Al2  1  0.725685  0.605824  0.119861  1
  Al  Al3  1  0.485963  0.605825  0.880141  1
  Al  Al4  1  0.274315  0.394177  0.880141  1
  Al  Al5  1  0.514037  0.394176  0.119861  1
  Al  Al6  1  0.914126  0.414126  0.500000  1
  Al  Al7  1  0.085874  0.585875  0.500001  1
  Al  Al8  1  0.103904  0.796573  0.307333  1
  Al  Al9  1  0.489241  0.796573  0.692670  1
  Al  Al10  1  0.896096  0.203429  0.692668  1
  Al  Al11  1  0.510760  0.203429  0.307332  1
  Al  Al12  1  0.093249  0.919953  0.173298  1
  Al  Al13  1  0.746656  0.919953  0.826704  1
  Al  Al14  1  0.906750  0.080048  0.826702  1
  Al  Al15  1  0.253344  0.080048  0.173297  1
  Al  Al16  1  0.616345  0.000000  0.616345  1
  Al  Al17  1  0.383655  0.000000  0.383655  1
  Pd  Pd18  1  0.972647  0.659910  0.312737  1
  Pd  Pd19  1  0.347175  0.659912  0.687264  1
  Pd  Pd20  1  0.027353  0.340091  0.687264  1
  Pd  Pd21  1  0.652825  0.340089  0.312737  1
  Pd  Pd22  1  0.623092  0.123092  0.500000  1
  Pd  Pd23  1  0.376907  0.876909  0.500001  1
  Pd  Pd24  1  0.240655  0.500001  0.740656  1
  Pd  Pd25  1  0.759346  0.500000  0.259345  1
  Pd  Pd26  1  0.000000  0.000000  0.000000  1
