# generated using pymatgen
data_CaPr6RuCl12
_symmetry_space_group_name_H-M   'P 1'
_cell_length_a   9.26288370
_cell_length_b   9.26389180
_cell_length_c   9.47102865
_cell_angle_alpha   107.60020588
_cell_angle_beta   107.27546822
_cell_angle_gamma   106.54785804
_symmetry_Int_Tables_number   1
_chemical_formula_structural   CaPr6RuCl12
_chemical_formula_sum   'Ca1 Pr6 Ru1 Cl12'
_cell_volume   674.16501893
_cell_formula_units_Z   1
loop_
 _symmetry_equiv_pos_site_id
 _symmetry_equiv_pos_as_xyz
  1  'x, y, z'
loop_
 _atom_site_type_symbol
 _atom_site_label
 _atom_site_symmetry_multiplicity
 _atom_site_fract_x
 _atom_site_fract_y
 _atom_site_fract_z
 _atom_site_occupancy
  Ca  Ca0  1  0.500000  0.500000  0.500000  1
  Pr  Pr1  1  0.114744  0.317924  0.022981  1
  Pr  Pr2  1  0.318070  0.021876  0.114218  1
  Pr  Pr3  1  0.021946  0.121033  0.327451  1
  Pr  Pr4  1  0.978055  0.878967  0.672550  1
  Pr  Pr5  1  0.681930  0.978125  0.885782  1
  Pr  Pr6  1  0.885256  0.682076  0.977019  1
  Ru  Ru7  1  0.000000  0.000000  0.000000  1
  Cl  Cl8  1  0.208873  0.682164  0.070867  1
  Cl  Cl9  1  0.457756  0.373291  0.179193  1
  Cl  Cl10  1  0.683018  0.072798  0.206808  1
  Cl  Cl11  1  0.927730  0.793746  0.314667  1
  Cl  Cl12  1  0.174149  0.459280  0.372160  1
  Cl  Cl13  1  0.371300  0.174748  0.455229  1
  Cl  Cl14  1  0.628700  0.825252  0.544772  1
  Cl  Cl15  1  0.825852  0.540720  0.627840  1
  Cl  Cl16  1  0.072271  0.206254  0.685334  1
  Cl  Cl17  1  0.316983  0.927203  0.793192  1
  Cl  Cl18  1  0.542244  0.626709  0.820808  1
  Cl  Cl19  1  0.791127  0.317836  0.929133  1
