# generated using pymatgen
data_Er2TmLu13(Ga3Os)2
_symmetry_space_group_name_H-M   'P 1'
_cell_length_a   9.82474852
_cell_length_b   9.82474739
_cell_length_c   6.93340677
_cell_angle_alpha   90.07596582
_cell_angle_beta   89.92403646
_cell_angle_gamma   120.02252763
_symmetry_Int_Tables_number   1
_chemical_formula_structural   Er2TmLu13(Ga3Os)2
_chemical_formula_sum   'Er2 Tm1 Lu13 Ga6 Os2'
_cell_volume   579.45672513
_cell_formula_units_Z   1
loop_
 _symmetry_equiv_pos_site_id
 _symmetry_equiv_pos_as_xyz
  1  'x, y, z'
loop_
 _atom_site_type_symbol
 _atom_site_label
 _atom_site_symmetry_multiplicity
 _atom_site_fract_x
 _atom_site_fract_y
 _atom_site_fract_z
 _atom_site_occupancy
  Er  Er0  1  0.533408  0.466592  0.794574  1
  Er  Er1  1  0.999890  0.000110  0.265862  1
  Tm  Tm2  1  0.999995  0.000005  0.765417  1
  Lu  Lu3  1  0.172394  0.827606  0.988739  1
  Lu  Lu4  1  0.344380  0.171870  0.488532  1
  Lu  Lu5  1  0.828130  0.655620  0.488532  1
  Lu  Lu6  1  0.171645  0.344234  0.989389  1
  Lu  Lu7  1  0.655766  0.828355  0.989389  1
  Lu  Lu8  1  0.827741  0.172259  0.489147  1
  Lu  Lu9  1  0.332856  0.667144  0.660484  1
  Lu  Lu10  1  0.666909  0.333091  0.160760  1
  Lu  Lu11  1  0.465710  0.534290  0.294897  1
  Lu  Lu12  1  0.932260  0.465850  0.795020  1
  Lu  Lu13  1  0.534150  0.067740  0.795020  1
  Lu  Lu14  1  0.465993  0.931826  0.295297  1
  Lu  Lu15  1  0.068174  0.534007  0.295297  1
  Ga  Ga16  1  0.163962  0.836038  0.542641  1
  Ga  Ga17  1  0.327636  0.163547  0.042042  1
  Ga  Ga18  1  0.836453  0.672364  0.042042  1
  Ga  Ga19  1  0.164016  0.327875  0.542807  1
  Ga  Ga20  1  0.672125  0.835984  0.542807  1
  Ga  Ga21  1  0.835908  0.164092  0.042973  1
  Os  Os22  1  0.333348  0.666652  0.056483  1
  Os  Os23  1  0.667151  0.332849  0.555857  1
