# generated using pymatgen
data_Er3Lu(Si2Tc)2
_symmetry_space_group_name_H-M   'P 1'
_cell_length_a   5.73315351
_cell_length_b   5.73315384
_cell_length_c   9.97567765
_cell_angle_alpha   63.91632281
_cell_angle_beta   63.91632163
_cell_angle_gamma   42.58388287
_symmetry_Int_Tables_number   1
_chemical_formula_structural   Er3Lu(Si2Tc)2
_chemical_formula_sum   'Er3 Lu1 Si4 Tc2'
_cell_volume   195.61613578
_cell_formula_units_Z   1
loop_
 _symmetry_equiv_pos_site_id
 _symmetry_equiv_pos_as_xyz
  1  'x, y, z'
loop_
 _atom_site_type_symbol
 _atom_site_label
 _atom_site_symmetry_multiplicity
 _atom_site_fract_x
 _atom_site_fract_y
 _atom_site_fract_z
 _atom_site_occupancy
  Er  Er0  1  0.187826  0.187826  0.890575  1
  Er  Er1  1  0.994941  0.994941  0.677043  1
  Er  Er2  1  0.812015  0.812015  0.109979  1
  Lu  Lu3  1  0.004161  0.004161  0.323656  1
  Si  Si4  1  0.503329  0.503329  0.122794  1
  Si  Si5  1  0.497523  0.497523  0.878324  1
  Si  Si6  1  0.360126  0.360126  0.559309  1
  Si  Si7  1  0.639733  0.639733  0.439790  1
  Tc  Tc8  1  0.272020  0.272020  0.369498  1
  Tc  Tc9  1  0.728327  0.728327  0.629033  1
