# generated using pymatgen
data_Dy3UN4
_symmetry_space_group_name_H-M   'P 1'
_cell_length_a   6.92663997
_cell_length_b   9.15167972
_cell_length_c   5.98121229
_cell_angle_alpha   29.22712011
_cell_angle_beta   54.61742785
_cell_angle_gamma   40.81088791
_symmetry_Int_Tables_number   1
_chemical_formula_structural   Dy3UN4
_chemical_formula_sum   'Dy3 U1 N4'
_cell_volume   116.98337036
_cell_formula_units_Z   1
loop_
 _symmetry_equiv_pos_site_id
 _symmetry_equiv_pos_as_xyz
  1  'x, y, z'
loop_
 _atom_site_type_symbol
 _atom_site_label
 _atom_site_symmetry_multiplicity
 _atom_site_fract_x
 _atom_site_fract_y
 _atom_site_fract_z
 _atom_site_occupancy
  Dy  Dy0  1  0.500000  0.000000  0.000000  1
  Dy  Dy1  1  0.250000  0.500000  0.000000  1
  Dy  Dy2  1  0.750000  0.500000  0.000000  1
  U  U3  1  0.000000  0.000000  0.000000  1
  N  N4  1  0.500000  0.500000  0.500000  1
  N  N5  1  0.230499  0.000000  0.539002  1
  N  N6  1  0.000000  0.500000  0.500000  1
  N  N7  1  0.769501  0.000000  0.460998  1
