# generated using pymatgen
data_Pr8Hf(IrO8)3
_symmetry_space_group_name_H-M   'P 1'
_cell_length_a   5.51092185
_cell_length_b   9.49575005
_cell_length_c   10.33041580
_cell_angle_alpha   89.39361241
_cell_angle_beta   89.91451218
_cell_angle_gamma   90.14402662
_symmetry_Int_Tables_number   1
_chemical_formula_structural   Pr8Hf(IrO8)3
_chemical_formula_sum   'Pr8 Hf1 Ir3 O24'
_cell_volume   540.56152761
_cell_formula_units_Z   1
loop_
 _symmetry_equiv_pos_site_id
 _symmetry_equiv_pos_as_xyz
  1  'x, y, z'
loop_
 _atom_site_type_symbol
 _atom_site_label
 _atom_site_symmetry_multiplicity
 _atom_site_fract_x
 _atom_site_fract_y
 _atom_site_fract_z
 _atom_site_occupancy
  Pr  Pr0  1  0.039611  0.217454  0.129031  1
  Pr  Pr1  1  0.465977  0.768222  0.634692  1
  Pr  Pr2  1  0.966798  0.716848  0.373577  1
  Pr  Pr3  1  0.530700  0.290918  0.854814  1
  Pr  Pr4  1  0.029830  0.110039  0.539066  1
  Pr  Pr5  1  0.474574  0.900228  0.036102  1
  Pr  Pr6  1  0.980941  0.604016  0.958724  1
  Pr  Pr7  1  0.521876  0.404492  0.464055  1
  Hf  Hf8  1  0.036820  0.491731  0.647269  1
  Ir  Ir9  1  0.546208  0.000903  0.355582  1
  Ir  Ir10  1  0.957134  0.997747  0.858372  1
  Ir  Ir11  1  0.458911  0.503080  0.143754  1
  O  O12  1  0.436758  0.149910  0.465502  1
  O  O13  1  0.060542  0.854973  0.984581  1
  O  O14  1  0.562766  0.650218  0.025398  1
  O  O15  1  0.910837  0.339399  0.517428  1
  O  O16  1  0.722494  0.390017  0.076149  1
  O  O17  1  0.763902  0.613372  0.554776  1
  O  O18  1  0.281652  0.891323  0.433013  1
  O  O19  1  0.223121  0.110829  0.934891  1
  O  O20  1  0.254426  0.410984  0.008486  1
  O  O21  1  0.250753  0.596945  0.505106  1
  O  O22  1  0.753180  0.915872  0.491897  1
  O  O23  1  0.750386  0.090152  0.992444  1
  O  O24  1  0.191298  0.627159  0.181256  1
  O  O25  1  0.319042  0.346492  0.667650  1
  O  O26  1  0.816109  0.122148  0.313115  1
  O  O27  1  0.690477  0.869488  0.824568  1
  O  O28  1  0.341892  0.056683  0.212963  1
  O  O29  1  0.161166  0.943641  0.720470  1
  O  O30  1  0.659879  0.562366  0.280786  1
  O  O31  1  0.816321  0.456819  0.801916  1
  O  O32  1  0.325524  0.361354  0.256026  1
  O  O33  1  0.203280  0.637180  0.769260  1
  O  O34  1  0.666802  0.857615  0.242983  1
  O  O35  1  0.828014  0.139380  0.744301  1
