# generated using pymatgen
data_Np(Ti5Bi6)3
_symmetry_space_group_name_H-M   'P 1'
_cell_length_a   10.35954446
_cell_length_b   10.35954465
_cell_length_c   7.49462145
_cell_angle_alpha   89.96891637
_cell_angle_beta   89.96892054
_cell_angle_gamma   89.96389588
_symmetry_Int_Tables_number   1
_chemical_formula_structural   Np(Ti5Bi6)3
_chemical_formula_sum   'Np1 Ti15 Bi18'
_cell_volume   804.32360182
_cell_formula_units_Z   1
loop_
 _symmetry_equiv_pos_site_id
 _symmetry_equiv_pos_as_xyz
  1  'x, y, z'
loop_
 _atom_site_type_symbol
 _atom_site_label
 _atom_site_symmetry_multiplicity
 _atom_site_fract_x
 _atom_site_fract_y
 _atom_site_fract_z
 _atom_site_occupancy
  Np  Np0  1  0.248767  0.248767  0.070988  1
  Ti  Ti1  1  0.000616  0.000616  0.001935  1
  Ti  Ti2  1  0.498895  0.001198  0.002032  1
  Ti  Ti3  1  0.001198  0.498895  0.002032  1
  Ti  Ti4  1  0.500055  0.500055  0.001669  1
  Ti  Ti5  1  0.609958  0.250184  0.146580  1
  Ti  Ti6  1  0.890674  0.249952  0.146513  1
  Ti  Ti7  1  0.250184  0.609958  0.146580  1
  Ti  Ti8  1  0.249952  0.890674  0.146513  1
  Ti  Ti9  1  0.750058  0.750058  0.424737  1
  Ti  Ti10  1  0.250098  0.250098  0.569123  1
  Ti  Ti11  1  0.750066  0.107959  0.851715  1
  Ti  Ti12  1  0.749770  0.392193  0.851901  1
  Ti  Ti13  1  0.107959  0.750066  0.851715  1
  Ti  Ti14  1  0.392193  0.749770  0.851901  1
  Ti  Ti15  1  0.749736  0.749736  0.928135  1
  Bi  Bi16  1  0.750363  0.512654  0.192875  1
  Bi  Bi17  1  0.512654  0.750363  0.192875  1
  Bi  Bi18  1  0.987438  0.749894  0.192736  1
  Bi  Bi19  1  0.749894  0.987438  0.192736  1
  Bi  Bi20  1  0.079476  0.079476  0.355177  1
  Bi  Bi21  1  0.420338  0.079896  0.354793  1
  Bi  Bi22  1  0.079896  0.420338  0.354793  1
  Bi  Bi23  1  0.420255  0.420255  0.353879  1
  Bi  Bi24  1  0.749864  0.249925  0.494311  1
  Bi  Bi25  1  0.249925  0.749864  0.494311  1
  Bi  Bi26  1  0.585561  0.585561  0.655204  1
  Bi  Bi27  1  0.914265  0.585680  0.656255  1
  Bi  Bi28  1  0.585680  0.914265  0.656255  1
  Bi  Bi29  1  0.914303  0.914303  0.655767  1
  Bi  Bi30  1  0.250054  0.004292  0.800506  1
  Bi  Bi31  1  0.004292  0.250054  0.800506  1
  Bi  Bi32  1  0.495193  0.250370  0.801476  1
  Bi  Bi33  1  0.250370  0.495193  0.801476  1
