# generated using pymatgen
data_Nb12Zn2Ga8FePdN4
_symmetry_space_group_name_H-M   'P 1'
_cell_length_a   8.31773406
_cell_length_b   8.31773292
_cell_length_c   8.31773500
_cell_angle_alpha   59.61051512
_cell_angle_beta   59.61051973
_cell_angle_gamma   59.61051307
_symmetry_Int_Tables_number   1
_chemical_formula_structural   Nb12Zn2Ga8FePdN4
_chemical_formula_sum   'Nb12 Zn2 Ga8 Fe1 Pd1 N4'
_cell_volume   403.30965103
_cell_formula_units_Z   1
loop_
 _symmetry_equiv_pos_site_id
 _symmetry_equiv_pos_as_xyz
  1  'x, y, z'
loop_
 _atom_site_type_symbol
 _atom_site_label
 _atom_site_symmetry_multiplicity
 _atom_site_fract_x
 _atom_site_fract_y
 _atom_site_fract_z
 _atom_site_occupancy
  Nb  Nb0  1  0.810291  0.807544  0.188735  1
  Nb  Nb1  1  0.178915  0.192429  0.814986  1
  Nb  Nb2  1  0.817067  0.187188  0.817067  1
  Nb  Nb3  1  0.193979  0.805380  0.193979  1
  Nb  Nb4  1  0.188735  0.807544  0.810291  1
  Nb  Nb5  1  0.814986  0.192429  0.178915  1
  Nb  Nb6  1  0.439709  0.442456  0.061265  1
  Nb  Nb7  1  0.071085  0.057571  0.435014  1
  Nb  Nb8  1  0.432933  0.062812  0.432933  1
  Nb  Nb9  1  0.056021  0.444620  0.056021  1
  Nb  Nb10  1  0.061265  0.442456  0.439709  1
  Nb  Nb11  1  0.435014  0.057571  0.071085  1
  Zn  Zn12  1  0.125000  0.625000  0.625000  1
  Zn  Zn13  1  0.625000  0.625000  0.125000  1
  Ga  Ga14  1  0.762448  0.413545  0.420014  1
  Ga  Ga15  1  0.420976  0.751634  0.420976  1
  Ga  Ga16  1  0.420014  0.413545  0.762448  1
  Ga  Ga17  1  0.414291  0.409055  0.414291  1
  Ga  Ga18  1  0.487552  0.836455  0.829986  1
  Ga  Ga19  1  0.829024  0.498366  0.829024  1
  Ga  Ga20  1  0.829986  0.836455  0.487552  1
  Ga  Ga21  1  0.835709  0.840945  0.835709  1
  Fe  Fe22  1  0.625000  0.625000  0.625000  1
  Pd  Pd23  1  0.625000  0.125000  0.625000  1
  N  N24  1  0.625000  0.125000  0.125000  1
  N  N25  1  0.125000  0.625000  0.125000  1
  N  N26  1  0.125000  0.125000  0.625000  1
  N  N27  1  0.125000  0.125000  0.125000  1
