# generated using pymatgen
data_TbYbIO6
_symmetry_space_group_name_H-M   'P 1'
_cell_length_a   5.35614300
_cell_length_b   7.68396152
_cell_length_c   11.41394800
_cell_angle_alpha   75.82949146
_cell_angle_beta   90.00000000
_cell_angle_gamma   90.00000000
_symmetry_Int_Tables_number   1
_chemical_formula_structural   TbYbIO6
_chemical_formula_sum   'Tb4 Yb4 I4 O24'
_cell_volume   455.46296595
_cell_formula_units_Z   4
loop_
 _symmetry_equiv_pos_site_id
 _symmetry_equiv_pos_as_xyz
  1  'x, y, z'
loop_
 _atom_site_type_symbol
 _atom_site_label
 _atom_site_symmetry_multiplicity
 _atom_site_fract_x
 _atom_site_fract_y
 _atom_site_fract_z
 _atom_site_occupancy
  Tb  Tb0  1  0.744154  0.000000  0.750000  1
  Tb  Tb1  1  0.255846  0.000000  0.250000  1
  Tb  Tb2  1  0.683718  0.500000  0.750000  1
  Tb  Tb3  1  0.316282  0.500000  0.250000  1
  Yb  Yb4  1  0.187838  0.788417  0.577311  1
  Yb  Yb5  1  0.812162  0.788417  0.077311  1
  Yb  Yb6  1  0.187838  0.211583  0.922689  1
  Yb  Yb7  1  0.812162  0.211583  0.422689  1
  I  I8  1  0.257532  0.728581  0.885448  1
  I  I9  1  0.742468  0.728581  0.385448  1
  I  I10  1  0.257532  0.271419  0.614552  1
  I  I11  1  0.742468  0.271419  0.114552  1
  O  O12  1  0.064474  0.939484  0.890917  1
  O  O13  1  0.534697  0.845108  0.931724  1
  O  O14  1  0.935526  0.939484  0.390917  1
  O  O15  1  0.447871  0.791886  0.731477  1
  O  O16  1  0.465303  0.845108  0.431724  1
  O  O17  1  0.977599  0.703954  0.780163  1
  O  O18  1  0.552129  0.791886  0.231477  1
  O  O19  1  0.844537  0.640373  0.546339  1
  O  O20  1  0.368328  0.498161  0.886696  1
  O  O21  1  0.022401  0.703954  0.280163  1
  O  O22  1  0.368328  0.501839  0.613304  1
  O  O23  1  0.844537  0.359627  0.953661  1
  O  O24  1  0.155463  0.640373  0.046339  1
  O  O25  1  0.631672  0.498161  0.386696  1
  O  O26  1  0.977599  0.296046  0.719837  1
  O  O27  1  0.631672  0.501839  0.113304  1
  O  O28  1  0.155463  0.359627  0.453661  1
  O  O29  1  0.447871  0.208114  0.768523  1
  O  O30  1  0.022401  0.296046  0.219837  1
  O  O31  1  0.534697  0.154892  0.568276  1
  O  O32  1  0.552129  0.208114  0.268523  1
  O  O33  1  0.064474  0.060516  0.609083  1
  O  O34  1  0.465303  0.154892  0.068276  1
  O  O35  1  0.935526  0.060516  0.109083  1
