# generated using pymatgen
data_Pm3Co4
_symmetry_space_group_name_H-M   'P 1'
_cell_length_a   4.27959109
_cell_length_b   3.83995235
_cell_length_c   9.17602600
_cell_angle_alpha   102.01557532
_cell_angle_beta   103.61756169
_cell_angle_gamma   89.99810525
_symmetry_Int_Tables_number   1
_chemical_formula_structural   Pm3Co4
_chemical_formula_sum   'Pm3 Co4'
_cell_volume   143.15330142
_cell_formula_units_Z   1
loop_
 _symmetry_equiv_pos_site_id
 _symmetry_equiv_pos_as_xyz
  1  'x, y, z'
loop_
 _atom_site_type_symbol
 _atom_site_label
 _atom_site_symmetry_multiplicity
 _atom_site_fract_x
 _atom_site_fract_y
 _atom_site_fract_z
 _atom_site_occupancy
  Pm  Pm0  1  0.694081  0.946952  0.241780  1
  Pm  Pm1  1  0.325838  0.579857  0.506008  1
  Pm  Pm2  1  0.509999  0.263364  0.874133  1
  Co  Co3  1  0.141227  0.393977  0.137959  1
  Co  Co4  1  0.944162  0.698465  0.741770  1
  Co  Co5  1  0.878536  0.132172  0.609614  1
  Co  Co6  1  0.075533  0.828201  0.005880  1
