# generated using pymatgen
data_Cs8Li4Er3ScSb8
_symmetry_space_group_name_H-M   'P 1'
_cell_length_a   11.50812217
_cell_length_b   11.50812303
_cell_length_c   7.28050271
_cell_angle_alpha   90.06765076
_cell_angle_beta   89.93234747
_cell_angle_gamma   101.40727351
_symmetry_Int_Tables_number   1
_chemical_formula_structural   Cs8Li4Er3ScSb8
_chemical_formula_sum   'Cs8 Li4 Er3 Sc1 Sb8'
_cell_volume   945.15913159
_cell_formula_units_Z   1
loop_
 _symmetry_equiv_pos_site_id
 _symmetry_equiv_pos_as_xyz
  1  'x, y, z'
loop_
 _atom_site_type_symbol
 _atom_site_label
 _atom_site_symmetry_multiplicity
 _atom_site_fract_x
 _atom_site_fract_y
 _atom_site_fract_z
 _atom_site_occupancy
  Cs  Cs0  1  0.571456  0.927362  0.749425  1
  Cs  Cs1  1  0.927362  0.571456  0.250575  1
  Cs  Cs2  1  0.428199  0.075209  0.252171  1
  Cs  Cs3  1  0.075209  0.428199  0.747829  1
  Cs  Cs4  1  0.673372  0.323576  0.776864  1
  Cs  Cs5  1  0.824945  0.175941  0.278981  1
  Cs  Cs6  1  0.323576  0.673372  0.223136  1
  Cs  Cs7  1  0.175941  0.824945  0.721019  1
  Li  Li8  1  0.619646  0.619646  0.000000  1
  Li  Li9  1  0.878458  0.878458  0.500000  1
  Li  Li10  1  0.378726  0.378726  0.000000  1
  Li  Li11  1  0.123519  0.123519  0.500000  1
  Er  Er12  1  0.870296  0.870296  0.000000  1
  Er  Er13  1  0.627800  0.627800  0.500000  1
  Er  Er14  1  0.131511  0.131511  0.000000  1
  Sc  Sc15  1  0.371094  0.371094  0.500000  1
  Sb  Sb16  1  0.340047  0.168000  0.742757  1
  Sb  Sb17  1  0.168000  0.340047  0.257243  1
  Sb  Sb18  1  0.659472  0.838652  0.249815  1
  Sb  Sb19  1  0.838652  0.659472  0.750185  1
  Sb  Sb20  1  0.912056  0.089362  0.762197  1
  Sb  Sb21  1  0.582313  0.408986  0.266475  1
  Sb  Sb22  1  0.089362  0.912056  0.237803  1
  Sb  Sb23  1  0.408986  0.582313  0.733525  1
