# generated using pymatgen
data_Zr7Sc(Si4Mo3)4
_symmetry_space_group_name_H-M   'P 1'
_cell_length_a   6.61709818
_cell_length_b   6.78052118
_cell_length_c   12.70962300
_cell_angle_alpha   90.00118294
_cell_angle_beta   89.99731886
_cell_angle_gamma   90.02665177
_symmetry_Int_Tables_number   1
_chemical_formula_structural   Zr7Sc(Si4Mo3)4
_chemical_formula_sum   'Zr7 Sc1 Si16 Mo12'
_cell_volume   570.24735124
_cell_formula_units_Z   1
loop_
 _symmetry_equiv_pos_site_id
 _symmetry_equiv_pos_as_xyz
  1  'x, y, z'
loop_
 _atom_site_type_symbol
 _atom_site_label
 _atom_site_symmetry_multiplicity
 _atom_site_fract_x
 _atom_site_fract_y
 _atom_site_fract_z
 _atom_site_occupancy
  Zr  Zr0  1  0.497484  0.328820  0.093148  1
  Zr  Zr1  1  0.997017  0.171760  0.407361  1
  Zr  Zr2  1  0.503764  0.671579  0.593103  1
  Zr  Zr3  1  0.004007  0.827363  0.906691  1
  Zr  Zr4  1  0.503599  0.671745  0.906968  1
  Zr  Zr5  1  0.003436  0.828681  0.593384  1
  Zr  Zr6  1  0.496168  0.328243  0.407057  1
  Sc  Sc7  1  0.995424  0.170291  0.091859  1
  Si  Si8  1  0.665828  0.041750  0.543011  1
  Si  Si9  1  0.165500  0.457578  0.956940  1
  Si  Si10  1  0.332626  0.960195  0.043491  1
  Si  Si11  1  0.834231  0.541863  0.457206  1
  Si  Si12  1  0.334108  0.957966  0.457143  1
  Si  Si13  1  0.835193  0.539758  0.043770  1
  Si  Si14  1  0.665791  0.041383  0.957062  1
  Si  Si15  1  0.165673  0.458383  0.543269  1
  Si  Si16  1  0.532041  0.376619  0.749866  1
  Si  Si17  1  0.031925  0.124254  0.750628  1
  Si  Si18  1  0.467665  0.624047  0.250134  1
  Si  Si19  1  0.968584  0.877108  0.249319  1
  Si  Si20  1  0.798879  0.637653  0.750262  1
  Si  Si21  1  0.299056  0.862646  0.749869  1
  Si  Si22  1  0.199025  0.360358  0.248870  1
  Si  Si23  1  0.702361  0.138522  0.249141  1
  Mo  Mo24  1  0.830704  0.335530  0.623934  1
  Mo  Mo25  1  0.332261  0.164413  0.876038  1
  Mo  Mo26  1  0.169261  0.664088  0.123890  1
  Mo  Mo27  1  0.668628  0.835964  0.376185  1
  Mo  Mo28  1  0.168860  0.663685  0.375996  1
  Mo  Mo29  1  0.668030  0.835211  0.123901  1
  Mo  Mo30  1  0.830501  0.335873  0.876285  1
  Mo  Mo31  1  0.331217  0.164356  0.623676  1
  Mo  Mo32  1  0.666074  0.989202  0.749776  1
  Mo  Mo33  1  0.165944  0.511561  0.750415  1
  Mo  Mo34  1  0.334522  0.010312  0.250043  1
  Mo  Mo35  1  0.834615  0.491242  0.250308  1
