# generated using pymatgen
data_La2Gd2TmSn4
_symmetry_space_group_name_H-M   'P 1'
_cell_length_a   8.27910300
_cell_length_b   8.41571800
_cell_length_c   15.79274500
_cell_angle_alpha   90.00000000
_cell_angle_beta   90.00000000
_cell_angle_gamma   90.00000000
_symmetry_Int_Tables_number   1
_chemical_formula_structural   La2Gd2TmSn4
_chemical_formula_sum   'La8 Gd8 Tm4 Sn16'
_cell_volume   1100.35312983
_cell_formula_units_Z   4
loop_
 _symmetry_equiv_pos_site_id
 _symmetry_equiv_pos_as_xyz
  1  'x, y, z'
loop_
 _atom_site_type_symbol
 _atom_site_label
 _atom_site_symmetry_multiplicity
 _atom_site_fract_x
 _atom_site_fract_y
 _atom_site_fract_z
 _atom_site_occupancy
  La  La0  1  0.517656  0.321060  0.903119  1
  La  La1  1  0.017656  0.178940  0.596881  1
  La  La2  1  0.482344  0.678940  0.403119  1
  La  La3  1  0.982344  0.821060  0.096881  1
  La  La4  1  0.482344  0.678940  0.096881  1
  La  La5  1  0.982344  0.821060  0.403119  1
  La  La6  1  0.517656  0.321060  0.596881  1
  La  La7  1  0.017656  0.178940  0.903119  1
  Gd  Gd8  1  0.364164  0.837062  0.877424  1
  Gd  Gd9  1  0.864164  0.662938  0.622576  1
  Gd  Gd10  1  0.635836  0.162938  0.377424  1
  Gd  Gd11  1  0.135836  0.337062  0.122576  1
  Gd  Gd12  1  0.635836  0.162938  0.122576  1
  Gd  Gd13  1  0.135836  0.337062  0.377424  1
  Gd  Gd14  1  0.364164  0.837062  0.622576  1
  Gd  Gd15  1  0.864164  0.662938  0.877424  1
  Tm  Tm16  1  0.196841  0.504009  0.750000  1
  Tm  Tm17  1  0.696841  0.995991  0.750000  1
  Tm  Tm18  1  0.803159  0.495991  0.250000  1
  Tm  Tm19  1  0.303159  0.004009  0.250000  1
  Sn  Sn20  1  0.299929  0.038911  0.043479  1
  Sn  Sn21  1  0.799929  0.461089  0.456521  1
  Sn  Sn22  1  0.700071  0.961089  0.543479  1
  Sn  Sn23  1  0.200071  0.538911  0.956521  1
  Sn  Sn24  1  0.700071  0.961089  0.956521  1
  Sn  Sn25  1  0.200071  0.538911  0.543479  1
  Sn  Sn26  1  0.299929  0.038911  0.456521  1
  Sn  Sn27  1  0.799929  0.461089  0.043479  1
  Sn  Sn28  1  0.560796  0.622206  0.750000  1
  Sn  Sn29  1  0.060796  0.877794  0.750000  1
  Sn  Sn30  1  0.439204  0.377794  0.250000  1
  Sn  Sn31  1  0.939204  0.122206  0.250000  1
  Sn  Sn32  1  0.325082  0.143444  0.750000  1
  Sn  Sn33  1  0.825082  0.356556  0.750000  1
  Sn  Sn34  1  0.674918  0.856556  0.250000  1
  Sn  Sn35  1  0.174918  0.643444  0.250000  1
