# generated using pymatgen
data_Tb2TmZn2In3Ir
_symmetry_space_group_name_H-M   'P 1'
_cell_length_a   7.73440427
_cell_length_b   7.76266914
_cell_length_c   3.83270800
_cell_angle_alpha   90.00000000
_cell_angle_beta   90.00000000
_cell_angle_gamma   119.72279962
_symmetry_Int_Tables_number   1
_chemical_formula_structural   Tb2TmZn2In3Ir
_chemical_formula_sum   'Tb2 Tm1 Zn2 In3 Ir1'
_cell_volume   199.83918072
_cell_formula_units_Z   1
loop_
 _symmetry_equiv_pos_site_id
 _symmetry_equiv_pos_as_xyz
  1  'x, y, z'
loop_
 _atom_site_type_symbol
 _atom_site_label
 _atom_site_symmetry_multiplicity
 _atom_site_fract_x
 _atom_site_fract_y
 _atom_site_fract_z
 _atom_site_occupancy
  Tb  Tb0  1  0.609515  0.024534  0.000000  1
  Tb  Tb1  1  0.975336  0.585311  0.000000  1
  Tm  Tm2  1  0.416754  0.388383  0.000000  1
  Zn  Zn3  1  0.000408  0.000553  0.000000  1
  Zn  Zn4  1  0.334024  0.665429  0.500000  1
  In  In5  1  0.008222  0.267306  0.500000  1
  In  In6  1  0.731825  0.738950  0.500000  1
  In  In7  1  0.260351  0.994638  0.500000  1
  Ir  Ir8  1  0.663565  0.334895  0.500000  1
