# generated using pymatgen
data_Dy5Hf2Zr(Co4P3)4
_symmetry_space_group_name_H-M   'P 1'
_cell_length_a   12.28888859
_cell_length_b   12.28888772
_cell_length_c   3.71199300
_cell_angle_alpha   90.00000000
_cell_angle_beta   90.00000000
_cell_angle_gamma   119.94162734
_symmetry_Int_Tables_number   1
_chemical_formula_structural   Dy5Hf2Zr(Co4P3)4
_chemical_formula_sum   'Dy5 Hf2 Zr1 Co16 P12'
_cell_volume   485.75593551
_cell_formula_units_Z   1
loop_
 _symmetry_equiv_pos_site_id
 _symmetry_equiv_pos_as_xyz
  1  'x, y, z'
loop_
 _atom_site_type_symbol
 _atom_site_label
 _atom_site_symmetry_multiplicity
 _atom_site_fract_x
 _atom_site_fract_y
 _atom_site_fract_z
 _atom_site_occupancy
  Dy  Dy0  1  0.666668  0.333274  0.000000  1
  Dy  Dy1  1  0.333274  0.666668  0.000000  1
  Dy  Dy2  1  0.182123  0.182123  0.500000  1
  Dy  Dy3  1  0.817589  0.000134  0.500000  1
  Dy  Dy4  1  0.000134  0.817589  0.500000  1
  Hf  Hf5  1  0.440937  0.999913  0.000000  1
  Hf  Hf6  1  0.999913  0.440937  0.000000  1
  Zr  Zr7  1  0.558543  0.558543  0.000000  1
  Co  Co8  1  0.821935  0.195702  0.000000  1
  Co  Co9  1  0.805596  0.626688  0.000000  1
  Co  Co10  1  0.373475  0.177650  0.000000  1
  Co  Co11  1  0.195702  0.821935  0.000000  1
  Co  Co12  1  0.626688  0.805596  0.000000  1
  Co  Co13  1  0.177650  0.373475  0.000000  1
  Co  Co14  1  0.644204  0.124409  0.500000  1
  Co  Co15  1  0.876091  0.519646  0.500000  1
  Co  Co16  1  0.479188  0.354301  0.500000  1
  Co  Co17  1  0.124409  0.644204  0.500000  1
  Co  Co18  1  0.519646  0.876091  0.500000  1
  Co  Co19  1  0.354301  0.479188  0.500000  1
  Co  Co20  1  0.722509  0.722509  0.500000  1
  Co  Co21  1  0.278725  0.000001  0.500000  1
  Co  Co22  1  0.000001  0.278725  0.500000  1
  Co  Co23  1  0.999966  0.999966  0.000000  1
  P  P24  1  0.350887  0.350887  0.000000  1
  P  P25  1  0.648119  0.000416  0.000000  1
  P  P26  1  0.000416  0.648119  0.000000  1
  P  P27  1  0.828775  0.307419  0.500000  1
  P  P28  1  0.693941  0.521622  0.500000  1
  P  P29  1  0.478731  0.171049  0.500000  1
  P  P30  1  0.307419  0.828775  0.500000  1
  P  P31  1  0.521622  0.693941  0.500000  1
  P  P32  1  0.171049  0.478731  0.500000  1
  P  P33  1  0.821747  0.821747  0.000000  1
  P  P34  1  0.178196  0.999833  0.000000  1
  P  P35  1  0.999833  0.178196  0.000000  1
