# generated using pymatgen
data_Dy10Tl3Pb3S2
_symmetry_space_group_name_H-M   'P 1'
_cell_length_a   9.19267600
_cell_length_b   9.19267518
_cell_length_c   6.62089200
_cell_angle_alpha   90.00000000
_cell_angle_beta   90.00000000
_cell_angle_gamma   120.00000294
_symmetry_Int_Tables_number   1
_chemical_formula_structural   Dy10Tl3Pb3S2
_chemical_formula_sum   'Dy10 Tl3 Pb3 S2'
_cell_volume   484.54151275
_cell_formula_units_Z   1
loop_
 _symmetry_equiv_pos_site_id
 _symmetry_equiv_pos_as_xyz
  1  'x, y, z'
loop_
 _atom_site_type_symbol
 _atom_site_label
 _atom_site_symmetry_multiplicity
 _atom_site_fract_x
 _atom_site_fract_y
 _atom_site_fract_z
 _atom_site_occupancy
  Dy  Dy0  1  0.757263  0.757263  0.750000  1
  Dy  Dy1  1  0.242737  0.000000  0.750000  1
  Dy  Dy2  1  0.000000  0.242737  0.750000  1
  Dy  Dy3  1  0.241282  0.241282  0.250000  1
  Dy  Dy4  1  0.758718  0.000000  0.250000  1
  Dy  Dy5  1  0.000000  0.758718  0.250000  1
  Dy  Dy6  1  0.666667  0.333333  0.995524  1
  Dy  Dy7  1  0.333333  0.666667  0.995524  1
  Dy  Dy8  1  0.333333  0.666667  0.504476  1
  Dy  Dy9  1  0.666667  0.333333  0.504476  1
  Tl  Tl10  1  0.399171  0.399171  0.750000  1
  Tl  Tl11  1  0.600829  0.000000  0.750000  1
  Tl  Tl12  1  0.000000  0.600829  0.750000  1
  Pb  Pb13  1  0.602208  0.602208  0.250000  1
  Pb  Pb14  1  0.397792  0.000000  0.250000  1
  Pb  Pb15  1  0.000000  0.397792  0.250000  1
  S  S16  1  0.000000  0.000000  0.002067  1
  S  S17  1  0.000000  0.000000  0.497933  1
