# generated using pymatgen
data_Y12InCo2Ni3
_symmetry_space_group_name_H-M   'P 1'
_cell_length_a   8.36713586
_cell_length_b   8.36713522
_cell_length_c   8.36713479
_cell_angle_alpha   109.71113491
_cell_angle_beta   111.00527135
_cell_angle_gamma   107.71412677
_symmetry_Int_Tables_number   1
_chemical_formula_structural   Y12InCo2Ni3
_chemical_formula_sum   'Y12 In1 Co2 Ni3'
_cell_volume   450.55307428
_cell_formula_units_Z   1
loop_
 _symmetry_equiv_pos_site_id
 _symmetry_equiv_pos_as_xyz
  1  'x, y, z'
loop_
 _atom_site_type_symbol
 _atom_site_label
 _atom_site_symmetry_multiplicity
 _atom_site_fract_x
 _atom_site_fract_y
 _atom_site_fract_z
 _atom_site_occupancy
  Y  Y0  1  0.293889  0.184728  0.478616  1
  Y  Y1  1  0.706111  0.815272  0.521384  1
  Y  Y2  1  0.293889  0.815272  0.109163  1
  Y  Y3  1  0.706111  0.184728  0.890837  1
  Y  Y4  1  0.622422  0.316916  0.305505  1
  Y  Y5  1  0.377578  0.683084  0.694495  1
  Y  Y6  1  0.011412  0.316916  0.694495  1
  Y  Y7  1  0.988588  0.683084  0.305505  1
  Y  Y8  1  0.213138  0.405516  0.192379  1
  Y  Y9  1  0.786862  0.594484  0.807621  1
  Y  Y10  1  0.213138  0.020760  0.807621  1
  Y  Y11  1  0.786862  0.979240  0.192379  1
  In  In12  1  0.500000  0.500000  0.000000  1
  Co  Co13  1  0.386815  0.886815  0.500000  1
  Co  Co14  1  0.613185  0.113185  0.500000  1
  Ni  Ni15  1  0.000000  0.368954  0.368954  1
  Ni  Ni16  1  0.000000  0.631046  0.631046  1
  Ni  Ni17  1  0.000000  0.000000  0.000000  1
