# generated using pymatgen
data_Dy6TiMn5O18
_symmetry_space_group_name_H-M   'P 1'
_cell_length_a   6.21914678
_cell_length_b   6.21173907
_cell_length_c   11.67536534
_cell_angle_alpha   89.77536826
_cell_angle_beta   90.44873183
_cell_angle_gamma   120.03945124
_symmetry_Int_Tables_number   1
_chemical_formula_structural   Dy6TiMn5O18
_chemical_formula_sum   'Dy6 Ti1 Mn5 O18'
_cell_volume   390.44423709
_cell_formula_units_Z   1
loop_
 _symmetry_equiv_pos_site_id
 _symmetry_equiv_pos_as_xyz
  1  'x, y, z'
loop_
 _atom_site_type_symbol
 _atom_site_label
 _atom_site_symmetry_multiplicity
 _atom_site_fract_x
 _atom_site_fract_y
 _atom_site_fract_z
 _atom_site_occupancy
  Dy  Dy0  1  0.996309  0.000000  0.284138  1
  Dy  Dy1  1  0.002670  0.000000  0.780691  1
  Dy  Dy2  1  0.330748  0.666988  0.242595  1
  Dy  Dy3  1  0.670607  0.334951  0.736348  1
  Dy  Dy4  1  0.335655  0.665049  0.736348  1
  Dy  Dy5  1  0.663761  0.333012  0.242595  1
  Ti  Ti6  1  0.334973  0.000000  0.007901  1
  Mn  Mn7  1  0.333313  0.332450  0.508056  1
  Mn  Mn8  1  0.000863  0.667550  0.508056  1
  Mn  Mn9  1  0.000373  0.334284  0.006987  1
  Mn  Mn10  1  0.666089  0.665716  0.006987  1
  Mn  Mn11  1  0.667462  0.000000  0.508061  1
  O  O12  1  0.302196  0.000000  0.175778  1
  O  O13  1  0.307607  0.305524  0.670923  1
  O  O14  1  0.002083  0.694476  0.670923  1
  O  O15  1  0.998474  0.311539  0.174484  1
  O  O16  1  0.686934  0.688461  0.174484  1
  O  O17  1  0.695514  0.000000  0.670650  1
  O  O18  1  0.639330  0.000000  0.345047  1
  O  O19  1  0.645424  0.643912  0.840299  1
  O  O20  1  0.001512  0.356088  0.840299  1
  O  O21  1  0.997838  0.639958  0.345458  1
  O  O22  1  0.357880  0.360042  0.345458  1
  O  O23  1  0.364217  0.000000  0.842450  1
  O  O24  1  0.998488  0.000000  0.483052  1
  O  O25  1  0.028534  0.000000  0.984321  1
  O  O26  1  0.333433  0.693761  0.027152  1
  O  O27  1  0.665781  0.333520  0.528657  1
  O  O28  1  0.332260  0.666480  0.528657  1
  O  O29  1  0.639673  0.306239  0.027152  1
