# generated using pymatgen
data_Y4B4I5
_symmetry_space_group_name_H-M   'P 1'
_cell_length_a   9.65156097
_cell_length_b   9.65156098
_cell_length_c   9.78951226
_cell_angle_alpha   74.27808517
_cell_angle_beta   74.27808369
_cell_angle_gamma   25.69321828
_symmetry_Int_Tables_number   1
_chemical_formula_structural   Y4B4I5
_chemical_formula_sum   'Y4 B4 I5'
_cell_volume   379.78829104
_cell_formula_units_Z   1
loop_
 _symmetry_equiv_pos_site_id
 _symmetry_equiv_pos_as_xyz
  1  'x, y, z'
loop_
 _atom_site_type_symbol
 _atom_site_label
 _atom_site_symmetry_multiplicity
 _atom_site_fract_x
 _atom_site_fract_y
 _atom_site_fract_z
 _atom_site_occupancy
  Y  Y0  1  0.506552  0.506552  0.754556  1
  Y  Y1  1  0.494832  0.494832  0.244999  1
  Y  Y2  1  0.130170  0.130170  0.935306  1
  Y  Y3  1  0.870800  0.870800  0.063574  1
  B  B4  1  0.314846  0.686053  0.999931  1
  B  B5  1  0.686053  0.314846  0.999931  1
  B  B6  1  0.998861  0.998861  0.099363  1
  B  B7  1  0.002016  0.002016  0.900467  1
  I  I8  1  0.678708  0.678708  0.685711  1
  I  I9  1  0.322618  0.322618  0.313891  1
  I  I10  1  0.330775  0.330775  0.852122  1
  I  I11  1  0.671303  0.671303  0.144287  1
  I  I12  1  0.006765  0.006765  0.496062  1
