# generated using pymatgen
data_Sr14InSb11
_symmetry_space_group_name_H-M   'P 1'
_cell_length_a   17.14518849
_cell_length_b   17.14518878
_cell_length_c   17.14518900
_cell_angle_alpha   118.33509143
_cell_angle_beta   118.33509195
_cell_angle_gamma   92.90873856
_symmetry_Int_Tables_number   1
_chemical_formula_structural   Sr14InSb11
_chemical_formula_sum   'Sr56 In4 Sb44'
_cell_volume   3648.38474488
_cell_formula_units_Z   4
loop_
 _symmetry_equiv_pos_site_id
 _symmetry_equiv_pos_as_xyz
  1  'x, y, z'
loop_
 _atom_site_type_symbol
 _atom_site_label
 _atom_site_symmetry_multiplicity
 _atom_site_fract_x
 _atom_site_fract_y
 _atom_site_fract_z
 _atom_site_occupancy
  Sr  Sr0  1  0.491801  0.096024  0.349959  1
  Sr  Sr1  1  0.003934  0.108158  0.849959  1
  Sr  Sr2  1  0.352247  0.374717  0.661499  1
  Sr  Sr3  1  0.858158  0.508199  0.604223  1
  Sr  Sr4  1  0.403976  0.008199  0.650041  1
  Sr  Sr5  1  0.125000  0.728700  0.103700  1
  Sr  Sr6  1  0.258199  0.153976  0.150041  1
  Sr  Sr7  1  0.472363  0.252206  0.133041  1
  Sr  Sr8  1  0.277637  0.997794  0.366959  1
  Sr  Sr9  1  0.625283  0.286782  0.977530  1
  Sr  Sr10  1  0.089322  0.722363  0.720158  1
  Sr  Sr11  1  0.440748  0.602247  0.477530  1
  Sr  Sr12  1  0.213218  0.874717  0.022470  1
  Sr  Sr13  1  0.125283  0.147753  0.338501  1
  Sr  Sr14  1  0.246066  0.596024  0.604223  1
  Sr  Sr15  1  0.503934  0.653976  0.895777  1
  Sr  Sr16  1  0.771300  0.375000  0.896300  1
  Sr  Sr17  1  0.397753  0.875283  0.838501  1
  Sr  Sr18  1  0.630836  0.910678  0.633041  1
  Sr  Sr19  1  0.478700  0.875000  0.103700  1
  Sr  Sr20  1  0.125000  0.228700  0.603700  1
  Sr  Sr21  1  0.625000  0.021300  0.896300  1
  Sr  Sr22  1  0.346024  0.241801  0.849959  1
  Sr  Sr23  1  0.358158  0.753934  0.349959  1
  Sr  Sr24  1  0.247794  0.027637  0.866959  1
  Sr  Sr25  1  0.940748  0.463218  0.838501  1
  Sr  Sr26  1  0.747794  0.880836  0.220158  1
  Sr  Sr27  1  0.036782  0.559252  0.161499  1
  Sr  Sr28  1  0.777637  0.410678  0.279842  1
  Sr  Sr29  1  0.160678  0.380836  0.133041  1
  Sr  Sr30  1  0.309252  0.647753  0.022470  1
  Sr  Sr31  1  0.002206  0.369164  0.279842  1
  Sr  Sr32  1  0.619164  0.752206  0.779842  1
  Sr  Sr33  1  0.660678  0.527637  0.779842  1
  Sr  Sr34  1  0.271300  0.375000  0.396300  1
  Sr  Sr35  1  0.758199  0.608158  0.104223  1
  Sr  Sr36  1  0.991801  0.641842  0.395777  1
  Sr  Sr37  1  0.852247  0.190748  0.977530  1
  Sr  Sr38  1  0.897753  0.059252  0.522470  1
  Sr  Sr39  1  0.713218  0.690748  0.338501  1
  Sr  Sr40  1  0.846024  0.996066  0.104223  1
  Sr  Sr41  1  0.119164  0.339322  0.866959  1
  Sr  Sr42  1  0.903976  0.253934  0.395777  1
  Sr  Sr43  1  0.891842  0.741801  0.895777  1
  Sr  Sr44  1  0.502206  0.222363  0.633041  1
  Sr  Sr45  1  0.625000  0.521300  0.396300  1
  Sr  Sr46  1  0.624717  0.102247  0.161499  1
  Sr  Sr47  1  0.589322  0.869164  0.366959  1
  Sr  Sr48  1  0.130836  0.497794  0.720158  1
  Sr  Sr49  1  0.978700  0.875000  0.603700  1
  Sr  Sr50  1  0.391842  0.496066  0.150041  1
  Sr  Sr51  1  0.536782  0.375283  0.477530  1
  Sr  Sr52  1  0.124717  0.963218  0.522470  1
  Sr  Sr53  1  0.972363  0.839322  0.220158  1
  Sr  Sr54  1  0.809252  0.786782  0.661499  1
  Sr  Sr55  1  0.746066  0.141842  0.650041  1
  In  In56  1  0.500000  0.500000  0.000000  1
  In  In57  1  0.750000  0.250000  0.500000  1
  In  In58  1  0.000000  0.000000  0.000000  1
  In  In59  1  0.250000  0.750000  0.500000  1
  Sb  Sb60  1  0.794137  0.936914  0.864862  1
  Sb  Sb61  1  0.447401  0.541872  0.644195  1
  Sb  Sb62  1  0.383501  0.383501  0.267003  1
  Sb  Sb63  1  0.866499  0.633501  0.500000  1
  Sb  Sb64  1  0.291872  0.147676  0.594470  1
  Sb  Sb65  1  0.572052  0.436914  0.142776  1
  Sb  Sb66  1  0.955863  0.313086  0.635138  1
  Sb  Sb67  1  0.563086  0.705863  0.135138  1
  Sb  Sb68  1  0.686914  0.322052  0.642776  1
  Sb  Sb69  1  0.186914  0.544137  0.364862  1
  Sb  Sb70  1  0.455863  0.820725  0.642776  1
  Sb  Sb71  1  0.302599  0.708128  0.855805  1
  Sb  Sb72  1  0.791872  0.197401  0.144195  1
  Sb  Sb73  1  0.553206  0.697401  0.405530  1
  Sb  Sb74  1  0.063086  0.927948  0.857224  1
  Sb  Sb75  1  0.947401  0.303206  0.905530  1
  Sb  Sb76  1  0.750000  0.750000  0.000000  1
  Sb  Sb77  1  0.852324  0.446794  0.144195  1
  Sb  Sb78  1  0.633501  0.133501  0.767003  1
  Sb  Sb79  1  0.696794  0.602324  0.644195  1
  Sb  Sb80  1  0.958128  0.052599  0.355805  1
  Sb  Sb81  1  0.802599  0.946794  0.594470  1
  Sb  Sb82  1  0.500000  0.000000  0.500000  1
  Sb  Sb83  1  0.116499  0.116499  0.732997  1
  Sb  Sb84  1  0.053206  0.647676  0.855805  1
  Sb  Sb85  1  0.070725  0.205863  0.142776  1
  Sb  Sb86  1  0.294137  0.429275  0.857224  1
  Sb  Sb87  1  0.397676  0.041872  0.094470  1
  Sb  Sb88  1  0.897676  0.803206  0.355805  1
  Sb  Sb89  1  0.179275  0.822052  0.635138  1
  Sb  Sb90  1  0.000000  0.500000  0.500000  1
  Sb  Sb91  1  0.196794  0.552599  0.094470  1
  Sb  Sb92  1  0.133501  0.366499  0.500000  1
  Sb  Sb93  1  0.177948  0.813086  0.357224  1
  Sb  Sb94  1  0.458128  0.102324  0.905530  1
  Sb  Sb95  1  0.072052  0.929275  0.135138  1
  Sb  Sb96  1  0.677948  0.320725  0.364862  1
  Sb  Sb97  1  0.352324  0.208128  0.405530  1
  Sb  Sb98  1  0.250000  0.250000  0.000000  1
  Sb  Sb99  1  0.570725  0.427948  0.864862  1
  Sb  Sb100  1  0.679275  0.044137  0.357224  1
  Sb  Sb101  1  0.883501  0.616499  0.000000  1
  Sb  Sb102  1  0.616499  0.883501  0.000000  1
  Sb  Sb103  1  0.366499  0.866499  0.232997  1
