# generated using pymatgen
data_Zr10AlSi2Sb5
_symmetry_space_group_name_H-M   'P 1'
_cell_length_a   8.62075400
_cell_length_b   8.66429213
_cell_length_c   5.84733900
_cell_angle_alpha   90.00000000
_cell_angle_beta   90.00000000
_cell_angle_gamma   119.83390525
_symmetry_Int_Tables_number   1
_chemical_formula_structural   Zr10AlSi2Sb5
_chemical_formula_sum   'Zr10 Al1 Si2 Sb5'
_cell_volume   378.87127839
_cell_formula_units_Z   1
loop_
 _symmetry_equiv_pos_site_id
 _symmetry_equiv_pos_as_xyz
  1  'x, y, z'
loop_
 _atom_site_type_symbol
 _atom_site_label
 _atom_site_symmetry_multiplicity
 _atom_site_fract_x
 _atom_site_fract_y
 _atom_site_fract_z
 _atom_site_occupancy
  Zr  Zr0  1  0.267180  0.000000  0.250000  1
  Zr  Zr1  1  0.256433  0.255454  0.750000  1
  Zr  Zr2  1  0.000978  0.744546  0.750000  1
  Zr  Zr3  1  0.994050  0.261617  0.250000  1
  Zr  Zr4  1  0.732433  0.738383  0.250000  1
  Zr  Zr5  1  0.744142  0.000000  0.750000  1
  Zr  Zr6  1  0.336055  0.670251  0.003655  1
  Zr  Zr7  1  0.665805  0.329749  0.496345  1
  Zr  Zr8  1  0.665805  0.329749  0.003655  1
  Zr  Zr9  1  0.336055  0.670251  0.496345  1
  Al  Al10  1  0.606966  0.000000  0.250000  1
  Si  Si11  1  0.999298  0.000000  0.010125  1
  Si  Si12  1  0.999298  0.000000  0.489875  1
  Sb  Sb13  1  0.603298  0.603089  0.750000  1
  Sb  Sb14  1  0.000208  0.396911  0.750000  1
  Sb  Sb15  1  0.999004  0.608398  0.250000  1
  Sb  Sb16  1  0.390606  0.391602  0.250000  1
  Sb  Sb17  1  0.402387  0.000000  0.750000  1
