# generated using pymatgen
data_Dy2Ho5Cd(Co3Sn11)2
_symmetry_space_group_name_H-M   'P 1'
_cell_length_a   9.66210803
_cell_length_b   9.66210603
_cell_length_c   9.99976104
_cell_angle_alpha   90.00871692
_cell_angle_beta   89.99128127
_cell_angle_gamma   119.99562684
_symmetry_Int_Tables_number   1
_chemical_formula_structural   Dy2Ho5Cd(Co3Sn11)2
_chemical_formula_sum   'Dy2 Ho5 Cd1 Co6 Sn22'
_cell_volume   808.50567303
_cell_formula_units_Z   1
loop_
 _symmetry_equiv_pos_site_id
 _symmetry_equiv_pos_as_xyz
  1  'x, y, z'
loop_
 _atom_site_type_symbol
 _atom_site_label
 _atom_site_symmetry_multiplicity
 _atom_site_fract_x
 _atom_site_fract_y
 _atom_site_fract_z
 _atom_site_occupancy
  Dy  Dy0  1  0.999995  0.000005  0.000010  1
  Dy  Dy1  1  0.521039  0.478961  0.693663  1
  Ho  Ho2  1  0.520968  0.041917  0.693663  1
  Ho  Ho3  1  0.958083  0.479032  0.693663  1
  Ho  Ho4  1  0.041932  0.520972  0.306342  1
  Ho  Ho5  1  0.479028  0.958068  0.306342  1
  Ho  Ho6  1  0.479035  0.520965  0.306302  1
  Cd  Cd7  1  0.999997  0.000003  0.499994  1
  Co  Co8  1  0.168037  0.831963  0.803110  1
  Co  Co9  1  0.167921  0.336032  0.803157  1
  Co  Co10  1  0.663968  0.832079  0.803157  1
  Co  Co11  1  0.336085  0.168051  0.196897  1
  Co  Co12  1  0.831949  0.663915  0.196897  1
  Co  Co13  1  0.831975  0.168025  0.196917  1
  Sn  Sn14  1  0.666675  0.333325  0.181449  1
  Sn  Sn15  1  0.666851  0.333149  0.880721  1
  Sn  Sn16  1  0.333322  0.666678  0.119507  1
  Sn  Sn17  1  0.346273  0.346285  0.000047  1
  Sn  Sn18  1  0.999993  0.653674  0.000024  1
  Sn  Sn19  1  0.653710  0.000037  0.999976  1
  Sn  Sn20  1  0.653715  0.653727  0.000047  1
  Sn  Sn21  1  0.333297  0.666703  0.818565  1
  Sn  Sn22  1  0.435189  0.217489  0.453078  1
  Sn  Sn23  1  0.217604  0.782396  0.546741  1
  Sn  Sn24  1  0.217345  0.435172  0.546676  1
  Sn  Sn25  1  0.564828  0.782655  0.546676  1
  Sn  Sn26  1  0.116619  0.883381  0.270903  1
  Sn  Sn27  1  0.782511  0.564811  0.453078  1
  Sn  Sn28  1  0.782398  0.217602  0.453211  1
  Sn  Sn29  1  0.346326  0.000007  0.000024  1
  Sn  Sn30  1  0.116636  0.233264  0.270913  1
  Sn  Sn31  1  0.766736  0.883364  0.270913  1
  Sn  Sn32  1  0.233086  0.116459  0.729122  1
  Sn  Sn33  1  0.883541  0.766914  0.729122  1
  Sn  Sn34  1  0.883371  0.116629  0.729120  1
  Sn  Sn35  1  0.999963  0.346290  0.999976  1
