# generated using pymatgen
data_Ho19Er(Ir2Ru)4
_symmetry_space_group_name_H-M   'P 1'
_cell_length_a   10.78865500
_cell_length_b   10.78865500
_cell_length_c   6.40912500
_cell_angle_alpha   90.00000000
_cell_angle_beta   90.00000000
_cell_angle_gamma   90.00000000
_symmetry_Int_Tables_number   1
_chemical_formula_structural   Ho19Er(Ir2Ru)4
_chemical_formula_sum   'Ho19 Er1 Ir8 Ru4'
_cell_volume   745.99059601
_cell_formula_units_Z   1
loop_
 _symmetry_equiv_pos_site_id
 _symmetry_equiv_pos_as_xyz
  1  'x, y, z'
loop_
 _atom_site_type_symbol
 _atom_site_label
 _atom_site_symmetry_multiplicity
 _atom_site_fract_x
 _atom_site_fract_y
 _atom_site_fract_z
 _atom_site_occupancy
  Ho  Ho0  1  0.293458  0.086406  0.377196  1
  Ho  Ho1  1  0.293462  0.913584  0.877175  1
  Ho  Ho2  1  0.706538  0.086416  0.877175  1
  Ho  Ho3  1  0.706542  0.913594  0.377196  1
  Ho  Ho4  1  0.586415  0.793437  0.877116  1
  Ho  Ho5  1  0.586382  0.206622  0.377179  1
  Ho  Ho6  1  0.413618  0.793378  0.377179  1
  Ho  Ho7  1  0.413585  0.206563  0.877116  1
  Ho  Ho8  1  0.206622  0.413618  0.622821  1
  Ho  Ho9  1  0.206563  0.586415  0.122884  1
  Ho  Ho10  1  0.793437  0.413585  0.122884  1
  Ho  Ho11  1  0.793378  0.586382  0.622821  1
  Ho  Ho12  1  0.913584  0.706538  0.122825  1
  Ho  Ho13  1  0.913594  0.293458  0.622804  1
  Ho  Ho14  1  0.086406  0.706542  0.622804  1
  Ho  Ho15  1  0.086416  0.293462  0.122825  1
  Ho  Ho16  1  0.000000  0.000000  0.500000  1
  Ho  Ho17  1  0.000000  0.000000  0.000000  1
  Ho  Ho18  1  0.500000  0.500000  0.000000  1
  Er  Er19  1  0.500000  0.500000  0.500000  1
  Ir  Ir20  1  0.847406  0.152594  0.250043  1
  Ir  Ir21  1  0.847406  0.847406  0.749957  1
  Ir  Ir22  1  0.152594  0.152594  0.749957  1
  Ir  Ir23  1  0.152594  0.847406  0.250043  1
  Ir  Ir24  1  0.652498  0.347500  0.749763  1
  Ir  Ir25  1  0.652500  0.652498  0.250237  1
  Ir  Ir26  1  0.347500  0.347502  0.250237  1
  Ir  Ir27  1  0.347502  0.652500  0.749763  1
  Ru  Ru28  1  0.500000  0.000000  0.121972  1
  Ru  Ru29  1  0.500000  0.000000  0.621971  1
  Ru  Ru30  1  0.000000  0.500000  0.878028  1
  Ru  Ru31  1  0.000000  0.500000  0.378029  1
