# generated using pymatgen
data_DyCr4O12
_symmetry_space_group_name_H-M   'P 1'
_cell_length_a   9.04085764
_cell_length_b   9.04085778
_cell_length_c   9.67811300
_cell_angle_alpha   117.84474839
_cell_angle_beta   62.15523682
_cell_angle_gamma   120.00000665
_symmetry_Int_Tables_number   1
_chemical_formula_structural   DyCr4O12
_chemical_formula_sum   'Dy2 Cr8 O24'
_cell_volume   576.89911664
_cell_formula_units_Z   2
loop_
 _symmetry_equiv_pos_site_id
 _symmetry_equiv_pos_as_xyz
  1  'x, y, z'
loop_
 _atom_site_type_symbol
 _atom_site_label
 _atom_site_symmetry_multiplicity
 _atom_site_fract_x
 _atom_site_fract_y
 _atom_site_fract_z
 _atom_site_occupancy
  Dy  Dy0  1  0.644658  0.355343  0.066031  1
  Dy  Dy1  1  0.859053  0.140948  0.422843  1
  Cr  Cr2  1  0.251819  0.022358  0.249733  1
  Cr  Cr3  1  0.977641  0.479194  0.249733  1
  Cr  Cr4  1  0.520806  0.748180  0.249733  1
  Cr  Cr5  1  0.448553  0.250334  0.751267  1
  Cr  Cr6  1  0.050515  0.551447  0.751267  1
  Cr  Cr7  1  0.749666  0.949485  0.751267  1
  Cr  Cr8  1  0.144037  0.855964  0.567890  1
  Cr  Cr9  1  0.351085  0.648916  0.946746  1
  O  O10  1  0.164281  0.497759  0.090947  1
  O  O11  1  0.502240  0.757467  0.090947  1
  O  O12  1  0.242533  0.835718  0.090947  1
  O  O13  1  0.461015  0.168797  0.221718  1
  O  O14  1  0.831203  0.513936  0.221718  1
  O  O15  1  0.486064  0.538985  0.221718  1
  O  O16  1  0.122960  0.108812  0.257846  1
  O  O17  1  0.891187  0.271993  0.257846  1
  O  O18  1  0.728007  0.877040  0.257846  1
  O  O19  1  0.177203  0.979305  0.425144  1
  O  O20  1  0.020696  0.623042  0.425144  1
  O  O21  1  0.376958  0.822797  0.425144  1
  O  O22  1  0.620063  0.223971  0.583886  1
  O  O23  1  0.020022  0.379937  0.583886  1
  O  O24  1  0.776028  0.979977  0.583886  1
  O  O25  1  0.258712  0.092796  0.713038  1
  O  O26  1  0.121045  0.741288  0.713038  1
  O  O27  1  0.907206  0.878955  0.713038  1
  O  O28  1  0.449417  0.454402  0.804782  1
  O  O29  1  0.200202  0.550583  0.804782  1
  O  O30  1  0.545597  0.799796  0.804782  1
  O  O31  1  0.770605  0.144459  0.900471  1
  O  O32  1  0.473383  0.229395  0.900471  1
  O  O33  1  0.855541  0.526618  0.900471  1
