# generated using pymatgen
data_Ca5Pr5Ir4
_symmetry_space_group_name_H-M   'P 1'
_cell_length_a   8.75583189
_cell_length_b   8.88762926
_cell_length_c   7.49342283
_cell_angle_alpha   83.33114915
_cell_angle_beta   83.03714395
_cell_angle_gamma   44.91232387
_symmetry_Int_Tables_number   1
_chemical_formula_structural   Ca5Pr5Ir4
_chemical_formula_sum   'Ca5 Pr5 Ir4'
_cell_volume   408.28406051
_cell_formula_units_Z   1
loop_
 _symmetry_equiv_pos_site_id
 _symmetry_equiv_pos_as_xyz
  1  'x, y, z'
loop_
 _atom_site_type_symbol
 _atom_site_label
 _atom_site_symmetry_multiplicity
 _atom_site_fract_x
 _atom_site_fract_y
 _atom_site_fract_z
 _atom_site_occupancy
  Ca  Ca0  1  0.015216  0.805233  0.916076  1
  Ca  Ca1  1  0.198532  0.984455  0.585820  1
  Ca  Ca2  1  0.986151  0.194024  0.082416  1
  Ca  Ca3  1  0.802593  0.014889  0.415600  1
  Ca  Ca4  1  0.352695  0.208464  0.816709  1
  Pr  Pr5  1  0.787413  0.651798  0.679490  1
  Pr  Pr6  1  0.643394  0.795137  0.180583  1
  Pr  Pr7  1  0.211534  0.350726  0.318766  1
  Pr  Pr8  1  0.565088  0.429711  0.750665  1
  Pr  Pr9  1  0.434340  0.564642  0.252086  1
  Ir  Ir10  1  0.176752  0.595683  0.572621  1
  Ir  Ir11  1  0.412473  0.805800  0.926597  1
  Ir  Ir12  1  0.818920  0.415390  0.423845  1
  Ir  Ir13  1  0.594900  0.184049  0.078727  1
