# generated using pymatgen
data_Tm2U(SnIr)3
_symmetry_space_group_name_H-M   'P 1'
_cell_length_a   7.40512244
_cell_length_b   7.53854499
_cell_length_c   3.93154400
_cell_angle_alpha   90.00000000
_cell_angle_beta   90.00000000
_cell_angle_gamma   120.59538014
_symmetry_Int_Tables_number   1
_chemical_formula_structural   Tm2U(SnIr)3
_chemical_formula_sum   'Tm2 U1 Sn3 Ir3'
_cell_volume   188.91943216
_cell_formula_units_Z   1
loop_
 _symmetry_equiv_pos_site_id
 _symmetry_equiv_pos_as_xyz
  1  'x, y, z'
loop_
 _atom_site_type_symbol
 _atom_site_label
 _atom_site_symmetry_multiplicity
 _atom_site_fract_x
 _atom_site_fract_y
 _atom_site_fract_z
 _atom_site_occupancy
  Tm  Tm0  1  0.405558  0.404243  0.500000  1
  Tm  Tm1  1  0.594441  0.998700  0.500000  1
  U  U2  1  0.000027  0.586100  0.500000  1
  Sn  Sn3  1  0.728181  0.742275  0.000000  1
  Sn  Sn4  1  0.271826  0.014105  0.000000  1
  Sn  Sn5  1  0.000006  0.245251  0.000000  1
  Ir  Ir6  1  0.694124  0.358366  0.000000  1
  Ir  Ir7  1  0.305861  0.664254  0.000000  1
  Ir  Ir8  1  0.999976  0.986706  0.500000  1
