# generated using pymatgen
data_Nd3HoErP12Ru19
_symmetry_space_group_name_H-M   'P 1'
_cell_length_a   12.59290800
_cell_length_b   12.59290866
_cell_length_c   4.00856500
_cell_angle_alpha   90.00000000
_cell_angle_beta   90.00000000
_cell_angle_gamma   119.99999826
_symmetry_Int_Tables_number   1
_chemical_formula_structural   Nd3HoErP12Ru19
_chemical_formula_sum   'Nd3 Ho1 Er1 P12 Ru19'
_cell_volume   550.51816478
_cell_formula_units_Z   1
loop_
 _symmetry_equiv_pos_site_id
 _symmetry_equiv_pos_as_xyz
  1  'x, y, z'
loop_
 _atom_site_type_symbol
 _atom_site_label
 _atom_site_symmetry_multiplicity
 _atom_site_fract_x
 _atom_site_fract_y
 _atom_site_fract_z
 _atom_site_occupancy
  Nd  Nd0  1  0.000125  0.184066  0.500000  1
  Nd  Nd1  1  0.815934  0.816060  0.500000  1
  Nd  Nd2  1  0.183940  0.999875  0.500000  1
  Ho  Ho3  1  0.333333  0.666667  0.000000  1
  Er  Er4  1  0.666667  0.333333  0.000000  1
  P  P5  1  0.999797  0.811827  0.000000  1
  P  P6  1  0.188173  0.187970  0.000000  1
  P  P7  1  0.812030  0.000203  0.000000  1
  P  P8  1  0.695277  0.174283  0.500000  1
  P  P9  1  0.825717  0.520993  0.500000  1
  P  P10  1  0.479007  0.304723  0.500000  1
  P  P11  1  0.173751  0.695044  0.500000  1
  P  P12  1  0.521292  0.826249  0.500000  1
  P  P13  1  0.304956  0.478708  0.500000  1
  P  P14  1  0.000171  0.373871  0.000000  1
  P  P15  1  0.626129  0.626299  0.000000  1
  P  P16  1  0.373701  0.999829  0.000000  1
  Ru  Ru17  1  0.999954  0.553549  0.000000  1
  Ru  Ru18  1  0.446451  0.446406  0.000000  1
  Ru  Ru19  1  0.553594  0.000046  0.000000  1
  Ru  Ru20  1  0.999715  0.713030  0.500000  1
  Ru  Ru21  1  0.286970  0.286686  0.500000  1
  Ru  Ru22  1  0.713314  0.000285  0.500000  1
  Ru  Ru23  1  0.804525  0.185662  0.000000  1
  Ru  Ru24  1  0.814338  0.618863  0.000000  1
  Ru  Ru25  1  0.381137  0.195475  0.000000  1
  Ru  Ru26  1  0.185198  0.804415  0.000000  1
  Ru  Ru27  1  0.619217  0.814802  0.000000  1
  Ru  Ru28  1  0.195585  0.380783  0.000000  1
  Ru  Ru29  1  0.873986  0.367885  0.500000  1
  Ru  Ru30  1  0.632115  0.506101  0.500000  1
  Ru  Ru31  1  0.493899  0.126014  0.500000  1
  Ru  Ru32  1  0.367735  0.874117  0.500000  1
  Ru  Ru33  1  0.506382  0.632265  0.500000  1
  Ru  Ru34  1  0.125883  0.493618  0.500000  1
  Ru  Ru35  1  0.000000  0.000000  0.000000  1
