# generated using pymatgen
data_TbHoFe2(P3Rh4)2
_symmetry_space_group_name_H-M   'P 1'
_cell_length_a   3.85695800
_cell_length_b   10.75410500
_cell_length_c   12.42173000
_cell_angle_alpha   90.00000000
_cell_angle_beta   90.00000000
_cell_angle_gamma   90.00000000
_symmetry_Int_Tables_number   1
_chemical_formula_structural   TbHoFe2(P3Rh4)2
_chemical_formula_sum   'Tb2 Ho2 Fe4 P12 Rh16'
_cell_volume   515.23014807
_cell_formula_units_Z   2
loop_
 _symmetry_equiv_pos_site_id
 _symmetry_equiv_pos_as_xyz
  1  'x, y, z'
loop_
 _atom_site_type_symbol
 _atom_site_label
 _atom_site_symmetry_multiplicity
 _atom_site_fract_x
 _atom_site_fract_y
 _atom_site_fract_z
 _atom_site_occupancy
  Tb  Tb0  1  0.250000  0.582583  0.709289  1
  Tb  Tb1  1  0.250000  0.917417  0.209289  1
  Ho  Ho2  1  0.750000  0.417417  0.290703  1
  Ho  Ho3  1  0.750000  0.082583  0.790703  1
  Fe  Fe4  1  0.250000  0.461799  0.933325  1
  Fe  Fe5  1  0.250000  0.038201  0.433325  1
  Fe  Fe6  1  0.750000  0.538128  0.066738  1
  Fe  Fe7  1  0.750000  0.961872  0.566738  1
  P  P8  1  0.250000  0.429835  0.106069  1
  P  P9  1  0.250000  0.070165  0.606069  1
  P  P10  1  0.750000  0.570066  0.894310  1
  P  P11  1  0.750000  0.929934  0.394310  1
  P  P12  1  0.250000  0.270450  0.870196  1
  P  P13  1  0.250000  0.229550  0.370196  1
  P  P14  1  0.750000  0.729098  0.129578  1
  P  P15  1  0.750000  0.770902  0.629578  1
  P  P16  1  0.250000  0.600770  0.388661  1
  P  P17  1  0.250000  0.899230  0.888661  1
  P  P18  1  0.750000  0.398883  0.611247  1
  P  P19  1  0.750000  0.101117  0.111247  1
  Rh  Rh20  1  0.250000  0.715932  0.989590  1
  Rh  Rh21  1  0.250000  0.784068  0.489590  1
  Rh  Rh22  1  0.750000  0.284090  0.010411  1
  Rh  Rh23  1  0.750000  0.215910  0.510411  1
  Rh  Rh24  1  0.250000  0.408307  0.479261  1
  Rh  Rh25  1  0.250000  0.091693  0.979261  1
  Rh  Rh26  1  0.750000  0.591619  0.520141  1
  Rh  Rh27  1  0.750000  0.908381  0.020141  1
  Rh  Rh28  1  0.250000  0.230939  0.176041  1
  Rh  Rh29  1  0.250000  0.269061  0.676041  1
  Rh  Rh30  1  0.750000  0.769483  0.824196  1
  Rh  Rh31  1  0.750000  0.730517  0.324196  1
  Rh  Rh32  1  0.250000  0.882504  0.700472  1
  Rh  Rh33  1  0.250000  0.617496  0.200472  1
  Rh  Rh34  1  0.750000  0.118138  0.299770  1
  Rh  Rh35  1  0.750000  0.381862  0.799770  1
