# generated using pymatgen
data_Er2Si3Ni14H3
_symmetry_space_group_name_H-M   'P 1'
_cell_length_a   6.25190340
_cell_length_b   6.25190446
_cell_length_c   6.25190285
_cell_angle_alpha   83.34291595
_cell_angle_beta   83.34291323
_cell_angle_gamma   83.34291066
_symmetry_Int_Tables_number   1
_chemical_formula_structural   Er2Si3Ni14H3
_chemical_formula_sum   'Er2 Si3 Ni14 H3'
_cell_volume   239.77537612
_cell_formula_units_Z   1
loop_
 _symmetry_equiv_pos_site_id
 _symmetry_equiv_pos_as_xyz
  1  'x, y, z'
loop_
 _atom_site_type_symbol
 _atom_site_label
 _atom_site_symmetry_multiplicity
 _atom_site_fract_x
 _atom_site_fract_y
 _atom_site_fract_z
 _atom_site_occupancy
  Er  Er0  1  0.651738  0.651738  0.651738  1
  Er  Er1  1  0.348262  0.348262  0.348262  1
  Si  Si2  1  0.000000  0.000000  0.500000  1
  Si  Si3  1  0.000000  0.500000  0.000000  1
  Si  Si4  1  0.500000  0.000000  0.000000  1
  Ni  Ni5  1  0.291956  0.708044  0.000000  1
  Ni  Ni6  1  0.708044  0.000000  0.291956  1
  Ni  Ni7  1  0.000000  0.291956  0.708044  1
  Ni  Ni8  1  0.291956  0.000000  0.708044  1
  Ni  Ni9  1  0.000000  0.708044  0.291956  1
  Ni  Ni10  1  0.708044  0.291956  0.000000  1
  Ni  Ni11  1  0.343068  0.343068  0.861452  1
  Ni  Ni12  1  0.343068  0.861452  0.343068  1
  Ni  Ni13  1  0.861452  0.343068  0.343068  1
  Ni  Ni14  1  0.656932  0.656932  0.138548  1
  Ni  Ni15  1  0.656932  0.138548  0.656932  1
  Ni  Ni16  1  0.138548  0.656932  0.656932  1
  Ni  Ni17  1  0.899563  0.899563  0.899563  1
  Ni  Ni18  1  0.100437  0.100437  0.100437  1
  H  H19  1  0.500000  0.500000  0.000000  1
  H  H20  1  0.500000  0.000000  0.500000  1
  H  H21  1  0.000000  0.500000  0.500000  1
