# generated using pymatgen
data_Y2Ho10Tc3Rh
_symmetry_space_group_name_H-M   'P 1'
_cell_length_a   6.28320843
_cell_length_b   7.40035903
_cell_length_c   9.11455800
_cell_angle_alpha   90.00000000
_cell_angle_beta   90.00000000
_cell_angle_gamma   90.07308579
_symmetry_Int_Tables_number   1
_chemical_formula_structural   Y2Ho10Tc3Rh
_chemical_formula_sum   'Y2 Ho10 Tc3 Rh1'
_cell_volume   423.80835704
_cell_formula_units_Z   1
loop_
 _symmetry_equiv_pos_site_id
 _symmetry_equiv_pos_as_xyz
  1  'x, y, z'
loop_
 _atom_site_type_symbol
 _atom_site_label
 _atom_site_symmetry_multiplicity
 _atom_site_fract_x
 _atom_site_fract_y
 _atom_site_fract_z
 _atom_site_occupancy
  Y  Y0  1  0.630916  0.043399  0.250000  1
  Y  Y1  1  0.872081  0.540749  0.250000  1
  Ho  Ho2  1  0.373321  0.957999  0.750000  1
  Ho  Ho3  1  0.124592  0.460766  0.750000  1
  Ho  Ho4  1  0.162956  0.178327  0.061001  1
  Ho  Ho5  1  0.833302  0.823503  0.933976  1
  Ho  Ho6  1  0.661783  0.323784  0.936233  1
  Ho  Ho7  1  0.833302  0.823503  0.566024  1
  Ho  Ho8  1  0.338240  0.673824  0.061047  1
  Ho  Ho9  1  0.162956  0.178327  0.438999  1
  Ho  Ho10  1  0.338240  0.673824  0.438953  1
  Ho  Ho11  1  0.661783  0.323784  0.563767  1
  Tc  Tc12  1  0.456908  0.384348  0.250000  1
  Tc  Tc13  1  0.539807  0.615550  0.750000  1
  Tc  Tc14  1  0.962906  0.113213  0.750000  1
  Rh  Rh15  1  0.046906  0.885097  0.250000  1
