# generated using pymatgen
data_TbPuTl(Si3Pd10)2
_symmetry_space_group_name_H-M   'P 1'
_cell_length_a   8.72727041
_cell_length_b   8.72727130
_cell_length_c   8.72727200
_cell_angle_alpha   60.00000491
_cell_angle_beta   60.00000156
_cell_angle_gamma   60.00001096
_symmetry_Int_Tables_number   1
_chemical_formula_structural   TbPuTl(Si3Pd10)2
_chemical_formula_sum   'Tb1 Pu1 Tl1 Si6 Pd20'
_cell_volume   470.02448287
_cell_formula_units_Z   1
loop_
 _symmetry_equiv_pos_site_id
 _symmetry_equiv_pos_as_xyz
  1  'x, y, z'
loop_
 _atom_site_type_symbol
 _atom_site_label
 _atom_site_symmetry_multiplicity
 _atom_site_fract_x
 _atom_site_fract_y
 _atom_site_fract_z
 _atom_site_occupancy
  Tb  Tb0  1  0.750000  0.750000  0.750000  1
  Pu  Pu1  1  0.000000  0.000000  0.000000  1
  Tl  Tl2  1  0.250000  0.250000  0.250000  1
  Si  Si3  1  0.729161  0.270839  0.270839  1
  Si  Si4  1  0.270839  0.729161  0.729161  1
  Si  Si5  1  0.270839  0.729161  0.270839  1
  Si  Si6  1  0.729161  0.270839  0.729161  1
  Si  Si7  1  0.270839  0.270839  0.729161  1
  Si  Si8  1  0.729161  0.729161  0.270839  1
  Pd  Pd9  1  0.346917  0.996946  0.996946  1
  Pd  Pd10  1  0.659190  0.996946  0.996946  1
  Pd  Pd11  1  0.996946  0.346917  0.659190  1
  Pd  Pd12  1  0.996946  0.659190  0.346917  1
  Pd  Pd13  1  0.996946  0.346917  0.996946  1
  Pd  Pd14  1  0.659190  0.996946  0.346917  1
  Pd  Pd15  1  0.996946  0.659190  0.996946  1
  Pd  Pd16  1  0.346917  0.996946  0.659190  1
  Pd  Pd17  1  0.996946  0.996946  0.346917  1
  Pd  Pd18  1  0.996946  0.996946  0.659190  1
  Pd  Pd19  1  0.659190  0.346917  0.996946  1
  Pd  Pd20  1  0.346917  0.659190  0.996946  1
  Pd  Pd21  1  0.380476  0.380476  0.380476  1
  Pd  Pd22  1  0.614963  0.614963  0.614963  1
  Pd  Pd23  1  0.380476  0.380476  0.858572  1
  Pd  Pd24  1  0.380476  0.858572  0.380476  1
  Pd  Pd25  1  0.614963  0.614963  0.155112  1
  Pd  Pd26  1  0.614963  0.155112  0.614963  1
  Pd  Pd27  1  0.858572  0.380476  0.380476  1
  Pd  Pd28  1  0.155112  0.614963  0.614963  1
