# generated using pymatgen
data_MnNb2Ge(BRu2)2
_symmetry_space_group_name_H-M   'P 1'
_cell_length_a   9.19661900
_cell_length_b   9.19661900
_cell_length_c   2.99248200
_cell_angle_alpha   90.00000000
_cell_angle_beta   90.00000000
_cell_angle_gamma   90.00000000
_symmetry_Int_Tables_number   1
_chemical_formula_structural   MnNb2Ge(BRu2)2
_chemical_formula_sum   'Mn2 Nb4 Ge2 B4 Ru8'
_cell_volume   253.09754719
_cell_formula_units_Z   2
loop_
 _symmetry_equiv_pos_site_id
 _symmetry_equiv_pos_as_xyz
  1  'x, y, z'
loop_
 _atom_site_type_symbol
 _atom_site_label
 _atom_site_symmetry_multiplicity
 _atom_site_fract_x
 _atom_site_fract_y
 _atom_site_fract_z
 _atom_site_occupancy
  Mn  Mn0  1  0.500000  0.000000  0.500000  1
  Mn  Mn1  1  0.000000  0.500000  0.500000  1
  Nb  Nb2  1  0.830393  0.669607  0.000000  1
  Nb  Nb3  1  0.169607  0.330393  0.000000  1
  Nb  Nb4  1  0.330393  0.830393  0.000000  1
  Nb  Nb5  1  0.669607  0.169607  0.000000  1
  Ge  Ge6  1  0.500000  0.500000  0.000000  1
  Ge  Ge7  1  0.000000  0.000000  0.000000  1
  B  B8  1  0.616932  0.883068  0.000000  1
  B  B9  1  0.383068  0.116932  0.000000  1
  B  B10  1  0.116932  0.616932  0.000000  1
  B  B11  1  0.883068  0.383068  0.000000  1
  Ru  Ru12  1  0.567870  0.715908  0.500000  1
  Ru  Ru13  1  0.432130  0.284092  0.500000  1
  Ru  Ru14  1  0.067870  0.784092  0.500000  1
  Ru  Ru15  1  0.932130  0.215908  0.500000  1
  Ru  Ru16  1  0.284092  0.567870  0.500000  1
  Ru  Ru17  1  0.715908  0.432130  0.500000  1
  Ru  Ru18  1  0.215908  0.067870  0.500000  1
  Ru  Ru19  1  0.784092  0.932130  0.500000  1
