# generated using pymatgen
data_Nd3Dy5(CdPt)2
_symmetry_space_group_name_H-M   'P 1'
_cell_length_a   9.79568470
_cell_length_b   9.79568459
_cell_length_c   9.79568400
_cell_angle_alpha   60.00000198
_cell_angle_beta   60.00000236
_cell_angle_gamma   59.99999925
_symmetry_Int_Tables_number   1
_chemical_formula_structural   Nd3Dy5(CdPt)2
_chemical_formula_sum   'Nd6 Dy10 Cd4 Pt4'
_cell_volume   664.64443259
_cell_formula_units_Z   2
loop_
 _symmetry_equiv_pos_site_id
 _symmetry_equiv_pos_as_xyz
  1  'x, y, z'
loop_
 _atom_site_type_symbol
 _atom_site_label
 _atom_site_symmetry_multiplicity
 _atom_site_fract_x
 _atom_site_fract_y
 _atom_site_fract_z
 _atom_site_occupancy
  Nd  Nd0  1  0.938480  0.561520  0.561520  1
  Nd  Nd1  1  0.561520  0.938480  0.938480  1
  Nd  Nd2  1  0.561520  0.938480  0.561520  1
  Nd  Nd3  1  0.938480  0.561520  0.938480  1
  Nd  Nd4  1  0.561520  0.561520  0.938480  1
  Nd  Nd5  1  0.938480  0.938480  0.561520  1
  Dy  Dy6  1  0.350463  0.350463  0.350463  1
  Dy  Dy7  1  0.350463  0.350463  0.948610  1
  Dy  Dy8  1  0.350463  0.948610  0.350463  1
  Dy  Dy9  1  0.948610  0.350463  0.350463  1
  Dy  Dy10  1  0.811062  0.188938  0.188938  1
  Dy  Dy11  1  0.188938  0.811062  0.811062  1
  Dy  Dy12  1  0.188938  0.811062  0.188938  1
  Dy  Dy13  1  0.811062  0.188938  0.811062  1
  Dy  Dy14  1  0.188938  0.188938  0.811062  1
  Dy  Dy15  1  0.811062  0.811062  0.188938  1
  Cd  Cd16  1  0.579847  0.579847  0.579847  1
  Cd  Cd17  1  0.579847  0.579847  0.260460  1
  Cd  Cd18  1  0.579847  0.260460  0.579847  1
  Cd  Cd19  1  0.260460  0.579847  0.579847  1
  Pt  Pt20  1  0.142854  0.142854  0.142854  1
  Pt  Pt21  1  0.142854  0.142854  0.571437  1
  Pt  Pt22  1  0.142854  0.571437  0.142854  1
  Pt  Pt23  1  0.571437  0.142854  0.142854  1
