# generated using pymatgen
data_Ca4ZnSi6Ni
_symmetry_space_group_name_H-M   'P 1'
_cell_length_a   8.22924111
_cell_length_b   8.07120616
_cell_length_c   5.93130523
_cell_angle_alpha   70.09077258
_cell_angle_beta   67.24644319
_cell_angle_gamma   42.66277720
_symmetry_Int_Tables_number   1
_chemical_formula_structural   Ca4ZnSi6Ni
_chemical_formula_sum   'Ca4 Zn1 Si6 Ni1'
_cell_volume   245.20574590
_cell_formula_units_Z   1
loop_
 _symmetry_equiv_pos_site_id
 _symmetry_equiv_pos_as_xyz
  1  'x, y, z'
loop_
 _atom_site_type_symbol
 _atom_site_label
 _atom_site_symmetry_multiplicity
 _atom_site_fract_x
 _atom_site_fract_y
 _atom_site_fract_z
 _atom_site_occupancy
  Ca  Ca0  1  0.747331  0.747331  0.752669  1
  Ca  Ca1  1  0.754531  0.251317  0.748683  1
  Ca  Ca2  1  0.247331  0.247331  0.252669  1
  Ca  Ca3  1  0.251317  0.754531  0.245469  1
  Zn  Zn4  1  0.333620  0.333620  0.666380  1
  Si  Si5  1  0.825767  0.347898  0.174233  1
  Si  Si6  1  0.675266  0.162185  0.324734  1
  Si  Si7  1  0.162185  0.675266  0.837815  1
  Si  Si8  1  0.347898  0.825767  0.652102  1
  Si  Si9  1  0.162377  0.162377  0.837623  1
  Si  Si10  1  0.825819  0.825819  0.174181  1
  Ni  Ni11  1  0.666559  0.666559  0.333441  1
