# generated using pymatgen
data_AcIrI
_symmetry_space_group_name_H-M   'P 1'
_cell_length_a   4.48195200
_cell_length_b   4.48195211
_cell_length_c   12.98177400
_cell_angle_alpha   90.00000000
_cell_angle_beta   90.00000000
_cell_angle_gamma   119.99998439
_symmetry_Int_Tables_number   1
_chemical_formula_structural   AcIrI
_chemical_formula_sum   'Ac2 Ir2 I2'
_cell_volume   225.83911199
_cell_formula_units_Z   2
loop_
 _symmetry_equiv_pos_site_id
 _symmetry_equiv_pos_as_xyz
  1  'x, y, z'
loop_
 _atom_site_type_symbol
 _atom_site_label
 _atom_site_symmetry_multiplicity
 _atom_site_fract_x
 _atom_site_fract_y
 _atom_site_fract_z
 _atom_site_occupancy
  Ac  Ac0  1  0.000000  0.000000  0.152571  1
  Ac  Ac1  1  0.000000  0.000000  0.847429  1
  Ir  Ir2  1  0.333333  0.666667  0.002229  1
  Ir  Ir3  1  0.666667  0.333333  0.997771  1
  I  I4  1  0.333333  0.666667  0.672073  1
  I  I5  1  0.666667  0.333333  0.327927  1
