# generated using pymatgen
data_CsZr4InBr18
_symmetry_space_group_name_H-M   'P 1'
_cell_length_a   7.80242200
_cell_length_b   10.79648103
_cell_length_c   13.24090653
_cell_angle_alpha   63.26962413
_cell_angle_beta   90.00000000
_cell_angle_gamma   90.00000000
_symmetry_Int_Tables_number   1
_chemical_formula_structural   CsZr4InBr18
_chemical_formula_sum   'Cs1 Zr4 In1 Br18'
_cell_volume   996.19771926
_cell_formula_units_Z   1
loop_
 _symmetry_equiv_pos_site_id
 _symmetry_equiv_pos_as_xyz
  1  'x, y, z'
loop_
 _atom_site_type_symbol
 _atom_site_label
 _atom_site_symmetry_multiplicity
 _atom_site_fract_x
 _atom_site_fract_y
 _atom_site_fract_z
 _atom_site_occupancy
  Cs  Cs0  1  0.469843  0.500000  0.250000  1
  Zr  Zr1  1  0.285321  0.817243  0.862467  1
  Zr  Zr2  1  0.718317  0.178352  0.126149  1
  Zr  Zr3  1  0.285321  0.182757  0.637533  1
  Zr  Zr4  1  0.718317  0.821648  0.373851  1
  In  In5  1  0.502093  0.500000  0.750000  1
  Br  Br6  1  0.139605  0.748756  0.051757  1
  Br  Br7  1  0.845632  0.230259  0.935624  1
  Br  Br8  1  0.139605  0.251244  0.448243  1
  Br  Br9  1  0.845632  0.769741  0.564376  1
  Br  Br10  1  0.161978  0.623157  0.821581  1
  Br  Br11  1  0.860800  0.373837  0.153700  1
  Br  Br12  1  0.161978  0.376843  0.678419  1
  Br  Br13  1  0.860800  0.626163  0.346300  1
  Br  Br14  1  0.021211  0.000000  0.750000  1
  Br  Br15  1  0.978686  0.000000  0.250000  1
  Br  Br16  1  0.412950  0.058811  0.856983  1
  Br  Br17  1  0.584131  0.927326  0.153344  1
  Br  Br18  1  0.412950  0.941189  0.643017  1
  Br  Br19  1  0.584131  0.072674  0.346656  1
  Br  Br20  1  0.577445  0.702065  0.931554  1
  Br  Br21  1  0.427904  0.298759  0.051445  1
  Br  Br22  1  0.577445  0.297935  0.568446  1
  Br  Br23  1  0.427904  0.701241  0.448555  1
