# generated using pymatgen
data_EuTh(WN3)2
_symmetry_space_group_name_H-M   'P 1'
_cell_length_a   5.67751797
_cell_length_b   5.67751814
_cell_length_c   5.67751862
_cell_angle_alpha   60.07635014
_cell_angle_beta   60.07636258
_cell_angle_gamma   60.07635960
_symmetry_Int_Tables_number   1
_chemical_formula_structural   EuTh(WN3)2
_chemical_formula_sum   'Eu1 Th1 W2 N6'
_cell_volume   129.63177340
_cell_formula_units_Z   1
loop_
 _symmetry_equiv_pos_site_id
 _symmetry_equiv_pos_as_xyz
  1  'x, y, z'
loop_
 _atom_site_type_symbol
 _atom_site_label
 _atom_site_symmetry_multiplicity
 _atom_site_fract_x
 _atom_site_fract_y
 _atom_site_fract_z
 _atom_site_occupancy
  Eu  Eu0  1  0.757897  0.757897  0.757897  1
  Th  Th1  1  0.263982  0.263982  0.263982  1
  W  W2  1  0.006516  0.006516  0.006516  1
  W  W3  1  0.506621  0.506621  0.506621  1
  N  N4  1  0.297641  0.732461  0.181752  1
  N  N5  1  0.813782  0.664120  0.238651  1
  N  N6  1  0.732460  0.181752  0.297641  1
  N  N7  1  0.238650  0.813783  0.664120  1
  N  N8  1  0.181753  0.297640  0.732460  1
  N  N9  1  0.664120  0.238652  0.813782  1
