# generated using pymatgen
data_MgIn11Co4
_symmetry_space_group_name_H-M   'P 1'
_cell_length_a   6.86213941
_cell_length_b   6.94664351
_cell_length_c   7.04327200
_cell_angle_alpha   90.00000000
_cell_angle_beta   90.00000000
_cell_angle_gamma   90.25411938
_symmetry_Int_Tables_number   1
_chemical_formula_structural   MgIn11Co4
_chemical_formula_sum   'Mg1 In11 Co4'
_cell_volume   335.74127736
_cell_formula_units_Z   1
loop_
 _symmetry_equiv_pos_site_id
 _symmetry_equiv_pos_as_xyz
  1  'x, y, z'
loop_
 _atom_site_type_symbol
 _atom_site_label
 _atom_site_symmetry_multiplicity
 _atom_site_fract_x
 _atom_site_fract_y
 _atom_site_fract_z
 _atom_site_occupancy
  Mg  Mg0  1  0.500000  0.000000  0.000000  1
  In  In1  1  0.348563  0.661051  0.238354  1
  In  In2  1  0.651437  0.338949  0.238354  1
  In  In3  1  0.157951  0.152207  0.746370  1
  In  In4  1  0.842049  0.847793  0.746370  1
  In  In5  1  0.651437  0.338949  0.761646  1
  In  In6  1  0.348563  0.661051  0.761646  1
  In  In7  1  0.842049  0.847793  0.253630  1
  In  In8  1  0.157951  0.152207  0.253630  1
  In  In9  1  0.000000  0.500000  0.500000  1
  In  In10  1  0.000000  0.500000  0.000000  1
  In  In11  1  0.500000  0.000000  0.500000  1
  Co  Co12  1  0.150075  0.847361  0.500000  1
  Co  Co13  1  0.849925  0.152639  0.500000  1
  Co  Co14  1  0.348475  0.353567  0.000000  1
  Co  Co15  1  0.651525  0.646433  0.000000  1
