# generated using pymatgen
data_ErHf(Al3Rh)3
_symmetry_space_group_name_H-M   'P 1'
_cell_length_a   7.49504473
_cell_length_b   7.48747826
_cell_length_c   9.32078200
_cell_angle_alpha   90.00000000
_cell_angle_beta   90.00000000
_cell_angle_gamma   119.64784229
_symmetry_Int_Tables_number   1
_chemical_formula_structural   ErHf(Al3Rh)3
_chemical_formula_sum   'Er2 Hf2 Al18 Rh6'
_cell_volume   454.59326856
_cell_formula_units_Z   2
loop_
 _symmetry_equiv_pos_site_id
 _symmetry_equiv_pos_as_xyz
  1  'x, y, z'
loop_
 _atom_site_type_symbol
 _atom_site_label
 _atom_site_symmetry_multiplicity
 _atom_site_fract_x
 _atom_site_fract_y
 _atom_site_fract_z
 _atom_site_occupancy
  Er  Er0  1  0.670928  0.993365  0.750000  1
  Er  Er1  1  0.329072  0.006635  0.250000  1
  Hf  Hf2  1  0.994994  0.672015  0.750000  1
  Hf  Hf3  1  0.005006  0.327985  0.250000  1
  Al  Al4  1  0.125569  0.123675  0.750000  1
  Al  Al5  1  0.874431  0.876325  0.250000  1
  Al  Al6  1  0.999004  0.337365  0.576046  1
  Al  Al7  1  0.000996  0.662635  0.423954  1
  Al  Al8  1  0.000996  0.662635  0.076046  1
  Al  Al9  1  0.332440  0.997785  0.920589  1
  Al  Al10  1  0.999004  0.337365  0.923954  1
  Al  Al11  1  0.667560  0.002215  0.079411  1
  Al  Al12  1  0.667560  0.002215  0.420589  1
  Al  Al13  1  0.332440  0.997785  0.579411  1
  Al  Al14  1  0.330785  0.333344  0.056288  1
  Al  Al15  1  0.669215  0.666656  0.943712  1
  Al  Al16  1  0.669215  0.666656  0.556288  1
  Al  Al17  1  0.330785  0.333344  0.443712  1
  Al  Al18  1  0.334580  0.548941  0.750000  1
  Al  Al19  1  0.665420  0.451059  0.250000  1
  Al  Al20  1  0.556500  0.343901  0.750000  1
  Al  Al21  1  0.443500  0.656099  0.250000  1
  Rh  Rh22  1  0.672510  0.327488  0.499548  1
  Rh  Rh23  1  0.327490  0.672512  0.500452  1
  Rh  Rh24  1  0.327490  0.672512  0.999548  1
  Rh  Rh25  1  0.672510  0.327488  0.000452  1
  Rh  Rh26  1  0.000000  0.000000  0.500000  1
  Rh  Rh27  1  0.000000  0.000000  0.000000  1
