# generated using pymatgen
data_Tb5Tm(SnRh)6
_symmetry_space_group_name_H-M   'P 1'
_cell_length_a   7.50392368
_cell_length_b   7.49293303
_cell_length_c   7.90344700
_cell_angle_alpha   90.00000000
_cell_angle_beta   90.00000000
_cell_angle_gamma   120.04196149
_symmetry_Int_Tables_number   1
_chemical_formula_structural   Tb5Tm(SnRh)6
_chemical_formula_sum   'Tb5 Tm1 Sn6 Rh6'
_cell_volume   384.68357821
_cell_formula_units_Z   1
loop_
 _symmetry_equiv_pos_site_id
 _symmetry_equiv_pos_as_xyz
  1  'x, y, z'
loop_
 _atom_site_type_symbol
 _atom_site_label
 _atom_site_symmetry_multiplicity
 _atom_site_fract_x
 _atom_site_fract_y
 _atom_site_fract_z
 _atom_site_occupancy
  Tb  Tb0  1  0.591295  0.999692  0.750000  1
  Tb  Tb1  1  0.407589  0.407765  0.750000  1
  Tb  Tb2  1  0.000314  0.592405  0.750000  1
  Tb  Tb3  1  0.407501  0.407554  0.250000  1
  Tb  Tb4  1  0.999863  0.592279  0.250000  1
  Tm  Tm5  1  0.594468  0.999920  0.250000  1
  Sn  Sn6  1  0.258629  0.000134  0.002036  1
  Sn  Sn7  1  0.741876  0.742325  0.499662  1
  Sn  Sn8  1  0.999246  0.257575  0.499621  1
  Sn  Sn9  1  0.999246  0.257575  0.000379  1
  Sn  Sn10  1  0.741876  0.742325  0.000338  1
  Sn  Sn11  1  0.258629  0.000134  0.497964  1
  Rh  Rh12  1  0.666150  0.331421  0.002785  1
  Rh  Rh13  1  0.666150  0.331421  0.497215  1
  Rh  Rh14  1  0.334628  0.668637  0.003278  1
  Rh  Rh15  1  0.334628  0.668637  0.496722  1
  Rh  Rh16  1  0.000242  0.000065  0.750000  1
  Rh  Rh17  1  0.997669  0.000142  0.250000  1
