# generated using pymatgen
data_Dy20SnBi7Pt4
_symmetry_space_group_name_H-M   'P 1'
_cell_length_a   8.07299946
_cell_length_b   9.04872244
_cell_length_c   12.41986924
_cell_angle_alpha   90.01195156
_cell_angle_beta   90.01917750
_cell_angle_gamma   90.03355006
_symmetry_Int_Tables_number   1
_chemical_formula_structural   Dy20SnBi7Pt4
_chemical_formula_sum   'Dy20 Sn1 Bi7 Pt4'
_cell_volume   907.27533716
_cell_formula_units_Z   1
loop_
 _symmetry_equiv_pos_site_id
 _symmetry_equiv_pos_as_xyz
  1  'x, y, z'
loop_
 _atom_site_type_symbol
 _atom_site_label
 _atom_site_symmetry_multiplicity
 _atom_site_fract_x
 _atom_site_fract_y
 _atom_site_fract_z
 _atom_site_occupancy
  Dy  Dy0  1  0.834338  0.746579  0.790047  1
  Dy  Dy1  1  0.162788  0.249807  0.209513  1
  Dy  Dy2  1  0.340118  0.253397  0.711525  1
  Dy  Dy3  1  0.662166  0.750079  0.289862  1
  Dy  Dy4  1  0.375047  0.746642  0.698990  1
  Dy  Dy5  1  0.627923  0.250082  0.302734  1
  Dy  Dy6  1  0.868004  0.253162  0.802808  1
  Dy  Dy7  1  0.128420  0.749967  0.197367  1
  Dy  Dy8  1  0.950580  0.750047  0.500065  1
  Dy  Dy9  1  0.050399  0.250009  0.500127  1
  Dy  Dy10  1  0.452559  0.253589  0.997770  1
  Dy  Dy11  1  0.549745  0.746188  0.997975  1
  Dy  Dy12  1  0.679853  0.045229  0.566702  1
  Dy  Dy13  1  0.320480  0.954270  0.433258  1
  Dy  Dy14  1  0.179180  0.954643  0.933190  1
  Dy  Dy15  1  0.320543  0.545520  0.432983  1
  Dy  Dy16  1  0.820258  0.044889  0.066906  1
  Dy  Dy17  1  0.677601  0.455277  0.570235  1
  Dy  Dy18  1  0.819151  0.455163  0.064538  1
  Dy  Dy19  1  0.183038  0.544343  0.932441  1
  Sn  Sn20  1  0.568012  0.491684  0.828043  1
  Bi  Bi21  1  0.430799  0.509218  0.173505  1
  Bi  Bi22  1  0.068801  0.509254  0.672419  1
  Bi  Bi23  1  0.431378  0.990927  0.172213  1
  Bi  Bi24  1  0.931232  0.490663  0.327167  1
  Bi  Bi25  1  0.568679  0.008875  0.827345  1
  Bi  Bi26  1  0.931056  0.009297  0.327277  1
  Bi  Bi27  1  0.068920  0.990977  0.673085  1
  Pt  Pt28  1  0.574920  0.750115  0.511050  1
  Pt  Pt29  1  0.424813  0.249765  0.488679  1
  Pt  Pt30  1  0.073921  0.250098  0.988561  1
  Pt  Pt31  1  0.925279  0.750245  0.011622  1
