# generated using pymatgen
data_Tm12ZnInGa4
_symmetry_space_group_name_H-M   'P 1'
_cell_length_a   8.47832630
_cell_length_b   8.47832662
_cell_length_c   8.47832595
_cell_angle_alpha   111.92864765
_cell_angle_beta   112.51937203
_cell_angle_gamma   104.09630520
_symmetry_Int_Tables_number   1
_chemical_formula_structural   Tm12ZnInGa4
_chemical_formula_sum   'Tm12 Zn1 In1 Ga4'
_cell_volume   466.07536191
_cell_formula_units_Z   1
loop_
 _symmetry_equiv_pos_site_id
 _symmetry_equiv_pos_as_xyz
  1  'x, y, z'
loop_
 _atom_site_type_symbol
 _atom_site_label
 _atom_site_symmetry_multiplicity
 _atom_site_fract_x
 _atom_site_fract_y
 _atom_site_fract_z
 _atom_site_occupancy
  Tm  Tm0  1  0.433001  0.235735  0.197266  1
  Tm  Tm1  1  0.566999  0.764265  0.802734  1
  Tm  Tm2  1  0.038468  0.235735  0.802734  1
  Tm  Tm3  1  0.961532  0.764265  0.197266  1
  Tm  Tm4  1  0.180858  0.273780  0.454637  1
  Tm  Tm5  1  0.819142  0.726220  0.545363  1
  Tm  Tm6  1  0.180858  0.726220  0.907078  1
  Tm  Tm7  1  0.819142  0.273780  0.092922  1
  Tm  Tm8  1  0.319218  0.615208  0.295989  1
  Tm  Tm9  1  0.680782  0.384792  0.704011  1
  Tm  Tm10  1  0.319218  0.023229  0.704011  1
  Tm  Tm11  1  0.680782  0.976771  0.295989  1
  Zn  Zn12  1  0.000000  0.000000  0.000000  1
  In  In13  1  0.500000  0.500000  0.000000  1
  Ga  Ga14  1  0.353069  0.000000  0.353069  1
  Ga  Ga15  1  0.646931  0.000000  0.646931  1
  Ga  Ga16  1  0.121721  0.621721  0.500000  1
  Ga  Ga17  1  0.878279  0.378279  0.500000  1
