# generated using pymatgen
data_Yb3Sm3Tm4(Ni2Sn5)4
_symmetry_space_group_name_H-M   'P 1'
_cell_length_a   13.84224000
_cell_length_b   13.84224000
_cell_length_c   4.44944900
_cell_angle_alpha   90.00000000
_cell_angle_beta   90.00000000
_cell_angle_gamma   90.00004139
_symmetry_Int_Tables_number   1
_chemical_formula_structural   Yb3Sm3Tm4(Ni2Sn5)4
_chemical_formula_sum   'Yb3 Sm3 Tm4 Ni8 Sn20'
_cell_volume   852.54828078
_cell_formula_units_Z   1
loop_
 _symmetry_equiv_pos_site_id
 _symmetry_equiv_pos_as_xyz
  1  'x, y, z'
loop_
 _atom_site_type_symbol
 _atom_site_label
 _atom_site_symmetry_multiplicity
 _atom_site_fract_x
 _atom_site_fract_y
 _atom_site_fract_z
 _atom_site_occupancy
  Yb  Yb0  1  0.999874  0.999934  0.000000  1
  Yb  Yb1  1  0.499934  0.499874  0.000000  1
  Yb  Yb2  1  0.607677  0.107677  0.500000  1
  Sm  Sm3  1  0.892392  0.607770  0.500000  1
  Sm  Sm4  1  0.107770  0.392392  0.500000  1
  Sm  Sm5  1  0.392757  0.892757  0.500000  1
  Tm  Tm6  1  0.179598  0.679598  0.500000  1
  Tm  Tm7  1  0.820437  0.320437  0.500000  1
  Tm  Tm8  1  0.679482  0.820727  0.500000  1
  Tm  Tm9  1  0.320727  0.179482  0.500000  1
  Ni  Ni10  1  0.253563  0.535879  0.000000  1
  Ni  Ni11  1  0.746418  0.464321  0.000000  1
  Ni  Ni12  1  0.753928  0.963940  0.000000  1
  Ni  Ni13  1  0.246182  0.035965  0.000000  1
  Ni  Ni14  1  0.463940  0.253928  0.000000  1
  Ni  Ni15  1  0.535965  0.746182  0.000000  1
  Ni  Ni16  1  0.035879  0.753563  0.000000  1
  Ni  Ni17  1  0.964321  0.246418  0.000000  1
  Sn  Sn18  1  0.351672  0.700769  0.000000  1
  Sn  Sn19  1  0.648122  0.299735  0.000000  1
  Sn  Sn20  1  0.852068  0.799511  0.000000  1
  Sn  Sn21  1  0.148073  0.200793  0.000000  1
  Sn  Sn22  1  0.299511  0.352068  0.000000  1
  Sn  Sn23  1  0.700793  0.648073  0.000000  1
  Sn  Sn24  1  0.200769  0.851672  0.000000  1
  Sn  Sn25  1  0.799735  0.148122  0.000000  1
  Sn  Sn26  1  0.337338  0.512490  0.500000  1
  Sn  Sn27  1  0.662431  0.487136  0.500000  1
  Sn  Sn28  1  0.837209  0.987256  0.500000  1
  Sn  Sn29  1  0.162648  0.012621  0.500000  1
  Sn  Sn30  1  0.487256  0.337209  0.500000  1
  Sn  Sn31  1  0.512621  0.662648  0.500000  1
  Sn  Sn32  1  0.012490  0.837338  0.500000  1
  Sn  Sn33  1  0.987136  0.162431  0.500000  1
  Sn  Sn34  1  0.071525  0.571525  0.000000  1
  Sn  Sn35  1  0.928639  0.428639  0.000000  1
  Sn  Sn36  1  0.571067  0.928053  0.000000  1
  Sn  Sn37  1  0.428053  0.071067  0.000000  1
