# generated using pymatgen
data_La5SmCd23As
_symmetry_space_group_name_H-M   'P 1'
_cell_length_a   10.16132057
_cell_length_b   10.16131993
_cell_length_c   10.14642200
_cell_angle_alpha   60.04848771
_cell_angle_beta   60.04848979
_cell_angle_gamma   59.90301984
_symmetry_Int_Tables_number   1
_chemical_formula_structural   La5SmCd23As
_chemical_formula_sum   'La5 Sm1 Cd23 As1'
_cell_volume   740.79207563
_cell_formula_units_Z   1
loop_
 _symmetry_equiv_pos_site_id
 _symmetry_equiv_pos_as_xyz
  1  'x, y, z'
loop_
 _atom_site_type_symbol
 _atom_site_label
 _atom_site_symmetry_multiplicity
 _atom_site_fract_x
 _atom_site_fract_y
 _atom_site_fract_z
 _atom_site_occupancy
  La  La0  1  0.208521  0.790792  0.209208  1
  La  La1  1  0.790792  0.208521  0.209208  1
  La  La2  1  0.208238  0.208238  0.791762  1
  La  La3  1  0.790792  0.208521  0.791479  1
  La  La4  1  0.208521  0.790792  0.791479  1
  Sm  Sm5  1  0.792869  0.792869  0.207131  1
  Cd  Cd6  1  0.831080  0.831080  0.505473  1
  Cd  Cd7  1  0.830757  0.507016  0.831115  1
  Cd  Cd8  1  0.507016  0.830757  0.831115  1
  Cd  Cd9  1  0.831080  0.831080  0.832369  1
  Cd  Cd10  1  0.168885  0.168885  0.492984  1
  Cd  Cd11  1  0.167631  0.494527  0.168920  1
  Cd  Cd12  1  0.494527  0.167631  0.168920  1
  Cd  Cd13  1  0.168885  0.168885  0.169243  1
  Cd  Cd14  1  0.622249  0.622249  0.136305  1
  Cd  Cd15  1  0.621468  0.135771  0.621380  1
  Cd  Cd16  1  0.135771  0.621468  0.621380  1
  Cd  Cd17  1  0.622249  0.622249  0.619196  1
  Cd  Cd18  1  0.378620  0.378620  0.864229  1
  Cd  Cd19  1  0.380804  0.863695  0.377751  1
  Cd  Cd20  1  0.863695  0.380804  0.377751  1
  Cd  Cd21  1  0.378620  0.378620  0.378532  1
  Cd  Cd22  1  0.999751  0.999751  0.500249  1
  Cd  Cd23  1  0.500399  0.999419  0.499601  1
  Cd  Cd24  1  0.999419  0.500399  0.499601  1
  Cd  Cd25  1  0.499751  0.499751  0.000249  1
  Cd  Cd26  1  0.999419  0.500399  0.000581  1
  Cd  Cd27  1  0.500399  0.999419  0.000581  1
  Cd  Cd28  1  0.499935  0.499935  0.500065  1
  As  As29  1  0.997858  0.997858  0.002142  1
