# generated using pymatgen
data_TbLu2Hf(Al8Pt3)3
_symmetry_space_group_name_H-M   'P 1'
_cell_length_a   7.50843290
_cell_length_b   7.51681074
_cell_length_c   13.07353562
_cell_angle_alpha   84.54744635
_cell_angle_beta   79.02068364
_cell_angle_gamma   59.90006577
_symmetry_Int_Tables_number   1
_chemical_formula_structural   TbLu2Hf(Al8Pt3)3
_chemical_formula_sum   'Tb1 Lu2 Hf1 Al24 Pt9'
_cell_volume   626.67928151
_cell_formula_units_Z   1
loop_
 _symmetry_equiv_pos_site_id
 _symmetry_equiv_pos_as_xyz
  1  'x, y, z'
loop_
 _atom_site_type_symbol
 _atom_site_label
 _atom_site_symmetry_multiplicity
 _atom_site_fract_x
 _atom_site_fract_y
 _atom_site_fract_z
 _atom_site_occupancy
  Tb  Tb0  1  0.606720  0.831784  0.191273  1
  Lu  Lu1  1  0.734226  0.498796  0.806681  1
  Lu  Lu2  1  0.266493  0.500914  0.192820  1
  Hf  Hf3  1  0.393420  0.168556  0.808113  1
  Al  Al4  1  0.681666  0.836173  0.940339  1
  Al  Al5  1  0.316320  0.167282  0.054051  1
  Al  Al6  1  0.146262  0.832738  0.562888  1
  Al  Al7  1  0.852998  0.167099  0.438209  1
  Al  Al8  1  0.479827  0.166808  0.560704  1
  Al  Al9  1  0.519322  0.833830  0.441555  1
  Al  Al10  1  0.217168  0.165983  0.329117  1
  Al  Al11  1  0.779012  0.836437  0.675082  1
  Al  Al12  1  0.435561  0.504482  0.675612  1
  Al  Al13  1  0.562651  0.493277  0.328031  1
  Al  Al14  1  0.110058  0.159867  0.674400  1
  Al  Al15  1  0.891211  0.839568  0.329263  1
  Al  Al16  1  0.355458  0.495931  0.940832  1
  Al  Al17  1  0.646970  0.499952  0.055243  1
  Al  Al18  1  0.019164  0.169179  0.948128  1
  Al  Al19  1  0.985436  0.832035  0.046951  1
  Al  Al20  1  0.186760  0.499303  0.441425  1
  Al  Al21  1  0.813800  0.500233  0.559090  1
  Al  Al22  1  0.733298  0.164971  0.183269  1
  Al  Al23  1  0.266867  0.840689  0.816778  1
  Al  Al24  1  0.065343  0.626298  0.815489  1
  Al  Al25  1  0.940379  0.368022  0.184039  1
  Al  Al26  1  0.849800  0.042857  0.815952  1
  Al  Al27  1  0.144599  0.957693  0.183519  1
  Pt  Pt28  1  0.119596  0.489767  0.640429  1
  Pt  Pt29  1  0.879934  0.508643  0.360996  1
  Pt  Pt30  1  0.657295  0.171927  0.998705  1
  Pt  Pt31  1  0.343902  0.827735  0.999141  1
  Pt  Pt32  1  0.536859  0.167272  0.361540  1
  Pt  Pt33  1  0.463828  0.832675  0.640149  1
  Pt  Pt34  1  0.777046  0.176968  0.638570  1
  Pt  Pt35  1  0.220814  0.824121  0.362948  1
  Pt  Pt36  1  0.999939  0.500131  0.998671  1
