# generated using pymatgen
data_Lu4Th6SiGe5C2
_symmetry_space_group_name_H-M   'P 1'
_cell_length_a   8.75971889
_cell_length_b   8.75986424
_cell_length_c   6.34240001
_cell_angle_alpha   89.99978292
_cell_angle_beta   90.00024610
_cell_angle_gamma   120.04906678
_symmetry_Int_Tables_number   1
_chemical_formula_structural   Lu4Th6SiGe5C2
_chemical_formula_sum   'Lu4 Th6 Si1 Ge5 C2'
_cell_volume   421.26644286
_cell_formula_units_Z   1
loop_
 _symmetry_equiv_pos_site_id
 _symmetry_equiv_pos_as_xyz
  1  'x, y, z'
loop_
 _atom_site_type_symbol
 _atom_site_label
 _atom_site_symmetry_multiplicity
 _atom_site_fract_x
 _atom_site_fract_y
 _atom_site_fract_z
 _atom_site_occupancy
  Lu  Lu0  1  0.665472  0.333731  0.498968  1
  Lu  Lu1  1  0.333752  0.665477  0.498976  1
  Lu  Lu2  1  0.333735  0.665465  0.001026  1
  Lu  Lu3  1  0.665489  0.333742  0.001023  1
  Th  Th4  1  0.766315  0.766331  0.250021  1
  Th  Th5  1  0.233617  0.001860  0.250018  1
  Th  Th6  1  0.001860  0.233616  0.250023  1
  Th  Th7  1  0.233744  0.233763  0.749982  1
  Th  Th8  1  0.767251  0.000221  0.749973  1
  Th  Th9  1  0.000186  0.767278  0.749992  1
  Si  Si10  1  0.402999  0.402985  0.249989  1
  Ge  Ge11  1  0.596492  0.999970  0.249989  1
  Ge  Ge12  1  0.999978  0.596465  0.250007  1
  Ge  Ge13  1  0.596059  0.596043  0.750002  1
  Ge  Ge14  1  0.403755  0.999882  0.750018  1
  Ge  Ge15  1  0.999916  0.403789  0.749997  1
  C  C16  1  0.999690  0.999690  0.500426  1
  C  C17  1  0.999690  0.999690  0.999570  1
