# generated using pymatgen
data_Y3Ho2Lu3(ReB6)4
_symmetry_space_group_name_H-M   'P 1'
_cell_length_a   3.65447100
_cell_length_b   9.12793601
_cell_length_c   11.51388100
_cell_angle_alpha   90.00039870
_cell_angle_beta   90.00000000
_cell_angle_gamma   90.00000000
_symmetry_Int_Tables_number   1
_chemical_formula_structural   Y3Ho2Lu3(ReB6)4
_chemical_formula_sum   'Y3 Ho2 Lu3 Re4 B24'
_cell_volume   384.07747980
_cell_formula_units_Z   1
loop_
 _symmetry_equiv_pos_site_id
 _symmetry_equiv_pos_as_xyz
  1  'x, y, z'
loop_
 _atom_site_type_symbol
 _atom_site_label
 _atom_site_symmetry_multiplicity
 _atom_site_fract_x
 _atom_site_fract_y
 _atom_site_fract_z
 _atom_site_occupancy
  Y  Y0  1  0.000000  0.322901  0.414119  1
  Y  Y1  1  0.000000  0.676845  0.586315  1
  Y  Y2  1  0.000000  0.822774  0.085639  1
  Ho  Ho3  1  0.000000  0.177111  0.913811  1
  Ho  Ho4  1  0.000000  0.943682  0.370602  1
  Lu  Lu5  1  0.000000  0.056857  0.630718  1
  Lu  Lu6  1  0.000000  0.443413  0.129234  1
  Lu  Lu7  1  0.000000  0.556564  0.870204  1
  Re  Re8  1  0.000000  0.638326  0.319504  1
  Re  Re9  1  0.000000  0.360260  0.680946  1
  Re  Re10  1  0.000000  0.140474  0.179003  1
  Re  Re11  1  0.000000  0.860621  0.820164  1
  B  B12  1  0.500000  0.552854  0.432524  1
  B  B13  1  0.500000  0.446028  0.567804  1
  B  B14  1  0.500000  0.054259  0.066674  1
  B  B15  1  0.500000  0.946601  0.932475  1
  B  B16  1  0.500000  0.749282  0.418268  1
  B  B17  1  0.500000  0.249237  0.582227  1
  B  B18  1  0.500000  0.251300  0.080882  1
  B  B19  1  0.500000  0.749063  0.918285  1
  B  B20  1  0.500000  0.791993  0.264964  1
  B  B21  1  0.500000  0.206879  0.735167  1
  B  B22  1  0.500000  0.293664  0.233956  1
  B  B23  1  0.500000  0.706867  0.765646  1
  B  B24  1  0.500000  0.629438  0.184436  1
  B  B25  1  0.500000  0.369895  0.815528  1
  B  B26  1  0.500000  0.131271  0.314351  1
  B  B27  1  0.500000  0.870057  0.685302  1
  B  B28  1  0.500000  0.982734  0.211772  1
  B  B29  1  0.500000  0.018327  0.787646  1
  B  B30  1  0.500000  0.481451  0.286854  1
  B  B31  1  0.500000  0.518043  0.712961  1
  B  B32  1  0.500000  0.597592  0.026945  1
  B  B33  1  0.500000  0.402092  0.972543  1
  B  B34  1  0.500000  0.099478  0.473841  1
  B  B35  1  0.500000  0.901767  0.528697  1
