# generated using pymatgen
data_Ce3Th(CdNi2)2
_symmetry_space_group_name_H-M   'P 1'
_cell_length_a   7.57184955
_cell_length_b   7.57184851
_cell_length_c   3.64849500
_cell_angle_alpha   90.00000000
_cell_angle_beta   90.00000000
_cell_angle_gamma   90.34882450
_symmetry_Int_Tables_number   1
_chemical_formula_structural   Ce3Th(CdNi2)2
_chemical_formula_sum   'Ce3 Th1 Cd2 Ni4'
_cell_volume   209.17491397
_cell_formula_units_Z   1
loop_
 _symmetry_equiv_pos_site_id
 _symmetry_equiv_pos_as_xyz
  1  'x, y, z'
loop_
 _atom_site_type_symbol
 _atom_site_label
 _atom_site_symmetry_multiplicity
 _atom_site_fract_x
 _atom_site_fract_y
 _atom_site_fract_z
 _atom_site_occupancy
  Ce  Ce0  1  0.170907  0.329586  0.500000  1
  Ce  Ce1  1  0.829586  0.670907  0.500000  1
  Ce  Ce2  1  0.328425  0.828425  0.500000  1
  Th  Th3  1  0.670768  0.170768  0.500000  1
  Cd  Cd4  1  0.003939  0.997601  0.000000  1
  Cd  Cd5  1  0.497601  0.503939  0.000000  1
  Ni  Ni6  1  0.876659  0.376659  0.000000  1
  Ni  Ni7  1  0.624310  0.873379  0.000000  1
  Ni  Ni8  1  0.124427  0.624427  0.000000  1
  Ni  Ni9  1  0.373379  0.124310  0.000000  1
