# generated using pymatgen
data_YPaTeN2
_symmetry_space_group_name_H-M   'P 1'
_cell_length_a   6.89271197
_cell_length_b   6.89271133
_cell_length_c   6.89271200
_cell_angle_alpha   146.98393015
_cell_angle_beta   146.98392199
_cell_angle_gamma   47.38758652
_symmetry_Int_Tables_number   1
_chemical_formula_structural   YPaTeN2
_chemical_formula_sum   'Y1 Pa1 Te1 N2'
_cell_volume   96.84591120
_cell_formula_units_Z   1
loop_
 _symmetry_equiv_pos_site_id
 _symmetry_equiv_pos_as_xyz
  1  'x, y, z'
loop_
 _atom_site_type_symbol
 _atom_site_label
 _atom_site_symmetry_multiplicity
 _atom_site_fract_x
 _atom_site_fract_y
 _atom_site_fract_z
 _atom_site_occupancy
  Y  Y0  1  0.340055  0.340055  0.000000  1
  Pa  Pa1  1  0.667595  0.667595  0.000000  1
  Te  Te2  1  0.003424  0.003424  0.000000  1
  N  N3  1  0.744463  0.244463  0.500000  1
  N  N4  1  0.244463  0.744463  0.500000  1
