# generated using pymatgen
data_Th3PaS8
_symmetry_space_group_name_H-M   'P 1'
_cell_length_a   15.55847804
_cell_length_b   15.55847828
_cell_length_c   15.55847700
_cell_angle_alpha   17.37074627
_cell_angle_beta   17.37074340
_cell_angle_gamma   17.37074785
_symmetry_Int_Tables_number   1
_chemical_formula_structural   Th3PaS8
_chemical_formula_sum   'Th3 Pa1 S8'
_cell_volume   292.94746549
_cell_formula_units_Z   1
loop_
 _symmetry_equiv_pos_site_id
 _symmetry_equiv_pos_as_xyz
  1  'x, y, z'
loop_
 _atom_site_type_symbol
 _atom_site_label
 _atom_site_symmetry_multiplicity
 _atom_site_fract_x
 _atom_site_fract_y
 _atom_site_fract_z
 _atom_site_occupancy
  Th  Th0  1  0.251072  0.251072  0.251072  1
  Th  Th1  1  0.500000  0.500000  0.500000  1
  Th  Th2  1  0.748928  0.748928  0.748928  1
  Pa  Pa3  1  0.000000  0.000000  0.000000  1
  S  S4  1  0.812030  0.812030  0.812030  1
  S  S5  1  0.061243  0.061243  0.061243  1
  S  S6  1  0.313595  0.313595  0.313595  1
  S  S7  1  0.563129  0.563129  0.563129  1
  S  S8  1  0.436871  0.436871  0.436871  1
  S  S9  1  0.686405  0.686405  0.686405  1
  S  S10  1  0.938757  0.938757  0.938757  1
  S  S11  1  0.187970  0.187970  0.187970  1
