# generated using pymatgen
data_Dy5Tm3(CoAg)2
_symmetry_space_group_name_H-M   'P 1'
_cell_length_a   9.39632239
_cell_length_b   9.39632231
_cell_length_c   9.39632300
_cell_angle_alpha   60.00000110
_cell_angle_beta   60.00000136
_cell_angle_gamma   59.99999862
_symmetry_Int_Tables_number   1
_chemical_formula_structural   Dy5Tm3(CoAg)2
_chemical_formula_sum   'Dy10 Tm6 Co4 Ag4'
_cell_volume   586.62255555
_cell_formula_units_Z   2
loop_
 _symmetry_equiv_pos_site_id
 _symmetry_equiv_pos_as_xyz
  1  'x, y, z'
loop_
 _atom_site_type_symbol
 _atom_site_label
 _atom_site_symmetry_multiplicity
 _atom_site_fract_x
 _atom_site_fract_y
 _atom_site_fract_z
 _atom_site_occupancy
  Dy  Dy0  1  0.938066  0.561933  0.561934  1
  Dy  Dy1  1  0.561933  0.938066  0.938067  1
  Dy  Dy2  1  0.561934  0.938066  0.561934  1
  Dy  Dy3  1  0.938066  0.561933  0.938067  1
  Dy  Dy4  1  0.561934  0.561933  0.938067  1
  Dy  Dy5  1  0.938066  0.938066  0.561934  1
  Dy  Dy6  1  0.349007  0.349007  0.349007  1
  Dy  Dy7  1  0.349007  0.349007  0.952979  1
  Dy  Dy8  1  0.349007  0.952979  0.349007  1
  Dy  Dy9  1  0.952979  0.349007  0.349007  1
  Tm  Tm10  1  0.813738  0.186262  0.186262  1
  Tm  Tm11  1  0.186262  0.813738  0.813738  1
  Tm  Tm12  1  0.186262  0.813738  0.186262  1
  Tm  Tm13  1  0.813738  0.186262  0.813738  1
  Tm  Tm14  1  0.186262  0.186262  0.813738  1
  Tm  Tm15  1  0.813738  0.813738  0.186262  1
  Co  Co16  1  0.140937  0.140937  0.140937  1
  Co  Co17  1  0.140937  0.140937  0.577191  1
  Co  Co18  1  0.140937  0.577191  0.140937  1
  Co  Co19  1  0.577191  0.140937  0.140937  1
  Ag  Ag20  1  0.581204  0.581204  0.581204  1
  Ag  Ag21  1  0.581204  0.581204  0.256389  1
  Ag  Ag22  1  0.581204  0.256389  0.581204  1
  Ag  Ag23  1  0.256389  0.581204  0.581204  1
