# generated using pymatgen
data_PrDyV2(WO6)2
_symmetry_space_group_name_H-M   'P 1'
_cell_length_a   5.32720442
_cell_length_b   7.51556866
_cell_length_c   11.21354300
_cell_angle_alpha   90.00026224
_cell_angle_beta   89.99963337
_cell_angle_gamma   89.87127260
_symmetry_Int_Tables_number   1
_chemical_formula_structural   PrDyV2(WO6)2
_chemical_formula_sum   'Pr2 Dy2 V4 W4 O24'
_cell_volume   448.95515813
_cell_formula_units_Z   2
loop_
 _symmetry_equiv_pos_site_id
 _symmetry_equiv_pos_as_xyz
  1  'x, y, z'
loop_
 _atom_site_type_symbol
 _atom_site_label
 _atom_site_symmetry_multiplicity
 _atom_site_fract_x
 _atom_site_fract_y
 _atom_site_fract_z
 _atom_site_occupancy
  Pr  Pr0  1  0.459967  0.251141  0.544067  1
  Pr  Pr1  1  0.959968  0.751140  0.955932  1
  Dy  Dy2  1  0.048994  0.251400  0.046826  1
  Dy  Dy3  1  0.548998  0.751402  0.453174  1
  V  V4  1  0.550672  0.999112  0.135404  1
  V  V5  1  0.050658  0.499115  0.364585  1
  V  V6  1  0.951208  0.996768  0.632769  1
  V  V7  1  0.451200  0.496769  0.867232  1
  W  W8  1  0.555623  0.502152  0.145458  1
  W  W9  1  0.055615  0.002156  0.354541  1
  W  W10  1  0.946343  0.508921  0.642246  1
  W  W11  1  0.446349  0.008918  0.857755  1
  O  O12  1  0.261310  0.971254  0.021612  1
  O  O13  1  0.267067  0.535970  0.031794  1
  O  O14  1  0.659465  0.746818  0.119461  1
  O  O15  1  0.434993  0.257106  0.146911  1
  O  O16  1  0.872836  0.433555  0.206048  1
  O  O17  1  0.891432  0.063659  0.211621  1
  O  O18  1  0.391466  0.563664  0.288382  1
  O  O19  1  0.372815  0.933552  0.293952  1
  O  O20  1  0.934985  0.757107  0.353087  1
  O  O21  1  0.159464  0.246811  0.380533  1
  O  O22  1  0.767064  0.035967  0.468205  1
  O  O23  1  0.761307  0.471254  0.478394  1
  O  O24  1  0.238439  0.955284  0.518068  1
  O  O25  1  0.233335  0.549609  0.527931  1
  O  O26  1  0.823758  0.750887  0.617360  1
  O  O27  1  0.048498  0.259589  0.638872  1
  O  O28  1  0.635445  0.442252  0.709884  1
  O  O29  1  0.620629  0.064730  0.717988  1
  O  O30  1  0.120633  0.564730  0.782011  1
  O  O31  1  0.135444  0.942248  0.790122  1
  O  O32  1  0.548488  0.759582  0.861135  1
  O  O33  1  0.323753  0.250886  0.882648  1
  O  O34  1  0.733344  0.049612  0.972060  1
  O  O35  1  0.738442  0.455283  0.981932  1
