# generated using pymatgen
data_DyTm11Tc3Rh
_symmetry_space_group_name_H-M   'P 1'
_cell_length_a   6.21781218
_cell_length_b   7.32299322
_cell_length_c   9.01998800
_cell_angle_alpha   90.00000000
_cell_angle_beta   90.00000000
_cell_angle_gamma   90.00233162
_symmetry_Int_Tables_number   1
_chemical_formula_structural   DyTm11Tc3Rh
_chemical_formula_sum   'Dy1 Tm11 Tc3 Rh1'
_cell_volume   410.70708119
_cell_formula_units_Z   1
loop_
 _symmetry_equiv_pos_site_id
 _symmetry_equiv_pos_as_xyz
  1  'x, y, z'
loop_
 _atom_site_type_symbol
 _atom_site_label
 _atom_site_symmetry_multiplicity
 _atom_site_fract_x
 _atom_site_fract_y
 _atom_site_fract_z
 _atom_site_occupancy
  Dy  Dy0  1  0.623946  0.038249  0.250000  1
  Tm  Tm1  1  0.332300  0.676949  0.064410  1
  Tm  Tm2  1  0.161299  0.176465  0.438187  1
  Tm  Tm3  1  0.663152  0.321727  0.561522  1
  Tm  Tm4  1  0.837875  0.825402  0.938526  1
  Tm  Tm5  1  0.663152  0.321727  0.938478  1
  Tm  Tm6  1  0.837875  0.825402  0.561474  1
  Tm  Tm7  1  0.332300  0.676949  0.435590  1
  Tm  Tm8  1  0.161299  0.176465  0.061813  1
  Tm  Tm9  1  0.873628  0.540280  0.250000  1
  Tm  Tm10  1  0.131959  0.457475  0.750000  1
  Tm  Tm11  1  0.372687  0.958733  0.750000  1
  Tc  Tc12  1  0.041713  0.883703  0.250000  1
  Tc  Tc13  1  0.461980  0.387387  0.250000  1
  Tc  Tc14  1  0.960780  0.117077  0.750000  1
  Rh  Rh15  1  0.544057  0.616006  0.750000  1
