# generated using pymatgen
data_UPaSnRh2
_symmetry_space_group_name_H-M   'P 1'
_cell_length_a   7.67476668
_cell_length_b   7.67476668
_cell_length_c   3.59301100
_cell_angle_alpha   90.00000000
_cell_angle_beta   90.00000000
_cell_angle_gamma   90.07587909
_symmetry_Int_Tables_number   1
_chemical_formula_structural   UPaSnRh2
_chemical_formula_sum   'U2 Pa2 Sn2 Rh4'
_cell_volume   211.63550510
_cell_formula_units_Z   2
loop_
 _symmetry_equiv_pos_site_id
 _symmetry_equiv_pos_as_xyz
  1  'x, y, z'
loop_
 _atom_site_type_symbol
 _atom_site_label
 _atom_site_symmetry_multiplicity
 _atom_site_fract_x
 _atom_site_fract_y
 _atom_site_fract_z
 _atom_site_occupancy
  U  U0  1  0.168731  0.668731  0.500000  1
  U  U1  1  0.831269  0.331269  0.500000  1
  Pa  Pa2  1  0.329717  0.170283  0.500000  1
  Pa  Pa3  1  0.670283  0.829717  0.500000  1
  Sn  Sn4  1  0.000000  0.000000  0.000000  1
  Sn  Sn5  1  0.500000  0.500000  0.000000  1
  Rh  Rh6  1  0.634255  0.134255  0.000000  1
  Rh  Rh7  1  0.865428  0.634572  0.000000  1
  Rh  Rh8  1  0.365745  0.865745  0.000000  1
  Rh  Rh9  1  0.134572  0.365428  0.000000  1
