# generated using pymatgen
data_Sr21Ga8Sn7
_symmetry_space_group_name_H-M   'P 1'
_cell_length_a   12.13510953
_cell_length_b   12.13511028
_cell_length_c   12.13511000
_cell_angle_alpha   60.00000077
_cell_angle_beta   59.99999873
_cell_angle_gamma   59.99999805
_symmetry_Int_Tables_number   1
_chemical_formula_structural   Sr21Ga8Sn7
_chemical_formula_sum   'Sr21 Ga8 Sn7'
_cell_volume   1263.61897796
_cell_formula_units_Z   1
loop_
 _symmetry_equiv_pos_site_id
 _symmetry_equiv_pos_as_xyz
  1  'x, y, z'
loop_
 _atom_site_type_symbol
 _atom_site_label
 _atom_site_symmetry_multiplicity
 _atom_site_fract_x
 _atom_site_fract_y
 _atom_site_fract_z
 _atom_site_occupancy
  Sr  Sr0  1  0.868836  0.868836  0.393490  1
  Sr  Sr1  1  0.606510  0.131164  0.131164  1
  Sr  Sr2  1  0.868836  0.393490  0.868836  1
  Sr  Sr3  1  0.131164  0.131164  0.131164  1
  Sr  Sr4  1  0.393490  0.868836  0.868836  1
  Sr  Sr5  1  0.868836  0.868836  0.868836  1
  Sr  Sr6  1  0.177102  0.822898  0.500000  1
  Sr  Sr7  1  0.822898  0.500000  0.500000  1
  Sr  Sr8  1  0.131164  0.131164  0.606510  1
  Sr  Sr9  1  0.822898  0.177102  0.500000  1
  Sr  Sr10  1  0.177102  0.500000  0.500000  1
  Sr  Sr11  1  0.131164  0.606510  0.131164  1
  Sr  Sr12  1  0.500000  0.500000  0.177102  1
  Sr  Sr13  1  0.500000  0.177102  0.822898  1
  Sr  Sr14  1  0.500000  0.822898  0.177102  1
  Sr  Sr15  1  0.500000  0.500000  0.822898  1
  Sr  Sr16  1  0.500000  0.177102  0.500000  1
  Sr  Sr17  1  0.177102  0.500000  0.822898  1
  Sr  Sr18  1  0.000000  0.000000  0.000000  1
  Sr  Sr19  1  0.500000  0.822898  0.500000  1
  Sr  Sr20  1  0.822898  0.500000  0.177102  1
  Ga  Ga21  1  0.693256  0.920234  0.693256  1
  Ga  Ga22  1  0.693256  0.693256  0.920234  1
  Ga  Ga23  1  0.693256  0.693256  0.693256  1
  Ga  Ga24  1  0.306744  0.079766  0.306744  1
  Ga  Ga25  1  0.920234  0.693256  0.693256  1
  Ga  Ga26  1  0.306744  0.306744  0.079766  1
  Ga  Ga27  1  0.079766  0.306744  0.306744  1
  Ga  Ga28  1  0.306744  0.306744  0.306744  1
  Sn  Sn29  1  0.786641  0.213359  0.786641  1
  Sn  Sn30  1  0.786641  0.213359  0.213359  1
  Sn  Sn31  1  0.213359  0.786641  0.213359  1
  Sn  Sn32  1  0.213359  0.786641  0.786641  1
  Sn  Sn33  1  0.786641  0.786641  0.213359  1
  Sn  Sn34  1  0.213359  0.213359  0.786641  1
  Sn  Sn35  1  0.500000  0.500000  0.500000  1
