# generated using pymatgen
data_La2Pr2SiOs3I2
_symmetry_space_group_name_H-M   'P 1'
_cell_length_a   4.28973600
_cell_length_b   4.28973706
_cell_length_c   17.89350100
_cell_angle_alpha   90.00000000
_cell_angle_beta   90.00000000
_cell_angle_gamma   120.00000724
_symmetry_Int_Tables_number   1
_chemical_formula_structural   La2Pr2SiOs3I2
_chemical_formula_sum   'La2 Pr2 Si1 Os3 I2'
_cell_volume   285.15905086
_cell_formula_units_Z   1
loop_
 _symmetry_equiv_pos_site_id
 _symmetry_equiv_pos_as_xyz
  1  'x, y, z'
loop_
 _atom_site_type_symbol
 _atom_site_label
 _atom_site_symmetry_multiplicity
 _atom_site_fract_x
 _atom_site_fract_y
 _atom_site_fract_z
 _atom_site_occupancy
  La  La0  1  0.000000  0.000000  0.605357  1
  La  La1  1  0.000000  0.000000  0.397608  1
  Pr  Pr2  1  0.000000  0.000000  0.109389  1
  Pr  Pr3  1  0.000000  0.000000  0.889451  1
  Si  Si4  1  0.333333  0.666667  0.501835  1
  Os  Os5  1  0.666667  0.333333  0.499009  1
  Os  Os6  1  0.666667  0.333333  0.008834  1
  Os  Os7  1  0.333333  0.666667  0.990195  1
  I  I8  1  0.333333  0.666667  0.250173  1
  I  I9  1  0.666667  0.333333  0.748150  1
