# generated using pymatgen
data_La8DySc3(CuSe5)4
_symmetry_space_group_name_H-M   'P 1'
_cell_length_a   12.11183728
_cell_length_b   4.10430300
_cell_length_c   17.74158077
_cell_angle_alpha   90.00000000
_cell_angle_beta   90.10713585
_cell_angle_gamma   90.00000000
_symmetry_Int_Tables_number   1
_chemical_formula_structural   La8DySc3(CuSe5)4
_chemical_formula_sum   'La8 Dy1 Sc3 Cu4 Se20'
_cell_volume   881.94397195
_cell_formula_units_Z   1
loop_
 _symmetry_equiv_pos_site_id
 _symmetry_equiv_pos_as_xyz
  1  'x, y, z'
loop_
 _atom_site_type_symbol
 _atom_site_label
 _atom_site_symmetry_multiplicity
 _atom_site_fract_x
 _atom_site_fract_y
 _atom_site_fract_z
 _atom_site_occupancy
  La  La0  1  0.358732  0.250000  0.104417  1
  La  La1  1  0.007983  0.250000  0.176722  1
  La  La2  1  0.510023  0.250000  0.324162  1
  La  La3  1  0.860128  0.250000  0.399174  1
  La  La4  1  0.140775  0.749999  0.599765  1
  La  La5  1  0.493175  0.749999  0.674408  1
  La  La6  1  0.989483  0.749999  0.822356  1
  La  La7  1  0.641713  0.749999  0.899718  1
  Dy  Dy8  1  0.303905  0.250000  0.864366  1
  Sc  Sc9  1  0.696897  0.749999  0.136636  1
  Sc  Sc10  1  0.196949  0.749999  0.363868  1
  Sc  Sc11  1  0.804486  0.250000  0.635601  1
  Cu  Cu12  1  0.816074  0.250000  0.022261  1
  Cu  Cu13  1  0.319294  0.250000  0.477667  1
  Cu  Cu14  1  0.682950  0.749999  0.521070  1
  Cu  Cu15  1  0.179535  0.749999  0.979325  1
  Se  Se16  1  0.613746  0.250000  0.037246  1
  Se  Se17  1  0.895948  0.749999  0.074341  1
  Se  Se18  1  0.177759  0.749999  0.115694  1
  Se  Se19  1  0.488287  0.749999  0.196839  1
  Se  Se20  1  0.752213  0.250000  0.227957  1
  Se  Se21  1  0.252310  0.250000  0.272843  1
  Se  Se22  1  0.987592  0.749999  0.304523  1
  Se  Se23  1  0.679612  0.749999  0.385145  1
  Se  Se24  1  0.397274  0.749999  0.425740  1
  Se  Se25  1  0.115058  0.250000  0.462869  1
  Se  Se26  1  0.886838  0.749999  0.535759  1
  Se  Se27  1  0.604369  0.250000  0.572724  1
  Se  Se28  1  0.322695  0.250000  0.613376  1
  Se  Se29  1  0.012131  0.250000  0.694336  1
  Se  Se30  1  0.750043  0.749999  0.726702  1
  Se  Se31  1  0.241391  0.749999  0.766267  1
  Se  Se32  1  0.520245  0.250000  0.801477  1
  Se  Se33  1  0.819750  0.250000  0.885574  1
  Se  Se34  1  0.094243  0.250000  0.929899  1
  Se  Se35  1  0.386396  0.749999  0.969175  1
