# generated using pymatgen
data_Rb3Al2As2P
_symmetry_space_group_name_H-M   'P 1'
_cell_length_a   6.08194300
_cell_length_b   7.86617227
_cell_length_c   10.81464001
_cell_angle_alpha   69.77905757
_cell_angle_beta   90.00000000
_cell_angle_gamma   90.00000000
_symmetry_Int_Tables_number   1
_chemical_formula_structural   Rb3Al2As2P
_chemical_formula_sum   'Rb6 Al4 As4 P2'
_cell_volume   485.50138883
_cell_formula_units_Z   2
loop_
 _symmetry_equiv_pos_site_id
 _symmetry_equiv_pos_as_xyz
  1  'x, y, z'
loop_
 _atom_site_type_symbol
 _atom_site_label
 _atom_site_symmetry_multiplicity
 _atom_site_fract_x
 _atom_site_fract_y
 _atom_site_fract_z
 _atom_site_occupancy
  Rb  Rb0  1  0.250000  0.448127  0.423259  1
  Rb  Rb1  1  0.750000  0.133854  0.920491  1
  Rb  Rb2  1  0.750000  0.472364  0.151541  1
  Rb  Rb3  1  0.250000  0.527636  0.848459  1
  Rb  Rb4  1  0.750000  0.551873  0.576741  1
  Rb  Rb5  1  0.250000  0.866146  0.079509  1
  Al  Al6  1  0.999901  0.024150  0.352137  1
  Al  Al7  1  0.499901  0.975850  0.647863  1
  Al  Al8  1  0.500099  0.024150  0.352137  1
  Al  Al9  1  0.000099  0.975850  0.647863  1
  As  As10  1  0.250000  0.240838  0.190824  1
  As  As11  1  0.750000  0.759162  0.809176  1
  As  As12  1  0.250000  0.150071  0.740396  1
  As  As13  1  0.750000  0.849929  0.259604  1
  P  P14  1  0.250000  0.832569  0.528114  1
  P  P15  1  0.750000  0.167431  0.471886  1
