# generated using pymatgen
data_Y6ScP12Ir17
_symmetry_space_group_name_H-M   'P 1'
_cell_length_a   3.99092000
_cell_length_b   11.23518700
_cell_length_c   12.81792300
_cell_angle_alpha   90.00000000
_cell_angle_beta   90.00000000
_cell_angle_gamma   90.00000000
_symmetry_Int_Tables_number   1
_chemical_formula_structural   Y6ScP12Ir17
_chemical_formula_sum   'Y6 Sc1 P12 Ir17'
_cell_volume   574.73942063
_cell_formula_units_Z   1
loop_
 _symmetry_equiv_pos_site_id
 _symmetry_equiv_pos_as_xyz
  1  'x, y, z'
loop_
 _atom_site_type_symbol
 _atom_site_label
 _atom_site_symmetry_multiplicity
 _atom_site_fract_x
 _atom_site_fract_y
 _atom_site_fract_z
 _atom_site_occupancy
  Y  Y0  1  0.000000  0.500000  0.521479  1
  Y  Y1  1  0.500000  0.000000  0.476938  1
  Y  Y2  1  0.500000  0.816748  0.205294  1
  Y  Y3  1  0.500000  0.183252  0.205294  1
  Y  Y4  1  0.000000  0.682133  0.796834  1
  Y  Y5  1  0.000000  0.317867  0.796834  1
  Sc  Sc6  1  0.500000  0.500000  0.156225  1
  P  P7  1  0.500000  0.500000  0.877055  1
  P  P8  1  0.000000  0.000000  0.122475  1
  P  P9  1  0.500000  0.500000  0.358792  1
  P  P10  1  0.000000  0.000000  0.643368  1
  P  P11  1  0.500000  0.315175  0.619399  1
  P  P12  1  0.500000  0.684825  0.619399  1
  P  P13  1  0.000000  0.186453  0.383593  1
  P  P14  1  0.000000  0.813547  0.383593  1
  P  P15  1  0.500000  0.848595  0.890948  1
  P  P16  1  0.500000  0.151405  0.890948  1
  P  P17  1  0.000000  0.660074  0.107827  1
  P  P18  1  0.000000  0.339926  0.107827  1
  Ir  Ir19  1  0.000000  0.000000  0.822647  1
  Ir  Ir20  1  0.500000  0.500000  0.699847  1
  Ir  Ir21  1  0.000000  0.000000  0.300059  1
  Ir  Ir22  1  0.000000  0.500000  0.988719  1
  Ir  Ir23  1  0.500000  0.000000  0.023759  1
  Ir  Ir24  1  0.500000  0.330466  0.984415  1
  Ir  Ir25  1  0.500000  0.669534  0.984415  1
  Ir  Ir26  1  0.000000  0.164486  0.007445  1
  Ir  Ir27  1  0.000000  0.835514  0.007445  1
  Ir  Ir28  1  0.500000  0.289066  0.434152  1
  Ir  Ir29  1  0.500000  0.710934  0.434152  1
  Ir  Ir30  1  0.000000  0.201645  0.572201  1
  Ir  Ir31  1  0.000000  0.798355  0.572201  1
  Ir  Ir32  1  0.500000  0.871831  0.712810  1
  Ir  Ir33  1  0.500000  0.128169  0.712810  1
  Ir  Ir34  1  0.000000  0.628701  0.289399  1
  Ir  Ir35  1  0.000000  0.371299  0.289399  1
