# generated using pymatgen
data_V5TcOs2
_symmetry_space_group_name_H-M   'P 1'
_cell_length_a   4.26653700
_cell_length_b   4.26306202
_cell_length_c   7.36026436
_cell_angle_alpha   73.12845436
_cell_angle_beta   90.00030399
_cell_angle_gamma   120.02765372
_symmetry_Int_Tables_number   1
_chemical_formula_structural   V5TcOs2
_chemical_formula_sum   'V5 Tc1 Os2'
_cell_volume   109.19838821
_cell_formula_units_Z   1
loop_
 _symmetry_equiv_pos_site_id
 _symmetry_equiv_pos_as_xyz
  1  'x, y, z'
loop_
 _atom_site_type_symbol
 _atom_site_label
 _atom_site_symmetry_multiplicity
 _atom_site_fract_x
 _atom_site_fract_y
 _atom_site_fract_z
 _atom_site_occupancy
  V  V0  1  0.999042  0.998083  0.003481  1
  V  V1  1  0.500764  0.001530  0.498034  1
  V  V2  1  0.249238  0.498471  0.251967  1
  V  V3  1  0.750960  0.501917  0.746520  1
  V  V4  1  0.874999  0.749999  0.374999  1
  Tc  Tc5  1  0.374998  0.749999  0.875000  1
  Os  Os6  1  0.624608  0.249214  0.126277  1
  Os  Os7  1  0.125393  0.250787  0.623723  1
