# generated using pymatgen
data_Tb19HoCoBi8Ru3
_symmetry_space_group_name_H-M   'P 1'
_cell_length_a   8.03916229
_cell_length_b   9.01360516
_cell_length_c   12.51114817
_cell_angle_alpha   89.98487095
_cell_angle_beta   90.26159938
_cell_angle_gamma   89.98484259
_symmetry_Int_Tables_number   1
_chemical_formula_structural   Tb19HoCoBi8Ru3
_chemical_formula_sum   'Tb19 Ho1 Co1 Bi8 Ru3'
_cell_volume   906.57123753
_cell_formula_units_Z   1
loop_
 _symmetry_equiv_pos_site_id
 _symmetry_equiv_pos_as_xyz
  1  'x, y, z'
loop_
 _atom_site_type_symbol
 _atom_site_label
 _atom_site_symmetry_multiplicity
 _atom_site_fract_x
 _atom_site_fract_y
 _atom_site_fract_z
 _atom_site_occupancy
  Tb  Tb0  1  0.845452  0.750079  0.799591  1
  Tb  Tb1  1  0.155568  0.249938  0.205127  1
  Tb  Tb2  1  0.344597  0.249795  0.706105  1
  Tb  Tb3  1  0.654581  0.750077  0.295163  1
  Tb  Tb4  1  0.377660  0.750230  0.694081  1
  Tb  Tb5  1  0.621581  0.249648  0.306726  1
  Tb  Tb6  1  0.877425  0.249927  0.807400  1
  Tb  Tb7  1  0.119953  0.750019  0.189072  1
  Tb  Tb8  1  0.945267  0.750283  0.504773  1
  Tb  Tb9  1  0.053533  0.249803  0.495941  1
  Tb  Tb10  1  0.449075  0.249955  0.996565  1
  Tb  Tb11  1  0.550928  0.749990  0.003514  1
  Tb  Tb12  1  0.323977  0.958430  0.436105  1
  Tb  Tb13  1  0.176839  0.958018  0.935780  1
  Tb  Tb14  1  0.323194  0.541730  0.435831  1
  Tb  Tb15  1  0.824522  0.035945  0.062802  1
  Tb  Tb16  1  0.675981  0.458925  0.564101  1
  Tb  Tb17  1  0.824497  0.464008  0.062751  1
  Tb  Tb18  1  0.176807  0.541974  0.935792  1
  Ho  Ho19  1  0.674782  0.041297  0.564028  1
  Co  Co20  1  0.932281  0.749990  0.009661  1
  Bi  Bi21  1  0.572106  0.492543  0.827620  1
  Bi  Bi22  1  0.428672  0.507763  0.172273  1
  Bi  Bi23  1  0.070473  0.507701  0.673341  1
  Bi  Bi24  1  0.428649  0.992236  0.172262  1
  Bi  Bi25  1  0.928847  0.492846  0.326535  1
  Bi  Bi26  1  0.572244  0.007455  0.827466  1
  Bi  Bi27  1  0.929007  0.007108  0.326542  1
  Bi  Bi28  1  0.069920  0.992340  0.673153  1
  Ru  Ru29  1  0.573188  0.750566  0.511777  1
  Ru  Ru30  1  0.426940  0.249322  0.488844  1
  Ru  Ru31  1  0.071455  0.250062  0.989275  1
