# generated using pymatgen
data_Tb4Al18ZnOs4Rh
_symmetry_space_group_name_H-M   'P 1'
_cell_length_a   7.59050737
_cell_length_b   7.59050651
_cell_length_c   9.55311730
_cell_angle_alpha   90.01361813
_cell_angle_beta   90.01361397
_cell_angle_gamma   119.61374286
_symmetry_Int_Tables_number   1
_chemical_formula_structural   Tb4Al18ZnOs4Rh
_chemical_formula_sum   'Tb4 Al18 Zn1 Os4 Rh1'
_cell_volume   478.51382049
_cell_formula_units_Z   1
loop_
 _symmetry_equiv_pos_site_id
 _symmetry_equiv_pos_as_xyz
  1  'x, y, z'
loop_
 _atom_site_type_symbol
 _atom_site_label
 _atom_site_symmetry_multiplicity
 _atom_site_fract_x
 _atom_site_fract_y
 _atom_site_fract_z
 _atom_site_occupancy
  Tb  Tb0  1  0.997655  0.670707  0.249003  1
  Tb  Tb1  1  0.002345  0.329293  0.750997  1
  Tb  Tb2  1  0.670707  0.997655  0.249003  1
  Tb  Tb3  1  0.329293  0.002345  0.750997  1
  Al  Al4  1  0.131942  0.131942  0.255485  1
  Al  Al5  1  0.868058  0.868058  0.744515  1
  Al  Al6  1  0.003098  0.343568  0.075389  1
  Al  Al7  1  0.996902  0.656432  0.924611  1
  Al  Al8  1  0.998165  0.663340  0.570285  1
  Al  Al9  1  0.336660  0.001835  0.429715  1
  Al  Al10  1  0.001835  0.336660  0.429715  1
  Al  Al11  1  0.663340  0.998165  0.570285  1
  Al  Al12  1  0.656432  0.996902  0.924611  1
  Al  Al13  1  0.343568  0.003098  0.075389  1
  Al  Al14  1  0.336327  0.336327  0.547105  1
  Al  Al15  1  0.663673  0.663673  0.452895  1
  Al  Al16  1  0.657099  0.657099  0.050792  1
  Al  Al17  1  0.342901  0.342901  0.949208  1
  Al  Al18  1  0.336651  0.549010  0.249951  1
  Al  Al19  1  0.663349  0.450990  0.750049  1
  Al  Al20  1  0.549010  0.336651  0.249951  1
  Al  Al21  1  0.450990  0.663349  0.750049  1
  Zn  Zn22  1  0.000000  0.000000  0.000000  1
  Os  Os23  1  0.672314  0.327686  0.000000  1
  Os  Os24  1  0.327686  0.672314  0.000000  1
  Os  Os25  1  0.327896  0.672104  0.500000  1
  Os  Os26  1  0.672104  0.327896  0.500000  1
  Rh  Rh27  1  0.000000  0.000000  0.500000  1
