# generated using pymatgen
data_SrCaLaTaO6
_symmetry_space_group_name_H-M   'P 1'
_cell_length_a   8.34217922
_cell_length_b   8.34218032
_cell_length_c   10.13718915
_cell_angle_alpha   66.56793708
_cell_angle_beta   66.56771530
_cell_angle_gamma   91.96274133
_symmetry_Int_Tables_number   1
_chemical_formula_structural   SrCaLaTaO6
_chemical_formula_sum   'Sr4 Ca4 La4 Ta4 O24'
_cell_volume   578.19145769
_cell_formula_units_Z   4
loop_
 _symmetry_equiv_pos_site_id
 _symmetry_equiv_pos_as_xyz
  1  'x, y, z'
loop_
 _atom_site_type_symbol
 _atom_site_label
 _atom_site_symmetry_multiplicity
 _atom_site_fract_x
 _atom_site_fract_y
 _atom_site_fract_z
 _atom_site_occupancy
  Sr  Sr0  1  0.393089  0.349883  0.247914  1
  Sr  Sr1  1  0.893089  0.849883  0.247913  1
  Sr  Sr2  1  0.099879  0.643088  0.747914  1
  Sr  Sr3  1  0.599878  0.143089  0.747914  1
  Ca  Ca4  1  0.997993  0.504502  0.498456  1
  Ca  Ca5  1  0.254503  0.247993  0.998456  1
  Ca  Ca6  1  0.497996  0.004502  0.498456  1
  Ca  Ca7  1  0.754504  0.747993  0.998455  1
  La  La8  1  0.412900  0.857121  0.243645  1
  La  La9  1  0.912899  0.357123  0.243643  1
  La  La10  1  0.107130  0.162900  0.743640  1
  La  La11  1  0.607129  0.662900  0.743642  1
  Ta  Ta12  1  0.749843  0.252107  0.999200  1
  Ta  Ta13  1  0.249840  0.752108  0.999203  1
  Ta  Ta14  1  0.002109  0.999845  0.499198  1
  Ta  Ta15  1  0.502110  0.499846  0.499197  1
  O  O16  1  0.342882  0.797942  0.769661  1
  O  O17  1  0.842882  0.297942  0.769661  1
  O  O18  1  0.547944  0.592883  0.269662  1
  O  O19  1  0.047941  0.092882  0.269663  1
  O  O20  1  0.759739  0.991939  0.059187  1
  O  O21  1  0.259739  0.491939  0.059186  1
  O  O22  1  0.241940  0.509741  0.559185  1
  O  O23  1  0.741939  0.009739  0.559189  1
  O  O24  1  0.567036  0.753948  0.456761  1
  O  O25  1  0.067035  0.253947  0.456761  1
  O  O26  1  0.003946  0.317035  0.956760  1
  O  O27  1  0.503947  0.817034  0.956760  1
  O  O28  1  0.490657  0.168224  0.055284  1
  O  O29  1  0.990656  0.668225  0.055286  1
  O  O30  1  0.918224  0.740656  0.555287  1
  O  O31  1  0.418225  0.240658  0.555286  1
  O  O32  1  0.256943  0.966923  0.440402  1
  O  O33  1  0.756942  0.466922  0.440402  1
  O  O34  1  0.716920  0.506940  0.940403  1
  O  O35  1  0.216922  0.006941  0.940401  1
  O  O36  1  0.962946  0.923382  0.729491  1
  O  O37  1  0.462944  0.423381  0.729491  1
  O  O38  1  0.173381  0.712947  0.229490  1
  O  O39  1  0.673380  0.212946  0.229490  1
