# generated using pymatgen
data_K2Ag(PO3)4
_symmetry_space_group_name_H-M   'P 1'
_cell_length_a   8.51088403
_cell_length_b   8.51088438
_cell_length_c   8.23666883
_cell_angle_alpha   83.43284606
_cell_angle_beta   83.43284693
_cell_angle_gamma   97.48032835
_symmetry_Int_Tables_number   1
_chemical_formula_structural   K2Ag(PO3)4
_chemical_formula_sum   'K4 Ag2 P8 O24'
_cell_volume   582.58345872
_cell_formula_units_Z   2
loop_
 _symmetry_equiv_pos_site_id
 _symmetry_equiv_pos_as_xyz
  1  'x, y, z'
loop_
 _atom_site_type_symbol
 _atom_site_label
 _atom_site_symmetry_multiplicity
 _atom_site_fract_x
 _atom_site_fract_y
 _atom_site_fract_z
 _atom_site_occupancy
  K  K0  1  0.506081  0.760747  0.415569  1
  K  K1  1  0.760747  0.506081  0.915569  1
  K  K2  1  0.472945  0.197693  0.598996  1
  K  K3  1  0.197693  0.472945  0.098996  1
  Ag  Ag4  1  0.156278  0.842618  0.755874  1
  Ag  Ag5  1  0.842618  0.156278  0.255874  1
  P  P6  1  0.806008  0.958351  0.681350  1
  P  P7  1  0.958351  0.806008  0.181350  1
  P  P8  1  0.510424  0.828830  0.927793  1
  P  P9  1  0.828830  0.510424  0.427793  1
  P  P10  1  0.500293  0.132118  0.081720  1
  P  P11  1  0.132118  0.500293  0.581720  1
  P  P12  1  0.197143  0.037832  0.307865  1
  P  P13  1  0.037832  0.197143  0.807865  1
  O  O14  1  0.489422  0.661257  0.012224  1
  O  O15  1  0.661257  0.489422  0.512224  1
  O  O16  1  0.410943  0.876996  0.794458  1
  O  O17  1  0.876996  0.410943  0.294458  1
  O  O18  1  0.696329  0.876589  0.851163  1
  O  O19  1  0.876589  0.696329  0.351163  1
  O  O20  1  0.495662  0.941561  0.074270  1
  O  O21  1  0.941561  0.495662  0.574270  1
  O  O22  1  0.595743  0.172210  0.220463  1
  O  O23  1  0.172210  0.595743  0.720463  1
  O  O24  1  0.539970  0.230233  0.917017  1
  O  O25  1  0.230233  0.539970  0.417017  1
  O  O26  1  0.315455  0.141422  0.151252  1
  O  O27  1  0.141422  0.315455  0.651252  1
  O  O28  1  0.290699  0.986172  0.442007  1
  O  O29  1  0.986172  0.290699  0.942007  1
  O  O30  1  0.069559  0.141610  0.345097  1
  O  O31  1  0.141610  0.069559  0.845097  1
  O  O32  1  0.128351  0.881278  0.229926  1
  O  O33  1  0.881278  0.128351  0.729926  1
  O  O34  1  0.705789  0.991948  0.547525  1
  O  O35  1  0.991948  0.705789  0.047525  1
  O  O36  1  0.932441  0.851001  0.653429  1
  O  O37  1  0.851001  0.932441  0.153429  1
