# generated using pymatgen
data_AcTiF7
_symmetry_space_group_name_H-M   'P 1'
_cell_length_a   5.83290400
_cell_length_b   9.47569882
_cell_length_c   12.55937700
_cell_angle_alpha   62.41309054
_cell_angle_beta   90.00000000
_cell_angle_gamma   90.00000000
_symmetry_Int_Tables_number   1
_chemical_formula_structural   AcTiF7
_chemical_formula_sum   'Ac4 Ti4 F28'
_cell_volume   615.24703990
_cell_formula_units_Z   4
loop_
 _symmetry_equiv_pos_site_id
 _symmetry_equiv_pos_as_xyz
  1  'x, y, z'
loop_
 _atom_site_type_symbol
 _atom_site_label
 _atom_site_symmetry_multiplicity
 _atom_site_fract_x
 _atom_site_fract_y
 _atom_site_fract_z
 _atom_site_occupancy
  Ac  Ac0  1  0.758289  0.804361  0.266953  1
  Ac  Ac1  1  0.258289  0.195639  0.233047  1
  Ac  Ac2  1  0.241711  0.195639  0.733047  1
  Ac  Ac3  1  0.741711  0.804361  0.766953  1
  Ti  Ti4  1  0.245782  0.726377  0.543041  1
  Ti  Ti5  1  0.745782  0.273623  0.956959  1
  Ti  Ti6  1  0.754218  0.273623  0.456959  1
  Ti  Ti7  1  0.254218  0.726377  0.043041  1
  F  F8  1  0.977480  0.713922  0.461742  1
  F  F9  1  0.477480  0.286078  0.038258  1
  F  F10  1  0.022520  0.286078  0.538258  1
  F  F11  1  0.522520  0.713922  0.961742  1
  F  F12  1  0.064941  0.709489  0.928053  1
  F  F13  1  0.564941  0.290511  0.571947  1
  F  F14  1  0.935059  0.290511  0.071947  1
  F  F15  1  0.435059  0.709489  0.428053  1
  F  F16  1  0.736209  0.498828  0.865967  1
  F  F17  1  0.236209  0.501172  0.634033  1
  F  F18  1  0.263791  0.501172  0.134033  1
  F  F19  1  0.763791  0.498828  0.365967  1
  F  F20  1  0.740371  0.050640  0.045908  1
  F  F21  1  0.240371  0.949360  0.454092  1
  F  F22  1  0.259629  0.949360  0.954092  1
  F  F23  1  0.759629  0.050640  0.545908  1
  F  F24  1  0.058179  0.741509  0.661628  1
  F  F25  1  0.558179  0.258491  0.838372  1
  F  F26  1  0.941821  0.258491  0.338372  1
  F  F27  1  0.441821  0.741509  0.161628  1
  F  F28  1  0.007477  0.269102  0.869680  1
  F  F29  1  0.507477  0.730898  0.630320  1
  F  F30  1  0.992523  0.730898  0.130320  1
  F  F31  1  0.492523  0.269102  0.369680  1
  F  F32  1  0.094979  0.967555  0.228578  1
  F  F33  1  0.594979  0.032445  0.271422  1
  F  F34  1  0.905021  0.032445  0.771422  1
  F  F35  1  0.405021  0.967555  0.728578  1
