# generated using pymatgen
data_Ta12Ga4Cu7NiN4
_symmetry_space_group_name_H-M   'P 1'
_cell_length_a   8.15764369
_cell_length_b   8.15764378
_cell_length_c   8.15764266
_cell_angle_alpha   60.03766860
_cell_angle_beta   60.03767129
_cell_angle_gamma   60.03766671
_symmetry_Int_Tables_number   1
_chemical_formula_structural   Ta12Ga4Cu7NiN4
_chemical_formula_sum   'Ta12 Ga4 Cu7 Ni1 N4'
_cell_volume   384.19332071
_cell_formula_units_Z   1
loop_
 _symmetry_equiv_pos_site_id
 _symmetry_equiv_pos_as_xyz
  1  'x, y, z'
loop_
 _atom_site_type_symbol
 _atom_site_label
 _atom_site_symmetry_multiplicity
 _atom_site_fract_x
 _atom_site_fract_y
 _atom_site_fract_z
 _atom_site_occupancy
  Ta  Ta0  1  0.814426  0.814426  0.186877  1
  Ta  Ta1  1  0.180960  0.180960  0.818312  1
  Ta  Ta2  1  0.814426  0.186877  0.814426  1
  Ta  Ta3  1  0.180960  0.818312  0.180960  1
  Ta  Ta4  1  0.186877  0.814426  0.814426  1
  Ta  Ta5  1  0.818312  0.180960  0.180960  1
  Ta  Ta6  1  0.430840  0.430840  0.070130  1
  Ta  Ta7  1  0.064088  0.064088  0.435395  1
  Ta  Ta8  1  0.430840  0.070130  0.430840  1
  Ta  Ta9  1  0.064088  0.435395  0.064088  1
  Ta  Ta10  1  0.070130  0.430840  0.430840  1
  Ta  Ta11  1  0.435395  0.064088  0.064088  1
  Ga  Ga12  1  0.122260  0.627544  0.627544  1
  Ga  Ga13  1  0.627544  0.122260  0.627544  1
  Ga  Ga14  1  0.627544  0.627544  0.122260  1
  Ga  Ga15  1  0.625101  0.625101  0.625101  1
  Cu  Cu16  1  0.747885  0.417119  0.417119  1
  Cu  Cu17  1  0.417119  0.747885  0.417119  1
  Cu  Cu18  1  0.417119  0.417119  0.747885  1
  Cu  Cu19  1  0.418794  0.418794  0.418794  1
  Cu  Cu20  1  0.504861  0.832202  0.832202  1
  Cu  Cu21  1  0.832202  0.504861  0.832202  1
  Cu  Cu22  1  0.832202  0.832202  0.504861  1
  Ni  Ni23  1  0.837546  0.837546  0.837546  1
  N  N24  1  0.625487  0.123690  0.123690  1
  N  N25  1  0.123690  0.625487  0.123690  1
  N  N26  1  0.123690  0.123690  0.625487  1
  N  N27  1  0.125615  0.125615  0.125615  1
