# generated using pymatgen
data_Ho5ReTcC7
_symmetry_space_group_name_H-M   'P 1'
_cell_length_a   8.28103587
_cell_length_b   8.28103673
_cell_length_c   3.41776900
_cell_angle_alpha   90.00000000
_cell_angle_beta   90.00000000
_cell_angle_gamma   122.37949405
_symmetry_Int_Tables_number   1
_chemical_formula_structural   Ho5ReTcC7
_chemical_formula_sum   'Ho5 Re1 Tc1 C7'
_cell_volume   197.93465458
_cell_formula_units_Z   1
loop_
 _symmetry_equiv_pos_site_id
 _symmetry_equiv_pos_as_xyz
  1  'x, y, z'
loop_
 _atom_site_type_symbol
 _atom_site_label
 _atom_site_symmetry_multiplicity
 _atom_site_fract_x
 _atom_site_fract_y
 _atom_site_fract_z
 _atom_site_occupancy
  Ho  Ho0  1  0.500208  0.499792  0.000000  1
  Ho  Ho1  1  0.076064  0.335191  0.500000  1
  Ho  Ho2  1  0.923247  0.663389  0.500000  1
  Ho  Ho3  1  0.664809  0.923936  0.500000  1
  Ho  Ho4  1  0.336611  0.076753  0.500000  1
  Re  Re5  1  0.285830  0.714170  0.000000  1
  Tc  Tc6  1  0.713805  0.286195  0.000000  1
  C  C7  1  0.625435  0.374565  0.500000  1
  C  C8  1  0.374291  0.625709  0.500000  1
  C  C9  1  0.999711  0.000289  0.000000  1
  C  C10  1  0.169801  0.169850  0.000000  1
  C  C11  1  0.830150  0.830199  0.000000  1
  C  C12  1  0.001486  0.501450  0.000000  1
  C  C13  1  0.498550  0.998514  0.000000  1
