# generated using pymatgen
data_HfTa5Fe2(BRu2)4
_symmetry_space_group_name_H-M   'P 1'
_cell_length_a   9.30316673
_cell_length_b   9.30316658
_cell_length_c   3.05443400
_cell_angle_alpha   90.00000000
_cell_angle_beta   90.00000000
_cell_angle_gamma   90.18522417
_symmetry_Int_Tables_number   1
_chemical_formula_structural   HfTa5Fe2(BRu2)4
_chemical_formula_sum   'Hf1 Ta5 Fe2 B4 Ru8'
_cell_volume   264.35655152
_cell_formula_units_Z   1
loop_
 _symmetry_equiv_pos_site_id
 _symmetry_equiv_pos_as_xyz
  1  'x, y, z'
loop_
 _atom_site_type_symbol
 _atom_site_label
 _atom_site_symmetry_multiplicity
 _atom_site_fract_x
 _atom_site_fract_y
 _atom_site_fract_z
 _atom_site_occupancy
  Hf  Hf0  1  0.826449  0.673551  0.000000  1
  Ta  Ta1  1  0.172627  0.327373  0.000000  1
  Ta  Ta2  1  0.327558  0.828459  0.000000  1
  Ta  Ta3  1  0.671541  0.172442  0.000000  1
  Ta  Ta4  1  0.500618  0.499935  0.000000  1
  Ta  Ta5  1  0.000065  0.999382  0.000000  1
  Fe  Fe6  1  0.498761  0.001239  0.500000  1
  Fe  Fe7  1  0.003410  0.496590  0.500000  1
  B  B8  1  0.611141  0.888859  0.000000  1
  B  B9  1  0.388750  0.111250  0.000000  1
  B  B10  1  0.112451  0.610160  0.000000  1
  B  B11  1  0.889840  0.387549  0.000000  1
  Ru  Ru12  1  0.563490  0.724566  0.500000  1
  Ru  Ru13  1  0.431271  0.277664  0.500000  1
  Ru  Ru14  1  0.071110  0.777655  0.500000  1
  Ru  Ru15  1  0.932407  0.221605  0.500000  1
  Ru  Ru16  1  0.278395  0.567593  0.500000  1
  Ru  Ru17  1  0.722345  0.428890  0.500000  1
  Ru  Ru18  1  0.222336  0.068729  0.500000  1
  Ru  Ru19  1  0.775434  0.936510  0.500000  1
