# generated using pymatgen
data_Y2Er2Hf3GaIr4
_symmetry_space_group_name_H-M   'P 1'
_cell_length_a   4.40236000
_cell_length_b   7.08120981
_cell_length_c   8.25354193
_cell_angle_alpha   93.35983941
_cell_angle_beta   90.00000000
_cell_angle_gamma   90.00000000
_symmetry_Int_Tables_number   1
_chemical_formula_structural   Y2Er2Hf3GaIr4
_chemical_formula_sum   'Y2 Er2 Hf3 Ga1 Ir4'
_cell_volume   256.85395076
_cell_formula_units_Z   1
loop_
 _symmetry_equiv_pos_site_id
 _symmetry_equiv_pos_as_xyz
  1  'x, y, z'
loop_
 _atom_site_type_symbol
 _atom_site_label
 _atom_site_symmetry_multiplicity
 _atom_site_fract_x
 _atom_site_fract_y
 _atom_site_fract_z
 _atom_site_occupancy
  Y  Y0  1  0.250000  0.984328  0.314450  1
  Y  Y1  1  0.250000  0.460178  0.164958  1
  Er  Er2  1  0.750000  0.035432  0.687498  1
  Er  Er3  1  0.750000  0.504207  0.837407  1
  Hf  Hf4  1  0.250000  0.368063  0.572479  1
  Hf  Hf5  1  0.250000  0.859696  0.937466  1
  Hf  Hf6  1  0.750000  0.640863  0.429456  1
  Ga  Ga7  1  0.750000  0.141824  0.071144  1
  Ir  Ir8  1  0.250000  0.226765  0.871615  1
  Ir  Ir9  1  0.250000  0.742241  0.603850  1
  Ir  Ir10  1  0.750000  0.767249  0.112153  1
  Ir  Ir11  1  0.750000  0.269156  0.397525  1
