# generated using pymatgen
data_Ho2Er14In3HgRh4
_symmetry_space_group_name_H-M   'P 1'
_cell_length_a   9.56474779
_cell_length_b   9.55697643
_cell_length_c   9.56854653
_cell_angle_alpha   60.05684237
_cell_angle_beta   60.03522327
_cell_angle_gamma   60.08963648
_symmetry_Int_Tables_number   1
_chemical_formula_structural   Ho2Er14In3HgRh4
_chemical_formula_sum   'Ho2 Er14 In3 Hg1 Rh4'
_cell_volume   619.32777460
_cell_formula_units_Z   1
loop_
 _symmetry_equiv_pos_site_id
 _symmetry_equiv_pos_as_xyz
  1  'x, y, z'
loop_
 _atom_site_type_symbol
 _atom_site_label
 _atom_site_symmetry_multiplicity
 _atom_site_fract_x
 _atom_site_fract_y
 _atom_site_fract_z
 _atom_site_occupancy
  Ho  Ho0  1  0.190478  0.190020  0.811125  1
  Ho  Ho1  1  0.438662  0.058653  0.063653  1
  Er  Er2  1  0.436390  0.059633  0.436299  1
  Er  Er3  1  0.061887  0.437487  0.062270  1
  Er  Er4  1  0.648960  0.050437  0.648351  1
  Er  Er5  1  0.190415  0.809378  0.811357  1
  Er  Er6  1  0.063227  0.058516  0.438720  1
  Er  Er7  1  0.810984  0.190139  0.190682  1
  Er  Er8  1  0.811661  0.809669  0.190303  1
  Er  Er9  1  0.648351  0.647941  0.051160  1
  Er  Er10  1  0.652536  0.650571  0.652169  1
  Er  Er11  1  0.063923  0.434255  0.436735  1
  Er  Er12  1  0.050589  0.648311  0.648146  1
  Er  Er13  1  0.810049  0.190937  0.810002  1
  Er  Er14  1  0.437192  0.434484  0.063795  1
  Er  Er15  1  0.188895  0.811652  0.188974  1
  In  In16  1  0.417248  0.419828  0.747151  1
  In  In17  1  0.747507  0.419929  0.417093  1
  In  In18  1  0.416115  0.419356  0.417115  1
  Hg  Hg19  1  0.413566  0.759684  0.414257  1
  Rh  Rh20  1  0.857609  0.426653  0.858545  1
  Rh  Rh21  1  0.858227  0.858393  0.427099  1
  Rh  Rh22  1  0.427690  0.857708  0.858029  1
  Rh  Rh23  1  0.857840  0.856367  0.856972  1
