# generated using pymatgen
data_Er5TaVO12
_symmetry_space_group_name_H-M   'P 1'
_cell_length_a   6.77804849
_cell_length_b   6.77804910
_cell_length_c   7.27293026
_cell_angle_alpha   74.34441891
_cell_angle_beta   74.34441606
_cell_angle_gamma   51.30865287
_symmetry_Int_Tables_number   1
_chemical_formula_structural   Er5TaVO12
_chemical_formula_sum   'Er5 Ta1 V1 O12'
_cell_volume   248.83820709
_cell_formula_units_Z   1
loop_
 _symmetry_equiv_pos_site_id
 _symmetry_equiv_pos_as_xyz
  1  'x, y, z'
loop_
 _atom_site_type_symbol
 _atom_site_label
 _atom_site_symmetry_multiplicity
 _atom_site_fract_x
 _atom_site_fract_y
 _atom_site_fract_z
 _atom_site_occupancy
  Er  Er0  1  0.306995  0.297224  0.361491  1
  Er  Er1  1  0.702776  0.693005  0.638509  1
  Er  Er2  1  0.312654  0.305278  0.826910  1
  Er  Er3  1  0.694722  0.687346  0.173090  1
  Er  Er4  1  0.998336  0.001664  0.500000  1
  Ta  Ta5  1  0.227074  0.772926  0.000000  1
  V  V6  1  0.742757  0.257243  0.000000  1
  O  O7  1  0.901211  0.418058  0.917381  1
  O  O8  1  0.437473  0.898862  0.915834  1
  O  O9  1  0.101138  0.562527  0.084166  1
  O  O10  1  0.581942  0.098789  0.082619  1
  O  O11  1  0.099833  0.592734  0.575568  1
  O  O12  1  0.598980  0.094357  0.573057  1
  O  O13  1  0.905643  0.401020  0.426943  1
  O  O14  1  0.407266  0.900167  0.424432  1
  O  O15  1  0.995841  0.003466  0.810023  1
  O  O16  1  0.996534  0.004159  0.189977  1
  O  O17  1  0.493846  0.505021  0.811942  1
  O  O18  1  0.494979  0.506154  0.188058  1
