# generated using pymatgen
data_Ho12TcNi4Pb
_symmetry_space_group_name_H-M   'P 1'
_cell_length_a   8.30014602
_cell_length_b   8.30014601
_cell_length_c   8.30014630
_cell_angle_alpha   111.70514278
_cell_angle_beta   109.73888661
_cell_angle_gamma   107.00382955
_symmetry_Int_Tables_number   1
_chemical_formula_structural   Ho12TcNi4Pb
_chemical_formula_sum   'Ho12 Tc1 Ni4 Pb1'
_cell_volume   439.44059907
_cell_formula_units_Z   1
loop_
 _symmetry_equiv_pos_site_id
 _symmetry_equiv_pos_as_xyz
  1  'x, y, z'
loop_
 _atom_site_type_symbol
 _atom_site_label
 _atom_site_symmetry_multiplicity
 _atom_site_fract_x
 _atom_site_fract_y
 _atom_site_fract_z
 _atom_site_occupancy
  Ho  Ho0  1  0.411435  0.220399  0.191038  1
  Ho  Ho1  1  0.588565  0.779601  0.808962  1
  Ho  Ho2  1  0.029361  0.220399  0.808962  1
  Ho  Ho3  1  0.970639  0.779601  0.191038  1
  Ho  Ho4  1  0.179188  0.281762  0.460948  1
  Ho  Ho5  1  0.820812  0.718238  0.539052  1
  Ho  Ho6  1  0.179188  0.718238  0.897426  1
  Ho  Ho7  1  0.820812  0.281762  0.102574  1
  Ho  Ho8  1  0.320417  0.628345  0.307928  1
  Ho  Ho9  1  0.679583  0.371655  0.692072  1
  Ho  Ho10  1  0.320417  0.012489  0.692072  1
  Ho  Ho11  1  0.679583  0.987511  0.307928  1
  Tc  Tc12  1  0.000000  0.000000  0.000000  1
  Ni  Ni13  1  0.356417  0.000000  0.356417  1
  Ni  Ni14  1  0.643583  0.000000  0.643583  1
  Ni  Ni15  1  0.120062  0.620062  0.500000  1
  Ni  Ni16  1  0.879938  0.379938  0.500000  1
  Pb  Pb17  1  0.500000  0.500000  0.000000  1
