# generated using pymatgen
data_PrNd(GaCu4)2
_symmetry_space_group_name_H-M   'P 1'
_cell_length_a   4.19967600
_cell_length_b   5.15680813
_cell_length_c   8.94328720
_cell_angle_alpha   90.02494769
_cell_angle_beta   90.00000000
_cell_angle_gamma   90.00000000
_symmetry_Int_Tables_number   1
_chemical_formula_structural   PrNd(GaCu4)2
_chemical_formula_sum   'Pr1 Nd1 Ga2 Cu8'
_cell_volume   193.68406691
_cell_formula_units_Z   1
loop_
 _symmetry_equiv_pos_site_id
 _symmetry_equiv_pos_as_xyz
  1  'x, y, z'
loop_
 _atom_site_type_symbol
 _atom_site_label
 _atom_site_symmetry_multiplicity
 _atom_site_fract_x
 _atom_site_fract_y
 _atom_site_fract_z
 _atom_site_occupancy
  Pr  Pr0  1  0.000000  0.499982  0.500008  1
  Nd  Nd1  1  0.000000  0.999997  0.999972  1
  Ga  Ga2  1  0.500000  0.249286  0.249205  1
  Ga  Ga3  1  0.500000  0.750679  0.750780  1
  Cu  Cu4  1  0.000000  0.994867  0.333502  1
  Cu  Cu5  1  0.000000  0.495160  0.835851  1
  Cu  Cu6  1  0.000000  0.504801  0.164163  1
  Cu  Cu7  1  0.000000  0.005118  0.666451  1
  Cu  Cu8  1  0.500000  0.999986  0.500001  1
  Cu  Cu9  1  0.500000  0.499975  0.000009  1
  Cu  Cu10  1  0.500000  0.749875  0.249450  1
  Cu  Cu11  1  0.500000  0.250076  0.750606  1
