# generated using pymatgen
data_Nd4In2AgPd3
_symmetry_space_group_name_H-M   'P 1'
_cell_length_a   8.00648360
_cell_length_b   8.00648360
_cell_length_c   3.87450800
_cell_angle_alpha   90.00000000
_cell_angle_beta   90.00000000
_cell_angle_gamma   90.68632400
_symmetry_Int_Tables_number   1
_chemical_formula_structural   Nd4In2AgPd3
_chemical_formula_sum   'Nd4 In2 Ag1 Pd3'
_cell_volume   248.35278844
_cell_formula_units_Z   1
loop_
 _symmetry_equiv_pos_site_id
 _symmetry_equiv_pos_as_xyz
  1  'x, y, z'
loop_
 _atom_site_type_symbol
 _atom_site_label
 _atom_site_symmetry_multiplicity
 _atom_site_fract_x
 _atom_site_fract_y
 _atom_site_fract_z
 _atom_site_occupancy
  Nd  Nd0  1  0.328945  0.810461  0.500000  1
  Nd  Nd1  1  0.822692  0.677308  0.500000  1
  Nd  Nd2  1  0.163480  0.336520  0.500000  1
  Nd  Nd3  1  0.689539  0.171055  0.500000  1
  In  In4  1  0.001922  0.998316  0.000000  1
  In  In5  1  0.501684  0.498078  0.000000  1
  Ag  Ag6  1  0.375189  0.124811  0.000000  1
  Pd  Pd7  1  0.871393  0.378025  0.000000  1
  Pd  Pd8  1  0.121975  0.628607  0.000000  1
  Pd  Pd9  1  0.623180  0.876820  0.000000  1
