# generated using pymatgen
data_La3Pr9(GeBr3)4
_symmetry_space_group_name_H-M   'P 1'
_cell_length_a   10.56519162
_cell_length_b   10.62707194
_cell_length_c   10.59016129
_cell_angle_alpha   109.62231880
_cell_angle_beta   109.27304518
_cell_angle_gamma   109.31572169
_symmetry_Int_Tables_number   1
_chemical_formula_structural   La3Pr9(GeBr3)4
_chemical_formula_sum   'La3 Pr9 Ge4 Br12'
_cell_volume   917.59091841
_cell_formula_units_Z   1
loop_
 _symmetry_equiv_pos_site_id
 _symmetry_equiv_pos_as_xyz
  1  'x, y, z'
loop_
 _atom_site_type_symbol
 _atom_site_label
 _atom_site_symmetry_multiplicity
 _atom_site_fract_x
 _atom_site_fract_y
 _atom_site_fract_z
 _atom_site_occupancy
  La  La0  1  0.752012  0.009397  0.491465  1
  La  La1  1  0.016744  0.257914  0.008786  1
  La  La2  1  0.257542  0.750637  0.241229  1
  Pr  Pr3  1  0.488102  0.749864  0.010946  1
  Pr  Pr4  1  0.751265  0.239030  0.262347  1
  Pr  Pr5  1  0.240507  0.262635  0.749070  1
  Pr  Pr6  1  0.476254  0.486204  0.237198  1
  Pr  Pr7  1  0.262604  0.013154  0.023489  1
  Pr  Pr8  1  0.239406  0.476781  0.489214  1
  Pr  Pr9  1  0.012663  0.023445  0.261442  1
  Pr  Pr10  1  0.011953  0.488641  0.747875  1
  Pr  Pr11  1  0.488430  0.240709  0.477407  1
  Ge  Ge12  1  0.249439  0.250116  0.248582  1
  Ge  Ge13  1  0.999943  0.249609  0.500395  1
  Ge  Ge14  1  0.249249  0.500774  0.000579  1
  Ge  Ge15  1  0.499741  0.998850  0.250485  1
  Br  Br16  1  0.001275  0.992948  0.746312  1
  Br  Br17  1  0.752896  0.744965  0.246427  1
  Br  Br18  1  0.993203  0.748324  0.994061  1
  Br  Br19  1  0.251490  0.999872  0.505663  1
  Br  Br20  1  0.745250  0.994514  0.993741  1
  Br  Br21  1  0.504021  0.249890  0.997155  1
  Br  Br22  1  0.746163  0.253971  0.752993  1
  Br  Br23  1  0.503767  0.750936  0.507165  1
  Br  Br24  1  0.752820  0.506150  0.502435  1
  Br  Br25  1  0.250641  0.752884  0.747115  1
  Br  Br26  1  0.506881  0.503941  0.753315  1
  Br  Br27  1  0.995742  0.503846  0.253109  1
