# generated using pymatgen
data_AcCl13
_symmetry_space_group_name_H-M   'P 1'
_cell_length_a   12.21268803
_cell_length_b   17.19093207
_cell_length_c   9.41073400
_cell_angle_alpha   94.75141043
_cell_angle_beta   110.52940133
_cell_angle_gamma   132.77355432
_symmetry_Int_Tables_number   1
_chemical_formula_structural   AcCl13
_chemical_formula_sum   'Ac2 Cl26'
_cell_volume   1201.03234109
_cell_formula_units_Z   2
loop_
 _symmetry_equiv_pos_site_id
 _symmetry_equiv_pos_as_xyz
  1  'x, y, z'
loop_
 _atom_site_type_symbol
 _atom_site_label
 _atom_site_symmetry_multiplicity
 _atom_site_fract_x
 _atom_site_fract_y
 _atom_site_fract_z
 _atom_site_occupancy
  Ac  Ac0  1  0.889357  0.050072  0.977306  1
  Ac  Ac1  1  0.360643  0.699928  0.522694  1
  Cl  Cl2  1  0.249909  0.416752  0.604219  1
  Cl  Cl3  1  0.730682  0.370210  0.029375  1
  Cl  Cl4  1  0.975533  0.109815  0.555417  1
  Cl  Cl5  1  0.000091  0.333248  0.895781  1
  Cl  Cl6  1  0.570022  0.148927  0.245843  1
  Cl  Cl7  1  0.679978  0.601073  0.254157  1
  Cl  Cl8  1  0.274467  0.640185  0.944583  1
  Cl  Cl9  1  0.519318  0.379790  0.470625  1
  Cl  Cl10  1  0.022035  0.789005  0.722631  1
  Cl  Cl11  1  0.423962  0.647641  0.298141  1
  Cl  Cl12  1  0.096784  0.133777  0.799756  1
  Cl  Cl13  1  0.730895  0.208009  0.493657  1
  Cl  Cl14  1  0.228102  0.158055  0.135759  1
  Cl  Cl15  1  0.726266  0.527936  0.701110  1
  Cl  Cl16  1  0.226150  0.939093  0.238388  1
  Cl  Cl17  1  0.328857  0.506656  0.463827  1
  Cl  Cl18  1  0.227965  0.960995  0.777369  1
  Cl  Cl19  1  0.826038  0.102359  0.201859  1
  Cl  Cl20  1  0.647224  0.800095  0.860884  1
  Cl  Cl21  1  0.602776  0.949905  0.639116  1
  Cl  Cl22  1  0.023850  0.810907  0.261612  1
  Cl  Cl23  1  0.921143  0.243344  0.036173  1
  Cl  Cl24  1  0.153216  0.616223  0.700244  1
  Cl  Cl25  1  0.523734  0.222064  0.798890  1
  Cl  Cl26  1  0.021898  0.591945  0.364241  1
  Cl  Cl27  1  0.519105  0.541991  0.006343  1
