# generated using pymatgen
data_Tb4Al9Ga8SiIr6
_symmetry_space_group_name_H-M   'P 1'
_cell_length_a   7.54366075
_cell_length_b   7.52999178
_cell_length_c   9.56251162
_cell_angle_alpha   90.00034955
_cell_angle_beta   90.06376445
_cell_angle_gamma   119.77523055
_symmetry_Int_Tables_number   1
_chemical_formula_structural   Tb4Al9Ga8SiIr6
_chemical_formula_sum   'Tb4 Al9 Ga8 Si1 Ir6'
_cell_volume   471.47437763
_cell_formula_units_Z   1
loop_
 _symmetry_equiv_pos_site_id
 _symmetry_equiv_pos_as_xyz
  1  'x, y, z'
loop_
 _atom_site_type_symbol
 _atom_site_label
 _atom_site_symmetry_multiplicity
 _atom_site_fract_x
 _atom_site_fract_y
 _atom_site_fract_z
 _atom_site_occupancy
  Tb  Tb0  1  0.997371  0.667441  0.249161  1
  Tb  Tb1  1  0.002798  0.337845  0.751589  1
  Tb  Tb2  1  0.671618  0.998212  0.249320  1
  Tb  Tb3  1  0.322988  0.995229  0.748140  1
  Al  Al4  1  0.340298  0.006406  0.424590  1
  Al  Al5  1  0.003251  0.329657  0.426802  1
  Al  Al6  1  0.666164  0.000251  0.573959  1
  Al  Al7  1  0.664567  0.998858  0.926085  1
  Al  Al8  1  0.336069  0.002994  0.073527  1
  Al  Al9  1  0.333613  0.332939  0.558451  1
  Al  Al10  1  0.663305  0.666035  0.443421  1
  Al  Al11  1  0.666188  0.666536  0.055008  1
  Al  Al12  1  0.332174  0.332543  0.944633  1
  Ga  Ga13  1  0.129180  0.124417  0.250636  1
  Ga  Ga14  1  0.868244  0.874498  0.750102  1
  Ga  Ga15  1  0.999172  0.332488  0.080049  1
  Ga  Ga16  1  0.999909  0.666856  0.923659  1
  Ga  Ga17  1  0.341722  0.549537  0.251011  1
  Ga  Ga18  1  0.654184  0.449679  0.750465  1
  Ga  Ga19  1  0.548357  0.342322  0.249924  1
  Ga  Ga20  1  0.454106  0.658941  0.749917  1
  Si  Si21  1  0.000218  0.665604  0.568192  1
  Ir  Ir22  1  0.667848  0.327290  0.999124  1
  Ir  Ir23  1  0.332205  0.673411  0.999971  1
  Ir  Ir24  1  0.321234  0.671127  0.501646  1
  Ir  Ir25  1  0.681901  0.338068  0.500482  1
  Ir  Ir26  1  0.000198  0.999626  0.999382  1
  Ir  Ir27  1  0.001115  0.991192  0.500753  1
