# generated using pymatgen
data_Dy8Cd2CoNi
_symmetry_space_group_name_H-M   'P 1'
_cell_length_a   9.54114033
_cell_length_b   9.53291550
_cell_length_c   9.53291618
_cell_angle_alpha   59.93165656
_cell_angle_beta   59.97145561
_cell_angle_gamma   59.97145812
_symmetry_Int_Tables_number   1
_chemical_formula_structural   Dy8Cd2CoNi
_chemical_formula_sum   'Dy16 Cd4 Co2 Ni2'
_cell_volume   612.52620979
_cell_formula_units_Z   2
loop_
 _symmetry_equiv_pos_site_id
 _symmetry_equiv_pos_as_xyz
  1  'x, y, z'
loop_
 _atom_site_type_symbol
 _atom_site_label
 _atom_site_symmetry_multiplicity
 _atom_site_fract_x
 _atom_site_fract_y
 _atom_site_fract_z
 _atom_site_occupancy
  Dy  Dy0  1  0.152017  0.541811  0.154154  1
  Dy  Dy1  1  0.691383  0.312022  0.685829  1
  Dy  Dy2  1  0.688428  0.311572  0.311572  1
  Dy  Dy3  1  0.937719  0.562281  0.562281  1
  Dy  Dy4  1  0.542428  0.153322  0.153322  1
  Dy  Dy5  1  0.152017  0.154154  0.541811  1
  Dy  Dy6  1  0.935826  0.938314  0.562687  1
  Dy  Dy7  1  0.310765  0.685829  0.312022  1
  Dy  Dy8  1  0.563548  0.936452  0.936452  1
  Dy  Dy9  1  0.563172  0.938314  0.562687  1
  Dy  Dy10  1  0.691383  0.685829  0.312022  1
  Dy  Dy11  1  0.563172  0.562687  0.938314  1
  Dy  Dy12  1  0.935826  0.562687  0.938314  1
  Dy  Dy13  1  0.311284  0.688716  0.688716  1
  Dy  Dy14  1  0.150927  0.153322  0.153322  1
  Dy  Dy15  1  0.310765  0.312022  0.685829  1
  Cd  Cd16  1  0.918749  0.243354  0.919149  1
  Cd  Cd17  1  0.918916  0.919826  0.919826  1
  Cd  Cd18  1  0.918749  0.919149  0.243354  1
  Cd  Cd19  1  0.241432  0.919826  0.919826  1
  Co  Co20  1  0.925418  0.357791  0.357791  1
  Co  Co21  1  0.359000  0.357791  0.357791  1
  Ni  Ni22  1  0.358538  0.358332  0.924593  1
  Ni  Ni23  1  0.358538  0.924593  0.358332  1
