# generated using pymatgen
data_Yb11Pr8TmSi16
_symmetry_space_group_name_H-M   'P 1'
_cell_length_a   7.51863429
_cell_length_b   7.94999433
_cell_length_c   15.17898135
_cell_angle_alpha   89.97895986
_cell_angle_beta   90.01387475
_cell_angle_gamma   89.97298124
_symmetry_Int_Tables_number   1
_chemical_formula_structural   Yb11Pr8TmSi16
_chemical_formula_sum   'Yb11 Pr8 Tm1 Si16'
_cell_volume   907.29458199
_cell_formula_units_Z   1
loop_
 _symmetry_equiv_pos_site_id
 _symmetry_equiv_pos_as_xyz
  1  'x, y, z'
loop_
 _atom_site_type_symbol
 _atom_site_label
 _atom_site_symmetry_multiplicity
 _atom_site_fract_x
 _atom_site_fract_y
 _atom_site_fract_z
 _atom_site_occupancy
  Yb  Yb0  1  0.321429  0.181530  0.622758  1
  Yb  Yb1  1  0.678466  0.818851  0.376882  1
  Yb  Yb2  1  0.645990  0.004425  0.750034  1
  Yb  Yb3  1  0.180173  0.681109  0.376999  1
  Yb  Yb4  1  0.820431  0.318942  0.878067  1
  Yb  Yb5  1  0.821490  0.318397  0.622366  1
  Yb  Yb6  1  0.857035  0.500473  0.251186  1
  Yb  Yb7  1  0.350187  0.999848  0.250885  1
  Yb  Yb8  1  0.321183  0.180082  0.879839  1
  Yb  Yb9  1  0.178948  0.682459  0.121433  1
  Yb  Yb10  1  0.144963  0.494806  0.749988  1
  Pr  Pr11  1  0.025512  0.183679  0.400766  1
  Pr  Pr12  1  0.525670  0.316309  0.401391  1
  Pr  Pr13  1  0.472220  0.685762  0.900628  1
  Pr  Pr14  1  0.472844  0.685530  0.599338  1
  Pr  Pr15  1  0.973176  0.814594  0.598784  1
  Pr  Pr16  1  0.972043  0.814003  0.900226  1
  Pr  Pr17  1  0.527637  0.315999  0.099654  1
  Pr  Pr18  1  0.026012  0.185295  0.097015  1
  Tm  Tm19  1  0.678488  0.817051  0.123268  1
  Si  Si20  1  0.258152  0.874532  0.750695  1
  Si  Si21  1  0.472555  0.596042  0.247292  1
  Si  Si22  1  0.032384  0.091378  0.750825  1
  Si  Si23  1  0.531440  0.407771  0.751286  1
  Si  Si24  1  0.143540  0.471125  0.536909  1
  Si  Si25  1  0.963395  0.904155  0.245111  1
  Si  Si26  1  0.739574  0.121573  0.246783  1
  Si  Si27  1  0.851724  0.534211  0.038849  1
  Si  Si28  1  0.365337  0.970056  0.041215  1
  Si  Si29  1  0.139436  0.472883  0.962691  1
  Si  Si30  1  0.642603  0.028606  0.537070  1
  Si  Si31  1  0.356789  0.972439  0.461985  1
  Si  Si32  1  0.858189  0.527690  0.461510  1
  Si  Si33  1  0.757036  0.625802  0.750532  1
  Si  Si34  1  0.244702  0.376975  0.248815  1
  Si  Si35  1  0.649246  0.025618  0.966925  1
