# generated using pymatgen
data_Yb3Dy16ErIr12
_symmetry_space_group_name_H-M   'P 1'
_cell_length_a   10.86421455
_cell_length_b   10.90634336
_cell_length_c   6.34662201
_cell_angle_alpha   89.96157804
_cell_angle_beta   90.21831397
_cell_angle_gamma   90.01086924
_symmetry_Int_Tables_number   1
_chemical_formula_structural   Yb3Dy16ErIr12
_chemical_formula_sum   'Yb3 Dy16 Er1 Ir12'
_cell_volume   751.99832915
_cell_formula_units_Z   1
loop_
 _symmetry_equiv_pos_site_id
 _symmetry_equiv_pos_as_xyz
  1  'x, y, z'
loop_
 _atom_site_type_symbol
 _atom_site_label
 _atom_site_symmetry_multiplicity
 _atom_site_fract_x
 _atom_site_fract_y
 _atom_site_fract_z
 _atom_site_occupancy
  Yb  Yb0  1  0.287960  0.086796  0.375357  1
  Yb  Yb1  1  0.290014  0.911796  0.875596  1
  Yb  Yb2  1  0.001528  0.999831  0.499170  1
  Dy  Dy3  1  0.708347  0.087459  0.879438  1
  Dy  Dy4  1  0.710120  0.914105  0.379103  1
  Dy  Dy5  1  0.587838  0.792263  0.877748  1
  Dy  Dy6  1  0.586785  0.207506  0.377425  1
  Dy  Dy7  1  0.411991  0.792907  0.378648  1
  Dy  Dy8  1  0.411105  0.207330  0.879246  1
  Dy  Dy9  1  0.209385  0.412940  0.623608  1
  Dy  Dy10  1  0.209680  0.588167  0.122886  1
  Dy  Dy11  1  0.790969  0.411243  0.120794  1
  Dy  Dy12  1  0.791192  0.587798  0.621255  1
  Dy  Dy13  1  0.912083  0.709185  0.122317  1
  Dy  Dy14  1  0.913331  0.289262  0.622852  1
  Dy  Dy15  1  0.086947  0.710385  0.620936  1
  Dy  Dy16  1  0.088476  0.291360  0.120596  1
  Dy  Dy17  1  0.000781  0.000366  0.999468  1
  Dy  Dy18  1  0.500025  0.499725  0.999073  1
  Er  Er19  1  0.500081  0.500293  0.499256  1
  Ir  Ir20  1  0.846053  0.156210  0.246410  1
  Ir  Ir21  1  0.845737  0.844238  0.754514  1
  Ir  Ir22  1  0.151331  0.160984  0.757524  1
  Ir  Ir23  1  0.150670  0.837888  0.248763  1
  Ir  Ir24  1  0.652274  0.346275  0.748506  1
  Ir  Ir25  1  0.651955  0.654019  0.251517  1
  Ir  Ir26  1  0.347739  0.350795  0.248926  1
  Ir  Ir27  1  0.347415  0.649039  0.745455  1
  Ir  Ir28  1  0.504088  0.000327  0.121978  1
  Ir  Ir29  1  0.504061  0.999567  0.621326  1
  Ir  Ir30  1  0.000013  0.500206  0.879764  1
  Ir  Ir31  1  0.000025  0.499735  0.380543  1
