# generated using pymatgen
data_Hf13UPt20
_symmetry_space_group_name_H-M   'P 1'
_cell_length_a   8.20633557
_cell_length_b   8.20633546
_cell_length_c   9.64626353
_cell_angle_alpha   90.07218334
_cell_angle_beta   90.07218681
_cell_angle_gamma   107.77541522
_symmetry_Int_Tables_number   1
_chemical_formula_structural   Hf13UPt20
_chemical_formula_sum   'Hf13 U1 Pt20'
_cell_volume   618.60357693
_cell_formula_units_Z   1
loop_
 _symmetry_equiv_pos_site_id
 _symmetry_equiv_pos_as_xyz
  1  'x, y, z'
loop_
 _atom_site_type_symbol
 _atom_site_label
 _atom_site_symmetry_multiplicity
 _atom_site_fract_x
 _atom_site_fract_y
 _atom_site_fract_z
 _atom_site_occupancy
  Hf  Hf0  1  0.311261  0.688739  0.000000  1
  Hf  Hf1  1  0.810547  0.189453  0.500000  1
  Hf  Hf2  1  0.188785  0.811215  0.500000  1
  Hf  Hf3  1  0.999789  0.000211  0.000000  1
  Hf  Hf4  1  0.500398  0.499602  0.500000  1
  Hf  Hf5  1  0.003551  0.503172  0.252149  1
  Hf  Hf6  1  0.001337  0.501043  0.747135  1
  Hf  Hf7  1  0.496828  0.996449  0.747851  1
  Hf  Hf8  1  0.498957  0.998663  0.252865  1
  Hf  Hf9  1  0.314256  0.317833  0.184943  1
  Hf  Hf10  1  0.682167  0.685744  0.815057  1
  Hf  Hf11  1  0.182346  0.182184  0.681716  1
  Hf  Hf12  1  0.817816  0.817654  0.318284  1
  U  U13  1  0.690066  0.309934  0.000000  1
  Pt  Pt14  1  0.850787  0.141157  0.209835  1
  Pt  Pt15  1  0.149282  0.857734  0.790774  1
  Pt  Pt16  1  0.648790  0.355888  0.709051  1
  Pt  Pt17  1  0.644112  0.351210  0.290949  1
  Pt  Pt18  1  0.350483  0.642391  0.291616  1
  Pt  Pt19  1  0.357609  0.649517  0.708384  1
  Pt  Pt20  1  0.858843  0.149213  0.790165  1
  Pt  Pt21  1  0.142266  0.850718  0.209226  1
  Pt  Pt22  1  0.937634  0.644836  0.997349  1
  Pt  Pt23  1  0.062770  0.354903  0.003660  1
  Pt  Pt24  1  0.563332  0.854311  0.497166  1
  Pt  Pt25  1  0.145689  0.436668  0.502834  1
  Pt  Pt26  1  0.436855  0.145158  0.502791  1
  Pt  Pt27  1  0.854842  0.563145  0.497209  1
  Pt  Pt28  1  0.355164  0.062366  0.002651  1
  Pt  Pt29  1  0.645097  0.937230  0.996340  1
  Pt  Pt30  1  0.108170  0.107621  0.392988  1
  Pt  Pt31  1  0.892379  0.891830  0.607012  1
  Pt  Pt32  1  0.390547  0.392756  0.892294  1
  Pt  Pt33  1  0.607244  0.609453  0.107706  1
