# generated using pymatgen
data_TbCe(Nd2In)2
_symmetry_space_group_name_H-M   'P 1'
_cell_length_a   4.92047300
_cell_length_b   5.00192000
_cell_length_c   9.87663600
_cell_angle_alpha   90.00000000
_cell_angle_beta   90.00000000
_cell_angle_gamma   90.00000000
_symmetry_Int_Tables_number   1
_chemical_formula_structural   TbCe(Nd2In)2
_chemical_formula_sum   'Tb1 Ce1 Nd4 In2'
_cell_volume   243.08191147
_cell_formula_units_Z   1
loop_
 _symmetry_equiv_pos_site_id
 _symmetry_equiv_pos_as_xyz
  1  'x, y, z'
loop_
 _atom_site_type_symbol
 _atom_site_label
 _atom_site_symmetry_multiplicity
 _atom_site_fract_x
 _atom_site_fract_y
 _atom_site_fract_z
 _atom_site_occupancy
  Tb  Tb0  1  0.000000  0.000000  0.500000  1
  Ce  Ce1  1  0.000000  0.000000  0.000000  1
  Nd  Nd2  1  0.500000  0.500000  0.000000  1
  Nd  Nd3  1  0.500000  0.500000  0.500000  1
  Nd  Nd4  1  0.500000  0.000000  0.247823  1
  Nd  Nd5  1  0.500000  0.000000  0.752177  1
  In  In6  1  0.000000  0.500000  0.252171  1
  In  In7  1  0.000000  0.500000  0.747829  1
