# generated using pymatgen
data_Hf6Al16IrPt6
_symmetry_space_group_name_H-M   'P 1'
_cell_length_a   8.74263957
_cell_length_b   8.74263799
_cell_length_c   8.74263500
_cell_angle_alpha   60.00000753
_cell_angle_beta   60.00001353
_cell_angle_gamma   59.99999029
_symmetry_Int_Tables_number   1
_chemical_formula_structural   Hf6Al16IrPt6
_chemical_formula_sum   'Hf6 Al16 Ir1 Pt6'
_cell_volume   472.51158056
_cell_formula_units_Z   1
loop_
 _symmetry_equiv_pos_site_id
 _symmetry_equiv_pos_as_xyz
  1  'x, y, z'
loop_
 _atom_site_type_symbol
 _atom_site_label
 _atom_site_symmetry_multiplicity
 _atom_site_fract_x
 _atom_site_fract_y
 _atom_site_fract_z
 _atom_site_occupancy
  Hf  Hf0  1  0.681519  0.318481  0.318481  1
  Hf  Hf1  1  0.318481  0.681519  0.681519  1
  Hf  Hf2  1  0.318481  0.681519  0.318481  1
  Hf  Hf3  1  0.681519  0.318481  0.681519  1
  Hf  Hf4  1  0.318481  0.318481  0.681519  1
  Hf  Hf5  1  0.681519  0.681519  0.318481  1
  Al  Al6  1  0.335619  0.335620  0.335619  1
  Al  Al7  1  0.664381  0.664380  0.664381  1
  Al  Al8  1  0.335619  0.335620  0.993141  1
  Al  Al9  1  0.335619  0.993141  0.335620  1
  Al  Al10  1  0.664381  0.664380  0.006859  1
  Al  Al11  1  0.664381  0.006859  0.664380  1
  Al  Al12  1  0.993141  0.335620  0.335620  1
  Al  Al13  1  0.006859  0.664380  0.664380  1
  Al  Al14  1  0.118715  0.118715  0.118716  1
  Al  Al15  1  0.881285  0.881285  0.881284  1
  Al  Al16  1  0.118715  0.118715  0.643854  1
  Al  Al17  1  0.118715  0.643854  0.118715  1
  Al  Al18  1  0.881285  0.881285  0.356146  1
  Al  Al19  1  0.881285  0.356146  0.881285  1
  Al  Al20  1  0.643854  0.118715  0.118716  1
  Al  Al21  1  0.356146  0.881285  0.881284  1
  Ir  Ir22  1  0.000000  0.000000  0.000000  1
  Pt  Pt23  1  0.500000  0.000000  0.000000  1
  Pt  Pt24  1  0.000000  0.500000  0.500000  1
  Pt  Pt25  1  0.000000  0.500000  0.000000  1
  Pt  Pt26  1  0.500000  0.000000  0.500000  1
  Pt  Pt27  1  0.000000  0.000000  0.500000  1
  Pt  Pt28  1  0.500000  0.500000  0.000000  1
