# generated using pymatgen
data_GdY2AuO6
_symmetry_space_group_name_H-M   'P 1'
_cell_length_a   3.63800530
_cell_length_b   5.59857461
_cell_length_c   7.11108699
_cell_angle_alpha   89.91652696
_cell_angle_beta   102.54400879
_cell_angle_gamma   91.13064395
_symmetry_Int_Tables_number   1
_chemical_formula_structural   GdY2AuO6
_chemical_formula_sum   'Gd1 Y2 Au1 O6'
_cell_volume   141.35065497
_cell_formula_units_Z   1
loop_
 _symmetry_equiv_pos_site_id
 _symmetry_equiv_pos_as_xyz
  1  'x, y, z'
loop_
 _atom_site_type_symbol
 _atom_site_label
 _atom_site_symmetry_multiplicity
 _atom_site_fract_x
 _atom_site_fract_y
 _atom_site_fract_z
 _atom_site_occupancy
  Gd  Gd0  1  0.611349  0.528866  0.763653  1
  Y  Y1  1  0.998779  0.997822  0.497005  1
  Y  Y2  1  0.387589  0.469943  0.236611  1
  Au  Au3  1  0.999089  0.000392  0.001118  1
  O  O4  1  0.164314  0.312906  0.892726  1
  O  O5  1  0.839946  0.686697  0.112806  1
  O  O6  1  0.479199  0.744270  0.471061  1
  O  O7  1  0.519856  0.253771  0.524770  1
  O  O8  1  0.126961  0.800685  0.787146  1
  O  O9  1  0.872920  0.204648  0.213105  1
