# generated using pymatgen
data_YbSmGa12Cu
_symmetry_space_group_name_H-M   'P 1'
_cell_length_a   6.13924000
_cell_length_b   6.13924000
_cell_length_c   15.22298400
_cell_angle_alpha   90.00000000
_cell_angle_beta   90.00000000
_cell_angle_gamma   90.00000000
_symmetry_Int_Tables_number   1
_chemical_formula_structural   YbSmGa12Cu
_chemical_formula_sum   'Yb2 Sm2 Ga24 Cu2'
_cell_volume   573.75834333
_cell_formula_units_Z   2
loop_
 _symmetry_equiv_pos_site_id
 _symmetry_equiv_pos_as_xyz
  1  'x, y, z'
loop_
 _atom_site_type_symbol
 _atom_site_label
 _atom_site_symmetry_multiplicity
 _atom_site_fract_x
 _atom_site_fract_y
 _atom_site_fract_z
 _atom_site_occupancy
  Yb  Yb0  1  0.000000  0.500000  0.243176  1
  Yb  Yb1  1  0.500000  0.000000  0.243176  1
  Sm  Sm2  1  0.000000  0.500000  0.756492  1
  Sm  Sm3  1  0.500000  0.000000  0.756492  1
  Ga  Ga4  1  0.670125  0.170125  0.429616  1
  Ga  Ga5  1  0.668272  0.831728  0.570098  1
  Ga  Ga6  1  0.168272  0.668272  0.570098  1
  Ga  Ga7  1  0.831728  0.331728  0.570098  1
  Ga  Ga8  1  0.500000  0.500000  0.181483  1
  Ga  Ga9  1  0.500000  0.500000  0.818120  1
  Ga  Ga10  1  0.000000  0.000000  0.818120  1
  Ga  Ga11  1  0.000000  0.000000  0.181483  1
  Ga  Ga12  1  0.500000  0.500000  0.342655  1
  Ga  Ga13  1  0.500000  0.500000  0.657307  1
  Ga  Ga14  1  0.000000  0.000000  0.657307  1
  Ga  Ga15  1  0.000000  0.000000  0.342655  1
  Ga  Ga16  1  0.250089  0.750089  0.914858  1
  Ga  Ga17  1  0.249911  0.250089  0.914858  1
  Ga  Ga18  1  0.750089  0.749911  0.914858  1
  Ga  Ga19  1  0.250046  0.249954  0.086396  1
  Ga  Ga20  1  0.749954  0.750046  0.086396  1
  Ga  Ga21  1  0.749911  0.249911  0.914858  1
  Ga  Ga22  1  0.750046  0.250046  0.086396  1
  Ga  Ga23  1  0.249954  0.749954  0.086396  1
  Ga  Ga24  1  0.329875  0.829875  0.429616  1
  Ga  Ga25  1  0.170125  0.329875  0.429616  1
  Ga  Ga26  1  0.829875  0.670125  0.429616  1
  Ga  Ga27  1  0.331728  0.168272  0.570098  1
  Cu  Cu28  1  0.500000  0.000000  0.998831  1
  Cu  Cu29  1  0.000000  0.500000  0.998831  1
