# generated using pymatgen
data_Y5FeCoO12
_symmetry_space_group_name_H-M   'P 1'
_cell_length_a   6.76898109
_cell_length_b   6.76898258
_cell_length_c   7.27745900
_cell_angle_alpha   74.41801133
_cell_angle_beta   74.41800782
_cell_angle_gamma   51.11808118
_symmetry_Int_Tables_number   1
_chemical_formula_structural   Y5FeCoO12
_chemical_formula_sum   'Y5 Fe1 Co1 O12'
_cell_volume   247.79526558
_cell_formula_units_Z   1
loop_
 _symmetry_equiv_pos_site_id
 _symmetry_equiv_pos_as_xyz
  1  'x, y, z'
loop_
 _atom_site_type_symbol
 _atom_site_label
 _atom_site_symmetry_multiplicity
 _atom_site_fract_x
 _atom_site_fract_y
 _atom_site_fract_z
 _atom_site_occupancy
  Y  Y0  1  0.688451  0.693543  0.668133  1
  Y  Y1  1  0.688372  0.698501  0.141927  1
  Y  Y2  1  0.005742  0.994258  0.000000  1
  Y  Y3  1  0.301499  0.311628  0.858073  1
  Y  Y4  1  0.306457  0.311549  0.331867  1
  Fe  Fe5  1  0.758445  0.241555  0.500000  1
  Co  Co6  1  0.242942  0.757058  0.500000  1
  O  O7  1  0.402709  0.908476  0.921298  1
  O  O8  1  0.583371  0.098404  0.577370  1
  O  O9  1  0.901596  0.416629  0.422630  1
  O  O10  1  0.091524  0.597291  0.078702  1
  O  O11  1  0.018358  0.984492  0.321811  1
  O  O12  1  0.487679  0.512278  0.680840  1
  O  O13  1  0.899717  0.404052  0.922743  1
  O  O14  1  0.103411  0.579452  0.577879  1
  O  O15  1  0.420548  0.896589  0.422121  1
  O  O16  1  0.595948  0.100283  0.077257  1
  O  O17  1  0.487722  0.512321  0.319160  1
  O  O18  1  0.015508  0.981642  0.678189  1
