# generated using pymatgen
data_SmTh3As4Pt3Rh
_symmetry_space_group_name_H-M   'P 1'
_cell_length_a   4.34451800
_cell_length_b   4.34451804
_cell_length_c   15.92168800
_cell_angle_alpha   90.00000000
_cell_angle_beta   90.00000000
_cell_angle_gamma   119.99999970
_symmetry_Int_Tables_number   1
_chemical_formula_structural   SmTh3As4Pt3Rh
_chemical_formula_sum   'Sm1 Th3 As4 Pt3 Rh1'
_cell_volume   260.25731678
_cell_formula_units_Z   1
loop_
 _symmetry_equiv_pos_site_id
 _symmetry_equiv_pos_as_xyz
  1  'x, y, z'
loop_
 _atom_site_type_symbol
 _atom_site_label
 _atom_site_symmetry_multiplicity
 _atom_site_fract_x
 _atom_site_fract_y
 _atom_site_fract_z
 _atom_site_occupancy
  Sm  Sm0  1  0.000000  0.000000  0.001771  1
  Th  Th1  1  0.000000  0.000000  0.494122  1
  Th  Th2  1  0.000000  0.000000  0.253839  1
  Th  Th3  1  0.000000  0.000000  0.751305  1
  As  As4  1  0.333333  0.666667  0.889283  1
  As  As5  1  0.666667  0.333333  0.117370  1
  As  As6  1  0.666667  0.333333  0.380997  1
  As  As7  1  0.333333  0.666667  0.612712  1
  Pt  Pt8  1  0.666667  0.333333  0.638500  1
  Pt  Pt9  1  0.666667  0.333333  0.858399  1
  Pt  Pt10  1  0.333333  0.666667  0.138758  1
  Rh  Rh11  1  0.333333  0.666667  0.362945  1
