# generated using pymatgen
data_Nb4Fe4SiP3
_symmetry_space_group_name_H-M   'P 1'
_cell_length_a   3.62752900
_cell_length_b   6.18268100
_cell_length_c   6.98409500
_cell_angle_alpha   89.99784424
_cell_angle_beta   90.00000000
_cell_angle_gamma   90.00000000
_symmetry_Int_Tables_number   1
_chemical_formula_structural   Nb4Fe4SiP3
_chemical_formula_sum   'Nb4 Fe4 Si1 P3'
_cell_volume   156.63826729
_cell_formula_units_Z   1
loop_
 _symmetry_equiv_pos_site_id
 _symmetry_equiv_pos_as_xyz
  1  'x, y, z'
loop_
 _atom_site_type_symbol
 _atom_site_label
 _atom_site_symmetry_multiplicity
 _atom_site_fract_x
 _atom_site_fract_y
 _atom_site_fract_z
 _atom_site_occupancy
  Nb  Nb0  1  0.250000  0.518913  0.178889  1
  Nb  Nb1  1  0.750000  0.477259  0.821341  1
  Nb  Nb2  1  0.750000  0.980287  0.676256  1
  Nb  Nb3  1  0.250000  0.019477  0.321226  1
  Fe  Fe4  1  0.250000  0.641130  0.556751  1
  Fe  Fe5  1  0.750000  0.355528  0.437603  1
  Fe  Fe6  1  0.750000  0.859598  0.069572  1
  Fe  Fe7  1  0.250000  0.148640  0.939052  1
  Si  Si8  1  0.250000  0.778702  0.881883  1
  P  P9  1  0.750000  0.221055  0.117793  1
  P  P10  1  0.750000  0.720075  0.382573  1
  P  P11  1  0.250000  0.279336  0.617060  1
