# generated using pymatgen
data_Rb2Tb2BiSb3Se10
_symmetry_space_group_name_H-M   'P 1'
_cell_length_a   4.12531500
_cell_length_b   12.39855797
_cell_length_c   22.17057515
_cell_angle_alpha   90.45004414
_cell_angle_beta   90.00000000
_cell_angle_gamma   90.00000000
_symmetry_Int_Tables_number   1
_chemical_formula_structural   Rb2Tb2BiSb3Se10
_chemical_formula_sum   'Rb4 Tb4 Bi2 Sb6 Se20'
_cell_volume   1133.94464666
_cell_formula_units_Z   2
loop_
 _symmetry_equiv_pos_site_id
 _symmetry_equiv_pos_as_xyz
  1  'x, y, z'
loop_
 _atom_site_type_symbol
 _atom_site_label
 _atom_site_symmetry_multiplicity
 _atom_site_fract_x
 _atom_site_fract_y
 _atom_site_fract_z
 _atom_site_occupancy
  Rb  Rb0  1  0.250000  0.489054  0.210994  1
  Rb  Rb1  1  0.750000  0.510946  0.789006  1
  Rb  Rb2  1  0.750000  0.990168  0.289991  1
  Rb  Rb3  1  0.250000  0.009832  0.710009  1
  Tb  Tb4  1  0.250000  0.364759  0.024261  1
  Tb  Tb5  1  0.750000  0.635241  0.975739  1
  Tb  Tb6  1  0.750000  0.863210  0.476886  1
  Tb  Tb7  1  0.250000  0.136790  0.523114  1
  Bi  Bi8  1  0.750000  0.095519  0.075343  1
  Bi  Bi9  1  0.250000  0.904481  0.924657  1
  Sb  Sb10  1  0.250000  0.805894  0.125926  1
  Sb  Sb11  1  0.750000  0.194106  0.874074  1
  Sb  Sb12  1  0.750000  0.309183  0.375854  1
  Sb  Sb13  1  0.250000  0.690817  0.624146  1
  Sb  Sb14  1  0.250000  0.596938  0.426158  1
  Sb  Sb15  1  0.750000  0.403062  0.573842  1
  Se  Se16  1  0.250000  0.802366  0.389090  1
  Se  Se17  1  0.750000  0.197634  0.610910  1
  Se  Se18  1  0.750000  0.311268  0.111636  1
  Se  Se19  1  0.250000  0.688732  0.888364  1
  Se  Se20  1  0.250000  0.253304  0.300207  1
  Se  Se21  1  0.750000  0.746696  0.699793  1
  Se  Se22  1  0.750000  0.751549  0.201036  1
  Se  Se23  1  0.250000  0.248451  0.798964  1
  Se  Se24  1  0.250000  0.357299  0.482354  1
  Se  Se25  1  0.750000  0.642701  0.517646  1
  Se  Se26  1  0.750000  0.856697  0.019643  1
  Se  Se27  1  0.250000  0.143303  0.980357  1
  Se  Se28  1  0.250000  0.020376  0.160201  1
  Se  Se29  1  0.750000  0.979624  0.839799  1
  Se  Se30  1  0.750000  0.523122  0.343188  1
  Se  Se31  1  0.250000  0.476878  0.656812  1
  Se  Se32  1  0.250000  0.584422  0.061230  1
  Se  Se33  1  0.750000  0.415578  0.938770  1
  Se  Se34  1  0.750000  0.082046  0.438444  1
  Se  Se35  1  0.250000  0.917954  0.561556  1
