# generated using pymatgen
data_Pa4Tc6Ge6Rh
_symmetry_space_group_name_H-M   'P 1'
_cell_length_a   7.31817553
_cell_length_b   7.31817532
_cell_length_c   7.31817600
_cell_angle_alpha   109.47122250
_cell_angle_beta   109.47122194
_cell_angle_gamma   109.47121989
_symmetry_Int_Tables_number   1
_chemical_formula_structural   Pa4Tc6Ge6Rh
_chemical_formula_sum   'Pa4 Tc6 Ge6 Rh1'
_cell_volume   301.70782769
_cell_formula_units_Z   1
loop_
 _symmetry_equiv_pos_site_id
 _symmetry_equiv_pos_as_xyz
  1  'x, y, z'
loop_
 _atom_site_type_symbol
 _atom_site_label
 _atom_site_symmetry_multiplicity
 _atom_site_fract_x
 _atom_site_fract_y
 _atom_site_fract_z
 _atom_site_occupancy
  Pa  Pa0  1  0.500000  0.500000  0.500000  1
  Pa  Pa1  1  0.000000  0.500000  0.000000  1
  Pa  Pa2  1  0.500000  0.000000  0.000000  1
  Pa  Pa3  1  0.000000  0.000000  0.500000  1
  Tc  Tc4  1  0.750000  0.500000  0.250000  1
  Tc  Tc5  1  0.500000  0.250000  0.750000  1
  Tc  Tc6  1  0.750000  0.250000  0.500000  1
  Tc  Tc7  1  0.250000  0.750000  0.500000  1
  Tc  Tc8  1  0.250000  0.500000  0.750000  1
  Tc  Tc9  1  0.500000  0.750000  0.250000  1
  Ge  Ge10  1  0.686295  0.000000  0.686295  1
  Ge  Ge11  1  0.686295  0.686295  0.000000  1
  Ge  Ge12  1  0.313705  0.313705  0.000000  1
  Ge  Ge13  1  0.000000  0.686295  0.686295  1
  Ge  Ge14  1  0.000000  0.313705  0.313705  1
  Ge  Ge15  1  0.313705  0.000000  0.313705  1
  Rh  Rh16  1  0.000000  0.000000  0.000000  1
