# generated using pymatgen
data_TbEr3(WO6)2
_symmetry_space_group_name_H-M   'P 1'
_cell_length_a   5.38080700
_cell_length_b   7.68138265
_cell_length_c   11.43631846
_cell_angle_alpha   75.29678596
_cell_angle_beta   90.00000000
_cell_angle_gamma   90.00000000
_symmetry_Int_Tables_number   1
_chemical_formula_structural   TbEr3(WO6)2
_chemical_formula_sum   'Tb2 Er6 W4 O24'
_cell_volume   457.20752828
_cell_formula_units_Z   2
loop_
 _symmetry_equiv_pos_site_id
 _symmetry_equiv_pos_as_xyz
  1  'x, y, z'
loop_
 _atom_site_type_symbol
 _atom_site_label
 _atom_site_symmetry_multiplicity
 _atom_site_fract_x
 _atom_site_fract_y
 _atom_site_fract_z
 _atom_site_occupancy
  Tb  Tb0  1  0.684522  0.500000  0.250000  1
  Tb  Tb1  1  0.315478  0.500000  0.750000  1
  Er  Er2  1  0.183601  0.205068  0.422141  1
  Er  Er3  1  0.183601  0.794932  0.077859  1
  Er  Er4  1  0.816399  0.794932  0.577859  1
  Er  Er5  1  0.816399  0.205068  0.922141  1
  Er  Er6  1  0.740687  0.000000  0.250000  1
  Er  Er7  1  0.259313  0.000000  0.750000  1
  W  W8  1  0.255922  0.275543  0.114923  1
  W  W9  1  0.255922  0.724457  0.385077  1
  W  W10  1  0.744078  0.724457  0.885077  1
  W  W11  1  0.744078  0.275543  0.614923  1
  O  O12  1  0.458357  0.207126  0.273798  1
  O  O13  1  0.458357  0.792874  0.226202  1
  O  O14  1  0.541643  0.792874  0.726202  1
  O  O15  1  0.541643  0.207126  0.773798  1
  O  O16  1  0.043356  0.059214  0.104427  1
  O  O17  1  0.043356  0.940786  0.395573  1
  O  O18  1  0.956644  0.940786  0.895573  1
  O  O19  1  0.956644  0.059214  0.604427  1
  O  O20  1  0.981556  0.287249  0.229391  1
  O  O21  1  0.981556  0.712751  0.270609  1
  O  O22  1  0.018444  0.712751  0.770609  1
  O  O23  1  0.018444  0.287249  0.729391  1
  O  O24  1  0.850717  0.364719  0.451589  1
  O  O25  1  0.850717  0.635281  0.048411  1
  O  O26  1  0.149283  0.635281  0.548411  1
  O  O27  1  0.149283  0.364719  0.951589  1
  O  O28  1  0.641690  0.510640  0.613864  1
  O  O29  1  0.641690  0.489360  0.886136  1
  O  O30  1  0.358310  0.489360  0.386136  1
  O  O31  1  0.358310  0.510640  0.113864  1
  O  O32  1  0.463311  0.153249  0.569426  1
  O  O33  1  0.463311  0.846751  0.930574  1
  O  O34  1  0.536689  0.846751  0.430574  1
  O  O35  1  0.536689  0.153249  0.069426  1
