# generated using pymatgen
data_Ca2Mn3Co9As7
_symmetry_space_group_name_H-M   'P 1'
_cell_length_a   3.72306700
_cell_length_b   9.50220928
_cell_length_c   9.50220900
_cell_angle_alpha   119.99999554
_cell_angle_beta   90.00000000
_cell_angle_gamma   90.00000000
_symmetry_Int_Tables_number   1
_chemical_formula_structural   Ca2Mn3Co9As7
_chemical_formula_sum   'Ca2 Mn3 Co9 As7'
_cell_volume   291.12578514
_cell_formula_units_Z   1
loop_
 _symmetry_equiv_pos_site_id
 _symmetry_equiv_pos_as_xyz
  1  'x, y, z'
loop_
 _atom_site_type_symbol
 _atom_site_label
 _atom_site_symmetry_multiplicity
 _atom_site_fract_x
 _atom_site_fract_y
 _atom_site_fract_z
 _atom_site_occupancy
  Ca  Ca0  1  0.000000  0.666667  0.333333  1
  Ca  Ca1  1  0.500000  0.333333  0.666667  1
  Mn  Mn2  1  0.500000  0.776637  0.895410  1
  Mn  Mn3  1  0.500000  0.118774  0.223363  1
  Mn  Mn4  1  0.500000  0.104590  0.881226  1
  Co  Co5  1  0.000000  0.573553  0.943701  1
  Co  Co6  1  0.000000  0.370148  0.426447  1
  Co  Co7  1  0.000000  0.056299  0.629852  1
  Co  Co8  1  0.000000  0.883371  0.158795  1
  Co  Co9  1  0.000000  0.275424  0.116629  1
  Co  Co10  1  0.000000  0.841205  0.724576  1
  Co  Co11  1  0.500000  0.950118  0.384131  1
  Co  Co12  1  0.500000  0.434012  0.049882  1
  Co  Co13  1  0.500000  0.615869  0.565988  1
  As  As14  1  0.000000  0.000000  0.000000  1
  As  As15  1  0.500000  0.709549  0.119126  1
  As  As16  1  0.500000  0.409578  0.290451  1
  As  As17  1  0.500000  0.880874  0.590422  1
  As  As18  1  0.000000  0.583702  0.698935  1
  As  As19  1  0.000000  0.115232  0.416298  1
  As  As20  1  0.000000  0.301065  0.884768  1
