# generated using pymatgen
data_Ho10Zn3B16Au
_symmetry_space_group_name_H-M   'P 1'
_cell_length_a   7.17172269
_cell_length_b   7.17164669
_cell_length_c   8.41200500
_cell_angle_alpha   90.00000000
_cell_angle_beta   90.00000000
_cell_angle_gamma   90.09933730
_symmetry_Int_Tables_number   1
_chemical_formula_structural   Ho10Zn3B16Au
_chemical_formula_sum   'Ho10 Zn3 B16 Au1'
_cell_volume   432.65451905
_cell_formula_units_Z   1
loop_
 _symmetry_equiv_pos_site_id
 _symmetry_equiv_pos_as_xyz
  1  'x, y, z'
loop_
 _atom_site_type_symbol
 _atom_site_label
 _atom_site_symmetry_multiplicity
 _atom_site_fract_x
 _atom_site_fract_y
 _atom_site_fract_z
 _atom_site_occupancy
  Ho  Ho0  1  0.681103  0.181104  0.211554  1
  Ho  Ho1  1  0.318115  0.818115  0.788736  1
  Ho  Ho2  1  0.318115  0.818115  0.211264  1
  Ho  Ho3  1  0.818045  0.681867  0.211968  1
  Ho  Ho4  1  0.818045  0.681867  0.788032  1
  Ho  Ho5  1  0.681103  0.181104  0.788446  1
  Ho  Ho6  1  0.181864  0.318043  0.788035  1
  Ho  Ho7  1  0.181864  0.318043  0.211965  1
  Ho  Ho8  1  0.000786  0.997765  0.500000  1
  Ho  Ho9  1  0.497769  0.500787  0.500000  1
  Zn  Zn10  1  0.878225  0.378224  0.500000  1
  Zn  Zn11  1  0.381719  0.118216  0.500000  1
  Zn  Zn12  1  0.618212  0.881699  0.500000  1
  B  B13  1  0.172000  0.040677  0.000000  1
  B  B14  1  0.827858  0.959621  0.000000  1
  B  B15  1  0.959264  0.172242  0.000000  1
  B  B16  1  0.327668  0.540782  0.000000  1
  B  B17  1  0.040781  0.827661  0.000000  1
  B  B18  1  0.672235  0.459263  0.000000  1
  B  B19  1  0.540680  0.671994  0.000000  1
  B  B20  1  0.459621  0.327860  0.000000  1
  B  B21  1  0.090549  0.590549  0.000000  1
  B  B22  1  0.909554  0.409550  0.000000  1
  B  B23  1  0.409576  0.090552  0.000000  1
  B  B24  1  0.590555  0.909577  0.000000  1
  B  B25  1  0.999890  0.000540  0.157459  1
  B  B26  1  0.999890  0.000540  0.842541  1
  B  B27  1  0.500540  0.499891  0.842542  1
  B  B28  1  0.500540  0.499891  0.157458  1
  Au  Au29  1  0.123835  0.623863  0.500000  1
