# generated using pymatgen
data_Y(Ag3O4)2
_symmetry_space_group_name_H-M   'P 1'
_cell_length_a   7.15396848
_cell_length_b   7.15396879
_cell_length_c   7.15396800
_cell_angle_alpha   59.99999438
_cell_angle_beta   59.99999296
_cell_angle_gamma   60.00000207
_symmetry_Int_Tables_number   1
_chemical_formula_structural   Y(Ag3O4)2
_chemical_formula_sum   'Y1 Ag6 O8'
_cell_volume   258.89640723
_cell_formula_units_Z   1
loop_
 _symmetry_equiv_pos_site_id
 _symmetry_equiv_pos_as_xyz
  1  'x, y, z'
loop_
 _atom_site_type_symbol
 _atom_site_label
 _atom_site_symmetry_multiplicity
 _atom_site_fract_x
 _atom_site_fract_y
 _atom_site_fract_z
 _atom_site_occupancy
  Y  Y0  1  0.000000  0.000000  0.000000  1
  Ag  Ag1  1  0.000000  0.000000  0.500000  1
  Ag  Ag2  1  0.500000  0.000000  0.000000  1
  Ag  Ag3  1  0.000000  0.500000  0.000000  1
  Ag  Ag4  1  0.500000  0.500000  0.000000  1
  Ag  Ag5  1  0.000000  0.500000  0.500000  1
  Ag  Ag6  1  0.500000  0.000000  0.500000  1
  O  O7  1  0.138054  0.138054  0.585838  1
  O  O8  1  0.138054  0.585838  0.138054  1
  O  O9  1  0.585838  0.138054  0.138054  1
  O  O10  1  0.861946  0.414162  0.861946  1
  O  O11  1  0.138054  0.138054  0.138054  1
  O  O12  1  0.861946  0.861946  0.861946  1
  O  O13  1  0.861946  0.861946  0.414162  1
  O  O14  1  0.414162  0.861946  0.861946  1
