# generated using pymatgen
data_LaTh2(ZnPd)4
_symmetry_space_group_name_H-M   'P 1'
_cell_length_a   8.40655865
_cell_length_b   8.40655971
_cell_length_c   8.40655909
_cell_angle_alpha   151.96921577
_cell_angle_beta   125.18314790
_cell_angle_gamma   62.68467768
_symmetry_Int_Tables_number   1
_chemical_formula_structural   LaTh2(ZnPd)4
_chemical_formula_sum   'La1 Th2 Zn4 Pd4'
_cell_volume   226.26798931
_cell_formula_units_Z   1
loop_
 _symmetry_equiv_pos_site_id
 _symmetry_equiv_pos_as_xyz
  1  'x, y, z'
loop_
 _atom_site_type_symbol
 _atom_site_label
 _atom_site_symmetry_multiplicity
 _atom_site_fract_x
 _atom_site_fract_y
 _atom_site_fract_z
 _atom_site_occupancy
  La  La0  1  0.500000  0.000000  0.500000  1
  Th  Th1  1  0.871700  0.871700  0.000000  1
  Th  Th2  1  0.128300  0.128300  0.000000  1
  Zn  Zn3  1  0.477561  0.673424  0.804137  1
  Zn  Zn4  1  0.869287  0.673424  0.195863  1
  Zn  Zn5  1  0.130713  0.326576  0.804137  1
  Zn  Zn6  1  0.522439  0.326576  0.195863  1
  Pd  Pd7  1  0.279150  0.779150  0.500000  1
  Pd  Pd8  1  0.720850  0.220850  0.500000  1
  Pd  Pd9  1  0.813335  0.500000  0.313335  1
  Pd  Pd10  1  0.186665  0.500000  0.686665  1
