# generated using pymatgen
data_HoAl3NiHg
_symmetry_space_group_name_H-M   'P 1'
_cell_length_a   8.07343662
_cell_length_b   8.07343727
_cell_length_c   6.74605600
_cell_angle_alpha   90.00000000
_cell_angle_beta   90.00000000
_cell_angle_gamma   150.91470806
_symmetry_Int_Tables_number   1
_chemical_formula_structural   HoAl3NiHg
_chemical_formula_sum   'Ho2 Al6 Ni2 Hg2'
_cell_volume   213.74814919
_cell_formula_units_Z   2
loop_
 _symmetry_equiv_pos_site_id
 _symmetry_equiv_pos_as_xyz
  1  'x, y, z'
loop_
 _atom_site_type_symbol
 _atom_site_label
 _atom_site_symmetry_multiplicity
 _atom_site_fract_x
 _atom_site_fract_y
 _atom_site_fract_z
 _atom_site_occupancy
  Ho  Ho0  1  0.875619  0.124381  0.250000  1
  Ho  Ho1  1  0.124381  0.875619  0.750000  1
  Al  Al2  1  0.922187  0.077813  0.750000  1
  Al  Al3  1  0.077813  0.922187  0.250000  1
  Al  Al4  1  0.309302  0.690698  0.945532  1
  Al  Al5  1  0.690698  0.309302  0.054468  1
  Al  Al6  1  0.690698  0.309302  0.445532  1
  Al  Al7  1  0.309302  0.690698  0.554468  1
  Ni  Ni8  1  0.227425  0.772575  0.250000  1
  Ni  Ni9  1  0.772575  0.227425  0.750000  1
  Hg  Hg10  1  0.500000  0.500000  0.000000  1
  Hg  Hg11  1  0.500000  0.500000  0.500000  1
