# generated using pymatgen
data_Eu10SnGe5H2
_symmetry_space_group_name_H-M   'P 1'
_cell_length_a   9.39467875
_cell_length_b   9.39467948
_cell_length_c   9.39468002
_cell_angle_alpha   129.18114159
_cell_angle_beta   129.18114852
_cell_angle_gamma   74.71927669
_symmetry_Int_Tables_number   1
_chemical_formula_structural   Eu10SnGe5H2
_chemical_formula_sum   'Eu10 Sn1 Ge5 H2'
_cell_volume   485.36785460
_cell_formula_units_Z   1
loop_
 _symmetry_equiv_pos_site_id
 _symmetry_equiv_pos_as_xyz
  1  'x, y, z'
loop_
 _atom_site_type_symbol
 _atom_site_label
 _atom_site_symmetry_multiplicity
 _atom_site_fract_x
 _atom_site_fract_y
 _atom_site_fract_z
 _atom_site_occupancy
  Eu  Eu0  1  0.490851  0.490851  0.000000  1
  Eu  Eu1  1  0.009149  0.009149  0.000000  1
  Eu  Eu2  1  0.527023  0.012837  0.833380  1
  Eu  Eu3  1  0.179457  0.693643  0.166620  1
  Eu  Eu4  1  0.012837  0.179457  0.485814  1
  Eu  Eu5  1  0.693643  0.527023  0.514186  1
  Eu  Eu6  1  0.487163  0.972977  0.166620  1
  Eu  Eu7  1  0.806357  0.320543  0.833380  1
  Eu  Eu8  1  0.972977  0.806357  0.485814  1
  Eu  Eu9  1  0.320543  0.487163  0.514186  1
  Sn  Sn10  1  0.250000  0.250000  0.000000  1
  Ge  Ge11  1  0.750000  0.750000  0.000000  1
  Ge  Ge12  1  0.883161  0.383161  0.266320  1
  Ge  Ge13  1  0.116839  0.616839  0.733680  1
  Ge  Ge14  1  0.383161  0.116839  0.500000  1
  Ge  Ge15  1  0.616839  0.883161  0.500000  1
  H  H16  1  0.250000  0.750000  0.500000  1
  H  H17  1  0.750000  0.250000  0.500000  1
