# generated using pymatgen
data_Tb8HoLu7(Ga3Co)2
_symmetry_space_group_name_H-M   'P 1'
_cell_length_a   9.89480100
_cell_length_b   9.89605229
_cell_length_c   6.97893712
_cell_angle_alpha   89.98147950
_cell_angle_beta   90.00000000
_cell_angle_gamma   119.99581404
_symmetry_Int_Tables_number   1
_chemical_formula_structural   Tb8HoLu7(Ga3Co)2
_chemical_formula_sum   'Tb8 Ho1 Lu7 Ga6 Co2'
_cell_volume   591.84400053
_cell_formula_units_Z   1
loop_
 _symmetry_equiv_pos_site_id
 _symmetry_equiv_pos_as_xyz
  1  'x, y, z'
loop_
 _atom_site_type_symbol
 _atom_site_label
 _atom_site_symmetry_multiplicity
 _atom_site_fract_x
 _atom_site_fract_y
 _atom_site_fract_z
 _atom_site_occupancy
  Tb  Tb0  1  0.535853  0.071704  0.791322  1
  Tb  Tb1  1  0.928406  0.463409  0.792233  1
  Tb  Tb2  1  0.535005  0.463409  0.792233  1
  Tb  Tb3  1  0.464254  0.928510  0.291212  1
  Tb  Tb4  1  0.072432  0.535562  0.290846  1
  Tb  Tb5  1  0.463129  0.535562  0.290846  1
  Tb  Tb6  1  0.000526  0.001052  0.770212  1
  Tb  Tb7  1  0.000176  0.000351  0.268050  1
  Ho  Ho8  1  0.826625  0.653252  0.486679  1
  Lu  Lu9  1  0.348010  0.174089  0.486701  1
  Lu  Lu10  1  0.826077  0.174089  0.486701  1
  Lu  Lu11  1  0.173916  0.347831  0.986473  1
  Lu  Lu12  1  0.652002  0.826014  0.986614  1
  Lu  Lu13  1  0.174013  0.826014  0.986614  1
  Lu  Lu14  1  0.666208  0.332415  0.174701  1
  Lu  Lu15  1  0.333319  0.666638  0.675991  1
  Ga  Ga16  1  0.836253  0.672508  0.042387  1
  Ga  Ga17  1  0.327201  0.163591  0.044248  1
  Ga  Ga18  1  0.836388  0.163591  0.044248  1
  Ga  Ga19  1  0.163776  0.327550  0.544555  1
  Ga  Ga20  1  0.671352  0.837241  0.544773  1
  Ga  Ga21  1  0.165890  0.837241  0.544773  1
  Co  Co22  1  0.665858  0.331715  0.551954  1
  Co  Co23  1  0.333331  0.666662  0.051703  1
