# generated using pymatgen
data_Tb10PrYFe2I17
_symmetry_space_group_name_H-M   'P 1'
_cell_length_a   9.77373964
_cell_length_b   11.79204583
_cell_length_c   11.76399234
_cell_angle_alpha   93.60022055
_cell_angle_beta   104.65196406
_cell_angle_gamma   114.36112230
_symmetry_Int_Tables_number   1
_chemical_formula_structural   Tb10PrYFe2I17
_chemical_formula_sum   'Tb10 Pr1 Y1 Fe2 I17'
_cell_volume   1173.26239830
_cell_formula_units_Z   1
loop_
 _symmetry_equiv_pos_site_id
 _symmetry_equiv_pos_as_xyz
  1  'x, y, z'
loop_
 _atom_site_type_symbol
 _atom_site_label
 _atom_site_symmetry_multiplicity
 _atom_site_fract_x
 _atom_site_fract_y
 _atom_site_fract_z
 _atom_site_occupancy
  Tb  Tb0  1  0.051361  0.500150  0.320201  1
  Tb  Tb1  1  0.989915  0.809333  0.584134  1
  Tb  Tb2  1  0.654681  0.241593  0.281520  1
  Tb  Tb3  1  0.008592  0.192970  0.410411  1
  Tb  Tb4  1  0.220013  0.671169  0.985810  1
  Tb  Tb5  1  0.256597  0.980669  0.889206  1
  Tb  Tb6  1  0.337664  0.757910  0.720432  1
  Tb  Tb7  1  0.946319  0.493376  0.678332  1
  Tb  Tb8  1  0.748087  0.025311  0.112500  1
  Tb  Tb9  1  0.144712  0.288044  0.154210  1
  Pr  Pr10  1  0.854151  0.712861  0.846529  1
  Y  Y11  1  0.782879  0.327400  0.018776  1
  Fe  Fe12  1  0.100993  0.737456  0.785529  1
  Fe  Fe13  1  0.897326  0.262260  0.215027  1
  I  I14  1  0.783590  0.528070  0.418702  1
  I  I15  1  0.644458  0.410379  0.760934  1
  I  I16  1  0.845948  0.897758  0.326102  1
  I  I17  1  0.329023  0.214749  0.368857  1
  I  I18  1  0.156441  0.102347  0.672973  1
  I  I19  1  0.584563  0.050832  0.843132  1
  I  I20  1  0.759412  0.188134  0.538964  1
  I  I21  1  0.546259  0.712477  0.954364  1
  I  I22  1  0.356353  0.581511  0.238324  1
  I  I23  1  0.216958  0.473230  0.584300  1
  I  I24  1  0.058608  0.369695  0.897089  1
  I  I25  1  0.450538  0.289012  0.045079  1
  I  I26  1  0.003813  0.004018  0.000841  1
  I  I27  1  0.240745  0.810703  0.462749  1
  I  I28  1  0.412483  0.946811  0.155598  1
  I  I29  1  0.671324  0.789319  0.623328  1
  I  I30  1  0.946195  0.630456  0.106048  1
