# generated using pymatgen
data_Mn13Cr7Si(WC3)2
_symmetry_space_group_name_H-M   'P 1'
_cell_length_a   7.44235259
_cell_length_b   7.44130833
_cell_length_c   7.44194587
_cell_angle_alpha   60.10608206
_cell_angle_beta   59.99818625
_cell_angle_gamma   59.99534742
_symmetry_Int_Tables_number   1
_chemical_formula_structural   Mn13Cr7Si(WC3)2
_chemical_formula_sum   'Mn13 Cr7 Si1 W2 C6'
_cell_volume   291.64649495
_cell_formula_units_Z   1
loop_
 _symmetry_equiv_pos_site_id
 _symmetry_equiv_pos_as_xyz
  1  'x, y, z'
loop_
 _atom_site_type_symbol
 _atom_site_label
 _atom_site_symmetry_multiplicity
 _atom_site_fract_x
 _atom_site_fract_y
 _atom_site_fract_z
 _atom_site_occupancy
  Mn  Mn0  1  0.616203  0.614645  0.152947  1
  Mn  Mn1  1  0.616445  0.153013  0.614096  1
  Mn  Mn2  1  0.153170  0.615722  0.615735  1
  Mn  Mn3  1  0.615373  0.615722  0.615735  1
  Mn  Mn4  1  0.384411  0.383911  0.847267  1
  Mn  Mn5  1  0.384694  0.847309  0.383305  1
  Mn  Mn6  1  0.847565  0.384133  0.383593  1
  Mn  Mn7  1  0.384709  0.384133  0.383593  1
  Mn  Mn8  1  0.999873  0.999295  0.339283  1
  Mn  Mn9  1  0.661549  0.999295  0.339283  1
  Mn  Mn10  1  0.998817  0.662047  0.340319  1
  Mn  Mn11  1  0.661066  0.339036  0.999536  1
  Mn  Mn12  1  0.000362  0.339036  0.999536  1
  Cr  Cr13  1  0.999402  0.341133  0.660063  1
  Cr  Cr14  1  0.340189  0.658991  0.000666  1
  Cr  Cr15  1  0.340177  0.000871  0.659155  1
  Cr  Cr16  1  0.338662  0.000004  0.000665  1
  Cr  Cr17  1  0.999797  0.000871  0.659155  1
  Cr  Cr18  1  0.000154  0.658991  0.000666  1
  Cr  Cr19  1  0.660669  0.000004  0.000665  1
  Si  Si20  1  0.997617  0.001091  0.003675  1
  W  W21  1  0.750301  0.750210  0.749187  1
  W  W22  1  0.249579  0.250179  0.250663  1
  C  C23  1  0.719657  0.719724  0.282330  1
  C  C24  1  0.278289  0.719724  0.282330  1
  C  C25  1  0.721709  0.278508  0.278074  1
  C  C26  1  0.280727  0.281885  0.720043  1
  C  C27  1  0.717346  0.281885  0.720043  1
  C  C28  1  0.281488  0.718633  0.718391  1
