# generated using pymatgen
data_Sm3Dy5Tc(B8Os)3
_symmetry_space_group_name_H-M   'P 1'
_cell_length_a   3.69994700
_cell_length_b   9.19421794
_cell_length_c   11.59854300
_cell_angle_alpha   89.90385700
_cell_angle_beta   90.00000000
_cell_angle_gamma   90.00000000
_symmetry_Int_Tables_number   1
_chemical_formula_structural   Sm3Dy5Tc(B8Os)3
_chemical_formula_sum   'Sm3 Dy5 Tc1 B24 Os3'
_cell_volume   394.56006167
_cell_formula_units_Z   1
loop_
 _symmetry_equiv_pos_site_id
 _symmetry_equiv_pos_as_xyz
  1  'x, y, z'
loop_
 _atom_site_type_symbol
 _atom_site_label
 _atom_site_symmetry_multiplicity
 _atom_site_fract_x
 _atom_site_fract_y
 _atom_site_fract_z
 _atom_site_occupancy
  Sm  Sm0  1  0.000000  0.324136  0.413139  1
  Sm  Sm1  1  0.000000  0.676811  0.584170  1
  Sm  Sm2  1  0.000000  0.821277  0.087497  1
  Dy  Dy3  1  0.000000  0.177132  0.915083  1
  Dy  Dy4  1  0.000000  0.943053  0.372033  1
  Dy  Dy5  1  0.000000  0.056960  0.628315  1
  Dy  Dy6  1  0.000000  0.444473  0.127843  1
  Dy  Dy7  1  0.000000  0.556248  0.871866  1
  Tc  Tc8  1  0.000000  0.638388  0.320447  1
  B  B9  1  0.500000  0.554045  0.431625  1
  B  B10  1  0.500000  0.444991  0.568981  1
  B  B11  1  0.500000  0.055054  0.067303  1
  B  B12  1  0.500000  0.946376  0.932097  1
  B  B13  1  0.500000  0.748536  0.418017  1
  B  B14  1  0.500000  0.251455  0.582480  1
  B  B15  1  0.500000  0.248308  0.080161  1
  B  B16  1  0.500000  0.751811  0.918238  1
  B  B17  1  0.500000  0.790767  0.266571  1
  B  B18  1  0.500000  0.208783  0.734519  1
  B  B19  1  0.500000  0.290363  0.231897  1
  B  B20  1  0.500000  0.710442  0.766982  1
  B  B21  1  0.500000  0.631248  0.185907  1
  B  B22  1  0.500000  0.367354  0.815237  1
  B  B23  1  0.500000  0.131386  0.313363  1
  B  B24  1  0.500000  0.869644  0.686234  1
  B  B25  1  0.500000  0.984782  0.212826  1
  B  B26  1  0.500000  0.016770  0.787872  1
  B  B27  1  0.500000  0.484017  0.286410  1
  B  B28  1  0.500000  0.514480  0.713732  1
  B  B29  1  0.500000  0.605702  0.028500  1
  B  B30  1  0.500000  0.391987  0.969948  1
  B  B31  1  0.500000  0.105420  0.471311  1
  B  B32  1  0.500000  0.896087  0.529451  1
  Os  Os33  1  0.000000  0.360493  0.680850  1
  Os  Os34  1  0.000000  0.138263  0.177828  1
  Os  Os35  1  0.000000  0.862960  0.821267  1
