# generated using pymatgen
data_HfNbCo2SiAs
_symmetry_space_group_name_H-M   'P 1'
_cell_length_a   3.74730700
_cell_length_b   6.35956100
_cell_length_c   7.16680600
_cell_angle_alpha   90.00000000
_cell_angle_beta   90.00000000
_cell_angle_gamma   90.00000000
_symmetry_Int_Tables_number   1
_chemical_formula_structural   HfNbCo2SiAs
_chemical_formula_sum   'Hf2 Nb2 Co4 Si2 As2'
_cell_volume   170.79378389
_cell_formula_units_Z   2
loop_
 _symmetry_equiv_pos_site_id
 _symmetry_equiv_pos_as_xyz
  1  'x, y, z'
loop_
 _atom_site_type_symbol
 _atom_site_label
 _atom_site_symmetry_multiplicity
 _atom_site_fract_x
 _atom_site_fract_y
 _atom_site_fract_z
 _atom_site_occupancy
  Hf  Hf0  1  0.250000  0.022886  0.819577  1
  Hf  Hf1  1  0.250000  0.522886  0.680423  1
  Nb  Nb2  1  0.750000  0.982783  0.185569  1
  Nb  Nb3  1  0.750000  0.482783  0.314431  1
  Co  Co4  1  0.250000  0.136214  0.432896  1
  Co  Co5  1  0.250000  0.636214  0.067104  1
  Co  Co6  1  0.750000  0.855753  0.560539  1
  Co  Co7  1  0.750000  0.355753  0.939461  1
  Si  Si8  1  0.250000  0.773766  0.377558  1
  Si  Si9  1  0.250000  0.273766  0.122442  1
  As  As10  1  0.750000  0.228599  0.610346  1
  As  As11  1  0.750000  0.728599  0.889654  1
