# generated using pymatgen
data_Cs3KOs2O9
_symmetry_space_group_name_H-M   'P 1'
_cell_length_a   6.60550500
_cell_length_b   6.60550500
_cell_length_c   15.49376500
_cell_angle_alpha   90.00000000
_cell_angle_beta   90.00000000
_cell_angle_gamma   119.99998498
_symmetry_Int_Tables_number   1
_chemical_formula_structural   Cs3KOs2O9
_chemical_formula_sum   'Cs6 K2 Os4 O18'
_cell_volume   585.46334971
_cell_formula_units_Z   2
loop_
 _symmetry_equiv_pos_site_id
 _symmetry_equiv_pos_as_xyz
  1  'x, y, z'
loop_
 _atom_site_type_symbol
 _atom_site_label
 _atom_site_symmetry_multiplicity
 _atom_site_fract_x
 _atom_site_fract_y
 _atom_site_fract_z
 _atom_site_occupancy
  Cs  Cs0  1  0.000000  0.000000  0.250000  1
  Cs  Cs1  1  0.000000  0.000000  0.750000  1
  Cs  Cs2  1  0.333333  0.666667  0.396570  1
  Cs  Cs3  1  0.666667  0.333333  0.603430  1
  Cs  Cs4  1  0.666667  0.333333  0.896570  1
  Cs  Cs5  1  0.333333  0.666667  0.103430  1
  K  K6  1  0.000000  0.000000  0.500000  1
  K  K7  1  0.000000  0.000000  0.000000  1
  Os  Os8  1  0.666667  0.333333  0.344115  1
  Os  Os9  1  0.333333  0.666667  0.655885  1
  Os  Os10  1  0.333333  0.666667  0.844115  1
  Os  Os11  1  0.666667  0.333333  0.155885  1
  O  O12  1  0.542820  0.457180  0.250000  1
  O  O13  1  0.542820  0.085638  0.250000  1
  O  O14  1  0.914362  0.457180  0.250000  1
  O  O15  1  0.457180  0.542820  0.750000  1
  O  O16  1  0.457180  0.914362  0.750000  1
  O  O17  1  0.085638  0.542820  0.750000  1
  O  O18  1  0.387820  0.193911  0.400177  1
  O  O19  1  0.806089  0.193911  0.400177  1
  O  O20  1  0.806089  0.612180  0.400177  1
  O  O21  1  0.612180  0.806089  0.599823  1
  O  O22  1  0.193911  0.806089  0.599823  1
  O  O23  1  0.193911  0.387820  0.599823  1
  O  O24  1  0.612180  0.806089  0.900177  1
  O  O25  1  0.193911  0.806089  0.900177  1
  O  O26  1  0.193911  0.387820  0.900177  1
  O  O27  1  0.387820  0.193911  0.099823  1
  O  O28  1  0.806089  0.193911  0.099823  1
  O  O29  1  0.806089  0.612180  0.099823  1
