# generated using pymatgen
data_Ta11VS2
_symmetry_space_group_name_H-M   'P 1'
_cell_length_a   5.20121425
_cell_length_b   7.53524638
_cell_length_c   7.56352190
_cell_angle_alpha   114.33538833
_cell_angle_beta   97.92254597
_cell_angle_gamma   108.82354420
_symmetry_Int_Tables_number   1
_chemical_formula_structural   Ta11VS2
_chemical_formula_sum   'Ta11 V1 S2'
_cell_volume   242.71956208
_cell_formula_units_Z   1
loop_
 _symmetry_equiv_pos_site_id
 _symmetry_equiv_pos_as_xyz
  1  'x, y, z'
loop_
 _atom_site_type_symbol
 _atom_site_label
 _atom_site_symmetry_multiplicity
 _atom_site_fract_x
 _atom_site_fract_y
 _atom_site_fract_z
 _atom_site_occupancy
  Ta  Ta0  1  0.559075  0.775989  0.593639  1
  Ta  Ta1  1  0.440925  0.224011  0.406361  1
  Ta  Ta2  1  0.000715  0.365328  0.289739  1
  Ta  Ta3  1  0.500000  0.000000  0.000000  1
  Ta  Ta4  1  0.148514  0.723064  0.148691  1
  Ta  Ta5  1  0.225486  0.063315  0.694140  1
  Ta  Ta6  1  0.530934  0.578147  0.866237  1
  Ta  Ta7  1  0.774514  0.936685  0.305860  1
  Ta  Ta8  1  0.851486  0.276936  0.851309  1
  Ta  Ta9  1  0.999285  0.634672  0.710261  1
  Ta  Ta10  1  0.469066  0.421853  0.133763  1
  V  V11  1  0.000000  0.000000  0.000000  1
  S  S12  1  0.074474  0.302255  0.585392  1
  S  S13  1  0.925526  0.697745  0.414608  1
