# generated using pymatgen
data_TbYbHo2(B6Os)2
_symmetry_space_group_name_H-M   'P 1'
_cell_length_a   3.64877400
_cell_length_b   9.15529299
_cell_length_c   11.55034005
_cell_angle_alpha   89.84871705
_cell_angle_beta   90.00000000
_cell_angle_gamma   90.00000000
_symmetry_Int_Tables_number   1
_chemical_formula_structural   TbYbHo2(B6Os)2
_chemical_formula_sum   'Tb2 Yb2 Ho4 B24 Os4'
_cell_volume   385.84463715
_cell_formula_units_Z   2
loop_
 _symmetry_equiv_pos_site_id
 _symmetry_equiv_pos_as_xyz
  1  'x, y, z'
loop_
 _atom_site_type_symbol
 _atom_site_label
 _atom_site_symmetry_multiplicity
 _atom_site_fract_x
 _atom_site_fract_y
 _atom_site_fract_z
 _atom_site_occupancy
  Tb  Tb0  1  0.000000  0.822096  0.086535  1
  Tb  Tb1  1  0.000000  0.177904  0.913465  1
  Yb  Yb2  1  0.000000  0.324822  0.414478  1
  Yb  Yb3  1  0.000000  0.675178  0.585522  1
  Ho  Ho4  1  0.000000  0.942102  0.370716  1
  Ho  Ho5  1  0.000000  0.057898  0.629284  1
  Ho  Ho6  1  0.000000  0.443011  0.130412  1
  Ho  Ho7  1  0.000000  0.556989  0.869588  1
  B  B8  1  0.500000  0.553836  0.432768  1
  B  B9  1  0.500000  0.446164  0.567232  1
  B  B10  1  0.500000  0.053822  0.067380  1
  B  B11  1  0.500000  0.946178  0.932620  1
  B  B12  1  0.500000  0.747791  0.418458  1
  B  B13  1  0.500000  0.252209  0.581542  1
  B  B14  1  0.500000  0.248393  0.081766  1
  B  B15  1  0.500000  0.751607  0.918234  1
  B  B16  1  0.500000  0.790689  0.265621  1
  B  B17  1  0.500000  0.209311  0.734379  1
  B  B18  1  0.500000  0.290419  0.234597  1
  B  B19  1  0.500000  0.709581  0.765403  1
  B  B20  1  0.500000  0.631178  0.185989  1
  B  B21  1  0.500000  0.368822  0.814011  1
  B  B22  1  0.500000  0.131064  0.314229  1
  B  B23  1  0.500000  0.868936  0.685771  1
  B  B24  1  0.500000  0.983508  0.212251  1
  B  B25  1  0.500000  0.016492  0.787749  1
  B  B26  1  0.500000  0.483779  0.288449  1
  B  B27  1  0.500000  0.516221  0.711551  1
  B  B28  1  0.500000  0.603201  0.028533  1
  B  B29  1  0.500000  0.396799  0.971467  1
  B  B30  1  0.500000  0.099780  0.472289  1
  B  B31  1  0.500000  0.900220  0.527711  1
  Os  Os32  1  0.000000  0.639274  0.319691  1
  Os  Os33  1  0.000000  0.360726  0.680309  1
  Os  Os34  1  0.000000  0.137174  0.178358  1
  Os  Os35  1  0.000000  0.862826  0.821642  1
