# generated using pymatgen
data_HfAsO4F
_symmetry_space_group_name_H-M   'P 1'
_cell_length_a   5.66344496
_cell_length_b   5.64671874
_cell_length_c   7.98279196
_cell_angle_alpha   109.88685120
_cell_angle_beta   107.53767119
_cell_angle_gamma   95.44544614
_symmetry_Int_Tables_number   1
_chemical_formula_structural   HfAsO4F
_chemical_formula_sum   'Hf2 As2 O8 F2'
_cell_volume   223.29039024
_cell_formula_units_Z   2
loop_
 _symmetry_equiv_pos_site_id
 _symmetry_equiv_pos_as_xyz
  1  'x, y, z'
loop_
 _atom_site_type_symbol
 _atom_site_label
 _atom_site_symmetry_multiplicity
 _atom_site_fract_x
 _atom_site_fract_y
 _atom_site_fract_z
 _atom_site_occupancy
  Hf  Hf0  1  0.000000  0.000000  0.000000  1
  Hf  Hf1  1  0.500000  0.500000  0.500000  1
  As  As2  1  0.426639  0.121029  0.761926  1
  As  As3  1  0.573361  0.878971  0.238074  1
  O  O4  1  0.256572  0.805733  0.105438  1
  O  O5  1  0.750486  0.855448  0.096701  1
  O  O6  1  0.651788  0.189586  0.403961  1
  O  O7  1  0.635776  0.667390  0.346686  1
  O  O8  1  0.249514  0.144552  0.903299  1
  O  O9  1  0.348212  0.810414  0.596039  1
  O  O10  1  0.364224  0.332610  0.653314  1
  O  O11  1  0.743428  0.194267  0.894562  1
  F  F12  1  0.168553  0.311780  0.262220  1
  F  F13  1  0.831447  0.688220  0.737780  1
