# generated using pymatgen
data_PrSm6Ho13Sn16
_symmetry_space_group_name_H-M   'P 1'
_cell_length_a   8.04713712
_cell_length_b   8.19634796
_cell_length_c   15.46352100
_cell_angle_alpha   90.04620657
_cell_angle_beta   90.31305461
_cell_angle_gamma   89.73229772
_symmetry_Int_Tables_number   1
_chemical_formula_structural   PrSm6Ho13Sn16
_chemical_formula_sum   'Pr1 Sm6 Ho13 Sn16'
_cell_volume   1019.90288876
_cell_formula_units_Z   1
loop_
 _symmetry_equiv_pos_site_id
 _symmetry_equiv_pos_as_xyz
  1  'x, y, z'
loop_
 _atom_site_type_symbol
 _atom_site_label
 _atom_site_symmetry_multiplicity
 _atom_site_fract_x
 _atom_site_fract_y
 _atom_site_fract_z
 _atom_site_occupancy
  Pr  Pr0  1  0.011282  0.178872  0.903971  1
  Sm  Sm1  1  0.011805  0.178667  0.597476  1
  Sm  Sm2  1  0.489330  0.677774  0.404180  1
  Sm  Sm3  1  0.988994  0.820580  0.095707  1
  Sm  Sm4  1  0.486859  0.677099  0.096044  1
  Sm  Sm5  1  0.988858  0.822081  0.404249  1
  Sm  Sm6  1  0.509904  0.323179  0.595154  1
  Ho  Ho7  1  0.357066  0.835213  0.875882  1
  Ho  Ho8  1  0.854658  0.664922  0.623738  1
  Ho  Ho9  1  0.644389  0.164690  0.375880  1
  Ho  Ho10  1  0.141621  0.337007  0.122505  1
  Ho  Ho11  1  0.642220  0.164265  0.123895  1
  Ho  Ho12  1  0.144254  0.335278  0.376589  1
  Ho  Ho13  1  0.355882  0.835760  0.624985  1
  Ho  Ho14  1  0.858350  0.663068  0.877370  1
  Ho  Ho15  1  0.516085  0.322850  0.902621  1
  Ho  Ho16  1  0.189124  0.501395  0.750522  1
  Ho  Ho17  1  0.688275  0.997637  0.750280  1
  Ho  Ho18  1  0.810353  0.498177  0.249410  1
  Ho  Ho19  1  0.311228  0.002080  0.249648  1
  Sn  Sn20  1  0.307967  0.039766  0.041541  1
  Sn  Sn21  1  0.806873  0.459101  0.458814  1
  Sn  Sn22  1  0.692633  0.961203  0.541734  1
  Sn  Sn23  1  0.202282  0.538020  0.957698  1
  Sn  Sn24  1  0.691544  0.960066  0.958640  1
  Sn  Sn25  1  0.192404  0.542033  0.541585  1
  Sn  Sn26  1  0.307615  0.039638  0.458939  1
  Sn  Sn27  1  0.799608  0.458299  0.040442  1
  Sn  Sn28  1  0.554666  0.619286  0.750666  1
  Sn  Sn29  1  0.053767  0.877535  0.750303  1
  Sn  Sn30  1  0.444453  0.379794  0.249860  1
  Sn  Sn31  1  0.945927  0.121812  0.249425  1
  Sn  Sn32  1  0.324059  0.147435  0.750742  1
  Sn  Sn33  1  0.817290  0.355959  0.749229  1
  Sn  Sn34  1  0.679492  0.854149  0.250042  1
  Sn  Sn35  1  0.178886  0.645311  0.250236  1
