# generated using pymatgen
data_Hf8In4FePdAu6
_symmetry_space_group_name_H-M   'P 1'
_cell_length_a   7.52547672
_cell_length_b   7.52547666
_cell_length_c   6.99775197
_cell_angle_alpha   89.74877998
_cell_angle_beta   90.25123121
_cell_angle_gamma   89.72357407
_symmetry_Int_Tables_number   1
_chemical_formula_structural   Hf8In4FePdAu6
_chemical_formula_sum   'Hf8 In4 Fe1 Pd1 Au6'
_cell_volume   396.29001500
_cell_formula_units_Z   1
loop_
 _symmetry_equiv_pos_site_id
 _symmetry_equiv_pos_as_xyz
  1  'x, y, z'
loop_
 _atom_site_type_symbol
 _atom_site_label
 _atom_site_symmetry_multiplicity
 _atom_site_fract_x
 _atom_site_fract_y
 _atom_site_fract_z
 _atom_site_occupancy
  Hf  Hf0  1  0.157276  0.125463  0.014167  1
  Hf  Hf1  1  0.874537  0.842724  0.014167  1
  Hf  Hf2  1  0.639791  0.360209  0.502773  1
  Hf  Hf3  1  0.334705  0.665295  0.486958  1
  Hf  Hf4  1  0.690208  0.309792  0.999806  1
  Hf  Hf5  1  0.296212  0.703788  0.010950  1
  Hf  Hf6  1  0.833226  0.810100  0.492830  1
  Hf  Hf7  1  0.189900  0.166774  0.492830  1
  In  In8  1  0.494038  0.997231  0.254137  1
  In  In9  1  0.498856  0.997359  0.749432  1
  In  In10  1  0.002769  0.505962  0.254137  1
  In  In11  1  0.002641  0.501144  0.749432  1
  Fe  Fe12  1  0.127602  0.872398  0.274080  1
  Pd  Pd13  1  0.131285  0.868715  0.705615  1
  Au  Au14  1  0.367638  0.370641  0.208394  1
  Au  Au15  1  0.629247  0.635783  0.787079  1
  Au  Au16  1  0.629359  0.632362  0.208394  1
  Au  Au17  1  0.869452  0.130548  0.714848  1
  Au  Au18  1  0.867042  0.132958  0.292895  1
  Au  Au19  1  0.364217  0.370753  0.787079  1
