# generated using pymatgen
data_Tb10IrPdPb6
_symmetry_space_group_name_H-M   'P 1'
_cell_length_a   9.25925200
_cell_length_b   9.25925247
_cell_length_c   6.88821500
_cell_angle_alpha   90.00000000
_cell_angle_beta   90.00000000
_cell_angle_gamma   119.99999830
_symmetry_Int_Tables_number   1
_chemical_formula_structural   Tb10IrPdPb6
_chemical_formula_sum   'Tb10 Ir1 Pd1 Pb6'
_cell_volume   511.43349028
_cell_formula_units_Z   1
loop_
 _symmetry_equiv_pos_site_id
 _symmetry_equiv_pos_as_xyz
  1  'x, y, z'
loop_
 _atom_site_type_symbol
 _atom_site_label
 _atom_site_symmetry_multiplicity
 _atom_site_fract_x
 _atom_site_fract_y
 _atom_site_fract_z
 _atom_site_occupancy
  Tb  Tb0  1  0.241393  0.241393  0.740497  1
  Tb  Tb1  1  0.000000  0.758607  0.740497  1
  Tb  Tb2  1  0.241393  0.000000  0.259503  1
  Tb  Tb3  1  0.758607  0.000000  0.740497  1
  Tb  Tb4  1  0.333333  0.666667  0.500000  1
  Tb  Tb5  1  0.666667  0.333333  0.500000  1
  Tb  Tb6  1  0.758607  0.758607  0.259503  1
  Tb  Tb7  1  0.000000  0.241393  0.259503  1
  Tb  Tb8  1  0.333333  0.666667  0.000000  1
  Tb  Tb9  1  0.666667  0.333333  0.000000  1
  Ir  Ir10  1  0.000000  0.000000  0.500000  1
  Pd  Pd11  1  0.000000  0.000000  0.000000  1
  Pb  Pb12  1  0.596848  0.000000  0.248077  1
  Pb  Pb13  1  0.000000  0.596848  0.248077  1
  Pb  Pb14  1  0.596848  0.596848  0.751923  1
  Pb  Pb15  1  0.403152  0.403152  0.248077  1
  Pb  Pb16  1  0.000000  0.403152  0.751923  1
  Pb  Pb17  1  0.403152  0.000000  0.751923  1
