# generated using pymatgen
data_Mg4Cu2AsPd9
_symmetry_space_group_name_H-M   'P 1'
_cell_length_a   6.77356547
_cell_length_b   6.77356516
_cell_length_c   6.77356500
_cell_angle_alpha   106.34394426
_cell_angle_beta   106.34394348
_cell_angle_gamma   115.92500325
_symmetry_Int_Tables_number   1
_chemical_formula_structural   Mg4Cu2AsPd9
_chemical_formula_sum   'Mg4 Cu2 As1 Pd9'
_cell_volume   236.93637054
_cell_formula_units_Z   1
loop_
 _symmetry_equiv_pos_site_id
 _symmetry_equiv_pos_as_xyz
  1  'x, y, z'
loop_
 _atom_site_type_symbol
 _atom_site_label
 _atom_site_symmetry_multiplicity
 _atom_site_fract_x
 _atom_site_fract_y
 _atom_site_fract_z
 _atom_site_occupancy
  Mg  Mg0  1  0.231253  0.231253  0.462507  1
  Mg  Mg1  1  0.768747  0.768747  0.537493  1
  Mg  Mg2  1  0.231253  0.768747  0.000000  1
  Mg  Mg3  1  0.768747  0.231253  0.000000  1
  Cu  Cu4  1  0.500000  0.000000  0.500000  1
  Cu  Cu5  1  0.000000  0.500000  0.500000  1
  As  As6  1  0.500000  0.500000  0.000000  1
  Pd  Pd7  1  0.523371  0.271536  0.251833  1
  Pd  Pd8  1  0.476629  0.728464  0.748167  1
  Pd  Pd9  1  0.019702  0.271536  0.748167  1
  Pd  Pd10  1  0.271536  0.019702  0.748167  1
  Pd  Pd11  1  0.980298  0.728464  0.251833  1
  Pd  Pd12  1  0.728464  0.980298  0.251833  1
  Pd  Pd13  1  0.271536  0.523371  0.251833  1
  Pd  Pd14  1  0.728464  0.476629  0.748167  1
  Pd  Pd15  1  0.000000  0.000000  0.000000  1
