# generated using pymatgen
data_Tm8Ga(Pd5Pt3)3
_symmetry_space_group_name_H-M   'P 1'
_cell_length_a   8.33138706
_cell_length_b   8.33138713
_cell_length_c   8.33138700
_cell_angle_alpha   90.00702840
_cell_angle_beta   90.00702840
_cell_angle_gamma   89.99297074
_symmetry_Int_Tables_number   1
_chemical_formula_structural   Tm8Ga(Pd5Pt3)3
_chemical_formula_sum   'Tm8 Ga1 Pd15 Pt9'
_cell_volume   578.29831229
_cell_formula_units_Z   1
loop_
 _symmetry_equiv_pos_site_id
 _symmetry_equiv_pos_as_xyz
  1  'x, y, z'
loop_
 _atom_site_type_symbol
 _atom_site_label
 _atom_site_symmetry_multiplicity
 _atom_site_fract_x
 _atom_site_fract_y
 _atom_site_fract_z
 _atom_site_occupancy
  Tm  Tm0  1  0.252467  0.252467  0.747533  1
  Tm  Tm1  1  0.252730  0.747873  0.253120  1
  Tm  Tm2  1  0.746880  0.252730  0.252127  1
  Tm  Tm3  1  0.747873  0.746880  0.747270  1
  Tm  Tm4  1  0.747233  0.747233  0.252767  1
  Tm  Tm5  1  0.747513  0.253107  0.747918  1
  Tm  Tm6  1  0.252082  0.747513  0.746893  1
  Tm  Tm7  1  0.253107  0.252082  0.252487  1
  Ga  Ga8  1  0.000242  0.000242  0.999758  1
  Pd  Pd9  1  0.999561  0.999971  0.708925  1
  Pd  Pd10  1  0.999971  0.291075  0.000439  1
  Pd  Pd11  1  0.291075  0.999561  0.000029  1
  Pd  Pd12  1  0.999555  0.000007  0.290777  1
  Pd  Pd13  1  0.000007  0.709223  0.000445  1
  Pd  Pd14  1  0.709223  0.999555  0.999993  1
  Pd  Pd15  1  0.000228  0.259684  0.499730  1
  Pd  Pd16  1  0.500270  0.000228  0.740316  1
  Pd  Pd17  1  0.259684  0.500270  0.999772  1
  Pd  Pd18  1  0.999930  0.500060  0.260066  1
  Pd  Pd19  1  0.500060  0.739934  0.000070  1
  Pd  Pd20  1  0.000155  0.740465  0.499653  1
  Pd  Pd21  1  0.500347  0.000155  0.259535  1
  Pd  Pd22  1  0.739934  0.999930  0.499940  1
  Pd  Pd23  1  0.740465  0.500347  0.999845  1
  Pt  Pt24  1  0.500074  0.499885  0.747950  1
  Pt  Pt25  1  0.499885  0.252050  0.499926  1
  Pt  Pt26  1  0.252050  0.500074  0.500115  1
  Pt  Pt27  1  0.500070  0.499866  0.252294  1
  Pt  Pt28  1  0.499866  0.747706  0.499930  1
  Pt  Pt29  1  0.747706  0.500070  0.500134  1
  Pt  Pt30  1  0.999934  0.500050  0.740229  1
  Pt  Pt31  1  0.500050  0.259771  0.000066  1
  Pt  Pt32  1  0.259771  0.999934  0.499950  1
