# generated using pymatgen
data_Tb4Ho4Lu4Co5Bi
_symmetry_space_group_name_H-M   'P 1'
_cell_length_a   8.24905776
_cell_length_b   8.24905774
_cell_length_c   8.24905754
_cell_angle_alpha   111.26708892
_cell_angle_beta   110.52787259
_cell_angle_gamma   106.65577403
_symmetry_Int_Tables_number   1
_chemical_formula_structural   Tb4Ho4Lu4Co5Bi
_chemical_formula_sum   'Tb4 Ho4 Lu4 Co5 Bi1'
_cell_volume   431.31020128
_cell_formula_units_Z   1
loop_
 _symmetry_equiv_pos_site_id
 _symmetry_equiv_pos_as_xyz
  1  'x, y, z'
loop_
 _atom_site_type_symbol
 _atom_site_label
 _atom_site_symmetry_multiplicity
 _atom_site_fract_x
 _atom_site_fract_y
 _atom_site_fract_z
 _atom_site_occupancy
  Tb  Tb0  1  0.596664  0.791987  0.804678  1
  Tb  Tb1  1  0.403336  0.208013  0.195322  1
  Tb  Tb2  1  0.987310  0.791987  0.195322  1
  Tb  Tb3  1  0.012690  0.208013  0.804678  1
  Ho  Ho4  1  0.816801  0.710192  0.526993  1
  Ho  Ho5  1  0.183199  0.289808  0.473007  1
  Ho  Ho6  1  0.183199  0.710192  0.893392  1
  Ho  Ho7  1  0.816801  0.289808  0.106608  1
  Lu  Lu8  1  0.686682  0.376175  0.689493  1
  Lu  Lu9  1  0.313318  0.623825  0.310507  1
  Lu  Lu10  1  0.686682  0.997190  0.310507  1
  Lu  Lu11  1  0.313318  0.002810  0.689493  1
  Co  Co12  1  0.623304  0.000000  0.623304  1
  Co  Co13  1  0.376696  0.000000  0.376696  1
  Co  Co14  1  0.112568  0.612568  0.500000  1
  Co  Co15  1  0.887432  0.387432  0.500000  1
  Co  Co16  1  0.000000  0.000000  0.000000  1
  Bi  Bi17  1  0.500000  0.500000  0.000000  1
