# generated using pymatgen
data_Y3ErCdPt
_symmetry_space_group_name_H-M   'P 1'
_cell_length_a   9.70388035
_cell_length_b   9.70388098
_cell_length_c   9.70388100
_cell_angle_alpha   60.00000336
_cell_angle_beta   60.00000119
_cell_angle_gamma   60.00000296
_symmetry_Int_Tables_number   1
_chemical_formula_structural   Y3ErCdPt
_chemical_formula_sum   'Y12 Er4 Cd4 Pt4'
_cell_volume   646.13219800
_cell_formula_units_Z   4
loop_
 _symmetry_equiv_pos_site_id
 _symmetry_equiv_pos_as_xyz
  1  'x, y, z'
loop_
 _atom_site_type_symbol
 _atom_site_label
 _atom_site_symmetry_multiplicity
 _atom_site_fract_x
 _atom_site_fract_y
 _atom_site_fract_z
 _atom_site_occupancy
  Y  Y0  1  0.809726  0.190274  0.190274  1
  Y  Y1  1  0.190274  0.809726  0.809726  1
  Y  Y2  1  0.190274  0.809726  0.190274  1
  Y  Y3  1  0.809726  0.190274  0.809726  1
  Y  Y4  1  0.190274  0.190274  0.809726  1
  Y  Y5  1  0.809726  0.809726  0.190274  1
  Y  Y6  1  0.935780  0.564220  0.564220  1
  Y  Y7  1  0.564220  0.935780  0.935780  1
  Y  Y8  1  0.564220  0.935780  0.564220  1
  Y  Y9  1  0.935780  0.564220  0.935780  1
  Y  Y10  1  0.564220  0.564220  0.935780  1
  Y  Y11  1  0.935780  0.935780  0.564220  1
  Er  Er12  1  0.351914  0.351914  0.351914  1
  Er  Er13  1  0.351914  0.351914  0.944257  1
  Er  Er14  1  0.351914  0.944257  0.351914  1
  Er  Er15  1  0.944257  0.351914  0.351914  1
  Cd  Cd16  1  0.581690  0.581690  0.581690  1
  Cd  Cd17  1  0.581690  0.581690  0.254930  1
  Cd  Cd18  1  0.581690  0.254930  0.581690  1
  Cd  Cd19  1  0.254930  0.581690  0.581690  1
  Pt  Pt20  1  0.144629  0.144629  0.144629  1
  Pt  Pt21  1  0.144629  0.144629  0.566113  1
  Pt  Pt22  1  0.144629  0.566113  0.144629  1
  Pt  Pt23  1  0.566113  0.144629  0.144629  1
