# generated using pymatgen
data_Hf3Zr(As2Pd)4
_symmetry_space_group_name_H-M   'P 1'
_cell_length_a   5.90367608
_cell_length_b   3.63204900
_cell_length_c   13.26292700
_cell_angle_alpha   90.00000000
_cell_angle_beta   89.99078986
_cell_angle_gamma   90.00000000
_symmetry_Int_Tables_number   1
_chemical_formula_structural   Hf3Zr(As2Pd)4
_chemical_formula_sum   'Hf3 Zr1 As8 Pd4'
_cell_volume   284.38952321
_cell_formula_units_Z   1
loop_
 _symmetry_equiv_pos_site_id
 _symmetry_equiv_pos_as_xyz
  1  'x, y, z'
loop_
 _atom_site_type_symbol
 _atom_site_label
 _atom_site_symmetry_multiplicity
 _atom_site_fract_x
 _atom_site_fract_y
 _atom_site_fract_z
 _atom_site_occupancy
  Hf  Hf0  1  0.978969  0.750001  0.170570  1
  Hf  Hf1  1  0.479804  0.750001  0.330116  1
  Hf  Hf2  1  0.521564  0.249999  0.668956  1
  Zr  Zr3  1  0.020297  0.249999  0.829774  1
  As  As4  1  0.171670  0.249999  0.035496  1
  As  As5  1  0.652272  0.249999  0.200065  1
  As  As6  1  0.152195  0.249999  0.300646  1
  As  As7  1  0.671675  0.249999  0.465415  1
  As  As8  1  0.328359  0.750001  0.533863  1
  As  As9  1  0.848296  0.750001  0.697818  1
  As  As10  1  0.351687  0.750001  0.799880  1
  As  As11  1  0.826633  0.750001  0.966820  1
  Pd  Pd12  1  0.467413  0.750001  0.090204  1
  Pd  Pd13  1  0.967614  0.750001  0.410491  1
  Pd  Pd14  1  0.032592  0.249999  0.588262  1
  Pd  Pd15  1  0.528957  0.249999  0.911628  1
