# generated using pymatgen
data_PuPCl9
_symmetry_space_group_name_H-M   'P 1'
_cell_length_a   7.41644950
_cell_length_b   9.60240443
_cell_length_c   10.23311492
_cell_angle_alpha   101.16069839
_cell_angle_beta   95.27985613
_cell_angle_gamma   94.38545230
_symmetry_Int_Tables_number   1
_chemical_formula_structural   PuPCl9
_chemical_formula_sum   'Pu2 P2 Cl18'
_cell_volume   708.62024378
_cell_formula_units_Z   2
loop_
 _symmetry_equiv_pos_site_id
 _symmetry_equiv_pos_as_xyz
  1  'x, y, z'
loop_
 _atom_site_type_symbol
 _atom_site_label
 _atom_site_symmetry_multiplicity
 _atom_site_fract_x
 _atom_site_fract_y
 _atom_site_fract_z
 _atom_site_occupancy
  Pu  Pu0  1  0.613099  0.641632  0.679763  1
  Pu  Pu1  1  0.386901  0.358368  0.320237  1
  P  P2  1  0.051792  0.193726  0.780064  1
  P  P3  1  0.948208  0.806274  0.219936  1
  Cl  Cl4  1  0.366331  0.569742  0.201893  1
  Cl  Cl5  1  0.633669  0.430258  0.798107  1
  Cl  Cl6  1  0.412318  0.149861  0.439628  1
  Cl  Cl7  1  0.587682  0.850139  0.560372  1
  Cl  Cl8  1  0.056376  0.270108  0.232098  1
  Cl  Cl9  1  0.943624  0.729892  0.767902  1
  Cl  Cl10  1  0.517003  0.213462  0.118651  1
  Cl  Cl11  1  0.482997  0.786538  0.881349  1
  Cl  Cl12  1  0.284171  0.520494  0.548054  1
  Cl  Cl13  1  0.715829  0.479506  0.451946  1
  Cl  Cl14  1  0.842968  0.619480  0.118769  1
  Cl  Cl15  1  0.157032  0.380520  0.881231  1
  Cl  Cl16  1  0.953691  0.209815  0.599720  1
  Cl  Cl17  1  0.046309  0.790185  0.400280  1
  Cl  Cl18  1  0.241044  0.061787  0.767847  1
  Cl  Cl19  1  0.758956  0.938213  0.232153  1
  Cl  Cl20  1  0.856522  0.121166  0.872206  1
  Cl  Cl21  1  0.143478  0.878834  0.127794  1
