# generated using pymatgen
data_Cs8Li4ErTm3As8
_symmetry_space_group_name_H-M   'P 1'
_cell_length_a   10.95498541
_cell_length_b   10.95498547
_cell_length_c   6.89266700
_cell_angle_alpha   90.00701898
_cell_angle_beta   89.99298535
_cell_angle_gamma   102.22027549
_symmetry_Int_Tables_number   1
_chemical_formula_structural   Cs8Li4ErTm3As8
_chemical_formula_sum   'Cs8 Li4 Er1 Tm3 As8'
_cell_volume   808.45721628
_cell_formula_units_Z   1
loop_
 _symmetry_equiv_pos_site_id
 _symmetry_equiv_pos_as_xyz
  1  'x, y, z'
loop_
 _atom_site_type_symbol
 _atom_site_label
 _atom_site_symmetry_multiplicity
 _atom_site_fract_x
 _atom_site_fract_y
 _atom_site_fract_z
 _atom_site_occupancy
  Cs  Cs0  1  0.568160  0.931973  0.750069  1
  Cs  Cs1  1  0.931973  0.568160  0.249931  1
  Cs  Cs2  1  0.431943  0.067869  0.250001  1
  Cs  Cs3  1  0.067869  0.431943  0.749999  1
  Cs  Cs4  1  0.678703  0.321469  0.789166  1
  Cs  Cs5  1  0.821418  0.178475  0.289170  1
  Cs  Cs6  1  0.321469  0.678703  0.210834  1
  Cs  Cs7  1  0.178475  0.821418  0.710830  1
  Li  Li8  1  0.619138  0.619138  0.000000  1
  Li  Li9  1  0.880959  0.880959  0.500000  1
  Li  Li10  1  0.380992  0.380992  0.000000  1
  Li  Li11  1  0.118658  0.118658  0.500000  1
  Er  Er12  1  0.368211  0.368211  0.500000  1
  Tm  Tm13  1  0.868375  0.868375  0.000000  1
  Tm  Tm14  1  0.631900  0.631900  0.500000  1
  Tm  Tm15  1  0.131477  0.131477  0.000000  1
  As  As16  1  0.336202  0.163169  0.750760  1
  As  As17  1  0.163169  0.336202  0.249240  1
  As  As18  1  0.663892  0.836222  0.249998  1
  As  As19  1  0.836222  0.663892  0.750002  1
  As  As20  1  0.915210  0.084644  0.770096  1
  As  As21  1  0.585382  0.415555  0.269736  1
  As  As22  1  0.084644  0.915210  0.229904  1
  As  As23  1  0.415555  0.585382  0.730264  1
