# generated using pymatgen
data_Tb4Ho9Tm7(CoSb2)4
_symmetry_space_group_name_H-M   'P 1'
_cell_length_a   7.83015035
_cell_length_b   8.76953322
_cell_length_c   12.14682151
_cell_angle_alpha   89.98303282
_cell_angle_beta   90.02859533
_cell_angle_gamma   90.01889390
_symmetry_Int_Tables_number   1
_chemical_formula_structural   Tb4Ho9Tm7(CoSb2)4
_chemical_formula_sum   'Tb4 Ho9 Tm7 Co4 Sb8'
_cell_volume   834.08273516
_cell_formula_units_Z   1
loop_
 _symmetry_equiv_pos_site_id
 _symmetry_equiv_pos_as_xyz
  1  'x, y, z'
loop_
 _atom_site_type_symbol
 _atom_site_label
 _atom_site_symmetry_multiplicity
 _atom_site_fract_x
 _atom_site_fract_y
 _atom_site_fract_z
 _atom_site_occupancy
  Tb  Tb0  1  0.622238  0.750075  0.307246  1
  Tb  Tb1  1  0.122706  0.250238  0.193100  1
  Tb  Tb2  1  0.377692  0.250001  0.692816  1
  Tb  Tb3  1  0.877930  0.749676  0.806856  1
  Ho  Ho4  1  0.154577  0.749791  0.203545  1
  Ho  Ho5  1  0.654217  0.250044  0.296689  1
  Ho  Ho6  1  0.845660  0.250092  0.796395  1
  Ho  Ho7  1  0.345726  0.749988  0.703418  1
  Ho  Ho8  1  0.450424  0.749784  0.997677  1
  Ho  Ho9  1  0.950782  0.250025  0.502334  1
  Ho  Ho10  1  0.548471  0.250318  0.002232  1
  Ho  Ho11  1  0.049252  0.749948  0.497730  1
  Ho  Ho12  1  0.822159  0.963852  0.065123  1
  Tm  Tm13  1  0.323696  0.036244  0.434983  1
  Tm  Tm14  1  0.176331  0.463413  0.934823  1
  Tm  Tm15  1  0.676317  0.536328  0.565092  1
  Tm  Tm16  1  0.176641  0.036466  0.934764  1
  Tm  Tm17  1  0.676297  0.963642  0.565060  1
  Tm  Tm18  1  0.823654  0.536270  0.065014  1
  Tm  Tm19  1  0.323735  0.463718  0.434964  1
  Co  Co20  1  0.433727  0.749983  0.491227  1
  Co  Co21  1  0.934119  0.250364  0.008787  1
  Co  Co22  1  0.566260  0.250008  0.508811  1
  Co  Co23  1  0.067322  0.749481  0.990911  1
  Sb  Sb24  1  0.930068  0.991819  0.328158  1
  Sb  Sb25  1  0.429154  0.008409  0.172297  1
  Sb  Sb26  1  0.070263  0.491713  0.671984  1
  Sb  Sb27  1  0.570226  0.508246  0.827874  1
  Sb  Sb28  1  0.070178  0.008267  0.672070  1
  Sb  Sb29  1  0.570398  0.991769  0.827930  1
  Sb  Sb30  1  0.929848  0.508244  0.327931  1
  Sb  Sb31  1  0.429931  0.491785  0.172158  1
