# generated using pymatgen
data_Ta15Be4NbTe16
_symmetry_space_group_name_H-M   'P 1'
_cell_length_a   4.77730600
_cell_length_b   11.12253006
_cell_length_c   19.24149310
_cell_angle_alpha   89.98806741
_cell_angle_beta   90.00000000
_cell_angle_gamma   90.00000000
_symmetry_Int_Tables_number   1
_chemical_formula_structural   Ta15Be4NbTe16
_chemical_formula_sum   'Ta15 Be4 Nb1 Te16'
_cell_volume   1022.41075237
_cell_formula_units_Z   1
loop_
 _symmetry_equiv_pos_site_id
 _symmetry_equiv_pos_as_xyz
  1  'x, y, z'
loop_
 _atom_site_type_symbol
 _atom_site_label
 _atom_site_symmetry_multiplicity
 _atom_site_fract_x
 _atom_site_fract_y
 _atom_site_fract_z
 _atom_site_occupancy
  Ta  Ta0  1  0.500000  0.440086  0.611513  1
  Ta  Ta1  1  0.500000  0.059905  0.111512  1
  Ta  Ta2  1  0.500000  0.940072  0.888502  1
  Ta  Ta3  1  0.500000  0.693217  0.534816  1
  Ta  Ta4  1  0.500000  0.306678  0.465350  1
  Ta  Ta5  1  0.500000  0.193179  0.965279  1
  Ta  Ta6  1  0.500000  0.806799  0.034721  1
  Ta  Ta7  1  0.000000  0.679349  0.445203  1
  Ta  Ta8  1  0.000000  0.320942  0.554639  1
  Ta  Ta9  1  0.000000  0.179028  0.054688  1
  Ta  Ta10  1  0.000000  0.820975  0.945316  1
  Ta  Ta11  1  0.000000  0.405759  0.396479  1
  Ta  Ta12  1  0.000000  0.594178  0.603283  1
  Ta  Ta13  1  0.000000  0.905869  0.103336  1
  Ta  Ta14  1  0.000000  0.094095  0.896664  1
  Be  Be15  1  0.249523  0.500014  0.500078  1
  Be  Be16  1  0.750253  0.999971  0.000001  1
  Be  Be17  1  0.750477  0.500014  0.500078  1
  Be  Be18  1  0.249747  0.999971  0.000001  1
  Nb  Nb19  1  0.500000  0.560334  0.387784  1
  Te  Te20  1  0.000000  0.840060  0.560646  1
  Te  Te21  1  0.000000  0.159954  0.439262  1
  Te  Te22  1  0.000000  0.340026  0.939290  1
  Te  Te23  1  0.000000  0.659959  0.060709  1
  Te  Te24  1  0.500000  0.334050  0.318181  1
  Te  Te25  1  0.500000  0.665422  0.682052  1
  Te  Te26  1  0.500000  0.834450  0.181954  1
  Te  Te27  1  0.500000  0.165502  0.818045  1
  Te  Te28  1  0.500000  0.815510  0.404664  1
  Te  Te29  1  0.500000  0.184726  0.595754  1
  Te  Te30  1  0.500000  0.315239  0.095613  1
  Te  Te31  1  0.500000  0.684749  0.904392  1
  Te  Te32  1  0.000000  0.605130  0.303725  1
  Te  Te33  1  0.000000  0.394819  0.696467  1
  Te  Te34  1  0.000000  0.105184  0.196475  1
  Te  Te35  1  0.000000  0.894785  0.803529  1
