# generated using pymatgen
data_Er4Tm13Lu3(CoSb2)4
_symmetry_space_group_name_H-M   'P 1'
_cell_length_a   7.74722637
_cell_length_b   8.72179921
_cell_length_c   12.04655856
_cell_angle_alpha   90.01706012
_cell_angle_beta   89.96953745
_cell_angle_gamma   90.01826226
_symmetry_Int_Tables_number   1
_chemical_formula_structural   Er4Tm13Lu3(CoSb2)4
_chemical_formula_sum   'Er4 Tm13 Lu3 Co4 Sb8'
_cell_volume   813.98279187
_cell_formula_units_Z   1
loop_
 _symmetry_equiv_pos_site_id
 _symmetry_equiv_pos_as_xyz
  1  'x, y, z'
loop_
 _atom_site_type_symbol
 _atom_site_label
 _atom_site_symmetry_multiplicity
 _atom_site_fract_x
 _atom_site_fract_y
 _atom_site_fract_z
 _atom_site_occupancy
  Er  Er0  1  0.622487  0.750218  0.308430  1
  Er  Er1  1  0.122752  0.250260  0.191302  1
  Er  Er2  1  0.376841  0.249530  0.691575  1
  Er  Er3  1  0.877325  0.750080  0.808740  1
  Tm  Tm4  1  0.156728  0.750144  0.204313  1
  Tm  Tm5  1  0.656814  0.249746  0.295570  1
  Tm  Tm6  1  0.843344  0.250110  0.795919  1
  Tm  Tm7  1  0.342993  0.750018  0.704354  1
  Tm  Tm8  1  0.449302  0.749851  0.997933  1
  Tm  Tm9  1  0.950306  0.249791  0.502007  1
  Tm  Tm10  1  0.550382  0.249772  0.002068  1
  Tm  Tm11  1  0.050726  0.750451  0.497919  1
  Tm  Tm12  1  0.676467  0.536898  0.565563  1
  Tm  Tm13  1  0.176257  0.037049  0.934383  1
  Tm  Tm14  1  0.676326  0.962928  0.565620  1
  Tm  Tm15  1  0.823730  0.536788  0.065626  1
  Tm  Tm16  1  0.323554  0.463083  0.434251  1
  Lu  Lu17  1  0.825196  0.963204  0.065522  1
  Lu  Lu18  1  0.325165  0.037159  0.434317  1
  Lu  Lu19  1  0.174875  0.463008  0.934493  1
  Co  Co20  1  0.431426  0.750381  0.491038  1
  Co  Co21  1  0.932560  0.250131  0.008671  1
  Co  Co22  1  0.567046  0.249510  0.508594  1
  Co  Co23  1  0.067384  0.750158  0.991433  1
  Sb  Sb24  1  0.931891  0.991866  0.327660  1
  Sb  Sb25  1  0.431805  0.008202  0.172150  1
  Sb  Sb26  1  0.068812  0.491647  0.672451  1
  Sb  Sb27  1  0.567888  0.508116  0.827901  1
  Sb  Sb28  1  0.068487  0.008349  0.672379  1
  Sb  Sb29  1  0.568535  0.991587  0.827719  1
  Sb  Sb30  1  0.931131  0.508337  0.327813  1
  Sb  Sb31  1  0.431462  0.491628  0.172288  1
