# generated using pymatgen
data_La3SmUP12Ru19
_symmetry_space_group_name_H-M   'P 1'
_cell_length_a   12.64163700
_cell_length_b   12.64163693
_cell_length_c   4.02184200
_cell_angle_alpha   90.00000000
_cell_angle_beta   90.00000000
_cell_angle_gamma   120.00000209
_symmetry_Int_Tables_number   1
_chemical_formula_structural   La3SmUP12Ru19
_chemical_formula_sum   'La3 Sm1 U1 P12 Ru19'
_cell_volume   556.62442121
_cell_formula_units_Z   1
loop_
 _symmetry_equiv_pos_site_id
 _symmetry_equiv_pos_as_xyz
  1  'x, y, z'
loop_
 _atom_site_type_symbol
 _atom_site_label
 _atom_site_symmetry_multiplicity
 _atom_site_fract_x
 _atom_site_fract_y
 _atom_site_fract_z
 _atom_site_occupancy
  La  La0  1  0.185437  0.185119  0.500000  1
  La  La1  1  0.814881  0.000319  0.500000  1
  La  La2  1  0.999681  0.814563  0.500000  1
  Sm  Sm3  1  0.666667  0.333333  0.000000  1
  U  U4  1  0.333333  0.666667  0.000000  1
  P  P5  1  0.810194  0.811141  0.000000  1
  P  P6  1  0.188859  0.999054  0.000000  1
  P  P7  1  0.000946  0.189806  0.000000  1
  P  P8  1  0.173896  0.477165  0.500000  1
  P  P9  1  0.522835  0.696729  0.500000  1
  P  P10  1  0.303271  0.826104  0.500000  1
  P  P11  1  0.696142  0.522413  0.500000  1
  P  P12  1  0.826270  0.303858  0.500000  1
  P  P13  1  0.477587  0.173730  0.500000  1
  P  P14  1  0.375905  0.372728  0.000000  1
  P  P15  1  0.627272  0.003177  0.000000  1
  P  P16  1  0.996823  0.624095  0.000000  1
  Ru  Ru17  1  0.552152  0.554804  0.000000  1
  Ru  Ru18  1  0.445196  0.997349  0.000000  1
  Ru  Ru19  1  0.002651  0.447848  0.000000  1
  Ru  Ru20  1  0.711899  0.713238  0.500000  1
  Ru  Ru21  1  0.286762  0.998661  0.500000  1
  Ru  Ru22  1  0.001339  0.288101  0.500000  1
  Ru  Ru23  1  0.188093  0.385477  0.000000  1
  Ru  Ru24  1  0.614523  0.802617  0.000000  1
  Ru  Ru25  1  0.197383  0.811907  0.000000  1
  Ru  Ru26  1  0.802713  0.619544  0.000000  1
  Ru  Ru27  1  0.816831  0.197287  0.000000  1
  Ru  Ru28  1  0.380456  0.183169  0.000000  1
  Ru  Ru29  1  0.368839  0.499502  0.500000  1
  Ru  Ru30  1  0.500498  0.869338  0.500000  1
  Ru  Ru31  1  0.130662  0.631161  0.500000  1
  Ru  Ru32  1  0.877095  0.508017  0.500000  1
  Ru  Ru33  1  0.630924  0.122905  0.500000  1
  Ru  Ru34  1  0.491983  0.369076  0.500000  1
  Ru  Ru35  1  0.000000  0.000000  0.000000  1
