# generated using pymatgen
data_YTm5Al21Si3Os8
_symmetry_space_group_name_H-M   'P 1'
_cell_length_a   8.69807500
_cell_length_b   8.69630265
_cell_length_c   9.61936603
_cell_angle_alpha   90.00754569
_cell_angle_beta   90.00000000
_cell_angle_gamma   120.00674585
_symmetry_Int_Tables_number   1
_chemical_formula_structural   YTm5Al21Si3Os8
_chemical_formula_sum   'Y1 Tm5 Al21 Si3 Os8'
_cell_volume   630.09400193
_cell_formula_units_Z   1
loop_
 _symmetry_equiv_pos_site_id
 _symmetry_equiv_pos_as_xyz
  1  'x, y, z'
loop_
 _atom_site_type_symbol
 _atom_site_label
 _atom_site_symmetry_multiplicity
 _atom_site_fract_x
 _atom_site_fract_y
 _atom_site_fract_z
 _atom_site_occupancy
  Y  Y0  1  0.194855  0.389711  0.247869  1
  Tm  Tm1  1  0.803255  0.606511  0.752560  1
  Tm  Tm2  1  0.607898  0.804240  0.247691  1
  Tm  Tm3  1  0.393584  0.196802  0.752528  1
  Tm  Tm4  1  0.196341  0.804240  0.247691  1
  Tm  Tm5  1  0.803217  0.196802  0.752528  1
  Al  Al6  1  0.333503  0.667006  0.475814  1
  Al  Al7  1  0.164184  0.328368  0.575586  1
  Al  Al8  1  0.835245  0.670489  0.422981  1
  Al  Al9  1  0.671822  0.835880  0.575095  1
  Al  Al10  1  0.835073  0.670146  0.077074  1
  Al  Al11  1  0.329939  0.164706  0.423269  1
  Al  Al12  1  0.165349  0.330699  0.921668  1
  Al  Al13  1  0.164058  0.835880  0.575095  1
  Al  Al14  1  0.330278  0.164858  0.076796  1
  Al  Al15  1  0.834767  0.164706  0.423269  1
  Al  Al16  1  0.669443  0.834719  0.922135  1
  Al  Al17  1  0.834581  0.164858  0.076796  1
  Al  Al18  1  0.165276  0.834719  0.922135  1
  Al  Al19  1  0.563218  0.126435  0.248872  1
  Al  Al20  1  0.437101  0.874203  0.748785  1
  Al  Al21  1  0.873022  0.436968  0.248876  1
  Al  Al22  1  0.125897  0.563031  0.748819  1
  Al  Al23  1  0.563946  0.436968  0.248876  1
  Al  Al24  1  0.437134  0.563031  0.748819  1
  Al  Al25  1  0.999041  0.998082  0.248784  1
  Al  Al26  1  0.000006  0.000011  0.749342  1
  Si  Si27  1  0.333698  0.667397  0.039878  1
  Si  Si28  1  0.666748  0.333496  0.960802  1
  Si  Si29  1  0.666715  0.333430  0.540541  1
  Os  Os30  1  0.500113  0.000228  0.998712  1
  Os  Os31  1  0.999745  0.500242  0.998381  1
  Os  Os32  1  0.504329  0.008658  0.501582  1
  Os  Os33  1  0.500496  0.500242  0.998381  1
  Os  Os34  1  0.991141  0.495970  0.502034  1
  Os  Os35  1  0.504828  0.495970  0.502034  1
  Os  Os36  1  0.000058  0.000116  0.998803  1
  Os  Os37  1  0.000092  0.000183  0.499103  1
