# generated using pymatgen
data_PrNd3UP12Ru19
_symmetry_space_group_name_H-M   'P 1'
_cell_length_a   12.65108124
_cell_length_b   12.64459139
_cell_length_c   3.98721500
_cell_angle_alpha   90.00000000
_cell_angle_beta   90.00000000
_cell_angle_gamma   119.97195000
_symmetry_Int_Tables_number   1
_chemical_formula_structural   PrNd3UP12Ru19
_chemical_formula_sum   'Pr1 Nd3 U1 P12 Ru19'
_cell_volume   552.52942904
_cell_formula_units_Z   1
loop_
 _symmetry_equiv_pos_site_id
 _symmetry_equiv_pos_as_xyz
  1  'x, y, z'
loop_
 _atom_site_type_symbol
 _atom_site_label
 _atom_site_symmetry_multiplicity
 _atom_site_fract_x
 _atom_site_fract_y
 _atom_site_fract_z
 _atom_site_occupancy
  Pr  Pr0  1  0.668704  0.333216  0.000000  1
  Nd  Nd1  1  0.812507  0.812242  0.500000  1
  Nd  Nd2  1  0.187314  0.998954  0.500000  1
  Nd  Nd3  1  0.331047  0.663761  0.000000  1
  U  U4  1  0.000312  0.178447  0.500000  1
  P  P5  1  0.000037  0.815594  0.000000  1
  P  P6  1  0.189214  0.184815  0.000000  1
  P  P7  1  0.810718  0.996110  0.000000  1
  P  P8  1  0.693718  0.169989  0.500000  1
  P  P9  1  0.829714  0.524409  0.500000  1
  P  P10  1  0.476565  0.307186  0.500000  1
  P  P11  1  0.170534  0.694111  0.500000  1
  P  P12  1  0.522933  0.830277  0.500000  1
  P  P13  1  0.306586  0.476411  0.500000  1
  P  P14  1  0.000288  0.374932  0.000000  1
  P  P15  1  0.623107  0.624478  0.000000  1
  P  P16  1  0.376565  0.000636  0.000000  1
  Ru  Ru17  1  0.999859  0.555008  0.000000  1
  Ru  Ru18  1  0.440226  0.445555  0.000000  1
  Ru  Ru19  1  0.560061  0.006040  0.000000  1
  Ru  Ru20  1  0.000119  0.716263  0.500000  1
  Ru  Ru21  1  0.281495  0.284160  0.500000  1
  Ru  Ru22  1  0.718366  0.002801  0.500000  1
  Ru  Ru23  1  0.817111  0.184143  0.000000  1
  Ru  Ru24  1  0.815611  0.622297  0.000000  1
  Ru  Ru25  1  0.379396  0.195803  0.000000  1
  Ru  Ru26  1  0.184390  0.805702  0.000000  1
  Ru  Ru27  1  0.619929  0.816773  0.000000  1
  Ru  Ru28  1  0.183498  0.367082  0.000000  1
  Ru  Ru29  1  0.875687  0.364394  0.500000  1
  Ru  Ru30  1  0.632348  0.510611  0.500000  1
  Ru  Ru31  1  0.491401  0.126096  0.500000  1
  Ru  Ru32  1  0.367763  0.877624  0.500000  1
  Ru  Ru33  1  0.508195  0.634764  0.500000  1
  Ru  Ru34  1  0.124829  0.488810  0.500000  1
  Ru  Ru35  1  0.999854  0.010508  0.000000  1
