# generated using pymatgen
data_Na2(CuTe)5
_symmetry_space_group_name_H-M   'P 1'
_cell_length_a   7.94646502
_cell_length_b   7.94646516
_cell_length_c   19.58893300
_cell_angle_alpha   90.00000000
_cell_angle_beta   90.00000000
_cell_angle_gamma   152.27376186
_symmetry_Int_Tables_number   1
_chemical_formula_structural   Na2(CuTe)5
_chemical_formula_sum   'Na4 Cu10 Te10'
_cell_volume   575.49658010
_cell_formula_units_Z   2
loop_
 _symmetry_equiv_pos_site_id
 _symmetry_equiv_pos_as_xyz
  1  'x, y, z'
loop_
 _atom_site_type_symbol
 _atom_site_label
 _atom_site_symmetry_multiplicity
 _atom_site_fract_x
 _atom_site_fract_y
 _atom_site_fract_z
 _atom_site_occupancy
  Na  Na0  1  0.503961  0.496039  0.121889  1
  Na  Na1  1  0.496039  0.503961  0.878111  1
  Na  Na2  1  0.496039  0.503961  0.621889  1
  Na  Na3  1  0.503961  0.496039  0.378111  1
  Cu  Cu4  1  0.703957  0.296043  0.750000  1
  Cu  Cu5  1  0.296043  0.703957  0.250000  1
  Cu  Cu6  1  0.736327  0.263673  0.950230  1
  Cu  Cu7  1  0.263673  0.736327  0.049770  1
  Cu  Cu8  1  0.263673  0.736327  0.450230  1
  Cu  Cu9  1  0.736327  0.263673  0.549770  1
  Cu  Cu10  1  0.793004  0.206996  0.352084  1
  Cu  Cu11  1  0.206996  0.793004  0.647916  1
  Cu  Cu12  1  0.206996  0.793004  0.852084  1
  Cu  Cu13  1  0.793004  0.206996  0.147916  1
  Te  Te14  1  0.090481  0.909519  0.750000  1
  Te  Te15  1  0.909519  0.090481  0.250000  1
  Te  Te16  1  0.171634  0.828366  0.160111  1
  Te  Te17  1  0.828366  0.171634  0.839889  1
  Te  Te18  1  0.828366  0.171634  0.660111  1
  Te  Te19  1  0.171634  0.828366  0.339889  1
  Te  Te20  1  0.875805  0.124195  0.029069  1
  Te  Te21  1  0.124195  0.875805  0.970931  1
  Te  Te22  1  0.124195  0.875805  0.529069  1
  Te  Te23  1  0.875805  0.124195  0.470931  1
