# generated using pymatgen
data_Sr3TmRhO6
_symmetry_space_group_name_H-M   'P 1'
_cell_length_a   6.83630706
_cell_length_b   6.83630690
_cell_length_c   6.83630604
_cell_angle_alpha   92.27055252
_cell_angle_beta   92.27055319
_cell_angle_gamma   92.27055765
_symmetry_Int_Tables_number   1
_chemical_formula_structural   Sr3TmRhO6
_chemical_formula_sum   'Sr6 Tm2 Rh2 O12'
_cell_volume   318.72237247
_cell_formula_units_Z   2
loop_
 _symmetry_equiv_pos_site_id
 _symmetry_equiv_pos_as_xyz
  1  'x, y, z'
loop_
 _atom_site_type_symbol
 _atom_site_label
 _atom_site_symmetry_multiplicity
 _atom_site_fract_x
 _atom_site_fract_y
 _atom_site_fract_z
 _atom_site_occupancy
  Sr  Sr0  1  0.881307  0.250000  0.618693  1
  Sr  Sr1  1  0.250000  0.618693  0.881307  1
  Sr  Sr2  1  0.381307  0.118693  0.750000  1
  Sr  Sr3  1  0.750000  0.381307  0.118693  1
  Sr  Sr4  1  0.118693  0.750000  0.381307  1
  Sr  Sr5  1  0.618693  0.881307  0.250000  1
  Tm  Tm6  1  0.250000  0.250000  0.250000  1
  Tm  Tm7  1  0.750000  0.750000  0.750000  1
  Rh  Rh8  1  0.500000  0.500000  0.500000  1
  Rh  Rh9  1  0.000000  0.000000  0.000000  1
  O  O10  1  0.707842  0.041206  0.905307  1
  O  O11  1  0.958794  0.094693  0.292158  1
  O  O12  1  0.792158  0.594693  0.458794  1
  O  O13  1  0.594693  0.458794  0.792158  1
  O  O14  1  0.458794  0.792158  0.594693  1
  O  O15  1  0.041206  0.905307  0.707842  1
  O  O16  1  0.405307  0.541206  0.207842  1
  O  O17  1  0.292158  0.958794  0.094693  1
  O  O18  1  0.207842  0.405307  0.541206  1
  O  O19  1  0.541206  0.207842  0.405307  1
  O  O20  1  0.905307  0.707842  0.041206  1
  O  O21  1  0.094693  0.292158  0.958794  1
