# generated using pymatgen
data_La2Zn3Ni7
_symmetry_space_group_name_H-M   'P 1'
_cell_length_a   4.07204900
_cell_length_b   5.12386707
_cell_length_c   8.77808637
_cell_angle_alpha   89.08578565
_cell_angle_beta   90.00000000
_cell_angle_gamma   90.00000000
_symmetry_Int_Tables_number   1
_chemical_formula_structural   La2Zn3Ni7
_chemical_formula_sum   'La2 Zn3 Ni7'
_cell_volume   183.12827836
_cell_formula_units_Z   1
loop_
 _symmetry_equiv_pos_site_id
 _symmetry_equiv_pos_as_xyz
  1  'x, y, z'
loop_
 _atom_site_type_symbol
 _atom_site_label
 _atom_site_symmetry_multiplicity
 _atom_site_fract_x
 _atom_site_fract_y
 _atom_site_fract_z
 _atom_site_occupancy
  La  La0  1  0.000000  0.248851  0.739597  1
  La  La1  1  0.000000  0.751149  0.260403  1
  Zn  Zn2  1  0.500000  0.257900  0.254603  1
  Zn  Zn3  1  0.500000  0.742100  0.745397  1
  Zn  Zn4  1  0.500000  0.000000  0.000000  1
  Ni  Ni5  1  0.500000  0.500000  0.500000  1
  Ni  Ni6  1  0.500000  0.500000  0.000000  1
  Ni  Ni7  1  0.500000  0.000000  0.500000  1
  Ni  Ni8  1  0.000000  0.260539  0.076472  1
  Ni  Ni9  1  0.000000  0.749037  0.578461  1
  Ni  Ni10  1  0.000000  0.739461  0.923528  1
  Ni  Ni11  1  0.000000  0.250963  0.421539  1
