# generated using pymatgen
data_YHoBe2(Os2C)2
_symmetry_space_group_name_H-M   'P 1'
_cell_length_a   5.62412969
_cell_length_b   5.62412870
_cell_length_c   7.04387100
_cell_angle_alpha   90.00000000
_cell_angle_beta   90.00000000
_cell_angle_gamma   140.06006400
_symmetry_Int_Tables_number   1
_chemical_formula_structural   YHoBe2(Os2C)2
_chemical_formula_sum   'Y1 Ho1 Be2 Os4 C2'
_cell_volume   143.03631447
_cell_formula_units_Z   1
loop_
 _symmetry_equiv_pos_site_id
 _symmetry_equiv_pos_as_xyz
  1  'x, y, z'
loop_
 _atom_site_type_symbol
 _atom_site_label
 _atom_site_symmetry_multiplicity
 _atom_site_fract_x
 _atom_site_fract_y
 _atom_site_fract_z
 _atom_site_occupancy
  Y  Y0  1  0.455329  0.544671  0.750000  1
  Ho  Ho1  1  0.544771  0.455229  0.250000  1
  Be  Be2  1  0.269866  0.730134  0.250000  1
  Be  Be3  1  0.730121  0.269879  0.750000  1
  Os  Os4  1  0.823501  0.176499  0.059110  1
  Os  Os5  1  0.176407  0.823593  0.941399  1
  Os  Os6  1  0.176407  0.823593  0.558601  1
  Os  Os7  1  0.823501  0.176499  0.440890  1
  C  C8  1  0.000048  0.999952  0.000527  1
  C  C9  1  0.000048  0.999952  0.499473  1
