# generated using pymatgen
data_Ac4H9
_symmetry_space_group_name_H-M   'P 1'
_cell_length_a   7.23678554
_cell_length_b   7.23678500
_cell_length_c   7.23678526
_cell_angle_alpha   132.07465285
_cell_angle_beta   132.07465136
_cell_angle_gamma   70.11115252
_symmetry_Int_Tables_number   1
_chemical_formula_structural   Ac4H9
_chemical_formula_sum   'Ac4 H9'
_cell_volume   204.70141852
_cell_formula_units_Z   1
loop_
 _symmetry_equiv_pos_site_id
 _symmetry_equiv_pos_as_xyz
  1  'x, y, z'
loop_
 _atom_site_type_symbol
 _atom_site_label
 _atom_site_symmetry_multiplicity
 _atom_site_fract_x
 _atom_site_fract_y
 _atom_site_fract_z
 _atom_site_occupancy
  Ac  Ac0  1  0.500000  0.000000  0.500000  1
  Ac  Ac1  1  0.000000  0.500000  0.500000  1
  Ac  Ac2  1  0.747407  0.747407  0.000000  1
  Ac  Ac3  1  0.252593  0.252593  0.000000  1
  H  H4  1  0.884132  0.370622  0.000000  1
  H  H5  1  0.370622  0.884132  0.000000  1
  H  H6  1  0.629378  0.115868  0.000000  1
  H  H7  1  0.115868  0.115868  0.486490  1
  H  H8  1  0.370622  0.370622  0.486490  1
  H  H9  1  0.500000  0.500000  0.000000  1
  H  H10  1  0.115868  0.629378  0.000000  1
  H  H11  1  0.629378  0.629378  0.513510  1
  H  H12  1  0.884132  0.884132  0.513510  1
