# generated using pymatgen
data_PrSm2In3Ag2Pt
_symmetry_space_group_name_H-M   'P 1'
_cell_length_a   7.87717284
_cell_length_b   7.87354628
_cell_length_c   4.08250200
_cell_angle_alpha   90.00000000
_cell_angle_beta   90.00000000
_cell_angle_gamma   120.06810476
_symmetry_Int_Tables_number   1
_chemical_formula_structural   PrSm2In3Ag2Pt
_chemical_formula_sum   'Pr1 Sm2 In3 Ag2 Pt1'
_cell_volume   219.12874177
_cell_formula_units_Z   1
loop_
 _symmetry_equiv_pos_site_id
 _symmetry_equiv_pos_as_xyz
  1  'x, y, z'
loop_
 _atom_site_type_symbol
 _atom_site_label
 _atom_site_symmetry_multiplicity
 _atom_site_fract_x
 _atom_site_fract_y
 _atom_site_fract_z
 _atom_site_occupancy
  Pr  Pr0  1  0.420762  0.404612  0.000000  1
  Sm  Sm1  1  0.597345  0.019085  0.000000  1
  Sm  Sm2  1  0.981649  0.577841  0.000000  1
  In  In3  1  0.254182  0.993249  0.500000  1
  In  In4  1  0.002876  0.259009  0.500000  1
  In  In5  1  0.741954  0.747030  0.500000  1
  Ag  Ag6  1  0.332190  0.669013  0.500000  1
  Ag  Ag7  1  0.998508  0.998322  0.000000  1
  Pt  Pt8  1  0.670536  0.331838  0.500000  1
