# generated using pymatgen
data_Cs7P4W
_symmetry_space_group_name_H-M   'P 1'
_cell_length_a   8.70739300
_cell_length_b   12.74130400
_cell_length_c   10.77555700
_cell_angle_alpha   90.00000000
_cell_angle_beta   90.00000000
_cell_angle_gamma   90.00000000
_symmetry_Int_Tables_number   1
_chemical_formula_structural   Cs7P4W
_chemical_formula_sum   'Cs14 P8 W2'
_cell_volume   1195.47845263
_cell_formula_units_Z   2
loop_
 _symmetry_equiv_pos_site_id
 _symmetry_equiv_pos_as_xyz
  1  'x, y, z'
loop_
 _atom_site_type_symbol
 _atom_site_label
 _atom_site_symmetry_multiplicity
 _atom_site_fract_x
 _atom_site_fract_y
 _atom_site_fract_z
 _atom_site_occupancy
  Cs  Cs0  1  0.900222  0.917722  0.000000  1
  Cs  Cs1  1  0.713987  0.755770  0.707091  1
  Cs  Cs2  1  0.355567  0.827459  0.000000  1
  Cs  Cs3  1  0.400222  0.082278  0.500000  1
  Cs  Cs4  1  0.885768  0.469049  0.305499  1
  Cs  Cs5  1  0.855567  0.172541  0.500000  1
  Cs  Cs6  1  0.700949  0.335835  0.000000  1
  Cs  Cs7  1  0.200949  0.664165  0.500000  1
  Cs  Cs8  1  0.213987  0.244230  0.207091  1
  Cs  Cs9  1  0.385768  0.530951  0.194501  1
  Cs  Cs10  1  0.385768  0.530951  0.805499  1
  Cs  Cs11  1  0.885768  0.469049  0.694501  1
  Cs  Cs12  1  0.713987  0.755770  0.292909  1
  Cs  Cs13  1  0.213987  0.244230  0.792909  1
  P  P14  1  0.713025  0.632824  0.000000  1
  P  P15  1  0.213025  0.367176  0.500000  1
  P  P16  1  0.067152  0.447628  0.000000  1
  P  P17  1  0.567152  0.552372  0.500000  1
  P  P18  1  0.071419  0.710026  0.174499  1
  P  P19  1  0.571419  0.289974  0.325501  1
  P  P20  1  0.571419  0.289974  0.674499  1
  P  P21  1  0.071419  0.710026  0.825501  1
  W  W22  1  0.981839  0.622285  0.000000  1
  W  W23  1  0.481839  0.377715  0.500000  1
