# generated using pymatgen
data_Pu2Ga3Rh
_symmetry_space_group_name_H-M   'P 1'
_cell_length_a   5.55303100
_cell_length_b   5.55302996
_cell_length_c   8.53985800
_cell_angle_alpha   90.00000000
_cell_angle_beta   90.00000000
_cell_angle_gamma   120.00000025
_symmetry_Int_Tables_number   1
_chemical_formula_structural   Pu2Ga3Rh
_chemical_formula_sum   'Pu4 Ga6 Rh2'
_cell_volume   228.05594311
_cell_formula_units_Z   2
loop_
 _symmetry_equiv_pos_site_id
 _symmetry_equiv_pos_as_xyz
  1  'x, y, z'
loop_
 _atom_site_type_symbol
 _atom_site_label
 _atom_site_symmetry_multiplicity
 _atom_site_fract_x
 _atom_site_fract_y
 _atom_site_fract_z
 _atom_site_occupancy
  Pu  Pu0  1  0.666667  0.333333  0.060820  1
  Pu  Pu1  1  0.666667  0.333333  0.439180  1
  Pu  Pu2  1  0.333333  0.666666  0.560819  1
  Pu  Pu3  1  0.333333  0.666666  0.939180  1
  Ga  Ga4  1  0.165241  0.330482  0.250000  1
  Ga  Ga5  1  0.165242  0.834759  0.250000  1
  Ga  Ga6  1  0.669517  0.834759  0.250000  1
  Ga  Ga7  1  0.330481  0.165240  0.750000  1
  Ga  Ga8  1  0.834758  0.165240  0.750000  1
  Ga  Ga9  1  0.834759  0.669517  0.750000  1
  Rh  Rh10  1  0.000000  0.000000  0.000000  1
  Rh  Rh11  1  0.000000  0.000000  0.500000  1
