# generated using pymatgen
data_Pr2B6Ir4Rh5
_symmetry_space_group_name_H-M   'P 1'
_cell_length_a   5.68824601
_cell_length_b   5.68999771
_cell_length_c   8.61543700
_cell_angle_alpha   90.00032410
_cell_angle_beta   90.00186351
_cell_angle_gamma   60.00787397
_symmetry_Int_Tables_number   1
_chemical_formula_structural   Pr2B6Ir4Rh5
_chemical_formula_sum   'Pr2 B6 Ir4 Rh5'
_cell_volume   241.50874301
_cell_formula_units_Z   1
loop_
 _symmetry_equiv_pos_site_id
 _symmetry_equiv_pos_as_xyz
  1  'x, y, z'
loop_
 _atom_site_type_symbol
 _atom_site_label
 _atom_site_symmetry_multiplicity
 _atom_site_fract_x
 _atom_site_fract_y
 _atom_site_fract_z
 _atom_site_occupancy
  Pr  Pr0  1  0.999969  0.999980  0.294877  1
  Pr  Pr1  1  0.999990  0.999999  0.706860  1
  B  B2  1  0.666092  0.667825  0.999774  1
  B  B3  1  0.333919  0.332165  0.999776  1
  B  B4  1  0.666215  0.667578  0.332410  1
  B  B5  1  0.333793  0.332417  0.332414  1
  B  B6  1  0.333171  0.333674  0.667456  1
  B  B7  1  0.666851  0.666320  0.667461  1
  Ir  Ir8  1  0.500005  0.999984  0.162094  1
  Ir  Ir9  1  0.499939  0.000031  0.500875  1
  Ir  Ir10  1  0.000006  0.500002  0.500204  1
  Ir  Ir11  1  0.499968  0.499979  0.500207  1
  Rh  Rh12  1  0.000036  0.499997  0.162253  1
  Rh  Rh13  1  0.500018  0.500017  0.162269  1
  Rh  Rh14  1  0.500025  0.999975  0.836519  1
  Rh  Rh15  1  0.999943  0.500021  0.837291  1
  Rh  Rh16  1  0.499960  0.500036  0.837260  1
