# generated using pymatgen
data_PrSm2RuBr3
_symmetry_space_group_name_H-M   'P 1'
_cell_length_a   4.24526000
_cell_length_b   8.72551070
_cell_length_c   12.14920210
_cell_angle_alpha   86.47407234
_cell_angle_beta   90.00000000
_cell_angle_gamma   90.00000000
_symmetry_Int_Tables_number   1
_chemical_formula_structural   PrSm2RuBr3
_chemical_formula_sum   'Pr2 Sm4 Ru2 Br6'
_cell_volume   449.17961410
_cell_formula_units_Z   2
loop_
 _symmetry_equiv_pos_site_id
 _symmetry_equiv_pos_as_xyz
  1  'x, y, z'
loop_
 _atom_site_type_symbol
 _atom_site_label
 _atom_site_symmetry_multiplicity
 _atom_site_fract_x
 _atom_site_fract_y
 _atom_site_fract_z
 _atom_site_occupancy
  Pr  Pr0  1  0.250000  0.880898  0.828256  1
  Pr  Pr1  1  0.750000  0.119102  0.171744  1
  Sm  Sm2  1  0.250000  0.287829  0.398052  1
  Sm  Sm3  1  0.750000  0.712171  0.601948  1
  Sm  Sm4  1  0.250000  0.872038  0.371684  1
  Sm  Sm5  1  0.750000  0.127962  0.628316  1
  Ru  Ru6  1  0.250000  0.932058  0.597939  1
  Ru  Ru7  1  0.750000  0.067942  0.402061  1
  Br  Br8  1  0.250000  0.424808  0.626237  1
  Br  Br9  1  0.750000  0.575192  0.373763  1
  Br  Br10  1  0.250000  0.880837  0.109858  1
  Br  Br11  1  0.750000  0.119163  0.890142  1
  Br  Br12  1  0.250000  0.363944  0.147602  1
  Br  Br13  1  0.750000  0.636056  0.852398  1
