# generated using pymatgen
data_Tb3DyHo4(SiBr6)2
_symmetry_space_group_name_H-M   'P 1'
_cell_length_a   4.05568000
_cell_length_b   13.23833774
_cell_length_c   14.01163100
_cell_angle_alpha   90.04791698
_cell_angle_beta   90.00000000
_cell_angle_gamma   90.00000000
_symmetry_Int_Tables_number   1
_chemical_formula_structural   Tb3DyHo4(SiBr6)2
_chemical_formula_sum   'Tb3 Dy1 Ho4 Si2 Br12'
_cell_volume   752.29067292
_cell_formula_units_Z   1
loop_
 _symmetry_equiv_pos_site_id
 _symmetry_equiv_pos_as_xyz
  1  'x, y, z'
loop_
 _atom_site_type_symbol
 _atom_site_label
 _atom_site_symmetry_multiplicity
 _atom_site_fract_x
 _atom_site_fract_y
 _atom_site_fract_z
 _atom_site_occupancy
  Tb  Tb0  1  0.000000  0.881829  0.421407  1
  Tb  Tb1  1  0.000000  0.618601  0.921126  1
  Tb  Tb2  1  0.000000  0.381376  0.078824  1
  Dy  Dy3  1  0.000000  0.118206  0.578569  1
  Ho  Ho4  1  0.500000  0.117835  0.341734  1
  Ho  Ho5  1  0.500000  0.882404  0.658438  1
  Ho  Ho6  1  0.500000  0.617780  0.158450  1
  Ho  Ho7  1  0.500000  0.382105  0.841446  1
  Si  Si8  1  0.500000  0.000520  0.500372  1
  Si  Si9  1  0.500000  0.499949  0.999912  1
  Br  Br10  1  0.500000  0.242651  0.164323  1
  Br  Br11  1  0.500000  0.757479  0.835753  1
  Br  Br12  1  0.500000  0.743132  0.336100  1
  Br  Br13  1  0.500000  0.255492  0.663333  1
  Br  Br14  1  0.000000  0.254586  0.410919  1
  Br  Br15  1  0.000000  0.745315  0.590074  1
  Br  Br16  1  0.000000  0.754871  0.090177  1
  Br  Br17  1  0.000000  0.245071  0.909708  1
  Br  Br18  1  0.000000  0.003479  0.243062  1
  Br  Br19  1  0.000000  0.997559  0.756399  1
  Br  Br20  1  0.000000  0.503506  0.257154  1
  Br  Br21  1  0.000000  0.496253  0.742723  1
