# generated using pymatgen
data_Tb3Yb(ZnIr)4
_symmetry_space_group_name_H-M   'P 1'
_cell_length_a   4.12236000
_cell_length_b   7.00828034
_cell_length_c   7.99436728
_cell_angle_alpha   89.74637192
_cell_angle_beta   90.00000000
_cell_angle_gamma   90.00000000
_symmetry_Int_Tables_number   1
_chemical_formula_structural   Tb3Yb(ZnIr)4
_chemical_formula_sum   'Tb3 Yb1 Zn4 Ir4'
_cell_volume   230.96024057
_cell_formula_units_Z   1
loop_
 _symmetry_equiv_pos_site_id
 _symmetry_equiv_pos_as_xyz
  1  'x, y, z'
loop_
 _atom_site_type_symbol
 _atom_site_label
 _atom_site_symmetry_multiplicity
 _atom_site_fract_x
 _atom_site_fract_y
 _atom_site_fract_z
 _atom_site_occupancy
  Tb  Tb0  1  0.250000  0.529597  0.184881  1
  Tb  Tb1  1  0.750000  0.468851  0.817550  1
  Tb  Tb2  1  0.750000  0.969833  0.679771  1
  Yb  Yb3  1  0.250000  0.028972  0.315055  1
  Zn  Zn4  1  0.250000  0.644107  0.564447  1
  Zn  Zn5  1  0.750000  0.353227  0.433469  1
  Zn  Zn6  1  0.750000  0.860090  0.068557  1
  Zn  Zn7  1  0.250000  0.142810  0.936141  1
  Ir  Ir8  1  0.250000  0.765671  0.877851  1
  Ir  Ir9  1  0.750000  0.240006  0.119618  1
  Ir  Ir10  1  0.750000  0.730874  0.378303  1
  Ir  Ir11  1  0.250000  0.265963  0.624357  1
