# generated using pymatgen
data_Ho3Mg2InAu3
_symmetry_space_group_name_H-M   'P 1'
_cell_length_a   7.59635699
_cell_length_b   7.69828889
_cell_length_c   4.08538000
_cell_angle_alpha   90.00000000
_cell_angle_beta   90.00000000
_cell_angle_gamma   120.44488192
_symmetry_Int_Tables_number   1
_chemical_formula_structural   Ho3Mg2InAu3
_chemical_formula_sum   'Ho3 Mg2 In1 Au3'
_cell_volume   205.96728449
_cell_formula_units_Z   1
loop_
 _symmetry_equiv_pos_site_id
 _symmetry_equiv_pos_as_xyz
  1  'x, y, z'
loop_
 _atom_site_type_symbol
 _atom_site_label
 _atom_site_symmetry_multiplicity
 _atom_site_fract_x
 _atom_site_fract_y
 _atom_site_fract_z
 _atom_site_occupancy
  Ho  Ho0  1  0.401663  0.404452  0.500000  1
  Ho  Ho1  1  0.598337  0.002789  0.500000  1
  Ho  Ho2  1  0.000000  0.588614  0.500000  1
  Mg  Mg3  1  0.747363  0.748303  0.000000  1
  Mg  Mg4  1  0.252637  0.000939  0.000000  1
  In  In5  1  0.000000  0.254542  0.000000  1
  Au  Au6  1  0.660049  0.338053  0.000000  1
  Au  Au7  1  0.339951  0.678005  0.000000  1
  Au  Au8  1  0.000000  0.984302  0.500000  1
