# generated using pymatgen
data_Tm20MnCd6Ni
_symmetry_space_group_name_H-M   'P 1'
_cell_length_a   9.43404700
_cell_length_b   9.43404867
_cell_length_c   9.69973100
_cell_angle_alpha   90.00000000
_cell_angle_beta   90.00000000
_cell_angle_gamma   119.99999766
_symmetry_Int_Tables_number   1
_chemical_formula_structural   Tm20MnCd6Ni
_chemical_formula_sum   'Tm20 Mn1 Cd6 Ni1'
_cell_volume   747.62958719
_cell_formula_units_Z   1
loop_
 _symmetry_equiv_pos_site_id
 _symmetry_equiv_pos_as_xyz
  1  'x, y, z'
loop_
 _atom_site_type_symbol
 _atom_site_label
 _atom_site_symmetry_multiplicity
 _atom_site_fract_x
 _atom_site_fract_y
 _atom_site_fract_z
 _atom_site_occupancy
  Tm  Tm0  1  0.000000  0.000000  0.499183  1
  Tm  Tm1  1  0.000000  0.000000  0.000817  1
  Tm  Tm2  1  0.539752  0.460248  0.250000  1
  Tm  Tm3  1  0.539752  0.079504  0.250000  1
  Tm  Tm4  1  0.920496  0.460248  0.250000  1
  Tm  Tm5  1  0.457093  0.542907  0.750000  1
  Tm  Tm6  1  0.457093  0.914185  0.750000  1
  Tm  Tm7  1  0.085815  0.542907  0.750000  1
  Tm  Tm8  1  0.211676  0.788324  0.437076  1
  Tm  Tm9  1  0.211676  0.423352  0.437076  1
  Tm  Tm10  1  0.576648  0.788324  0.437076  1
  Tm  Tm11  1  0.789061  0.210939  0.561371  1
  Tm  Tm12  1  0.789061  0.578122  0.561371  1
  Tm  Tm13  1  0.421878  0.210939  0.561371  1
  Tm  Tm14  1  0.789061  0.210939  0.938629  1
  Tm  Tm15  1  0.789061  0.578122  0.938629  1
  Tm  Tm16  1  0.421878  0.210939  0.938629  1
  Tm  Tm17  1  0.211676  0.788324  0.062924  1
  Tm  Tm18  1  0.211676  0.423352  0.062924  1
  Tm  Tm19  1  0.576648  0.788324  0.062924  1
  Mn  Mn20  1  0.333333  0.666667  0.250000  1
  Cd  Cd21  1  0.885761  0.114239  0.250000  1
  Cd  Cd22  1  0.885761  0.771522  0.250000  1
  Cd  Cd23  1  0.228478  0.114239  0.250000  1
  Cd  Cd24  1  0.113936  0.886064  0.750000  1
  Cd  Cd25  1  0.113936  0.227871  0.750000  1
  Cd  Cd26  1  0.772129  0.886064  0.750000  1
  Ni  Ni27  1  0.666667  0.333333  0.750000  1
