# generated using pymatgen
data_Tm3Zr(B6Mo)2
_symmetry_space_group_name_H-M   'P 1'
_cell_length_a   3.59664200
_cell_length_b   9.16939657
_cell_length_c   11.53066974
_cell_angle_alpha   89.96688699
_cell_angle_beta   90.00000000
_cell_angle_gamma   90.00000000
_symmetry_Int_Tables_number   1
_chemical_formula_structural   Tm3Zr(B6Mo)2
_chemical_formula_sum   'Tm6 Zr2 B24 Mo4'
_cell_volume   380.27031818
_cell_formula_units_Z   2
loop_
 _symmetry_equiv_pos_site_id
 _symmetry_equiv_pos_as_xyz
  1  'x, y, z'
loop_
 _atom_site_type_symbol
 _atom_site_label
 _atom_site_symmetry_multiplicity
 _atom_site_fract_x
 _atom_site_fract_y
 _atom_site_fract_z
 _atom_site_occupancy
  Tm  Tm0  1  0.000000  0.322314  0.413924  1
  Tm  Tm1  1  0.000000  0.677686  0.586076  1
  Tm  Tm2  1  0.000000  0.821748  0.085970  1
  Tm  Tm3  1  0.000000  0.178252  0.914030  1
  Tm  Tm4  1  0.000000  0.944613  0.370945  1
  Tm  Tm5  1  0.000000  0.055387  0.629055  1
  Zr  Zr6  1  0.000000  0.445004  0.127778  1
  Zr  Zr7  1  0.000000  0.554996  0.872222  1
  B  B8  1  0.500000  0.552129  0.434136  1
  B  B9  1  0.500000  0.447871  0.565864  1
  B  B10  1  0.500000  0.053082  0.064727  1
  B  B11  1  0.500000  0.946918  0.935273  1
  B  B12  1  0.500000  0.751451  0.420045  1
  B  B13  1  0.500000  0.248549  0.579955  1
  B  B14  1  0.500000  0.254541  0.078150  1
  B  B15  1  0.500000  0.745459  0.921850  1
  B  B16  1  0.500000  0.795492  0.262965  1
  B  B17  1  0.500000  0.204508  0.737035  1
  B  B18  1  0.500000  0.296906  0.235437  1
  B  B19  1  0.500000  0.703094  0.764563  1
  B  B20  1  0.500000  0.630193  0.181588  1
  B  B21  1  0.500000  0.369807  0.818412  1
  B  B22  1  0.500000  0.132601  0.316388  1
  B  B23  1  0.500000  0.867399  0.683612  1
  B  B24  1  0.500000  0.981344  0.211691  1
  B  B25  1  0.500000  0.018656  0.788309  1
  B  B26  1  0.500000  0.478951  0.286950  1
  B  B27  1  0.500000  0.521049  0.713050  1
  B  B28  1  0.500000  0.598206  0.027202  1
  B  B29  1  0.500000  0.401794  0.972798  1
  B  B30  1  0.500000  0.101589  0.472224  1
  B  B31  1  0.500000  0.898411  0.527776  1
  Mo  Mo32  1  0.000000  0.638479  0.316899  1
  Mo  Mo33  1  0.000000  0.361521  0.683101  1
  Mo  Mo34  1  0.000000  0.143951  0.178415  1
  Mo  Mo35  1  0.000000  0.856049  0.821585  1
