# generated using pymatgen
data_Y6Er2Cd2CoPd
_symmetry_space_group_name_H-M   'P 1'
_cell_length_a   9.61511136
_cell_length_b   9.61511052
_cell_length_c   9.62518900
_cell_angle_alpha   59.96531658
_cell_angle_beta   59.96531949
_cell_angle_gamma   60.04904856
_symmetry_Int_Tables_number   1
_chemical_formula_structural   Y6Er2Cd2CoPd
_chemical_formula_sum   'Y12 Er4 Cd4 Co2 Pd2'
_cell_volume   629.12299848
_cell_formula_units_Z   2
loop_
 _symmetry_equiv_pos_site_id
 _symmetry_equiv_pos_as_xyz
  1  'x, y, z'
loop_
 _atom_site_type_symbol
 _atom_site_label
 _atom_site_symmetry_multiplicity
 _atom_site_fract_x
 _atom_site_fract_y
 _atom_site_fract_z
 _atom_site_occupancy
  Y  Y0  1  0.819707  0.188936  0.190019  1
  Y  Y1  1  0.188936  0.819707  0.801338  1
  Y  Y2  1  0.188936  0.819707  0.190019  1
  Y  Y3  1  0.819707  0.188936  0.801338  1
  Y  Y4  1  0.188805  0.188805  0.811195  1
  Y  Y5  1  0.809306  0.809306  0.190694  1
  Y  Y6  1  0.935717  0.561896  0.565292  1
  Y  Y7  1  0.561896  0.935717  0.937096  1
  Y  Y8  1  0.561896  0.935717  0.565292  1
  Y  Y9  1  0.935717  0.561896  0.937096  1
  Y  Y10  1  0.562873  0.562873  0.937127  1
  Y  Y11  1  0.935897  0.935897  0.564103  1
  Er  Er12  1  0.345743  0.345743  0.359706  1
  Er  Er13  1  0.345743  0.345743  0.948808  1
  Er  Er14  1  0.339235  0.958232  0.351266  1
  Er  Er15  1  0.958232  0.339235  0.351266  1
  Cd  Cd16  1  0.580606  0.580606  0.580019  1
  Cd  Cd17  1  0.580606  0.580606  0.258771  1
  Cd  Cd18  1  0.582375  0.255461  0.581082  1
  Cd  Cd19  1  0.255461  0.582375  0.581082  1
  Co  Co20  1  0.143859  0.143859  0.142029  1
  Co  Co21  1  0.143859  0.143859  0.570253  1
  Pd  Pd22  1  0.146737  0.568152  0.142556  1
  Pd  Pd23  1  0.568152  0.146737  0.142556  1
