# generated using pymatgen
data_BaTb2P4(PbS8)2
_symmetry_space_group_name_H-M   'P 1'
_cell_length_a   10.28469400
_cell_length_b   12.94936800
_cell_length_c   19.21515000
_cell_angle_alpha   90.00000000
_cell_angle_beta   90.00000000
_cell_angle_gamma   90.00000000
_symmetry_Int_Tables_number   1
_chemical_formula_structural   BaTb2P4(PbS8)2
_chemical_formula_sum   'Ba4 Tb8 P16 Pb8 S64'
_cell_volume   2559.07919892
_cell_formula_units_Z   4
loop_
 _symmetry_equiv_pos_site_id
 _symmetry_equiv_pos_as_xyz
  1  'x, y, z'
loop_
 _atom_site_type_symbol
 _atom_site_label
 _atom_site_symmetry_multiplicity
 _atom_site_fract_x
 _atom_site_fract_y
 _atom_site_fract_z
 _atom_site_occupancy
  Ba  Ba0  1  0.121717  0.250000  0.000000  1
  Ba  Ba1  1  0.878283  0.750000  0.000000  1
  Ba  Ba2  1  0.378283  0.750000  0.500000  1
  Ba  Ba3  1  0.621717  0.250000  0.500000  1
  Tb  Tb4  1  0.624161  0.386211  0.073285  1
  Tb  Tb5  1  0.624161  0.113789  0.926715  1
  Tb  Tb6  1  0.375839  0.613789  0.926715  1
  Tb  Tb7  1  0.875839  0.886211  0.426715  1
  Tb  Tb8  1  0.375839  0.886211  0.073285  1
  Tb  Tb9  1  0.875839  0.613789  0.573285  1
  Tb  Tb10  1  0.124161  0.386211  0.426715  1
  Tb  Tb11  1  0.124161  0.113789  0.573285  1
  P  P12  1  0.495828  0.356905  0.896195  1
  P  P13  1  0.934831  0.459332  0.132099  1
  P  P14  1  0.434831  0.459332  0.367901  1
  P  P15  1  0.934831  0.040668  0.867901  1
  P  P16  1  0.065169  0.540668  0.867901  1
  P  P17  1  0.565169  0.959332  0.367901  1
  P  P18  1  0.504172  0.856905  0.896195  1
  P  P19  1  0.495828  0.143095  0.103805  1
  P  P20  1  0.004172  0.856905  0.603805  1
  P  P21  1  0.565169  0.540668  0.632099  1
  P  P22  1  0.995828  0.356905  0.603805  1
  P  P23  1  0.995828  0.143095  0.396195  1
  P  P24  1  0.004172  0.643095  0.396195  1
  P  P25  1  0.504172  0.643095  0.103805  1
  P  P26  1  0.065169  0.959332  0.132099  1
  P  P27  1  0.434831  0.040668  0.632099  1
  Pb  Pb28  1  0.802054  0.073476  0.228364  1
  Pb  Pb29  1  0.697946  0.926524  0.728364  1
  Pb  Pb30  1  0.302054  0.426524  0.728364  1
  Pb  Pb31  1  0.197946  0.926524  0.771636  1
  Pb  Pb32  1  0.802054  0.426524  0.771636  1
  Pb  Pb33  1  0.697946  0.573476  0.271636  1
  Pb  Pb34  1  0.302054  0.073476  0.271636  1
  Pb  Pb35  1  0.197946  0.573476  0.228364  1
  S  S36  1  0.006122  0.481250  0.670355  1
  S  S37  1  0.117752  0.584490  0.966488  1
  S  S38  1  0.934619  0.615708  0.149125  1
  S  S39  1  0.710136  0.606737  0.693181  1
  S  S40  1  0.884844  0.899497  0.153065  1
  S  S41  1  0.428870  0.271683  0.148931  1
  S  S42  1  0.934619  0.884292  0.850875  1
  S  S43  1  0.112983  0.596456  0.481727  1
  S  S44  1  0.681834  0.170348  0.069804  1
  S  S45  1  0.617752  0.915510  0.466488  1
  S  S46  1  0.493878  0.981250  0.829645  1
  S  S47  1  0.065381  0.115708  0.149125  1
  S  S48  1  0.115156  0.100503  0.846935  1
  S  S49  1  0.882248  0.415510  0.033512  1
  S  S50  1  0.071130  0.771683  0.351069  1
  S  S51  1  0.318166  0.829652  0.930196  1
  S  S52  1  0.571130  0.771683  0.148931  1
  S  S53  1  0.289864  0.393263  0.306819  1
  S  S54  1  0.506122  0.018750  0.170355  1
  S  S55  1  0.382248  0.415510  0.466488  1
  S  S56  1  0.181834  0.170348  0.430196  1
  S  S57  1  0.434619  0.884292  0.649125  1
  S  S58  1  0.818166  0.670348  0.430196  1
  S  S59  1  0.434619  0.615708  0.350875  1
  S  S60  1  0.681834  0.329652  0.930196  1
  S  S61  1  0.387017  0.403544  0.981727  1
  S  S62  1  0.789864  0.106737  0.806819  1
  S  S63  1  0.384844  0.899497  0.346935  1
  S  S64  1  0.887017  0.096456  0.481727  1
  S  S65  1  0.071130  0.728317  0.648931  1
  S  S66  1  0.428870  0.228317  0.851069  1
  S  S67  1  0.387017  0.096456  0.018273  1
  S  S68  1  0.928870  0.271683  0.351069  1
  S  S69  1  0.289864  0.106737  0.693181  1
  S  S70  1  0.181834  0.329652  0.569804  1
  S  S71  1  0.006122  0.018750  0.329645  1
  S  S72  1  0.384844  0.600503  0.653065  1
  S  S73  1  0.928870  0.228317  0.648931  1
  S  S74  1  0.993878  0.518750  0.329645  1
  S  S75  1  0.565381  0.115708  0.350875  1
  S  S76  1  0.571130  0.728317  0.851069  1
  S  S77  1  0.818166  0.829652  0.569804  1
  S  S78  1  0.112983  0.903544  0.518273  1
  S  S79  1  0.617752  0.584490  0.533512  1
  S  S80  1  0.117752  0.915510  0.033512  1
  S  S81  1  0.789864  0.393263  0.193181  1
  S  S82  1  0.493878  0.518750  0.170355  1
  S  S83  1  0.382248  0.084490  0.533512  1
  S  S84  1  0.887017  0.403544  0.518273  1
  S  S85  1  0.884844  0.600503  0.846935  1
  S  S86  1  0.210136  0.893263  0.193181  1
  S  S87  1  0.615156  0.100503  0.653065  1
  S  S88  1  0.710136  0.893263  0.306819  1
  S  S89  1  0.210136  0.606737  0.806819  1
  S  S90  1  0.615156  0.399497  0.346935  1
  S  S91  1  0.565381  0.384292  0.649125  1
  S  S92  1  0.506122  0.481250  0.829645  1
  S  S93  1  0.065381  0.384292  0.850875  1
  S  S94  1  0.612983  0.903544  0.981727  1
  S  S95  1  0.318166  0.670348  0.069804  1
  S  S96  1  0.993878  0.981250  0.670355  1
  S  S97  1  0.115156  0.399497  0.153065  1
  S  S98  1  0.882248  0.084490  0.966488  1
  S  S99  1  0.612983  0.596456  0.018273  1
