# generated using pymatgen
data_Dy12Tc2OsRh
_symmetry_space_group_name_H-M   'P 1'
_cell_length_a   6.29463242
_cell_length_b   7.39491780
_cell_length_c   9.17213700
_cell_angle_alpha   90.00000000
_cell_angle_beta   90.00000000
_cell_angle_gamma   90.12499218
_symmetry_Int_Tables_number   1
_chemical_formula_structural   Dy12Tc2OsRh
_chemical_formula_sum   'Dy12 Tc2 Os1 Rh1'
_cell_volume   426.94627075
_cell_formula_units_Z   1
loop_
 _symmetry_equiv_pos_site_id
 _symmetry_equiv_pos_as_xyz
  1  'x, y, z'
loop_
 _atom_site_type_symbol
 _atom_site_label
 _atom_site_symmetry_multiplicity
 _atom_site_fract_x
 _atom_site_fract_y
 _atom_site_fract_z
 _atom_site_occupancy
  Dy  Dy0  1  0.334991  0.676271  0.063571  1
  Dy  Dy1  1  0.166885  0.176422  0.433840  1
  Dy  Dy2  1  0.663487  0.326414  0.561367  1
  Dy  Dy3  1  0.834214  0.820954  0.938219  1
  Dy  Dy4  1  0.663487  0.326414  0.938633  1
  Dy  Dy5  1  0.834214  0.820954  0.561781  1
  Dy  Dy6  1  0.334991  0.676271  0.436429  1
  Dy  Dy7  1  0.166885  0.176422  0.066160  1
  Dy  Dy8  1  0.874901  0.539573  0.250000  1
  Dy  Dy9  1  0.626440  0.039977  0.250000  1
  Dy  Dy10  1  0.132802  0.459914  0.750000  1
  Dy  Dy11  1  0.367365  0.958100  0.750000  1
  Tc  Tc12  1  0.038287  0.886076  0.250000  1
  Tc  Tc13  1  0.460870  0.385344  0.250000  1
  Os  Os14  1  0.542398  0.616116  0.750000  1
  Rh  Rh15  1  0.957782  0.114781  0.750000  1
