# generated using pymatgen
data_Mg3Sc5(B6Ru)4
_symmetry_space_group_name_H-M   'P 1'
_cell_length_a   3.47737300
_cell_length_b   8.83784136
_cell_length_c   11.13304444
_cell_angle_alpha   90.07305178
_cell_angle_beta   90.00000000
_cell_angle_gamma   90.00000000
_symmetry_Int_Tables_number   1
_chemical_formula_structural   Mg3Sc5(B6Ru)4
_chemical_formula_sum   'Mg3 Sc5 B24 Ru4'
_cell_volume   342.14568653
_cell_formula_units_Z   1
loop_
 _symmetry_equiv_pos_site_id
 _symmetry_equiv_pos_as_xyz
  1  'x, y, z'
loop_
 _atom_site_type_symbol
 _atom_site_label
 _atom_site_symmetry_multiplicity
 _atom_site_fract_x
 _atom_site_fract_y
 _atom_site_fract_z
 _atom_site_occupancy
  Mg  Mg0  1  0.000000  0.944599  0.373210  1
  Mg  Mg1  1  0.000000  0.056069  0.627959  1
  Mg  Mg2  1  0.000000  0.554668  0.874001  1
  Sc  Sc3  1  0.000000  0.178075  0.912896  1
  Sc  Sc4  1  0.000000  0.820956  0.083359  1
  Sc  Sc5  1  0.000000  0.674628  0.588867  1
  Sc  Sc6  1  0.000000  0.324606  0.415338  1
  Sc  Sc7  1  0.000000  0.444418  0.127669  1
  B  B8  1  0.500000  0.370479  0.817607  1
  B  B9  1  0.500000  0.978984  0.212212  1
  B  B10  1  0.500000  0.555209  0.435197  1
  B  B11  1  0.500000  0.293877  0.236904  1
  B  B12  1  0.500000  0.205414  0.737389  1
  B  B13  1  0.500000  0.095300  0.473885  1
  B  B14  1  0.500000  0.795580  0.262629  1
  B  B15  1  0.500000  0.445237  0.565154  1
  B  B16  1  0.500000  0.244789  0.578421  1
  B  B17  1  0.500000  0.480927  0.287534  1
  B  B18  1  0.500000  0.705469  0.762405  1
  B  B19  1  0.500000  0.755438  0.421768  1
  B  B20  1  0.500000  0.519903  0.712620  1
  B  B21  1  0.500000  0.904626  0.526533  1
  B  B22  1  0.500000  0.053562  0.065244  1
  B  B23  1  0.500000  0.600068  0.026391  1
  B  B24  1  0.500000  0.746337  0.919864  1
  B  B25  1  0.500000  0.021345  0.787550  1
  B  B26  1  0.500000  0.400591  0.971948  1
  B  B27  1  0.500000  0.945637  0.934031  1
  B  B28  1  0.500000  0.631105  0.181897  1
  B  B29  1  0.500000  0.252564  0.078690  1
  B  B30  1  0.500000  0.870776  0.680931  1
  B  B31  1  0.500000  0.128966  0.319487  1
  Ru  Ru32  1  0.000000  0.138169  0.181488  1
  Ru  Ru33  1  0.000000  0.359808  0.678476  1
  Ru  Ru34  1  0.000000  0.860831  0.818892  1
  Ru  Ru35  1  0.000000  0.640984  0.321559  1
