# generated using pymatgen
data_Dy3Ni2Ir6Rh
_symmetry_space_group_name_H-M   'P 1'
_cell_length_a   5.28951280
_cell_length_b   5.28951378
_cell_length_c   8.98840987
_cell_angle_alpha   72.88798805
_cell_angle_beta   72.88798822
_cell_angle_gamma   60.00001199
_symmetry_Int_Tables_number   1
_chemical_formula_structural   Dy3Ni2Ir6Rh
_chemical_formula_sum   'Dy3 Ni2 Ir6 Rh1'
_cell_volume   204.83747410
_cell_formula_units_Z   1
loop_
 _symmetry_equiv_pos_site_id
 _symmetry_equiv_pos_as_xyz
  1  'x, y, z'
loop_
 _atom_site_type_symbol
 _atom_site_label
 _atom_site_symmetry_multiplicity
 _atom_site_fract_x
 _atom_site_fract_y
 _atom_site_fract_z
 _atom_site_occupancy
  Dy  Dy0  1  0.139757  0.139757  0.580730  1
  Dy  Dy1  1  0.860243  0.860243  0.419270  1
  Dy  Dy2  1  0.000000  0.000000  0.000000  1
  Ni  Ni3  1  0.333311  0.333311  0.000067  1
  Ni  Ni4  1  0.666689  0.666689  0.999933  1
  Ir  Ir5  1  0.078169  0.580388  0.761054  1
  Ir  Ir6  1  0.580388  0.580388  0.761054  1
  Ir  Ir7  1  0.580388  0.078169  0.761054  1
  Ir  Ir8  1  0.921831  0.419612  0.238946  1
  Ir  Ir9  1  0.419612  0.419612  0.238946  1
  Ir  Ir10  1  0.419612  0.921831  0.238946  1
  Rh  Rh11  1  0.500000  0.500000  0.500000  1
