# generated using pymatgen
data_MnVCu3Sb4
_symmetry_space_group_name_H-M   'P 1'
_cell_length_a   5.31897800
_cell_length_b   8.48075501
_cell_length_c   8.48075503
_cell_angle_alpha   119.99257218
_cell_angle_beta   90.00000000
_cell_angle_gamma   90.00000000
_symmetry_Int_Tables_number   1
_chemical_formula_structural   MnVCu3Sb4
_chemical_formula_sum   'Mn2 V2 Cu6 Sb8'
_cell_volume   331.32969698
_cell_formula_units_Z   2
loop_
 _symmetry_equiv_pos_site_id
 _symmetry_equiv_pos_as_xyz
  1  'x, y, z'
loop_
 _atom_site_type_symbol
 _atom_site_label
 _atom_site_symmetry_multiplicity
 _atom_site_fract_x
 _atom_site_fract_y
 _atom_site_fract_z
 _atom_site_occupancy
  Mn  Mn0  1  0.500000  0.000000  0.000000  1
  Mn  Mn1  1  0.000000  0.000000  0.000000  1
  V  V2  1  0.750000  0.666683  0.333317  1
  V  V3  1  0.250000  0.333317  0.666683  1
  Cu  Cu4  1  0.500000  0.500000  0.000000  1
  Cu  Cu5  1  0.500000  0.500000  0.500000  1
  Cu  Cu6  1  0.500000  0.000000  0.500000  1
  Cu  Cu7  1  0.000000  0.500000  0.000000  1
  Cu  Cu8  1  0.000000  0.500000  0.500000  1
  Cu  Cu9  1  0.000000  0.000000  0.500000  1
  Sb  Sb10  1  0.750000  0.846467  0.693243  1
  Sb  Sb11  1  0.750000  0.846627  0.153373  1
  Sb  Sb12  1  0.750000  0.306757  0.153533  1
  Sb  Sb13  1  0.250000  0.153533  0.306757  1
  Sb  Sb14  1  0.250000  0.153373  0.846627  1
  Sb  Sb15  1  0.250000  0.693243  0.846467  1
  Sb  Sb16  1  0.250000  0.666706  0.333294  1
  Sb  Sb17  1  0.750000  0.333294  0.666706  1
