# generated using pymatgen
data_Zr4Co6TcOs
_symmetry_space_group_name_H-M   'P 1'
_cell_length_a   4.95131700
_cell_length_b   4.95131699
_cell_length_c   8.19933500
_cell_angle_alpha   90.00000000
_cell_angle_beta   90.00000000
_cell_angle_gamma   120.00000677
_symmetry_Int_Tables_number   1
_chemical_formula_structural   Zr4Co6TcOs
_chemical_formula_sum   'Zr4 Co6 Tc1 Os1'
_cell_volume   174.08072873
_cell_formula_units_Z   1
loop_
 _symmetry_equiv_pos_site_id
 _symmetry_equiv_pos_as_xyz
  1  'x, y, z'
loop_
 _atom_site_type_symbol
 _atom_site_label
 _atom_site_symmetry_multiplicity
 _atom_site_fract_x
 _atom_site_fract_y
 _atom_site_fract_z
 _atom_site_occupancy
  Zr  Zr0  1  0.333333  0.666667  0.433034  1
  Zr  Zr1  1  0.666667  0.333333  0.566966  1
  Zr  Zr2  1  0.666667  0.333333  0.933969  1
  Zr  Zr3  1  0.333333  0.666667  0.066031  1
  Co  Co4  1  0.829029  0.170971  0.249779  1
  Co  Co5  1  0.829029  0.658059  0.249779  1
  Co  Co6  1  0.341941  0.170971  0.249779  1
  Co  Co7  1  0.170971  0.829029  0.750221  1
  Co  Co8  1  0.170971  0.341941  0.750221  1
  Co  Co9  1  0.658059  0.829029  0.750221  1
  Tc  Tc10  1  0.000000  0.000000  0.500000  1
  Os  Os11  1  0.000000  0.000000  0.000000  1
