# generated using pymatgen
data_Co7NiRhSe8
_symmetry_space_group_name_H-M   'P 1'
_cell_length_a   7.40464418
_cell_length_b   7.38347971
_cell_length_c   7.38347900
_cell_angle_alpha   60.00000767
_cell_angle_beta   60.09451345
_cell_angle_gamma   60.09451354
_symmetry_Int_Tables_number   1
_chemical_formula_structural   Co7NiRhSe8
_chemical_formula_sum   'Co7 Ni1 Rh1 Se8'
_cell_volume   285.84480024
_cell_formula_units_Z   1
loop_
 _symmetry_equiv_pos_site_id
 _symmetry_equiv_pos_as_xyz
  1  'x, y, z'
loop_
 _atom_site_type_symbol
 _atom_site_label
 _atom_site_symmetry_multiplicity
 _atom_site_fract_x
 _atom_site_fract_y
 _atom_site_fract_z
 _atom_site_occupancy
  Co  Co0  1  0.123681  0.630281  0.123018  1
  Co  Co1  1  0.123681  0.123018  0.630281  1
  Co  Co2  1  0.123681  0.123018  0.123018  1
  Co  Co3  1  0.369162  0.876946  0.876946  1
  Co  Co4  1  0.876310  0.370130  0.876781  1
  Co  Co5  1  0.876310  0.876781  0.370130  1
  Co  Co6  1  0.876310  0.876781  0.876781  1
  Ni  Ni7  1  0.625677  0.124774  0.124774  1
  Rh  Rh8  1  0.501714  0.499429  0.499429  1
  Se  Se9  1  0.242583  0.252472  0.252472  1
  Se  Se10  1  0.747502  0.750833  0.750833  1
  Se  Se11  1  0.746185  0.258306  0.258306  1
  Se  Se12  1  0.746185  0.258306  0.737204  1
  Se  Se13  1  0.746185  0.737204  0.258306  1
  Se  Se14  1  0.258279  0.741534  0.741534  1
  Se  Se15  1  0.258279  0.741534  0.258654  1
  Se  Se16  1  0.258279  0.258654  0.741534  1
