# generated using pymatgen
data_Eu2Si2AsPt2Rh
_symmetry_space_group_name_H-M   'P 1'
_cell_length_a   4.11506947
_cell_length_b   4.16816000
_cell_length_c   9.26663963
_cell_angle_alpha   90.00000000
_cell_angle_beta   102.82869180
_cell_angle_gamma   90.00000000
_symmetry_Int_Tables_number   1
_chemical_formula_structural   Eu2Si2AsPt2Rh
_chemical_formula_sum   'Eu2 Si2 As1 Pt2 Rh1'
_cell_volume   154.97637454
_cell_formula_units_Z   1
loop_
 _symmetry_equiv_pos_site_id
 _symmetry_equiv_pos_as_xyz
  1  'x, y, z'
loop_
 _atom_site_type_symbol
 _atom_site_label
 _atom_site_symmetry_multiplicity
 _atom_site_fract_x
 _atom_site_fract_y
 _atom_site_fract_z
 _atom_site_occupancy
  Eu  Eu0  1  0.600340  0.250000  0.200679  1
  Eu  Eu1  1  0.399218  0.750000  0.798437  1
  Si  Si2  1  0.821765  0.250000  0.643529  1
  Si  Si3  1  0.174819  0.750000  0.349638  1
  As  As4  1  0.959773  0.250000  0.919546  1
  Pt  Pt5  1  0.043839  0.750000  0.087678  1
  Pt  Pt6  1  0.749204  0.750000  0.498408  1
  Rh  Rh7  1  0.251043  0.250000  0.502084  1
