# generated using pymatgen
data_TmLu9(RuRh)2
_symmetry_space_group_name_H-M   'P 1'
_cell_length_a   6.25194013
_cell_length_b   7.18520165
_cell_length_c   8.31551801
_cell_angle_alpha   96.79128995
_cell_angle_beta   112.43327447
_cell_angle_gamma   90.00394738
_symmetry_Int_Tables_number   1
_chemical_formula_structural   TmLu9(RuRh)2
_chemical_formula_sum   'Tm1 Lu9 Ru2 Rh2'
_cell_volume   342.43840264
_cell_formula_units_Z   1
loop_
 _symmetry_equiv_pos_site_id
 _symmetry_equiv_pos_as_xyz
  1  'x, y, z'
loop_
 _atom_site_type_symbol
 _atom_site_label
 _atom_site_symmetry_multiplicity
 _atom_site_fract_x
 _atom_site_fract_y
 _atom_site_fract_z
 _atom_site_occupancy
  Tm  Tm0  1  0.524115  0.081639  0.815833  1
  Lu  Lu1  1  0.476112  0.918117  0.184308  1
  Lu  Lu2  1  0.710495  0.416008  0.188013  1
  Lu  Lu3  1  0.289345  0.584033  0.812261  1
  Lu  Lu4  1  0.290231  0.312669  0.435489  1
  Lu  Lu5  1  0.709785  0.687365  0.564260  1
  Lu  Lu6  1  0.858261  0.182598  0.562006  1
  Lu  Lu7  1  0.141395  0.817226  0.437395  1
  Lu  Lu8  1  0.080099  0.247805  0.999584  1
  Lu  Lu9  1  0.920388  0.752214  0.000712  1
  Ru  Ru10  1  0.105161  0.922721  0.782515  1
  Ru  Ru11  1  0.894271  0.076921  0.217736  1
  Rh  Rh12  1  0.324484  0.575283  0.222752  1
  Rh  Rh13  1  0.675857  0.425402  0.777136  1
