# generated using pymatgen
data_LiEr(Te2O5)2
_symmetry_space_group_name_H-M   'P 1'
_cell_length_a   9.11071300
_cell_length_b   9.11071300
_cell_length_c   13.65067200
_cell_angle_alpha   90.00000000
_cell_angle_beta   90.00000000
_cell_angle_gamma   90.00000000
_symmetry_Int_Tables_number   1
_chemical_formula_structural   LiEr(Te2O5)2
_chemical_formula_sum   'Li4 Er4 Te16 O40'
_cell_volume   1133.07527660
_cell_formula_units_Z   4
loop_
 _symmetry_equiv_pos_site_id
 _symmetry_equiv_pos_as_xyz
  1  'x, y, z'
loop_
 _atom_site_type_symbol
 _atom_site_label
 _atom_site_symmetry_multiplicity
 _atom_site_fract_x
 _atom_site_fract_y
 _atom_site_fract_z
 _atom_site_occupancy
  Li  Li0  1  0.500000  0.000000  0.000000  1
  Li  Li1  1  0.000000  0.500000  0.000000  1
  Li  Li2  1  0.000000  0.500000  0.500000  1
  Li  Li3  1  0.500000  0.000000  0.500000  1
  Er  Er4  1  0.500000  0.000000  0.250000  1
  Er  Er5  1  0.000000  0.500000  0.250000  1
  Er  Er6  1  0.000000  0.500000  0.750000  1
  Er  Er7  1  0.500000  0.000000  0.750000  1
  Te  Te8  1  0.307880  0.719417  0.129188  1
  Te  Te9  1  0.192120  0.219417  0.129188  1
  Te  Te10  1  0.807880  0.780583  0.129188  1
  Te  Te11  1  0.692120  0.280583  0.129188  1
  Te  Te12  1  0.719417  0.307880  0.629188  1
  Te  Te13  1  0.780583  0.807880  0.629188  1
  Te  Te14  1  0.219417  0.192120  0.629188  1
  Te  Te15  1  0.280583  0.692120  0.629188  1
  Te  Te16  1  0.192120  0.780583  0.370812  1
  Te  Te17  1  0.307880  0.280583  0.370812  1
  Te  Te18  1  0.692120  0.719417  0.370812  1
  Te  Te19  1  0.807880  0.219417  0.370812  1
  Te  Te20  1  0.780583  0.192120  0.870812  1
  Te  Te21  1  0.719417  0.692120  0.870812  1
  Te  Te22  1  0.280583  0.307880  0.870812  1
  Te  Te23  1  0.219417  0.807880  0.870812  1
  O  O24  1  0.351901  0.922231  0.118935  1
  O  O25  1  0.148099  0.422231  0.118935  1
  O  O26  1  0.851901  0.577769  0.118935  1
  O  O27  1  0.648099  0.077769  0.118935  1
  O  O28  1  0.922231  0.351901  0.618935  1
  O  O29  1  0.577769  0.851901  0.618935  1
  O  O30  1  0.422231  0.148099  0.618935  1
  O  O31  1  0.077769  0.648099  0.618935  1
  O  O32  1  0.148099  0.577769  0.381065  1
  O  O33  1  0.351901  0.077769  0.381065  1
  O  O34  1  0.648099  0.922231  0.381065  1
  O  O35  1  0.851901  0.422231  0.381065  1
  O  O36  1  0.577769  0.148099  0.881065  1
  O  O37  1  0.922231  0.648099  0.881065  1
  O  O38  1  0.077769  0.351901  0.881065  1
  O  O39  1  0.422231  0.851901  0.881065  1
  O  O40  1  0.125849  0.720560  0.199044  1
  O  O41  1  0.374151  0.220560  0.199044  1
  O  O42  1  0.625849  0.779440  0.199044  1
  O  O43  1  0.874151  0.279440  0.199044  1
  O  O44  1  0.720560  0.125849  0.699044  1
  O  O45  1  0.779440  0.625849  0.699044  1
  O  O46  1  0.220560  0.374151  0.699044  1
  O  O47  1  0.279440  0.874151  0.699044  1
  O  O48  1  0.374151  0.779440  0.300956  1
  O  O49  1  0.125849  0.279440  0.300956  1
  O  O50  1  0.874151  0.720560  0.300956  1
  O  O51  1  0.625849  0.220560  0.300956  1
  O  O52  1  0.779440  0.374151  0.800956  1
  O  O53  1  0.720560  0.874151  0.800956  1
  O  O54  1  0.279440  0.125849  0.800956  1
  O  O55  1  0.220560  0.625849  0.800956  1
  O  O56  1  0.203688  0.703688  0.000000  1
  O  O57  1  0.296312  0.203688  0.000000  1
  O  O58  1  0.703688  0.796312  0.000000  1
  O  O59  1  0.796312  0.296312  0.000000  1
  O  O60  1  0.703688  0.203688  0.500000  1
  O  O61  1  0.796312  0.703688  0.500000  1
  O  O62  1  0.203688  0.296312  0.500000  1
  O  O63  1  0.296312  0.796312  0.500000  1
