# generated using pymatgen
data_Sm3Mg(As3Rh4)2
_symmetry_space_group_name_H-M   'P 1'
_cell_length_a   4.07034200
_cell_length_b   11.60263700
_cell_length_c   13.24810000
_cell_angle_alpha   90.00000000
_cell_angle_beta   90.00000000
_cell_angle_gamma   90.00000000
_symmetry_Int_Tables_number   1
_chemical_formula_structural   Sm3Mg(As3Rh4)2
_chemical_formula_sum   'Sm6 Mg2 As12 Rh16'
_cell_volume   625.66405344
_cell_formula_units_Z   2
loop_
 _symmetry_equiv_pos_site_id
 _symmetry_equiv_pos_as_xyz
  1  'x, y, z'
loop_
 _atom_site_type_symbol
 _atom_site_label
 _atom_site_symmetry_multiplicity
 _atom_site_fract_x
 _atom_site_fract_y
 _atom_site_fract_z
 _atom_site_occupancy
  Sm  Sm0  1  0.000000  0.500000  0.520871  1
  Sm  Sm1  1  0.500000  0.000000  0.479129  1
  Sm  Sm2  1  0.500000  0.820958  0.205539  1
  Sm  Sm3  1  0.500000  0.179042  0.205539  1
  Sm  Sm4  1  0.000000  0.679042  0.794461  1
  Sm  Sm5  1  0.000000  0.320958  0.794461  1
  Mg  Mg6  1  0.500000  0.500000  0.156426  1
  Mg  Mg7  1  0.000000  0.000000  0.843574  1
  As  As8  1  0.500000  0.500000  0.882069  1
  As  As9  1  0.000000  0.000000  0.117931  1
  As  As10  1  0.500000  0.500000  0.353922  1
  As  As11  1  0.000000  0.000000  0.646078  1
  As  As12  1  0.500000  0.313938  0.616848  1
  As  As13  1  0.500000  0.686062  0.616848  1
  As  As14  1  0.000000  0.186062  0.383152  1
  As  As15  1  0.000000  0.813938  0.383152  1
  As  As16  1  0.500000  0.839105  0.888234  1
  As  As17  1  0.500000  0.160895  0.888234  1
  As  As18  1  0.000000  0.660895  0.111766  1
  As  As19  1  0.000000  0.339105  0.111766  1
  Rh  Rh20  1  0.500000  0.500000  0.702144  1
  Rh  Rh21  1  0.000000  0.000000  0.297856  1
  Rh  Rh22  1  0.000000  0.500000  0.987177  1
  Rh  Rh23  1  0.500000  0.000000  0.012823  1
  Rh  Rh24  1  0.500000  0.332962  0.000428  1
  Rh  Rh25  1  0.500000  0.667038  0.000428  1
  Rh  Rh26  1  0.000000  0.167038  0.999572  1
  Rh  Rh27  1  0.000000  0.832962  0.999572  1
  Rh  Rh28  1  0.500000  0.292755  0.431344  1
  Rh  Rh29  1  0.500000  0.707245  0.431344  1
  Rh  Rh30  1  0.000000  0.207245  0.568656  1
  Rh  Rh31  1  0.000000  0.792755  0.568656  1
  Rh  Rh32  1  0.500000  0.875706  0.705457  1
  Rh  Rh33  1  0.500000  0.124294  0.705457  1
  Rh  Rh34  1  0.000000  0.624294  0.294543  1
  Rh  Rh35  1  0.000000  0.375706  0.294543  1
