# generated using pymatgen
data_Dy15PaCd3HgRu4
_symmetry_space_group_name_H-M   'P 1'
_cell_length_a   9.68708764
_cell_length_b   9.68501725
_cell_length_c   9.66113696
_cell_angle_alpha   59.01209102
_cell_angle_beta   58.99198974
_cell_angle_gamma   59.16303350
_symmetry_Int_Tables_number   1
_chemical_formula_structural   Dy15PaCd3HgRu4
_chemical_formula_sum   'Dy15 Pa1 Cd3 Hg1 Ru4'
_cell_volume   627.12015410
_cell_formula_units_Z   1
loop_
 _symmetry_equiv_pos_site_id
 _symmetry_equiv_pos_as_xyz
  1  'x, y, z'
loop_
 _atom_site_type_symbol
 _atom_site_label
 _atom_site_symmetry_multiplicity
 _atom_site_fract_x
 _atom_site_fract_y
 _atom_site_fract_z
 _atom_site_occupancy
  Dy  Dy0  1  0.562207  0.562201  0.939253  1
  Dy  Dy1  1  0.936872  0.562315  0.938055  1
  Dy  Dy2  1  0.562340  0.936848  0.938062  1
  Dy  Dy3  1  0.937613  0.937614  0.562775  1
  Dy  Dy4  1  0.561865  0.938339  0.562739  1
  Dy  Dy5  1  0.938297  0.561891  0.562774  1
  Dy  Dy6  1  0.190246  0.190234  0.812130  1
  Dy  Dy7  1  0.811150  0.186985  0.811536  1
  Dy  Dy8  1  0.186983  0.811185  0.811536  1
  Dy  Dy9  1  0.810865  0.810858  0.187412  1
  Dy  Dy10  1  0.190955  0.810974  0.191130  1
  Dy  Dy11  1  0.810959  0.190921  0.191155  1
  Dy  Dy12  1  0.346605  0.346602  0.955947  1
  Dy  Dy13  1  0.348174  0.952742  0.347590  1
  Dy  Dy14  1  0.952760  0.348162  0.347581  1
  Pa  Pa15  1  0.337969  0.337987  0.338377  1
  Cd  Cd16  1  0.578333  0.260454  0.578481  1
  Cd  Cd17  1  0.260455  0.578324  0.578482  1
  Cd  Cd18  1  0.578772  0.578760  0.580164  1
  Hg  Hg19  1  0.583170  0.583164  0.248312  1
  Ru  Ru20  1  0.151614  0.151612  0.570917  1
  Ru  Ru21  1  0.151324  0.570426  0.152540  1
  Ru  Ru22  1  0.570427  0.151327  0.152534  1
  Ru  Ru23  1  0.140043  0.140077  0.140514  1
