# generated using pymatgen
data_Ho4Mg3ZnRh4
_symmetry_space_group_name_H-M   'P 1'
_cell_length_a   4.07775900
_cell_length_b   7.04048632
_cell_length_c   8.40833261
_cell_angle_alpha   90.07046113
_cell_angle_beta   90.00000000
_cell_angle_gamma   90.00000000
_symmetry_Int_Tables_number   1
_chemical_formula_structural   Ho4Mg3ZnRh4
_chemical_formula_sum   'Ho4 Mg3 Zn1 Rh4'
_cell_volume   241.39805577
_cell_formula_units_Z   1
loop_
 _symmetry_equiv_pos_site_id
 _symmetry_equiv_pos_as_xyz
  1  'x, y, z'
loop_
 _atom_site_type_symbol
 _atom_site_label
 _atom_site_symmetry_multiplicity
 _atom_site_fract_x
 _atom_site_fract_y
 _atom_site_fract_z
 _atom_site_occupancy
  Ho  Ho0  1  0.250000  0.534197  0.183589  1
  Ho  Ho1  1  0.750000  0.459631  0.819839  1
  Ho  Ho2  1  0.250000  0.048821  0.328254  1
  Ho  Ho3  1  0.750000  0.962211  0.674674  1
  Mg  Mg4  1  0.250000  0.135830  0.939154  1
  Mg  Mg5  1  0.750000  0.862955  0.060605  1
  Mg  Mg6  1  0.250000  0.630572  0.556174  1
  Zn  Zn7  1  0.750000  0.366583  0.438707  1
  Rh  Rh8  1  0.750000  0.749286  0.372180  1
  Rh  Rh9  1  0.250000  0.253289  0.625019  1
  Rh  Rh10  1  0.750000  0.249220  0.132130  1
  Rh  Rh11  1  0.250000  0.747403  0.869674  1
