# generated using pymatgen
data_Pu5TlF18
_symmetry_space_group_name_H-M   'P 1'
_cell_length_a   7.01038100
_cell_length_b   7.00262385
_cell_length_c   7.06927200
_cell_angle_alpha   89.51862012
_cell_angle_beta   90.00000000
_cell_angle_gamma   120.03664607
_symmetry_Int_Tables_number   1
_chemical_formula_structural   Pu5TlF18
_chemical_formula_sum   'Pu5 Tl1 F18'
_cell_volume   300.41858823
_cell_formula_units_Z   1
loop_
 _symmetry_equiv_pos_site_id
 _symmetry_equiv_pos_as_xyz
  1  'x, y, z'
loop_
 _atom_site_type_symbol
 _atom_site_label
 _atom_site_symmetry_multiplicity
 _atom_site_fract_x
 _atom_site_fract_y
 _atom_site_fract_z
 _atom_site_occupancy
  Pu  Pu0  1  0.343504  0.342933  0.753819  1
  Pu  Pu1  1  0.000570  0.657067  0.746181  1
  Pu  Pu2  1  0.653086  0.000000  0.750000  1
  Pu  Pu3  1  0.653151  0.655682  0.247849  1
  Pu  Pu4  1  0.997469  0.344318  0.252151  1
  Tl  Tl5  1  0.330011  0.000000  0.250000  1
  F  F6  1  0.002430  0.000000  0.750000  1
  F  F7  1  0.967114  0.000000  0.250000  1
  F  F8  1  0.331920  0.659793  0.824827  1
  F  F9  1  0.672128  0.340207  0.675173  1
  F  F10  1  0.686944  0.354898  0.180173  1
  F  F11  1  0.332045  0.645102  0.319827  1
  F  F12  1  0.311953  0.919822  0.598939  1
  F  F13  1  0.058640  0.377848  0.583493  1
  F  F14  1  0.641650  0.698892  0.581548  1
  F  F15  1  0.392131  0.080178  0.901061  1
  F  F16  1  0.680792  0.622152  0.916507  1
  F  F17  1  0.942759  0.301108  0.918452  1
  F  F18  1  0.707177  0.068691  0.433909  1
  F  F19  1  0.936896  0.629493  0.421289  1
  F  F20  1  0.371286  0.330829  0.439305  1
  F  F21  1  0.638485  0.931309  0.066091  1
  F  F22  1  0.307403  0.370507  0.078711  1
  F  F23  1  0.040456  0.669171  0.060695  1
