# generated using pymatgen
data_Ca12Cu7Si8Au
_symmetry_space_group_name_H-M   'P 1'
_cell_length_a   5.61012948
_cell_length_b   8.10790667
_cell_length_c   13.20517900
_cell_angle_alpha   90.09072176
_cell_angle_beta   90.23818631
_cell_angle_gamma   90.23169044
_symmetry_Int_Tables_number   1
_chemical_formula_structural   Ca12Cu7Si8Au
_chemical_formula_sum   'Ca12 Cu7 Si8 Au1'
_cell_volume   600.64526589
_cell_formula_units_Z   1
loop_
 _symmetry_equiv_pos_site_id
 _symmetry_equiv_pos_as_xyz
  1  'x, y, z'
loop_
 _atom_site_type_symbol
 _atom_site_label
 _atom_site_symmetry_multiplicity
 _atom_site_fract_x
 _atom_site_fract_y
 _atom_site_fract_z
 _atom_site_occupancy
  Ca  Ca0  1  0.128915  0.622219  0.104474  1
  Ca  Ca1  1  0.125634  0.878908  0.893804  1
  Ca  Ca2  1  0.874856  0.117952  0.392567  1
  Ca  Ca3  1  0.872723  0.375770  0.608565  1
  Ca  Ca4  1  0.874396  0.379896  0.894191  1
  Ca  Ca5  1  0.878448  0.118857  0.103911  1
  Ca  Ca6  1  0.121805  0.881568  0.607136  1
  Ca  Ca7  1  0.126955  0.624554  0.393032  1
  Ca  Ca8  1  0.349858  0.260887  0.247574  1
  Ca  Ca9  1  0.344861  0.238078  0.751991  1
  Ca  Ca10  1  0.656279  0.760914  0.247365  1
  Ca  Ca11  1  0.652206  0.739217  0.750736  1
  Cu  Cu12  1  0.616980  0.472328  0.085022  1
  Cu  Cu13  1  0.614268  0.027543  0.914399  1
  Cu  Cu14  1  0.383015  0.972659  0.413174  1
  Cu  Cu15  1  0.377879  0.528534  0.589472  1
  Cu  Cu16  1  0.385296  0.527289  0.913572  1
  Cu  Cu17  1  0.386542  0.972360  0.085320  1
  Cu  Cu18  1  0.613493  0.031324  0.588971  1
  Si  Si19  1  0.379309  0.250571  0.999939  1
  Si  Si20  1  0.616248  0.760773  0.503337  1
  Si  Si21  1  0.622349  0.749783  0.999501  1
  Si  Si22  1  0.361849  0.241026  0.506184  1
  Si  Si23  1  0.831779  0.412240  0.242748  1
  Si  Si24  1  0.817518  0.084594  0.752521  1
  Si  Si25  1  0.185133  0.915104  0.248181  1
  Si  Si26  1  0.180394  0.585045  0.750637  1
  Au  Au27  1  0.621011  0.470005  0.411678  1
