# generated using pymatgen
data_Tm5GaBiRu
_symmetry_space_group_name_H-M   'P 1'
_cell_length_a   8.75389596
_cell_length_b   8.75389553
_cell_length_c   8.64179148
_cell_angle_alpha   126.55020706
_cell_angle_beta   126.55020663
_cell_angle_gamma   79.87472628
_symmetry_Int_Tables_number   1
_chemical_formula_structural   Tm5GaBiRu
_chemical_formula_sum   'Tm10 Ga2 Bi2 Ru2'
_cell_volume   410.62619972
_cell_formula_units_Z   2
loop_
 _symmetry_equiv_pos_site_id
 _symmetry_equiv_pos_as_xyz
  1  'x, y, z'
loop_
 _atom_site_type_symbol
 _atom_site_label
 _atom_site_symmetry_multiplicity
 _atom_site_fract_x
 _atom_site_fract_y
 _atom_site_fract_z
 _atom_site_occupancy
  Tm  Tm0  1  0.000000  0.000000  0.000000  1
  Tm  Tm1  1  0.500000  0.500000  0.000000  1
  Tm  Tm2  1  0.809589  0.309589  0.849127  1
  Tm  Tm3  1  0.190411  0.690411  0.150873  1
  Tm  Tm4  1  0.460461  0.960461  0.150873  1
  Tm  Tm5  1  0.281968  0.488401  0.500000  1
  Tm  Tm6  1  0.011599  0.218032  0.500000  1
  Tm  Tm7  1  0.539539  0.039539  0.849127  1
  Tm  Tm8  1  0.718032  0.511599  0.500000  1
  Tm  Tm9  1  0.988401  0.781968  0.500000  1
  Ga  Ga10  1  0.636070  0.863930  0.500000  1
  Ga  Ga11  1  0.363930  0.136070  0.500000  1
  Bi  Bi12  1  0.250000  0.250000  0.000000  1
  Bi  Bi13  1  0.750000  0.750000  0.000000  1
  Ru  Ru14  1  0.135391  0.635391  0.770783  1
  Ru  Ru15  1  0.864609  0.364609  0.229217  1
