# generated using pymatgen
data_DyErAl2IrPt
_symmetry_space_group_name_H-M   'P 1'
_cell_length_a   4.35803400
_cell_length_b   6.78884681
_cell_length_c   7.85615180
_cell_angle_alpha   90.10516394
_cell_angle_beta   90.00000000
_cell_angle_gamma   90.00000000
_symmetry_Int_Tables_number   1
_chemical_formula_structural   DyErAl2IrPt
_chemical_formula_sum   'Dy2 Er2 Al4 Ir2 Pt2'
_cell_volume   232.43191369
_cell_formula_units_Z   2
loop_
 _symmetry_equiv_pos_site_id
 _symmetry_equiv_pos_as_xyz
  1  'x, y, z'
loop_
 _atom_site_type_symbol
 _atom_site_label
 _atom_site_symmetry_multiplicity
 _atom_site_fract_x
 _atom_site_fract_y
 _atom_site_fract_z
 _atom_site_occupancy
  Dy  Dy0  1  0.250000  0.468006  0.184250  1
  Dy  Dy1  1  0.750000  0.531994  0.815750  1
  Er  Er2  1  0.750000  0.027699  0.677408  1
  Er  Er3  1  0.250000  0.972301  0.322592  1
  Al  Al4  1  0.250000  0.856707  0.936611  1
  Al  Al5  1  0.750000  0.143293  0.063389  1
  Al  Al6  1  0.750000  0.641299  0.438890  1
  Al  Al7  1  0.250000  0.358701  0.561110  1
  Ir  Ir8  1  0.250000  0.734664  0.618987  1
  Ir  Ir9  1  0.750000  0.265336  0.381013  1
  Pt  Pt10  1  0.750000  0.769207  0.118877  1
  Pt  Pt11  1  0.250000  0.230793  0.881123  1
