# generated using pymatgen
data_LaTb4HoTa2O14
_symmetry_space_group_name_H-M   'P 1'
_cell_length_a   6.53121254
_cell_length_b   6.53350784
_cell_length_c   7.56662849
_cell_angle_alpha   89.87837739
_cell_angle_beta   90.09845635
_cell_angle_gamma   108.67636254
_symmetry_Int_Tables_number   1
_chemical_formula_structural   LaTb4HoTa2O14
_chemical_formula_sum   'La1 Tb4 Ho1 Ta2 O14'
_cell_volume   305.87811888
_cell_formula_units_Z   1
loop_
 _symmetry_equiv_pos_site_id
 _symmetry_equiv_pos_as_xyz
  1  'x, y, z'
loop_
 _atom_site_type_symbol
 _atom_site_label
 _atom_site_symmetry_multiplicity
 _atom_site_fract_x
 _atom_site_fract_y
 _atom_site_fract_z
 _atom_site_occupancy
  La  La0  1  0.508898  0.508799  0.499507  1
  Tb  Tb1  1  0.461038  0.460279  0.000404  1
  Tb  Tb2  1  0.999445  0.535841  0.240782  1
  Tb  Tb3  1  0.998399  0.465532  0.746084  1
  Tb  Tb4  1  0.534903  0.999280  0.759134  1
  Ho  Ho5  1  0.466959  0.997977  0.253385  1
  Ta  Ta6  1  0.000546  0.000652  0.499467  1
  Ta  Ta7  1  0.997494  0.997682  0.000510  1
  O  O8  1  0.934406  0.065359  0.749728  1
  O  O9  1  0.066869  0.934778  0.250300  1
  O  O10  1  0.359024  0.644001  0.239389  1
  O  O11  1  0.640773  0.358692  0.760695  1
  O  O12  1  0.366954  0.631982  0.760063  1
  O  O13  1  0.630429  0.363503  0.240443  1
  O  O14  1  0.326009  0.079768  0.975757  1
  O  O15  1  0.677986  0.930170  0.470541  1
  O  O16  1  0.313982  0.060874  0.539263  1
  O  O17  1  0.694024  0.953144  0.043605  1
  O  O18  1  0.061591  0.314046  0.459461  1
  O  O19  1  0.951345  0.693817  0.958438  1
  O  O20  1  0.928158  0.677932  0.527310  1
  O  O21  1  0.080769  0.325894  0.025734  1
