# generated using pymatgen
data_U4Ga6Tc6Pt
_symmetry_space_group_name_H-M   'P 1'
_cell_length_a   7.23931534
_cell_length_b   7.23931595
_cell_length_c   7.23931500
_cell_angle_alpha   109.47121799
_cell_angle_beta   109.47121968
_cell_angle_gamma   109.47121990
_symmetry_Int_Tables_number   1
_chemical_formula_structural   U4Ga6Tc6Pt
_chemical_formula_sum   'U4 Ga6 Tc6 Pt1'
_cell_volume   292.05902600
_cell_formula_units_Z   1
loop_
 _symmetry_equiv_pos_site_id
 _symmetry_equiv_pos_as_xyz
  1  'x, y, z'
loop_
 _atom_site_type_symbol
 _atom_site_label
 _atom_site_symmetry_multiplicity
 _atom_site_fract_x
 _atom_site_fract_y
 _atom_site_fract_z
 _atom_site_occupancy
  U  U0  1  0.500000  0.500000  0.500000  1
  U  U1  1  0.000000  0.000000  0.500000  1
  U  U2  1  0.000000  0.500000  0.000000  1
  U  U3  1  0.500000  0.000000  0.000000  1
  Ga  Ga4  1  0.000000  0.308862  0.308862  1
  Ga  Ga5  1  0.000000  0.691138  0.691138  1
  Ga  Ga6  1  0.308862  0.000000  0.308862  1
  Ga  Ga7  1  0.691138  0.000000  0.691138  1
  Ga  Ga8  1  0.308862  0.308862  0.000000  1
  Ga  Ga9  1  0.691138  0.691138  0.000000  1
  Tc  Tc10  1  0.500000  0.750000  0.250000  1
  Tc  Tc11  1  0.500000  0.250000  0.750000  1
  Tc  Tc12  1  0.250000  0.500000  0.750000  1
  Tc  Tc13  1  0.750000  0.500000  0.250000  1
  Tc  Tc14  1  0.750000  0.250000  0.500000  1
  Tc  Tc15  1  0.250000  0.750000  0.500000  1
  Pt  Pt16  1  0.000000  0.000000  0.000000  1
