# generated using pymatgen
data_Y4GaSi3
_symmetry_space_group_name_H-M   'P 1'
_cell_length_a   3.88881900
_cell_length_b   4.31329700
_cell_length_c   10.64604100
_cell_angle_alpha   90.00000000
_cell_angle_beta   90.00000000
_cell_angle_gamma   90.00000000
_symmetry_Int_Tables_number   1
_chemical_formula_structural   Y4GaSi3
_chemical_formula_sum   'Y4 Ga1 Si3'
_cell_volume   178.57276682
_cell_formula_units_Z   1
loop_
 _symmetry_equiv_pos_site_id
 _symmetry_equiv_pos_as_xyz
  1  'x, y, z'
loop_
 _atom_site_type_symbol
 _atom_site_label
 _atom_site_symmetry_multiplicity
 _atom_site_fract_x
 _atom_site_fract_y
 _atom_site_fract_z
 _atom_site_occupancy
  Y  Y0  1  0.000000  0.000000  0.362479  1
  Y  Y1  1  0.000000  0.500000  0.856685  1
  Y  Y2  1  0.500000  0.500000  0.142137  1
  Y  Y3  1  0.500000  0.000000  0.639514  1
  Ga  Ga4  1  0.000000  0.000000  0.075223  1
  Si  Si5  1  0.000000  0.500000  0.575920  1
  Si  Si6  1  0.500000  0.500000  0.425798  1
  Si  Si7  1  0.500000  0.000000  0.922244  1
