# generated using pymatgen
data_Lu4Ga4IrRu3
_symmetry_space_group_name_H-M   'P 1'
_cell_length_a   4.21028100
_cell_length_b   6.77968907
_cell_length_c   7.74515992
_cell_angle_alpha   89.63314574
_cell_angle_beta   90.00000000
_cell_angle_gamma   90.00000000
_symmetry_Int_Tables_number   1
_chemical_formula_structural   Lu4Ga4IrRu3
_chemical_formula_sum   'Lu4 Ga4 Ir1 Ru3'
_cell_volume   221.07638088
_cell_formula_units_Z   1
loop_
 _symmetry_equiv_pos_site_id
 _symmetry_equiv_pos_as_xyz
  1  'x, y, z'
loop_
 _atom_site_type_symbol
 _atom_site_label
 _atom_site_symmetry_multiplicity
 _atom_site_fract_x
 _atom_site_fract_y
 _atom_site_fract_z
 _atom_site_occupancy
  Lu  Lu0  1  0.250000  0.979594  0.314171  1
  Lu  Lu1  1  0.250000  0.478914  0.184066  1
  Lu  Lu2  1  0.750000  0.021517  0.683996  1
  Lu  Lu3  1  0.750000  0.520372  0.816385  1
  Ga  Ga4  1  0.250000  0.345062  0.570902  1
  Ga  Ga5  1  0.250000  0.839375  0.932618  1
  Ga  Ga6  1  0.750000  0.661568  0.433377  1
  Ga  Ga7  1  0.750000  0.159166  0.066369  1
  Ir  Ir8  1  0.750000  0.271779  0.384812  1
  Ru  Ru9  1  0.250000  0.223959  0.885437  1
  Ru  Ru10  1  0.250000  0.728281  0.614641  1
  Ru  Ru11  1  0.750000  0.770413  0.113225  1
