# generated using pymatgen
data_Tb9Dy3B2(CCl6)2
_symmetry_space_group_name_H-M   'P 1'
_cell_length_a   9.35438004
_cell_length_b   9.35370373
_cell_length_c   9.42681653
_cell_angle_alpha   109.47506350
_cell_angle_beta   109.51401941
_cell_angle_gamma   109.11022485
_symmetry_Int_Tables_number   1
_chemical_formula_structural   Tb9Dy3B2(CCl6)2
_chemical_formula_sum   'Tb9 Dy3 B2 C2 Cl12'
_cell_volume   637.39750510
_cell_formula_units_Z   1
loop_
 _symmetry_equiv_pos_site_id
 _symmetry_equiv_pos_as_xyz
  1  'x, y, z'
loop_
 _atom_site_type_symbol
 _atom_site_label
 _atom_site_symmetry_multiplicity
 _atom_site_fract_x
 _atom_site_fract_y
 _atom_site_fract_z
 _atom_site_occupancy
  Tb  Tb0  1  0.235202  0.464960  0.479435  1
  Tb  Tb1  1  0.268387  0.756984  0.236252  1
  Tb  Tb2  1  0.035085  0.264743  0.020562  1
  Tb  Tb3  1  0.020799  0.032183  0.263789  1
  Tb  Tb4  1  0.485623  0.755832  0.020561  1
  Tb  Tb5  1  0.481056  0.231066  0.462115  1
  Tb  Tb6  1  0.014110  0.485865  0.750062  1
  Tb  Tb7  1  0.269006  0.019000  0.037948  1
  Tb  Tb8  1  0.235804  0.264011  0.749932  1
  Dy  Dy9  1  0.467025  0.478789  0.235777  1
  Dy  Dy10  1  0.743045  0.231151  0.264289  1
  Dy  Dy11  1  0.744197  0.015007  0.479000  1
  B  B12  1  0.998569  0.249002  0.498418  1
  B  B13  1  0.250977  0.500602  0.001534  1
  C  C14  1  0.250333  0.250784  0.250054  1
  C  C15  1  0.501337  0.000298  0.250534  1
  Cl  Cl16  1  0.252037  0.758811  0.746286  1
  Cl  Cl17  1  0.512529  0.505746  0.753708  1
  Cl  Cl18  1  0.988215  0.746004  0.994234  1
  Cl  Cl19  1  0.741131  0.247398  0.753207  1
  Cl  Cl20  1  0.993875  0.987436  0.745967  1
  Cl  Cl21  1  0.251777  0.993988  0.505763  1
  Cl  Cl22  1  0.753475  0.511279  0.504671  1
  Cl  Cl23  1  0.506651  0.248812  0.995343  1
  Cl  Cl24  1  0.755072  0.744728  0.250601  1
  Cl  Cl25  1  0.744039  0.994597  0.988632  1
  Cl  Cl26  1  0.994189  0.505019  0.249936  1
  Cl  Cl27  1  0.506456  0.755902  0.511394  1
