# generated using pymatgen
data_Ho17Er(LuPb8)2
_symmetry_space_group_name_H-M   'P 1'
_cell_length_a   8.17591800
_cell_length_b   15.57071000
_cell_length_c   8.24557800
_cell_angle_alpha   90.00000000
_cell_angle_beta   89.99762044
_cell_angle_gamma   90.00000000
_symmetry_Int_Tables_number   1
_chemical_formula_structural   Ho17Er(LuPb8)2
_chemical_formula_sum   'Ho17 Er1 Lu2 Pb16'
_cell_volume   1049.70205484
_cell_formula_units_Z   1
loop_
 _symmetry_equiv_pos_site_id
 _symmetry_equiv_pos_as_xyz
  1  'x, y, z'
loop_
 _atom_site_type_symbol
 _atom_site_label
 _atom_site_symmetry_multiplicity
 _atom_site_fract_x
 _atom_site_fract_y
 _atom_site_fract_z
 _atom_site_occupancy
  Ho  Ho0  1  0.622738  0.621480  0.158009  1
  Ho  Ho1  1  0.122737  0.878521  0.341990  1
  Ho  Ho2  1  0.377125  0.120778  0.841560  1
  Ho  Ho3  1  0.877159  0.379220  0.658418  1
  Ho  Ho4  1  0.377125  0.379222  0.841560  1
  Ho  Ho5  1  0.877159  0.120780  0.658418  1
  Ho  Ho6  1  0.622738  0.878520  0.158009  1
  Ho  Ho7  1  0.122737  0.621479  0.341990  1
  Ho  Ho8  1  0.463524  0.599920  0.675836  1
  Ho  Ho9  1  0.963523  0.900077  0.824164  1
  Ho  Ho10  1  0.536262  0.099638  0.324158  1
  Ho  Ho11  1  0.036278  0.400366  0.175854  1
  Ho  Ho12  1  0.536262  0.400362  0.324158  1
  Ho  Ho13  1  0.036278  0.099634  0.175854  1
  Ho  Ho14  1  0.463524  0.900080  0.675836  1
  Ho  Ho15  1  0.963523  0.599923  0.824164  1
  Ho  Ho16  1  0.708865  0.250000  0.995790  1
  Er  Er17  1  0.208883  0.250000  0.504230  1
  Lu  Lu18  1  0.791058  0.750000  0.495428  1
  Lu  Lu19  1  0.291060  0.750000  0.004583  1
  Pb  Pb20  1  0.718884  0.457501  0.966916  1
  Pb  Pb21  1  0.218881  0.042520  0.533087  1
  Pb  Pb22  1  0.281203  0.956313  0.033083  1
  Pb  Pb23  1  0.781200  0.543685  0.466915  1
  Pb  Pb24  1  0.281203  0.543687  0.033083  1
  Pb  Pb25  1  0.781200  0.956315  0.466915  1
  Pb  Pb26  1  0.718884  0.042499  0.966916  1
  Pb  Pb27  1  0.218881  0.457480  0.533087  1
  Pb  Pb28  1  0.428975  0.750000  0.374073  1
  Pb  Pb29  1  0.928965  0.750000  0.125925  1
  Pb  Pb30  1  0.571900  0.250000  0.625773  1
  Pb  Pb31  1  0.071954  0.250000  0.874177  1
  Pb  Pb32  1  0.651416  0.750000  0.844192  1
  Pb  Pb33  1  0.151408  0.750000  0.655801  1
  Pb  Pb34  1  0.348237  0.250000  0.154126  1
  Pb  Pb35  1  0.848253  0.250000  0.345922  1
