# generated using pymatgen
data_Zr2CdIrAu
_symmetry_space_group_name_H-M   'P 1'
_cell_length_a   7.82559982
_cell_length_b   7.82559936
_cell_length_c   3.29750000
_cell_angle_alpha   90.00000000
_cell_angle_beta   90.00000000
_cell_angle_gamma   89.66061283
_symmetry_Int_Tables_number   1
_chemical_formula_structural   Zr2CdIrAu
_chemical_formula_sum   'Zr4 Cd2 Ir2 Au2'
_cell_volume   201.93538677
_cell_formula_units_Z   2
loop_
 _symmetry_equiv_pos_site_id
 _symmetry_equiv_pos_as_xyz
  1  'x, y, z'
loop_
 _atom_site_type_symbol
 _atom_site_label
 _atom_site_symmetry_multiplicity
 _atom_site_fract_x
 _atom_site_fract_y
 _atom_site_fract_z
 _atom_site_occupancy
  Zr  Zr0  1  0.179743  0.320257  0.000000  1
  Zr  Zr1  1  0.820257  0.679743  0.000000  1
  Zr  Zr2  1  0.657512  0.157512  0.000000  1
  Zr  Zr3  1  0.342488  0.842488  0.000000  1
  Cd  Cd4  1  0.000000  0.000000  0.500000  1
  Cd  Cd5  1  0.500000  0.500000  0.500000  1
  Ir  Ir6  1  0.369721  0.130279  0.500000  1
  Ir  Ir7  1  0.630279  0.869721  0.500000  1
  Au  Au8  1  0.870259  0.370259  0.500000  1
  Au  Au9  1  0.129741  0.629741  0.500000  1
