# generated using pymatgen
data_Li3Tm5Pt4
_symmetry_space_group_name_H-M   'P 1'
_cell_length_a   4.04386400
_cell_length_b   7.06033907
_cell_length_c   8.66541495
_cell_angle_alpha   88.72230838
_cell_angle_beta   90.00000000
_cell_angle_gamma   90.00000000
_symmetry_Int_Tables_number   1
_chemical_formula_structural   Li3Tm5Pt4
_chemical_formula_sum   'Li3 Tm5 Pt4'
_cell_volume   247.34519038
_cell_formula_units_Z   1
loop_
 _symmetry_equiv_pos_site_id
 _symmetry_equiv_pos_as_xyz
  1  'x, y, z'
loop_
 _atom_site_type_symbol
 _atom_site_label
 _atom_site_symmetry_multiplicity
 _atom_site_fract_x
 _atom_site_fract_y
 _atom_site_fract_z
 _atom_site_occupancy
  Li  Li0  1  0.250000  0.376186  0.555475  1
  Li  Li1  1  0.250000  0.852257  0.930393  1
  Li  Li2  1  0.750000  0.624154  0.446715  1
  Tm  Tm3  1  0.250000  0.943825  0.339291  1
  Tm  Tm4  1  0.250000  0.474114  0.189553  1
  Tm  Tm5  1  0.750000  0.043490  0.668395  1
  Tm  Tm6  1  0.750000  0.557316  0.821276  1
  Tm  Tm7  1  0.750000  0.125314  0.054810  1
  Pt  Pt8  1  0.250000  0.266196  0.867409  1
  Pt  Pt9  1  0.250000  0.754279  0.629774  1
  Pt  Pt10  1  0.750000  0.743960  0.129204  1
  Pt  Pt11  1  0.750000  0.238910  0.367706  1
