# generated using pymatgen
data_Dy6Er10Tl5InCo2
_symmetry_space_group_name_H-M   'P 1'
_cell_length_a   10.26424701
_cell_length_b   10.30330265
_cell_length_c   7.07144381
_cell_angle_alpha   89.78625963
_cell_angle_beta   90.13998892
_cell_angle_gamma   119.84359126
_symmetry_Int_Tables_number   1
_chemical_formula_structural   Dy6Er10Tl5InCo2
_chemical_formula_sum   'Dy6 Er10 Tl5 In1 Co2'
_cell_volume   648.66652068
_cell_formula_units_Z   1
loop_
 _symmetry_equiv_pos_site_id
 _symmetry_equiv_pos_as_xyz
  1  'x, y, z'
loop_
 _atom_site_type_symbol
 _atom_site_label
 _atom_site_symmetry_multiplicity
 _atom_site_fract_x
 _atom_site_fract_y
 _atom_site_fract_z
 _atom_site_occupancy
  Dy  Dy0  1  0.535984  0.074044  0.791148  1
  Dy  Dy1  1  0.925932  0.464076  0.790990  1
  Dy  Dy2  1  0.537489  0.462697  0.792438  1
  Dy  Dy3  1  0.462886  0.925169  0.293078  1
  Dy  Dy4  1  0.074749  0.537102  0.293060  1
  Dy  Dy5  1  0.462138  0.537640  0.292463  1
  Er  Er6  1  0.821271  0.643552  0.492940  1
  Er  Er7  1  0.356521  0.178784  0.493140  1
  Er  Er8  1  0.821783  0.177933  0.493958  1
  Er  Er9  1  0.177569  0.355967  0.993699  1
  Er  Er10  1  0.644077  0.822527  0.994079  1
  Er  Er11  1  0.178278  0.821979  0.996227  1
  Er  Er12  1  0.666852  0.333253  0.185280  1
  Er  Er13  1  0.333052  0.666749  0.686221  1
  Er  Er14  1  0.001024  0.998831  0.776105  1
  Er  Er15  1  0.000820  0.999370  0.277393  1
  Tl  Tl16  1  0.837436  0.674331  0.044367  1
  Tl  Tl17  1  0.325810  0.162865  0.044155  1
  Tl  Tl18  1  0.837098  0.163311  0.044088  1
  Tl  Tl19  1  0.162332  0.325207  0.545686  1
  Tl  Tl20  1  0.674479  0.837375  0.545713  1
  In  In21  1  0.162653  0.837263  0.544464  1
  Co  Co22  1  0.666499  0.333375  0.562151  1
  Co  Co23  1  0.333266  0.666599  0.063055  1
