# generated using pymatgen
data_TbY2Ho2CoSb2
_symmetry_space_group_name_H-M   'P 1'
_cell_length_a   7.91613200
_cell_length_b   8.75073600
_cell_length_c   12.20115600
_cell_angle_alpha   90.00000000
_cell_angle_beta   90.00000000
_cell_angle_gamma   90.00000000
_symmetry_Int_Tables_number   1
_chemical_formula_structural   TbY2Ho2CoSb2
_chemical_formula_sum   'Tb4 Y8 Ho8 Co4 Sb8'
_cell_volume   845.19824994
_cell_formula_units_Z   4
loop_
 _symmetry_equiv_pos_site_id
 _symmetry_equiv_pos_as_xyz
  1  'x, y, z'
loop_
 _atom_site_type_symbol
 _atom_site_label
 _atom_site_symmetry_multiplicity
 _atom_site_fract_x
 _atom_site_fract_y
 _atom_site_fract_z
 _atom_site_occupancy
  Tb  Tb0  1  0.622880  0.750000  0.306091  1
  Tb  Tb1  1  0.122880  0.250000  0.193909  1
  Tb  Tb2  1  0.377120  0.250000  0.693909  1
  Tb  Tb3  1  0.877120  0.750000  0.806091  1
  Y  Y4  1  0.154666  0.750000  0.203611  1
  Y  Y5  1  0.654666  0.250000  0.296389  1
  Y  Y6  1  0.845334  0.250000  0.796389  1
  Y  Y7  1  0.345334  0.750000  0.703611  1
  Y  Y8  1  0.455914  0.750000  0.998212  1
  Y  Y9  1  0.955914  0.250000  0.501788  1
  Y  Y10  1  0.544086  0.250000  0.001788  1
  Y  Y11  1  0.044086  0.750000  0.498212  1
  Ho  Ho12  1  0.822802  0.965435  0.064926  1
  Ho  Ho13  1  0.322802  0.034565  0.435074  1
  Ho  Ho14  1  0.177198  0.465435  0.935074  1
  Ho  Ho15  1  0.677198  0.534565  0.564926  1
  Ho  Ho16  1  0.177198  0.034565  0.935074  1
  Ho  Ho17  1  0.677198  0.965435  0.564926  1
  Ho  Ho18  1  0.822802  0.534565  0.064926  1
  Ho  Ho19  1  0.322802  0.465435  0.435074  1
  Co  Co20  1  0.437152  0.750000  0.490042  1
  Co  Co21  1  0.937152  0.250000  0.009958  1
  Co  Co22  1  0.562848  0.250000  0.509958  1
  Co  Co23  1  0.062848  0.750000  0.990042  1
  Sb  Sb24  1  0.928524  0.991748  0.327209  1
  Sb  Sb25  1  0.428524  0.008252  0.172791  1
  Sb  Sb26  1  0.071476  0.491748  0.672791  1
  Sb  Sb27  1  0.571476  0.508252  0.827209  1
  Sb  Sb28  1  0.071476  0.008252  0.672791  1
  Sb  Sb29  1  0.571476  0.991748  0.827209  1
  Sb  Sb30  1  0.928524  0.508252  0.327209  1
  Sb  Sb31  1  0.428524  0.491748  0.172791  1
