# generated using pymatgen
data_YTm4Lu3In3Co
_symmetry_space_group_name_H-M   'P 1'
_cell_length_a   10.18480100
_cell_length_b   10.18418395
_cell_length_c   6.95490002
_cell_angle_alpha   89.99298534
_cell_angle_beta   90.00000000
_cell_angle_gamma   120.00201402
_symmetry_Int_Tables_number   1
_chemical_formula_structural   YTm4Lu3In3Co
_chemical_formula_sum   'Y2 Tm8 Lu6 In6 Co2'
_cell_volume   624.72874222
_cell_formula_units_Z   2
loop_
 _symmetry_equiv_pos_site_id
 _symmetry_equiv_pos_as_xyz
  1  'x, y, z'
loop_
 _atom_site_type_symbol
 _atom_site_label
 _atom_site_symmetry_multiplicity
 _atom_site_fract_x
 _atom_site_fract_y
 _atom_site_fract_z
 _atom_site_occupancy
  Y  Y0  1  0.999914  0.999829  0.496000  1
  Y  Y1  1  0.999883  0.999765  0.994781  1
  Tm  Tm2  1  0.465137  0.535280  0.482384  1
  Tm  Tm3  1  0.070145  0.535280  0.482384  1
  Tm  Tm4  1  0.464783  0.929565  0.482469  1
  Tm  Tm5  1  0.535205  0.465338  0.981700  1
  Tm  Tm6  1  0.930132  0.465338  0.981700  1
  Tm  Tm7  1  0.534897  0.069795  0.981431  1
  Tm  Tm8  1  0.820469  0.179472  0.276810  1
  Tm  Tm9  1  0.359003  0.179472  0.276810  1
  Lu  Lu10  1  0.820255  0.640511  0.276905  1
  Lu  Lu11  1  0.179704  0.820293  0.776890  1
  Lu  Lu12  1  0.640588  0.820293  0.776890  1
  Lu  Lu13  1  0.179718  0.359437  0.776794  1
  Lu  Lu14  1  0.333315  0.666632  0.090161  1
  Lu  Lu15  1  0.666817  0.333633  0.590901  1
  In  In16  1  0.162879  0.836105  0.233959  1
  In  In17  1  0.673225  0.836105  0.233959  1
  In  In18  1  0.163582  0.327165  0.233943  1
  In  In19  1  0.836904  0.163179  0.734775  1
  In  In20  1  0.326277  0.163179  0.734775  1
  In  In21  1  0.836859  0.673717  0.734061  1
  Co  Co22  1  0.333334  0.666669  0.707143  1
  Co  Co23  1  0.666974  0.333946  0.206929  1
