# generated using pymatgen
data_Pr2Ga2PdRh
_symmetry_space_group_name_H-M   'P 1'
_cell_length_a   4.52696500
_cell_length_b   7.16086200
_cell_length_c   7.84182500
_cell_angle_alpha   90.00000000
_cell_angle_beta   90.00000000
_cell_angle_gamma   90.00000000
_symmetry_Int_Tables_number   1
_chemical_formula_structural   Pr2Ga2PdRh
_chemical_formula_sum   'Pr4 Ga4 Pd2 Rh2'
_cell_volume   254.20821866
_cell_formula_units_Z   2
loop_
 _symmetry_equiv_pos_site_id
 _symmetry_equiv_pos_as_xyz
  1  'x, y, z'
loop_
 _atom_site_type_symbol
 _atom_site_label
 _atom_site_symmetry_multiplicity
 _atom_site_fract_x
 _atom_site_fract_y
 _atom_site_fract_z
 _atom_site_occupancy
  Pr  Pr0  1  0.250000  0.033105  0.684788  1
  Pr  Pr1  1  0.250000  0.533105  0.815212  1
  Pr  Pr2  1  0.750000  0.975048  0.306688  1
  Pr  Pr3  1  0.750000  0.475048  0.193312  1
  Ga  Ga4  1  0.250000  0.156332  0.073964  1
  Ga  Ga5  1  0.250000  0.656332  0.426036  1
  Ga  Ga6  1  0.750000  0.838273  0.932037  1
  Ga  Ga7  1  0.750000  0.338273  0.567963  1
  Pd  Pd8  1  0.750000  0.715633  0.608038  1
  Pd  Pd9  1  0.750000  0.215633  0.891962  1
  Rh  Rh10  1  0.250000  0.281609  0.393608  1
  Rh  Rh11  1  0.250000  0.781609  0.106392  1
