# generated using pymatgen
data_LaLu(ZnSi)2
_symmetry_space_group_name_H-M   'P 1'
_cell_length_a   4.20764500
_cell_length_b   4.20764522
_cell_length_c   16.03071200
_cell_angle_alpha   90.00000000
_cell_angle_beta   90.00000000
_cell_angle_gamma   119.99999043
_symmetry_Int_Tables_number   1
_chemical_formula_structural   LaLu(ZnSi)2
_chemical_formula_sum   'La2 Lu2 Zn4 Si4'
_cell_volume   245.78857417
_cell_formula_units_Z   2
loop_
 _symmetry_equiv_pos_site_id
 _symmetry_equiv_pos_as_xyz
  1  'x, y, z'
loop_
 _atom_site_type_symbol
 _atom_site_label
 _atom_site_symmetry_multiplicity
 _atom_site_fract_x
 _atom_site_fract_y
 _atom_site_fract_z
 _atom_site_occupancy
  La  La0  1  0.000000  0.000000  0.000000  1
  La  La1  1  0.000000  0.000000  0.500000  1
  Lu  Lu2  1  0.000000  0.000000  0.250000  1
  Lu  Lu3  1  0.000000  0.000000  0.750000  1
  Zn  Zn4  1  0.333333  0.666667  0.153477  1
  Zn  Zn5  1  0.666667  0.333333  0.846523  1
  Zn  Zn6  1  0.666667  0.333333  0.653477  1
  Zn  Zn7  1  0.333333  0.666667  0.346523  1
  Si  Si8  1  0.333333  0.666667  0.625112  1
  Si  Si9  1  0.666667  0.333333  0.374888  1
  Si  Si10  1  0.666667  0.333333  0.125112  1
  Si  Si11  1  0.333333  0.666667  0.874888  1
