# generated using pymatgen
data_Y6Sc2HgAu9
_symmetry_space_group_name_H-M   'P 1'
_cell_length_a   7.97526333
_cell_length_b   7.97526372
_cell_length_c   7.97526197
_cell_angle_alpha   65.75734498
_cell_angle_beta   65.75734790
_cell_angle_gamma   65.75733486
_symmetry_Int_Tables_number   1
_chemical_formula_structural   Y6Sc2HgAu9
_chemical_formula_sum   'Y6 Sc2 Hg1 Au9'
_cell_volume   403.48091371
_cell_formula_units_Z   1
loop_
 _symmetry_equiv_pos_site_id
 _symmetry_equiv_pos_as_xyz
  1  'x, y, z'
loop_
 _atom_site_type_symbol
 _atom_site_label
 _atom_site_symmetry_multiplicity
 _atom_site_fract_x
 _atom_site_fract_y
 _atom_site_fract_z
 _atom_site_occupancy
  Y  Y0  1  0.895646  0.186277  0.619913  1
  Y  Y1  1  0.619913  0.895646  0.186277  1
  Y  Y2  1  0.186277  0.619913  0.895646  1
  Y  Y3  1  0.104354  0.813723  0.380087  1
  Y  Y4  1  0.380087  0.104354  0.813723  1
  Y  Y5  1  0.813723  0.380087  0.104354  1
  Sc  Sc6  1  0.662084  0.662084  0.662084  1
  Sc  Sc7  1  0.337916  0.337916  0.337916  1
  Hg  Hg8  1  0.500000  0.500000  0.500000  1
  Au  Au9  1  0.000000  0.000000  0.000000  1
  Au  Au10  1  0.807040  0.807040  0.807040  1
  Au  Au11  1  0.192960  0.192960  0.192960  1
  Au  Au12  1  0.937245  0.549887  0.320857  1
  Au  Au13  1  0.320857  0.937245  0.549887  1
  Au  Au14  1  0.549887  0.320857  0.937245  1
  Au  Au15  1  0.062755  0.450113  0.679143  1
  Au  Au16  1  0.679143  0.062755  0.450113  1
  Au  Au17  1  0.450113  0.679143  0.062755  1
