# generated using pymatgen
data_Nd6ZnSn2Sb13
_symmetry_space_group_name_H-M   'P 1'
_cell_length_a   12.56294405
_cell_length_b   12.56294319
_cell_length_c   4.31681291
_cell_angle_alpha   80.32655073
_cell_angle_beta   80.32655308
_cell_angle_gamma   101.58432191
_symmetry_Int_Tables_number   1
_chemical_formula_structural   Nd6ZnSn2Sb13
_chemical_formula_sum   'Nd6 Zn1 Sn2 Sb13'
_cell_volume   643.42184664
_cell_formula_units_Z   1
loop_
 _symmetry_equiv_pos_site_id
 _symmetry_equiv_pos_as_xyz
  1  'x, y, z'
loop_
 _atom_site_type_symbol
 _atom_site_label
 _atom_site_symmetry_multiplicity
 _atom_site_fract_x
 _atom_site_fract_y
 _atom_site_fract_z
 _atom_site_occupancy
  Nd  Nd0  1  0.324481  0.679133  0.929055  1
  Nd  Nd1  1  0.679133  0.324481  0.929055  1
  Nd  Nd2  1  0.269939  0.001915  0.798423  1
  Nd  Nd3  1  0.725337  0.995688  0.070489  1
  Nd  Nd4  1  0.995688  0.725337  0.070489  1
  Nd  Nd5  1  0.001915  0.269939  0.798423  1
  Zn  Zn6  1  0.256335  0.256335  0.689303  1
  Sn  Sn7  1  0.413073  0.413073  0.025985  1
  Sn  Sn8  1  0.603321  0.603321  0.824511  1
  Sb  Sb9  1  0.471821  0.252976  0.565828  1
  Sb  Sb10  1  0.542360  0.749412  0.289903  1
  Sb  Sb11  1  0.749412  0.542360  0.289903  1
  Sb  Sb12  1  0.252976  0.471821  0.565828  1
  Sb  Sb13  1  0.511309  0.916765  0.715913  1
  Sb  Sb14  1  0.486467  0.080774  0.150680  1
  Sb  Sb15  1  0.080774  0.486467  0.150680  1
  Sb  Sb16  1  0.916765  0.511309  0.715913  1
  Sb  Sb17  1  0.146113  0.146113  0.292690  1
  Sb  Sb18  1  0.847150  0.847150  0.581926  1
  Sb  Sb19  1  0.197646  0.800137  0.433309  1
  Sb  Sb20  1  0.800137  0.197646  0.433309  1
  Sb  Sb21  1  0.988447  0.988447  0.945684  1
