# generated using pymatgen
data_Ho4Al24PdPt8
_symmetry_space_group_name_H-M   'P 1'
_cell_length_a   7.52427209
_cell_length_b   7.55062211
_cell_length_c   13.16884831
_cell_angle_alpha   84.56234981
_cell_angle_beta   79.11366180
_cell_angle_gamma   59.96755403
_symmetry_Int_Tables_number   1
_chemical_formula_structural   Ho4Al24PdPt8
_chemical_formula_sum   'Ho4 Al24 Pd1 Pt8'
_cell_volume   636.05798514
_cell_formula_units_Z   1
loop_
 _symmetry_equiv_pos_site_id
 _symmetry_equiv_pos_as_xyz
  1  'x, y, z'
loop_
 _atom_site_type_symbol
 _atom_site_label
 _atom_site_symmetry_multiplicity
 _atom_site_fract_x
 _atom_site_fract_y
 _atom_site_fract_z
 _atom_site_occupancy
  Ho  Ho0  1  0.393368  0.168796  0.807731  1
  Ho  Ho1  1  0.606632  0.831204  0.192269  1
  Ho  Ho2  1  0.734286  0.498501  0.807429  1
  Ho  Ho3  1  0.265714  0.501499  0.192571  1
  Al  Al4  1  0.684769  0.833617  0.944322  1
  Al  Al5  1  0.315231  0.166383  0.055678  1
  Al  Al6  1  0.146524  0.832445  0.561266  1
  Al  Al7  1  0.853476  0.167555  0.438734  1
  Al  Al8  1  0.479362  0.166772  0.558540  1
  Al  Al9  1  0.520638  0.833228  0.441460  1
  Al  Al10  1  0.217325  0.165203  0.329658  1
  Al  Al11  1  0.782675  0.834797  0.670342  1
  Al  Al12  1  0.437666  0.506193  0.670411  1
  Al  Al13  1  0.562334  0.493807  0.329589  1
  Al  Al14  1  0.109457  0.160327  0.669443  1
  Al  Al15  1  0.890543  0.839673  0.330557  1
  Al  Al16  1  0.352884  0.499518  0.944508  1
  Al  Al17  1  0.647116  0.500482  0.055492  1
  Al  Al18  1  0.015560  0.167923  0.952710  1
  Al  Al19  1  0.984440  0.832077  0.047290  1
  Al  Al20  1  0.186746  0.499181  0.441333  1
  Al  Al21  1  0.813254  0.500819  0.558667  1
  Al  Al22  1  0.734103  0.163930  0.183381  1
  Al  Al23  1  0.265897  0.836070  0.816619  1
  Al  Al24  1  0.061701  0.630860  0.815622  1
  Al  Al25  1  0.938299  0.369140  0.184378  1
  Al  Al26  1  0.855181  0.041549  0.815907  1
  Al  Al27  1  0.144819  0.958451  0.184093  1
  Pd  Pd28  1  0.000000  0.500000  0.000000  1
  Pt  Pt29  1  0.119882  0.492123  0.638715  1
  Pt  Pt30  1  0.880118  0.507877  0.361285  1
  Pt  Pt31  1  0.657008  0.171347  0.999793  1
  Pt  Pt32  1  0.342992  0.828653  0.000207  1
  Pt  Pt33  1  0.538096  0.166700  0.361084  1
  Pt  Pt34  1  0.461904  0.833300  0.638916  1
  Pt  Pt35  1  0.778650  0.174995  0.637245  1
  Pt  Pt36  1  0.221350  0.825005  0.362755  1
