# generated using pymatgen
data_TbYb3Ti4O12
_symmetry_space_group_name_H-M   'P 1'
_cell_length_a   5.34196121
_cell_length_b   5.51644670
_cell_length_c   7.64229600
_cell_angle_alpha   90.00000000
_cell_angle_beta   90.00000000
_cell_angle_gamma   89.84465164
_symmetry_Int_Tables_number   1
_chemical_formula_structural   TbYb3Ti4O12
_chemical_formula_sum   'Tb1 Yb3 Ti4 O12'
_cell_volume   225.20727463
_cell_formula_units_Z   1
loop_
 _symmetry_equiv_pos_site_id
 _symmetry_equiv_pos_as_xyz
  1  'x, y, z'
loop_
 _atom_site_type_symbol
 _atom_site_label
 _atom_site_symmetry_multiplicity
 _atom_site_fract_x
 _atom_site_fract_y
 _atom_site_fract_z
 _atom_site_occupancy
  Tb  Tb0  1  0.986257  0.439560  0.750000  1
  Yb  Yb1  1  0.514433  0.945064  0.750000  1
  Yb  Yb2  1  0.486522  0.055404  0.250000  1
  Yb  Yb3  1  0.011527  0.553502  0.250000  1
  Ti  Ti4  1  0.001723  0.997591  0.002907  1
  Ti  Ti5  1  0.001723  0.997591  0.497093  1
  Ti  Ti6  1  0.497428  0.501469  0.003270  1
  Ti  Ti7  1  0.497428  0.501469  0.496730  1
  O  O8  1  0.088943  0.026094  0.750000  1
  O  O9  1  0.201292  0.296635  0.043552  1
  O  O10  1  0.201292  0.296635  0.456448  1
  O  O11  1  0.298373  0.796091  0.453132  1
  O  O12  1  0.298373  0.796091  0.046868  1
  O  O13  1  0.404248  0.526416  0.750000  1
  O  O14  1  0.585472  0.475270  0.250000  1
  O  O15  1  0.706751  0.208953  0.950556  1
  O  O16  1  0.706751  0.208953  0.549444  1
  O  O17  1  0.800169  0.701689  0.549243  1
  O  O18  1  0.800169  0.701689  0.950757  1
  O  O19  1  0.911126  0.973834  0.250000  1
