# generated using pymatgen
data_PuBeBRh3
_symmetry_space_group_name_H-M   'P 1'
_cell_length_a   5.65886900
_cell_length_b   5.65886985
_cell_length_c   2.99713000
_cell_angle_alpha   90.00000000
_cell_angle_beta   90.00000000
_cell_angle_gamma   120.00000089
_symmetry_Int_Tables_number   1
_chemical_formula_structural   PuBeBRh3
_chemical_formula_sum   'Pu1 Be1 B1 Rh3'
_cell_volume   83.11808989
_cell_formula_units_Z   1
loop_
 _symmetry_equiv_pos_site_id
 _symmetry_equiv_pos_as_xyz
  1  'x, y, z'
loop_
 _atom_site_type_symbol
 _atom_site_label
 _atom_site_symmetry_multiplicity
 _atom_site_fract_x
 _atom_site_fract_y
 _atom_site_fract_z
 _atom_site_occupancy
  Pu  Pu0  1  0.000000  0.000000  0.500000  1
  Be  Be1  1  0.666667  0.333333  0.500000  1
  B  B2  1  0.333333  0.666667  0.500000  1
  Rh  Rh3  1  0.009285  0.504643  0.000000  1
  Rh  Rh4  1  0.495357  0.504643  0.000000  1
  Rh  Rh5  1  0.495357  0.990715  0.000000  1
