# generated using pymatgen
data_Pa2Nb8Al4Zn
_symmetry_space_group_name_H-M   'P 1'
_cell_length_a   10.00258600
_cell_length_b   10.00258600
_cell_length_c   5.45959300
_cell_angle_alpha   90.00000000
_cell_angle_beta   90.00000000
_cell_angle_gamma   90.00000000
_symmetry_Int_Tables_number   1
_chemical_formula_structural   Pa2Nb8Al4Zn
_chemical_formula_sum   'Pa4 Nb16 Al8 Zn2'
_cell_volume   546.24170666
_cell_formula_units_Z   2
loop_
 _symmetry_equiv_pos_site_id
 _symmetry_equiv_pos_as_xyz
  1  'x, y, z'
loop_
 _atom_site_type_symbol
 _atom_site_label
 _atom_site_symmetry_multiplicity
 _atom_site_fract_x
 _atom_site_fract_y
 _atom_site_fract_z
 _atom_site_occupancy
  Pa  Pa0  1  0.396312  0.396312  0.000000  1
  Pa  Pa1  1  0.896312  0.103688  0.500000  1
  Pa  Pa2  1  0.103688  0.896312  0.500000  1
  Pa  Pa3  1  0.603688  0.603688  0.000000  1
  Nb  Nb4  1  0.133638  0.463392  0.000000  1
  Nb  Nb5  1  0.963392  0.366362  0.500000  1
  Nb  Nb6  1  0.036608  0.633638  0.500000  1
  Nb  Nb7  1  0.866362  0.536608  0.000000  1
  Nb  Nb8  1  0.366362  0.963392  0.500000  1
  Nb  Nb9  1  0.633638  0.036608  0.500000  1
  Nb  Nb10  1  0.463392  0.133638  0.000000  1
  Nb  Nb11  1  0.536608  0.866362  0.000000  1
  Nb  Nb12  1  0.184110  0.184110  0.251732  1
  Nb  Nb13  1  0.684110  0.315890  0.751732  1
  Nb  Nb14  1  0.315890  0.684110  0.751732  1
  Nb  Nb15  1  0.815890  0.815890  0.251732  1
  Nb  Nb16  1  0.315890  0.684110  0.248268  1
  Nb  Nb17  1  0.684110  0.315890  0.248268  1
  Nb  Nb18  1  0.184110  0.184110  0.748268  1
  Nb  Nb19  1  0.815890  0.815890  0.748268  1
  Al  Al20  1  0.267151  0.936214  0.000000  1
  Al  Al21  1  0.436214  0.232849  0.500000  1
  Al  Al22  1  0.563786  0.767151  0.500000  1
  Al  Al23  1  0.732849  0.063786  0.000000  1
  Al  Al24  1  0.232849  0.436214  0.500000  1
  Al  Al25  1  0.767151  0.563786  0.500000  1
  Al  Al26  1  0.936214  0.267151  0.000000  1
  Al  Al27  1  0.063786  0.732849  0.000000  1
  Zn  Zn28  1  0.000000  0.000000  0.000000  1
  Zn  Zn29  1  0.500000  0.500000  0.500000  1
