# generated using pymatgen
data_Cs2HfZn3P4
_symmetry_space_group_name_H-M   'P 1'
_cell_length_a   8.05099539
_cell_length_b   8.05099436
_cell_length_c   5.91896000
_cell_angle_alpha   90.00000000
_cell_angle_beta   90.00000000
_cell_angle_gamma   136.84270556
_symmetry_Int_Tables_number   1
_chemical_formula_structural   Cs2HfZn3P4
_chemical_formula_sum   'Cs2 Hf1 Zn3 P4'
_cell_volume   262.42359370
_cell_formula_units_Z   1
loop_
 _symmetry_equiv_pos_site_id
 _symmetry_equiv_pos_as_xyz
  1  'x, y, z'
loop_
 _atom_site_type_symbol
 _atom_site_label
 _atom_site_symmetry_multiplicity
 _atom_site_fract_x
 _atom_site_fract_y
 _atom_site_fract_z
 _atom_site_occupancy
  Cs  Cs0  1  0.500000  0.000000  0.256356  1
  Cs  Cs1  1  0.000000  0.500000  0.743644  1
  Hf  Hf2  1  0.000000  0.000000  0.000000  1
  Zn  Zn3  1  0.500000  0.500000  0.500000  1
  Zn  Zn4  1  0.500000  0.500000  0.000000  1
  Zn  Zn5  1  0.000000  0.000000  0.500000  1
  P  P6  1  0.657277  0.842473  0.750263  1
  P  P7  1  0.157527  0.342723  0.249737  1
  P  P8  1  0.842473  0.657277  0.249737  1
  P  P9  1  0.342723  0.157527  0.750263  1
