# generated using pymatgen
data_Er8Tm2GaBi2Au3
_symmetry_space_group_name_H-M   'P 1'
_cell_length_a   8.63747382
_cell_length_b   8.63747501
_cell_length_c   8.64597111
_cell_angle_alpha   124.17944465
_cell_angle_beta   124.17944658
_cell_angle_gamma   82.83780868
_symmetry_Int_Tables_number   1
_chemical_formula_structural   Er8Tm2GaBi2Au3
_chemical_formula_sum   'Er8 Tm2 Ga1 Bi2 Au3'
_cell_volume   423.93720588
_cell_formula_units_Z   1
loop_
 _symmetry_equiv_pos_site_id
 _symmetry_equiv_pos_as_xyz
  1  'x, y, z'
loop_
 _atom_site_type_symbol
 _atom_site_label
 _atom_site_symmetry_multiplicity
 _atom_site_fract_x
 _atom_site_fract_y
 _atom_site_fract_z
 _atom_site_occupancy
  Er  Er0  1  0.514159  0.014159  0.807264  1
  Er  Er1  1  0.207375  0.707375  0.197648  1
  Er  Er2  1  0.013201  0.204622  0.497687  1
  Er  Er3  1  0.704622  0.513201  0.497687  1
  Er  Er4  1  0.490272  0.990272  0.197648  1
  Er  Er5  1  0.793107  0.293107  0.807264  1
  Er  Er6  1  0.984486  0.793065  0.497687  1
  Er  Er7  1  0.293065  0.484486  0.497687  1
  Tm  Tm8  1  0.499803  0.500990  0.000793  1
  Tm  Tm9  1  0.000990  0.999803  0.000793  1
  Ga  Ga10  1  0.142324  0.642324  0.784647  1
  Bi  Bi11  1  0.248130  0.248130  0.996259  1
  Bi  Bi12  1  0.748130  0.748130  0.996259  1
  Au  Au13  1  0.862059  0.362059  0.224118  1
  Au  Au14  1  0.637983  0.860297  0.498280  1
  Au  Au15  1  0.360297  0.137983  0.498280  1
