# generated using pymatgen
data_YbLu4Rh5
_symmetry_space_group_name_H-M   'P 1'
_cell_length_a   3.35954600
_cell_length_b   3.35954600
_cell_length_c   16.78044600
_cell_angle_alpha   90.00000000
_cell_angle_beta   90.00000000
_cell_angle_gamma   90.00000000
_symmetry_Int_Tables_number   1
_chemical_formula_structural   YbLu4Rh5
_chemical_formula_sum   'Yb1 Lu4 Rh5'
_cell_volume   189.39333149
_cell_formula_units_Z   1
loop_
 _symmetry_equiv_pos_site_id
 _symmetry_equiv_pos_as_xyz
  1  'x, y, z'
loop_
 _atom_site_type_symbol
 _atom_site_label
 _atom_site_symmetry_multiplicity
 _atom_site_fract_x
 _atom_site_fract_y
 _atom_site_fract_z
 _atom_site_occupancy
  Yb  Yb0  1  0.000000  0.000000  0.000000  1
  Lu  Lu1  1  0.000000  0.000000  0.197138  1
  Lu  Lu2  1  0.000000  0.000000  0.399022  1
  Lu  Lu3  1  0.000000  0.000000  0.600978  1
  Lu  Lu4  1  0.000000  0.000000  0.802862  1
  Rh  Rh5  1  0.500000  0.500000  0.103006  1
  Rh  Rh6  1  0.500000  0.500000  0.300178  1
  Rh  Rh7  1  0.500000  0.500000  0.500000  1
  Rh  Rh8  1  0.500000  0.500000  0.699822  1
  Rh  Rh9  1  0.500000  0.500000  0.896994  1
