# generated using pymatgen
data_Tm12ZnInCu4
_symmetry_space_group_name_H-M   'P 1'
_cell_length_a   8.34029694
_cell_length_b   8.34029628
_cell_length_c   8.34029692
_cell_angle_alpha   112.00628518
_cell_angle_beta   110.43532278
_cell_angle_gamma   106.03008683
_symmetry_Int_Tables_number   1
_chemical_formula_structural   Tm12ZnInCu4
_chemical_formula_sum   'Tm12 Zn1 In1 Cu4'
_cell_volume   445.31570627
_cell_formula_units_Z   1
loop_
 _symmetry_equiv_pos_site_id
 _symmetry_equiv_pos_as_xyz
  1  'x, y, z'
loop_
 _atom_site_type_symbol
 _atom_site_label
 _atom_site_symmetry_multiplicity
 _atom_site_fract_x
 _atom_site_fract_y
 _atom_site_fract_z
 _atom_site_occupancy
  Tm  Tm0  1  0.428768  0.231671  0.197097  1
  Tm  Tm1  1  0.571232  0.768329  0.802903  1
  Tm  Tm2  1  0.034575  0.231671  0.802903  1
  Tm  Tm3  1  0.965425  0.768329  0.197097  1
  Tm  Tm4  1  0.183066  0.281817  0.464883  1
  Tm  Tm5  1  0.816934  0.718183  0.535117  1
  Tm  Tm6  1  0.183066  0.718183  0.901249  1
  Tm  Tm7  1  0.816934  0.281817  0.098751  1
  Tm  Tm8  1  0.321559  0.620772  0.299214  1
  Tm  Tm9  1  0.678441  0.379228  0.700786  1
  Tm  Tm10  1  0.321559  0.022345  0.700786  1
  Tm  Tm11  1  0.678441  0.977655  0.299214  1
  Zn  Zn12  1  0.000000  0.000000  0.000000  1
  In  In13  1  0.500000  0.500000  0.000000  1
  Cu  Cu14  1  0.359350  0.000000  0.359350  1
  Cu  Cu15  1  0.640650  0.000000  0.640650  1
  Cu  Cu16  1  0.122481  0.622481  0.500000  1
  Cu  Cu17  1  0.877519  0.377519  0.500000  1
