# generated using pymatgen
data_Lu5Sc(InAu)6
_symmetry_space_group_name_H-M   'P 1'
_cell_length_a   7.67655117
_cell_length_b   7.68338725
_cell_length_c   7.83551000
_cell_angle_alpha   90.00000000
_cell_angle_beta   90.00000000
_cell_angle_gamma   120.03208690
_symmetry_Int_Tables_number   1
_chemical_formula_structural   Lu5Sc(InAu)6
_chemical_formula_sum   'Lu5 Sc1 In6 Au6'
_cell_volume   400.10710351
_cell_formula_units_Z   1
loop_
 _symmetry_equiv_pos_site_id
 _symmetry_equiv_pos_as_xyz
  1  'x, y, z'
loop_
 _atom_site_type_symbol
 _atom_site_label
 _atom_site_symmetry_multiplicity
 _atom_site_fract_x
 _atom_site_fract_y
 _atom_site_fract_z
 _atom_site_occupancy
  Lu  Lu0  1  0.589246  0.991532  0.750000  1
  Lu  Lu1  1  0.008939  0.597772  0.750000  1
  Lu  Lu2  1  0.992289  0.590188  0.250000  1
  Lu  Lu3  1  0.597991  0.007890  0.250000  1
  Lu  Lu4  1  0.410679  0.402838  0.250000  1
  Sc  Sc5  1  0.400262  0.407673  0.750000  1
  In  In6  1  0.737228  0.737007  0.995945  1
  In  In7  1  0.261917  0.001803  0.999413  1
  In  In8  1  0.001755  0.262135  0.999129  1
  In  In9  1  0.737228  0.737007  0.504055  1
  In  In10  1  0.261917  0.001803  0.500587  1
  In  In11  1  0.001755  0.262135  0.500871  1
  Au  Au12  1  0.002022  0.002039  0.750000  1
  Au  Au13  1  0.997869  0.998135  0.250000  1
  Au  Au14  1  0.665680  0.333746  0.983101  1
  Au  Au15  1  0.665680  0.333746  0.516899  1
  Au  Au16  1  0.333771  0.666276  0.488709  1
  Au  Au17  1  0.333771  0.666276  0.011291  1
