# generated using pymatgen
data_ThTc3As4Rh3
_symmetry_space_group_name_H-M   'P 1'
_cell_length_a   7.19591900
_cell_length_b   7.19591955
_cell_length_c   3.98039400
_cell_angle_alpha   90.00000000
_cell_angle_beta   90.00000000
_cell_angle_gamma   120.00000208
_symmetry_Int_Tables_number   1
_chemical_formula_structural   ThTc3As4Rh3
_chemical_formula_sum   'Th1 Tc3 As4 Rh3'
_cell_volume   178.49631337
_cell_formula_units_Z   1
loop_
 _symmetry_equiv_pos_site_id
 _symmetry_equiv_pos_as_xyz
  1  'x, y, z'
loop_
 _atom_site_type_symbol
 _atom_site_label
 _atom_site_symmetry_multiplicity
 _atom_site_fract_x
 _atom_site_fract_y
 _atom_site_fract_z
 _atom_site_occupancy
  Th  Th0  1  0.000000  0.000000  0.000000  1
  Tc  Tc1  1  0.534237  0.068476  0.000000  1
  Tc  Tc2  1  0.931524  0.465763  0.000000  1
  Tc  Tc3  1  0.534237  0.465763  0.000000  1
  As  As4  1  0.803394  0.196606  0.500000  1
  As  As5  1  0.393211  0.196606  0.500000  1
  As  As6  1  0.333333  0.666667  0.000000  1
  As  As7  1  0.803394  0.606789  0.500000  1
  Rh  Rh8  1  0.196386  0.803614  0.500000  1
  Rh  Rh9  1  0.196386  0.392773  0.500000  1
  Rh  Rh10  1  0.607227  0.803614  0.500000  1
