# generated using pymatgen
data_DyY3Ho2(Al3Os)8
_symmetry_space_group_name_H-M   'P 1'
_cell_length_a   8.83765104
_cell_length_b   8.83594557
_cell_length_c   9.56890800
_cell_angle_alpha   90.00000000
_cell_angle_beta   90.00000000
_cell_angle_gamma   120.01742466
_symmetry_Int_Tables_number   1
_chemical_formula_structural   DyY3Ho2(Al3Os)8
_chemical_formula_sum   'Dy1 Y3 Ho2 Al24 Os8'
_cell_volume   647.00347128
_cell_formula_units_Z   1
loop_
 _symmetry_equiv_pos_site_id
 _symmetry_equiv_pos_as_xyz
  1  'x, y, z'
loop_
 _atom_site_type_symbol
 _atom_site_label
 _atom_site_symmetry_multiplicity
 _atom_site_fract_x
 _atom_site_fract_y
 _atom_site_fract_z
 _atom_site_occupancy
  Dy  Dy0  1  0.193364  0.386768  0.250000  1
  Y  Y1  1  0.806730  0.613423  0.750000  1
  Y  Y2  1  0.613090  0.806544  0.250000  1
  Y  Y3  1  0.386608  0.193291  0.750000  1
  Ho  Ho4  1  0.193487  0.806472  0.250000  1
  Ho  Ho5  1  0.806665  0.193372  0.750000  1
  Al  Al6  1  0.333331  0.666723  0.015768  1
  Al  Al7  1  0.666687  0.333309  0.984298  1
  Al  Al8  1  0.666687  0.333309  0.515702  1
  Al  Al9  1  0.333331  0.666723  0.484232  1
  Al  Al10  1  0.162633  0.325321  0.576168  1
  Al  Al11  1  0.837356  0.674660  0.423912  1
  Al  Al12  1  0.674694  0.837404  0.576124  1
  Al  Al13  1  0.837356  0.674660  0.076088  1
  Al  Al14  1  0.325342  0.162594  0.423876  1
  Al  Al15  1  0.162633  0.325321  0.923832  1
  Al  Al16  1  0.162686  0.837374  0.576029  1
  Al  Al17  1  0.325342  0.162594  0.076124  1
  Al  Al18  1  0.837276  0.162624  0.423972  1
  Al  Al19  1  0.674694  0.837404  0.923876  1
  Al  Al20  1  0.837276  0.162624  0.076028  1
  Al  Al21  1  0.162686  0.837374  0.923971  1
  Al  Al22  1  0.560136  0.120435  0.250000  1
  Al  Al23  1  0.439873  0.879585  0.750000  1
  Al  Al24  1  0.879454  0.439839  0.250000  1
  Al  Al25  1  0.120414  0.560146  0.750000  1
  Al  Al26  1  0.560335  0.439726  0.250000  1
  Al  Al27  1  0.439782  0.560258  0.750000  1
  Al  Al28  1  0.000055  0.999859  0.250000  1
  Al  Al29  1  0.999921  0.000095  0.750000  1
  Os  Os30  1  0.500034  0.000066  0.999952  1
  Os  Os31  1  0.999961  0.500006  0.999955  1
  Os  Os32  1  0.500034  0.000066  0.500048  1
  Os  Os33  1  0.500045  0.500010  0.999953  1
  Os  Os34  1  0.999961  0.500006  0.500045  1
  Os  Os35  1  0.500045  0.500010  0.500047  1
  Os  Os36  1  0.000000  0.000003  0.999948  1
  Os  Os37  1  0.000000  0.000003  0.500052  1
