# generated using pymatgen
data_Tm5Tl2Sb
_symmetry_space_group_name_H-M   'P 1'
_cell_length_a   8.86695900
_cell_length_b   8.86822476
_cell_length_c   6.50160400
_cell_angle_alpha   90.00000000
_cell_angle_beta   90.00000000
_cell_angle_gamma   119.99528237
_symmetry_Int_Tables_number   1
_chemical_formula_structural   Tm5Tl2Sb
_chemical_formula_sum   'Tm10 Tl4 Sb2'
_cell_volume   442.77509106
_cell_formula_units_Z   2
loop_
 _symmetry_equiv_pos_site_id
 _symmetry_equiv_pos_as_xyz
  1  'x, y, z'
loop_
 _atom_site_type_symbol
 _atom_site_label
 _atom_site_symmetry_multiplicity
 _atom_site_fract_x
 _atom_site_fract_y
 _atom_site_fract_z
 _atom_site_occupancy
  Tm  Tm0  1  0.331336  0.664985  0.003654  1
  Tm  Tm1  1  0.666352  0.335015  0.496346  1
  Tm  Tm2  1  0.666352  0.335015  0.003654  1
  Tm  Tm3  1  0.331336  0.664985  0.496346  1
  Tm  Tm4  1  0.236282  0.000000  0.250000  1
  Tm  Tm5  1  0.760400  0.000000  0.750000  1
  Tm  Tm6  1  0.999911  0.238228  0.250000  1
  Tm  Tm7  1  0.761683  0.761772  0.250000  1
  Tm  Tm8  1  0.239178  0.235185  0.750000  1
  Tm  Tm9  1  0.003993  0.764815  0.750000  1
  Tl  Tl10  1  0.602663  0.000000  0.250000  1
  Tl  Tl11  1  0.400938  0.000000  0.750000  1
  Tl  Tl12  1  0.999281  0.606079  0.250000  1
  Tl  Tl13  1  0.393202  0.393921  0.250000  1
  Sb  Sb14  1  0.606816  0.606537  0.750000  1
  Sb  Sb15  1  0.000280  0.393463  0.750000  1
