# generated using pymatgen
data_Dy8CuP12Pd11
_symmetry_space_group_name_H-M   'P 1'
_cell_length_a   3.92904000
_cell_length_b   10.82994442
_cell_length_c   13.26307100
_cell_angle_alpha   90.13354283
_cell_angle_beta   90.00000000
_cell_angle_gamma   90.00000000
_symmetry_Int_Tables_number   1
_chemical_formula_structural   Dy8CuP12Pd11
_chemical_formula_sum   'Dy8 Cu1 P12 Pd11'
_cell_volume   564.35917865
_cell_formula_units_Z   1
loop_
 _symmetry_equiv_pos_site_id
 _symmetry_equiv_pos_as_xyz
  1  'x, y, z'
loop_
 _atom_site_type_symbol
 _atom_site_label
 _atom_site_symmetry_multiplicity
 _atom_site_fract_x
 _atom_site_fract_y
 _atom_site_fract_z
 _atom_site_occupancy
  Dy  Dy0  1  0.250000  0.927982  0.787287  1
  Dy  Dy1  1  0.750000  0.427984  0.713355  1
  Dy  Dy2  1  0.250000  0.572913  0.284924  1
  Dy  Dy3  1  0.750000  0.073341  0.214668  1
  Dy  Dy4  1  0.250000  0.844048  0.505691  1
  Dy  Dy5  1  0.750000  0.339565  0.994776  1
  Dy  Dy6  1  0.250000  0.658587  0.003898  1
  Dy  Dy7  1  0.750000  0.159353  0.499576  1
  Cu  Cu8  1  0.750000  0.133040  0.717692  1
  P  P9  1  0.250000  0.236898  0.644098  1
  P  P10  1  0.750000  0.736630  0.858106  1
  P  P11  1  0.250000  0.262426  0.142221  1
  P  P12  1  0.750000  0.763180  0.357647  1
  P  P13  1  0.250000  0.603617  0.603179  1
  P  P14  1  0.750000  0.101384  0.893994  1
  P  P15  1  0.250000  0.898249  0.103445  1
  P  P16  1  0.750000  0.397175  0.396452  1
  P  P17  1  0.250000  0.054317  0.377400  1
  P  P18  1  0.750000  0.552743  0.123172  1
  P  P19  1  0.250000  0.443404  0.874534  1
  P  P20  1  0.750000  0.950205  0.627989  1
  Pd  Pd21  1  0.250000  0.407053  0.523277  1
  Pd  Pd22  1  0.750000  0.906474  0.978932  1
  Pd  Pd23  1  0.250000  0.094189  0.020490  1
  Pd  Pd24  1  0.750000  0.593376  0.476311  1
  Pd  Pd25  1  0.250000  0.269614  0.339141  1
  Pd  Pd26  1  0.750000  0.768978  0.162999  1
  Pd  Pd27  1  0.250000  0.226447  0.829267  1
  Pd  Pd28  1  0.750000  0.732005  0.662714  1
  Pd  Pd29  1  0.250000  0.866811  0.283323  1
  Pd  Pd30  1  0.750000  0.365630  0.217382  1
  Pd  Pd31  1  0.250000  0.632383  0.782059  1
