# generated using pymatgen
data_Dy2MgZrRh2
_symmetry_space_group_name_H-M   'P 1'
_cell_length_a   4.49197400
_cell_length_b   7.00144372
_cell_length_c   8.35955253
_cell_angle_alpha   94.36469040
_cell_angle_beta   90.00000000
_cell_angle_gamma   90.00000000
_symmetry_Int_Tables_number   1
_chemical_formula_structural   Dy2MgZrRh2
_chemical_formula_sum   'Dy4 Mg2 Zr2 Rh4'
_cell_volume   262.14797947
_cell_formula_units_Z   2
loop_
 _symmetry_equiv_pos_site_id
 _symmetry_equiv_pos_as_xyz
  1  'x, y, z'
loop_
 _atom_site_type_symbol
 _atom_site_label
 _atom_site_symmetry_multiplicity
 _atom_site_fract_x
 _atom_site_fract_y
 _atom_site_fract_z
 _atom_site_occupancy
  Dy  Dy0  1  0.250000  0.527563  0.188308  1
  Dy  Dy1  1  0.750000  0.472437  0.811692  1
  Dy  Dy2  1  0.250000  0.023122  0.335636  1
  Dy  Dy3  1  0.750000  0.976878  0.664364  1
  Mg  Mg4  1  0.250000  0.645160  0.571413  1
  Mg  Mg5  1  0.750000  0.354840  0.428587  1
  Zr  Zr6  1  0.250000  0.133921  0.925338  1
  Zr  Zr7  1  0.750000  0.866079  0.074662  1
  Rh  Rh8  1  0.750000  0.742381  0.375365  1
  Rh  Rh9  1  0.250000  0.257619  0.624635  1
  Rh  Rh10  1  0.750000  0.243601  0.088209  1
  Rh  Rh11  1  0.250000  0.756399  0.911791  1
