# generated using pymatgen
data_TbY2Zr(Ga3Rh)6
_symmetry_space_group_name_H-M   'P 1'
_cell_length_a   7.56489702
_cell_length_b   7.54889150
_cell_length_c   9.48918100
_cell_angle_alpha   90.00000000
_cell_angle_beta   90.00000000
_cell_angle_gamma   119.83692267
_symmetry_Int_Tables_number   1
_chemical_formula_structural   TbY2Zr(Ga3Rh)6
_chemical_formula_sum   'Tb1 Y2 Zr1 Ga18 Rh6'
_cell_volume   470.06388806
_cell_formula_units_Z   1
loop_
 _symmetry_equiv_pos_site_id
 _symmetry_equiv_pos_as_xyz
  1  'x, y, z'
loop_
 _atom_site_type_symbol
 _atom_site_label
 _atom_site_symmetry_multiplicity
 _atom_site_fract_x
 _atom_site_fract_y
 _atom_site_fract_z
 _atom_site_occupancy
  Tb  Tb0  1  0.669272  0.997343  0.250000  1
  Y  Y1  1  0.004223  0.331100  0.750000  1
  Y  Y2  1  0.331505  0.003829  0.750000  1
  Zr  Zr3  1  0.996537  0.667994  0.250000  1
  Ga  Ga4  1  0.123852  0.122056  0.250000  1
  Ga  Ga5  1  0.873342  0.873034  0.750000  1
  Ga  Ga6  1  0.999928  0.337624  0.081850  1
  Ga  Ga7  1  0.000179  0.665690  0.924002  1
  Ga  Ga8  1  0.000179  0.665690  0.575998  1
  Ga  Ga9  1  0.330826  0.997134  0.418091  1
  Ga  Ga10  1  0.999928  0.337624  0.418150  1
  Ga  Ga11  1  0.665722  0.999418  0.578402  1
  Ga  Ga12  1  0.665722  0.999418  0.921598  1
  Ga  Ga13  1  0.330826  0.997134  0.081909  1
  Ga  Ga14  1  0.333442  0.333358  0.562989  1
  Ga  Ga15  1  0.669430  0.667006  0.433166  1
  Ga  Ga16  1  0.669430  0.667006  0.066834  1
  Ga  Ga17  1  0.333442  0.333358  0.937011  1
  Ga  Ga18  1  0.336125  0.547941  0.250000  1
  Ga  Ga19  1  0.662067  0.453972  0.750000  1
  Ga  Ga20  1  0.551703  0.341264  0.250000  1
  Ga  Ga21  1  0.452595  0.661004  0.750000  1
  Rh  Rh22  1  0.672467  0.329169  0.001038  1
  Rh  Rh23  1  0.327659  0.671856  0.001647  1
  Rh  Rh24  1  0.327659  0.671856  0.498353  1
  Rh  Rh25  1  0.672467  0.329169  0.498962  1
  Rh  Rh26  1  0.999737  0.998976  0.001121  1
  Rh  Rh27  1  0.999737  0.998976  0.498879  1
