# generated using pymatgen
data_MgCoN6
_symmetry_space_group_name_H-M   'P 1'
_cell_length_a   3.16698592
_cell_length_b   7.79146169
_cell_length_c   7.84732696
_cell_angle_alpha   111.71335534
_cell_angle_beta   101.54951173
_cell_angle_gamma   102.27322848
_symmetry_Int_Tables_number   1
_chemical_formula_structural   MgCoN6
_chemical_formula_sum   'Mg1 Co1 N6'
_cell_volume   167.28676622
_cell_formula_units_Z   1
loop_
 _symmetry_equiv_pos_site_id
 _symmetry_equiv_pos_as_xyz
  1  'x, y, z'
loop_
 _atom_site_type_symbol
 _atom_site_label
 _atom_site_symmetry_multiplicity
 _atom_site_fract_x
 _atom_site_fract_y
 _atom_site_fract_z
 _atom_site_occupancy
  Mg  Mg0  1  0.710429  0.516560  0.420982  1
  Co  Co1  1  0.704653  0.898833  0.035656  1
  N  N2  1  0.890665  0.145876  0.164642  1
  N  N3  1  0.029587  0.313404  0.272885  1
  N  N4  1  0.380291  0.643820  0.628003  1
  N  N5  1  0.516846  0.754249  0.793704  1
  N  N6  1  0.719120  0.692587  0.275373  1
  N  N7  1  0.713396  0.775411  0.180584  1
