# generated using pymatgen
data_Ac9Sm7(ErSn4)4
_symmetry_space_group_name_H-M   'P 1'
_cell_length_a   8.33009200
_cell_length_b   8.60291114
_cell_length_c   16.48806100
_cell_angle_alpha   90.12458957
_cell_angle_beta   90.14038357
_cell_angle_gamma   89.97503932
_symmetry_Int_Tables_number   1
_chemical_formula_structural   Ac9Sm7(ErSn4)4
_chemical_formula_sum   'Ac9 Sm7 Er4 Sn16'
_cell_volume   1181.57814617
_cell_formula_units_Z   1
loop_
 _symmetry_equiv_pos_site_id
 _symmetry_equiv_pos_as_xyz
  1  'x, y, z'
loop_
 _atom_site_type_symbol
 _atom_site_label
 _atom_site_symmetry_multiplicity
 _atom_site_fract_x
 _atom_site_fract_y
 _atom_site_fract_z
 _atom_site_occupancy
  Ac  Ac0  1  0.154917  0.334573  0.619515  1
  Ac  Ac1  1  0.493640  0.678229  0.598468  1
  Ac  Ac2  1  0.995107  0.822759  0.906500  1
  Ac  Ac3  1  0.504637  0.323431  0.096319  1
  Ac  Ac4  1  0.003679  0.178614  0.400958  1
  Ac  Ac5  1  0.506422  0.324161  0.401353  1
  Ac  Ac6  1  0.005054  0.177408  0.096848  1
  Ac  Ac7  1  0.495856  0.677308  0.905205  1
  Ac  Ac8  1  0.994501  0.821204  0.596222  1
  Sm  Sm9  1  0.656309  0.165899  0.625954  1
  Sm  Sm10  1  0.155629  0.333381  0.876791  1
  Sm  Sm11  1  0.343580  0.835236  0.124569  1
  Sm  Sm12  1  0.845377  0.664383  0.375356  1
  Sm  Sm13  1  0.346380  0.835747  0.371526  1
  Sm  Sm14  1  0.843728  0.666282  0.124103  1
  Sm  Sm15  1  0.656768  0.164429  0.878173  1
  Er  Er16  1  0.818891  0.499202  0.751536  1
  Er  Er17  1  0.321938  0.999792  0.753002  1
  Er  Er18  1  0.180044  0.501940  0.249132  1
  Er  Er19  1  0.679300  0.998033  0.248951  1
  Sn  Sn20  1  0.680271  0.958693  0.457650  1
  Sn  Sn21  1  0.180480  0.541797  0.043121  1
  Sn  Sn22  1  0.319261  0.041218  0.958041  1
  Sn  Sn23  1  0.802099  0.459528  0.540668  1
  Sn  Sn24  1  0.330502  0.031613  0.538763  1
  Sn  Sn25  1  0.820163  0.458072  0.957881  1
  Sn  Sn26  1  0.680299  0.959205  0.044064  1
  Sn  Sn27  1  0.184026  0.547555  0.449726  1
  Sn  Sn28  1  0.462688  0.372097  0.755024  1
  Sn  Sn29  1  0.955601  0.121132  0.753292  1
  Sn  Sn30  1  0.542399  0.628147  0.248524  1
  Sn  Sn31  1  0.039592  0.872062  0.249556  1
  Sn  Sn32  1  0.689099  0.860800  0.751939  1
  Sn  Sn33  1  0.189944  0.644067  0.753382  1
  Sn  Sn34  1  0.310670  0.139368  0.248628  1
  Sn  Sn35  1  0.811150  0.362637  0.249258  1
