# generated using pymatgen
data_Tb2Y2Al18Ir5Pt
_symmetry_space_group_name_H-M   'P 1'
_cell_length_a   7.57009336
_cell_length_b   7.57021561
_cell_length_c   9.48528800
_cell_angle_alpha   89.98291578
_cell_angle_beta   89.98126242
_cell_angle_gamma   119.59665682
_symmetry_Int_Tables_number   1
_chemical_formula_structural   Tb2Y2Al18Ir5Pt
_chemical_formula_sum   'Tb2 Y2 Al18 Ir5 Pt1'
_cell_volume   472.65185998
_cell_formula_units_Z   1
loop_
 _symmetry_equiv_pos_site_id
 _symmetry_equiv_pos_as_xyz
  1  'x, y, z'
loop_
 _atom_site_type_symbol
 _atom_site_label
 _atom_site_symmetry_multiplicity
 _atom_site_fract_x
 _atom_site_fract_y
 _atom_site_fract_z
 _atom_site_occupancy
  Tb  Tb0  1  0.994509  0.670530  0.250634  1
  Tb  Tb1  1  0.005086  0.329422  0.749461  1
  Y  Y2  1  0.670577  0.994911  0.250544  1
  Y  Y3  1  0.329475  0.005497  0.749361  1
  Al  Al4  1  0.128230  0.127478  0.250521  1
  Al  Al5  1  0.872522  0.871766  0.749479  1
  Al  Al6  1  0.004064  0.335169  0.075946  1
  Al  Al7  1  0.002239  0.668437  0.923991  1
  Al  Al8  1  0.999810  0.665079  0.574055  1
  Al  Al9  1  0.334944  0.000198  0.425951  1
  Al  Al10  1  0.000644  0.334517  0.425545  1
  Al  Al11  1  0.665459  0.999345  0.574446  1
  Al  Al12  1  0.664806  0.995927  0.924062  1
  Al  Al13  1  0.331588  0.997769  0.076001  1
  Al  Al14  1  0.333184  0.333133  0.551795  1
  Al  Al15  1  0.666857  0.666827  0.448204  1
  Al  Al16  1  0.666176  0.669249  0.054292  1
  Al  Al17  1  0.330762  0.333814  0.945712  1
  Al  Al18  1  0.340202  0.548862  0.250349  1
  Al  Al19  1  0.660161  0.453266  0.747440  1
  Al  Al20  1  0.546728  0.339835  0.252559  1
  Al  Al21  1  0.451151  0.659809  0.749650  1
  Ir  Ir22  1  0.328315  0.671697  0.000002  1
  Ir  Ir23  1  0.328506  0.671506  0.499998  1
  Ir  Ir24  1  0.671921  0.328060  0.500001  1
  Ir  Ir25  1  0.999855  0.000143  0.000001  1
  Ir  Ir26  1  0.000247  0.999750  0.500000  1
  Pt  Pt27  1  0.671981  0.328004  0.999999  1
