# generated using pymatgen
data_Tb3Dy2SnBi2
_symmetry_space_group_name_H-M   'P 1'
_cell_length_a   9.14153626
_cell_length_b   9.10722825
_cell_length_c   6.46507700
_cell_angle_alpha   90.00000000
_cell_angle_beta   90.00000000
_cell_angle_gamma   119.87593315
_symmetry_Int_Tables_number   1
_chemical_formula_structural   Tb3Dy2SnBi2
_chemical_formula_sum   'Tb6 Dy4 Sn2 Bi4'
_cell_volume   466.71453960
_cell_formula_units_Z   2
loop_
 _symmetry_equiv_pos_site_id
 _symmetry_equiv_pos_as_xyz
  1  'x, y, z'
loop_
 _atom_site_type_symbol
 _atom_site_label
 _atom_site_symmetry_multiplicity
 _atom_site_fract_x
 _atom_site_fract_y
 _atom_site_fract_z
 _atom_site_occupancy
  Tb  Tb0  1  0.994701  0.758204  0.750000  1
  Tb  Tb1  1  0.994701  0.236496  0.250000  1
  Tb  Tb2  1  0.756644  0.761808  0.250000  1
  Tb  Tb3  1  0.756644  0.994836  0.750000  1
  Tb  Tb4  1  0.245165  0.244942  0.750000  1
  Tb  Tb5  1  0.245165  0.000224  0.250000  1
  Dy  Dy6  1  0.339715  0.669858  0.500000  1
  Dy  Dy7  1  0.665147  0.332573  0.000000  1
  Dy  Dy8  1  0.665147  0.332573  0.500000  1
  Dy  Dy9  1  0.339715  0.669858  0.000000  1
  Sn  Sn10  1  0.608288  0.606404  0.750000  1
  Sn  Sn11  1  0.608288  0.001886  0.250000  1
  Bi  Bi12  1  0.389507  0.998944  0.750000  1
  Bi  Bi13  1  0.389507  0.390563  0.250000  1
  Bi  Bi14  1  0.000832  0.609115  0.250000  1
  Bi  Bi15  1  0.000832  0.391716  0.750000  1
