# generated using pymatgen
data_Dy2Ta3Co9As7
_symmetry_space_group_name_H-M   'P 1'
_cell_length_a   3.81510700
_cell_length_b   9.53944947
_cell_length_c   9.53944900
_cell_angle_alpha   119.99999491
_cell_angle_beta   90.00000000
_cell_angle_gamma   90.00000000
_symmetry_Int_Tables_number   1
_chemical_formula_structural   Dy2Ta3Co9As7
_chemical_formula_sum   'Dy2 Ta3 Co9 As7'
_cell_volume   300.66576409
_cell_formula_units_Z   1
loop_
 _symmetry_equiv_pos_site_id
 _symmetry_equiv_pos_as_xyz
  1  'x, y, z'
loop_
 _atom_site_type_symbol
 _atom_site_label
 _atom_site_symmetry_multiplicity
 _atom_site_fract_x
 _atom_site_fract_y
 _atom_site_fract_z
 _atom_site_occupancy
  Dy  Dy0  1  0.000000  0.666667  0.333333  1
  Dy  Dy1  1  0.500000  0.333333  0.666667  1
  Ta  Ta2  1  0.500000  0.775465  0.896223  1
  Ta  Ta3  1  0.500000  0.120758  0.224535  1
  Ta  Ta4  1  0.500000  0.103777  0.879242  1
  Co  Co5  1  0.000000  0.572152  0.936658  1
  Co  Co6  1  0.000000  0.364505  0.427848  1
  Co  Co7  1  0.000000  0.063342  0.635495  1
  Co  Co8  1  0.000000  0.878196  0.158983  1
  Co  Co9  1  0.000000  0.280788  0.121804  1
  Co  Co10  1  0.000000  0.841017  0.719212  1
  Co  Co11  1  0.500000  0.948264  0.383795  1
  Co  Co12  1  0.500000  0.435530  0.051736  1
  Co  Co13  1  0.500000  0.616205  0.564470  1
  As  As14  1  0.000000  0.000000  0.000000  1
  As  As15  1  0.500000  0.707769  0.124571  1
  As  As16  1  0.500000  0.416803  0.292231  1
  As  As17  1  0.500000  0.875429  0.583197  1
  As  As18  1  0.000000  0.579654  0.690998  1
  As  As19  1  0.000000  0.111344  0.420346  1
  As  As20  1  0.000000  0.309002  0.888656  1
