# generated using pymatgen
data_TbEr3Sn5SbRh7
_symmetry_space_group_name_H-M   'P 1'
_cell_length_a   7.60452564
_cell_length_b   7.60452687
_cell_length_c   7.60546978
_cell_angle_alpha   109.45925389
_cell_angle_beta   109.45926030
_cell_angle_gamma   109.63444979
_symmetry_Int_Tables_number   1
_chemical_formula_structural   TbEr3Sn5SbRh7
_chemical_formula_sum   'Tb1 Er3 Sn5 Sb1 Rh7'
_cell_volume   337.98590256
_cell_formula_units_Z   1
loop_
 _symmetry_equiv_pos_site_id
 _symmetry_equiv_pos_as_xyz
  1  'x, y, z'
loop_
 _atom_site_type_symbol
 _atom_site_label
 _atom_site_symmetry_multiplicity
 _atom_site_fract_x
 _atom_site_fract_y
 _atom_site_fract_z
 _atom_site_occupancy
  Tb  Tb0  1  0.495930  0.495930  0.497105  1
  Er  Er1  1  0.495821  0.998547  0.999999  1
  Er  Er2  1  0.998547  0.495821  0.999999  1
  Er  Er3  1  0.998651  0.998651  0.502804  1
  Sn  Sn4  1  0.996054  0.312663  0.315609  1
  Sn  Sn5  1  0.681570  0.998143  0.684397  1
  Sn  Sn6  1  0.692286  0.692286  0.001035  1
  Sn  Sn7  1  0.998143  0.681570  0.684397  1
  Sn  Sn8  1  0.312663  0.996054  0.315609  1
  Sb  Sb9  1  0.320280  0.320280  0.998993  1
  Rh  Rh10  1  0.008181  0.008181  0.999937  1
  Rh  Rh11  1  0.501307  0.750543  0.248412  1
  Rh  Rh12  1  0.750543  0.501307  0.248412  1
  Rh  Rh13  1  0.247826  0.748521  0.500030  1
  Rh  Rh14  1  0.252181  0.501496  0.751616  1
  Rh  Rh15  1  0.501496  0.252181  0.751616  1
  Rh  Rh16  1  0.748521  0.247826  0.500030  1
