# generated using pymatgen
data_Tb4Y4MgCdPt2
_symmetry_space_group_name_H-M   'P 1'
_cell_length_a   9.76228618
_cell_length_b   9.76228683
_cell_length_c   9.78270400
_cell_angle_alpha   59.93079860
_cell_angle_beta   59.93079636
_cell_angle_gamma   60.03205809
_symmetry_Int_Tables_number   1
_chemical_formula_structural   Tb4Y4MgCdPt2
_chemical_formula_sum   'Tb8 Y8 Mg2 Cd2 Pt4'
_cell_volume   658.71391795
_cell_formula_units_Z   2
loop_
 _symmetry_equiv_pos_site_id
 _symmetry_equiv_pos_as_xyz
  1  'x, y, z'
loop_
 _atom_site_type_symbol
 _atom_site_label
 _atom_site_symmetry_multiplicity
 _atom_site_fract_x
 _atom_site_fract_y
 _atom_site_fract_z
 _atom_site_occupancy
  Tb  Tb0  1  0.350839  0.350839  0.349353  1
  Tb  Tb1  1  0.350839  0.350839  0.948968  1
  Tb  Tb2  1  0.352741  0.946198  0.350530  1
  Tb  Tb3  1  0.946198  0.352741  0.350530  1
  Tb  Tb4  1  0.810963  0.189563  0.189514  1
  Tb  Tb5  1  0.189563  0.810963  0.809960  1
  Tb  Tb6  1  0.189563  0.810963  0.189514  1
  Tb  Tb7  1  0.810963  0.189563  0.809960  1
  Y  Y8  1  0.192347  0.192347  0.807653  1
  Y  Y9  1  0.812103  0.812103  0.187897  1
  Y  Y10  1  0.937156  0.564869  0.564657  1
  Y  Y11  1  0.564869  0.937156  0.933319  1
  Y  Y12  1  0.564869  0.937156  0.564657  1
  Y  Y13  1  0.937156  0.564869  0.933319  1
  Y  Y14  1  0.566298  0.566298  0.933702  1
  Y  Y15  1  0.937103  0.937103  0.562897  1
  Mg  Mg16  1  0.576131  0.576131  0.580804  1
  Mg  Mg17  1  0.576131  0.576131  0.266933  1
  Cd  Cd18  1  0.581632  0.253436  0.582466  1
  Cd  Cd19  1  0.253436  0.581632  0.582466  1
  Pt  Pt20  1  0.142742  0.142742  0.144744  1
  Pt  Pt21  1  0.142742  0.142742  0.569771  1
  Pt  Pt22  1  0.142245  0.571371  0.143192  1
  Pt  Pt23  1  0.571371  0.142245  0.143192  1
