# generated using pymatgen
data_Ba6CdIn(BO3)6
_symmetry_space_group_name_H-M   'P 1'
_cell_length_a   8.14261313
_cell_length_b   8.14261195
_cell_length_c   8.14261225
_cell_angle_alpha   105.61014136
_cell_angle_beta   105.61014192
_cell_angle_gamma   105.61014872
_symmetry_Int_Tables_number   1
_chemical_formula_structural   Ba6CdIn(BO3)6
_chemical_formula_sum   'Ba6 Cd1 In1 B6 O18'
_cell_volume   465.60740651
_cell_formula_units_Z   1
loop_
 _symmetry_equiv_pos_site_id
 _symmetry_equiv_pos_as_xyz
  1  'x, y, z'
loop_
 _atom_site_type_symbol
 _atom_site_label
 _atom_site_symmetry_multiplicity
 _atom_site_fract_x
 _atom_site_fract_y
 _atom_site_fract_z
 _atom_site_occupancy
  Ba  Ba0  1  0.767799  0.666542  0.151970  1
  Ba  Ba1  1  0.333459  0.848030  0.232202  1
  Ba  Ba2  1  0.848030  0.232203  0.333458  1
  Ba  Ba3  1  0.151970  0.767798  0.666543  1
  Ba  Ba4  1  0.666542  0.151970  0.767798  1
  Ba  Ba5  1  0.232202  0.333458  0.848031  1
  Cd  Cd6  1  0.000000  0.000000  0.000000  1
  In  In7  1  0.500000  0.500000  0.500000  1
  B  B8  1  0.457423  0.212003  0.132233  1
  B  B9  1  0.132233  0.457423  0.212003  1
  B  B10  1  0.212003  0.132233  0.457423  1
  B  B11  1  0.787997  0.867767  0.542578  1
  B  B12  1  0.867768  0.542578  0.787997  1
  B  B13  1  0.542578  0.787997  0.867767  1
  O  O14  1  0.296386  0.070151  0.004884  1
  O  O15  1  0.575144  0.309969  0.068384  1
  O  O16  1  0.004884  0.296386  0.070151  1
  O  O17  1  0.319853  0.507224  0.241918  1
  O  O18  1  0.070151  0.004883  0.296386  1
  O  O19  1  0.068383  0.575144  0.309969  1
  O  O20  1  0.507224  0.241918  0.319853  1
  O  O21  1  0.690030  0.931616  0.424856  1
  O  O22  1  0.758082  0.680147  0.492777  1
  O  O23  1  0.241918  0.319854  0.507224  1
  O  O24  1  0.309969  0.068383  0.575144  1
  O  O25  1  0.492777  0.758082  0.680147  1
  O  O26  1  0.931616  0.424855  0.690030  1
  O  O27  1  0.929848  0.995116  0.703613  1
  O  O28  1  0.680147  0.492777  0.758082  1
  O  O29  1  0.995115  0.703614  0.929849  1
  O  O30  1  0.424855  0.690030  0.931616  1
  O  O31  1  0.703614  0.929849  0.995116  1
