# generated using pymatgen
data_Th10Si16Ru
_symmetry_space_group_name_H-M   'P 1'
_cell_length_a   11.37048478
_cell_length_b   11.43088362
_cell_length_c   11.37048629
_cell_angle_alpha   143.21970914
_cell_angle_beta   137.16726468
_cell_angle_gamma   57.60942380
_symmetry_Int_Tables_number   1
_chemical_formula_structural   Th10Si16Ru
_chemical_formula_sum   'Th10 Si16 Ru1'
_cell_volume   596.72493990
_cell_formula_units_Z   1
loop_
 _symmetry_equiv_pos_site_id
 _symmetry_equiv_pos_as_xyz
  1  'x, y, z'
loop_
 _atom_site_type_symbol
 _atom_site_label
 _atom_site_symmetry_multiplicity
 _atom_site_fract_x
 _atom_site_fract_y
 _atom_site_fract_z
 _atom_site_occupancy
  Th  Th0  1  0.051851  0.565487  0.012631  1
  Th  Th1  1  0.351004  0.368668  0.519080  1
  Th  Th2  1  0.148995  0.165905  0.518310  1
  Th  Th3  1  0.457135  0.964233  0.021853  1
  Th  Th4  1  0.647596  0.165905  0.016911  1
  Th  Th5  1  0.942379  0.964233  0.507096  1
  Th  Th6  1  0.849588  0.368668  0.017664  1
  Th  Th7  1  0.552856  0.565487  0.513636  1
  Th  Th8  1  0.241444  0.761165  0.003526  1
  Th  Th9  1  0.757639  0.761165  0.519721  1
  Si  Si10  1  0.109486  0.053723  0.944236  1
  Si  Si11  1  0.799409  0.215999  0.416590  1
  Si  Si12  1  0.300117  0.896440  0.596322  1
  Si  Si13  1  0.400307  0.503112  0.102805  1
  Si  Si14  1  0.892950  0.843355  0.950406  1
  Si  Si15  1  0.102873  0.702529  0.599655  1
  Si  Si16  1  0.200075  0.604292  0.404216  1
  Si  Si17  1  0.698025  0.292574  0.594550  1
  Si  Si18  1  0.001005  0.435272  0.434267  1
  Si  Si19  1  0.703253  0.647124  0.943871  1
  Si  Si20  1  0.597936  0.699304  0.101367  1
  Si  Si21  1  0.001850  0.091925  0.090075  1
  Si  Si22  1  0.499363  0.407283  0.907920  1
  Si  Si23  1  0.295093  0.244276  0.949183  1
  Si  Si24  1  0.591291  0.038575  0.447282  1
  Si  Si25  1  0.407589  0.856017  0.448428  1
  Ru  Ru26  1  0.898891  0.506206  0.607316  1
