# generated using pymatgen
data_KTa2Cl11
_symmetry_space_group_name_H-M   'P 1'
_cell_length_a   7.24392917
_cell_length_b   7.30467477
_cell_length_c   17.82170565
_cell_angle_alpha   79.59317544
_cell_angle_beta   79.46129517
_cell_angle_gamma   88.66667252
_symmetry_Int_Tables_number   1
_chemical_formula_structural   KTa2Cl11
_chemical_formula_sum   'K2 Ta4 Cl22'
_cell_volume   911.82238855
_cell_formula_units_Z   2
loop_
 _symmetry_equiv_pos_site_id
 _symmetry_equiv_pos_as_xyz
  1  'x, y, z'
loop_
 _atom_site_type_symbol
 _atom_site_label
 _atom_site_symmetry_multiplicity
 _atom_site_fract_x
 _atom_site_fract_y
 _atom_site_fract_z
 _atom_site_occupancy
  K  K0  1  0.748887  0.752496  0.504052  1
  K  K1  1  0.251113  0.247504  0.495948  1
  Ta  Ta2  1  0.319214  0.818373  0.349717  1
  Ta  Ta3  1  0.680786  0.181627  0.650283  1
  Ta  Ta4  1  0.835563  0.333093  0.085685  1
  Ta  Ta5  1  0.164437  0.666907  0.914315  1
  Cl  Cl6  1  0.251374  0.780530  0.492729  1
  Cl  Cl7  1  0.748626  0.219470  0.507271  1
  Cl  Cl8  1  0.571245  0.015374  0.352676  1
  Cl  Cl9  1  0.428755  0.984626  0.647324  1
  Cl  Cl10  1  0.520643  0.557376  0.365507  1
  Cl  Cl11  1  0.479357  0.442624  0.634493  1
  Cl  Cl12  1  0.380573  0.852864  0.217031  1
  Cl  Cl13  1  0.619427  0.147136  0.782969  1
  Cl  Cl14  1  0.062487  0.609291  0.363779  1
  Cl  Cl15  1  0.937513  0.390709  0.636221  1
  Cl  Cl16  1  0.111508  0.072034  0.348442  1
  Cl  Cl17  1  0.888492  0.927966  0.651558  1
  Cl  Cl18  1  0.897095  0.042730  0.146304  1
  Cl  Cl19  1  0.102905  0.957270  0.853696  1
  Cl  Cl20  1  0.539549  0.380427  0.147954  1
  Cl  Cl21  1  0.460451  0.619573  0.852046  1
  Cl  Cl22  1  0.730626  0.225485  0.985649  1
  Cl  Cl23  1  0.269374  0.774515  0.014351  1
  Cl  Cl24  1  0.977157  0.480221  0.165960  1
  Cl  Cl25  1  0.022843  0.519779  0.834040  1
  Cl  Cl26  1  0.163714  0.343564  0.999582  1
  Cl  Cl27  1  0.836286  0.656436  0.000418  1
