# generated using pymatgen
data_Ir5Rh4
_symmetry_space_group_name_H-M   'P 1'
_cell_length_a   6.11210273
_cell_length_b   6.11210326
_cell_length_c   6.11210256
_cell_angle_alpha   95.71212760
_cell_angle_beta   95.71213434
_cell_angle_gamma   143.21988825
_symmetry_Int_Tables_number   1
_chemical_formula_structural   Ir5Rh4
_chemical_formula_sum   'Ir5 Rh4'
_cell_volume   129.73250860
_cell_formula_units_Z   1
loop_
 _symmetry_equiv_pos_site_id
 _symmetry_equiv_pos_as_xyz
  1  'x, y, z'
loop_
 _atom_site_type_symbol
 _atom_site_label
 _atom_site_symmetry_multiplicity
 _atom_site_fract_x
 _atom_site_fract_y
 _atom_site_fract_z
 _atom_site_occupancy
  Ir  Ir0  1  0.000000  0.000000  0.000000  1
  Ir  Ir1  1  0.666487  0.333512  0.000000  1
  Ir  Ir2  1  0.333512  0.666487  0.000000  1
  Ir  Ir3  1  0.666487  0.666487  0.332976  1
  Ir  Ir4  1  0.333513  0.333513  0.667025  1
  Rh  Rh5  1  0.330078  0.000000  0.330078  1
  Rh  Rh6  1  0.000000  0.330078  0.330078  1
  Rh  Rh7  1  0.669922  0.000000  0.669922  1
  Rh  Rh8  1  0.000000  0.669922  0.669922  1
