# generated using pymatgen
data_TbBi5(SbO7)2
_symmetry_space_group_name_H-M   'P 1'
_cell_length_a   6.59537351
_cell_length_b   6.92186467
_cell_length_c   7.68328838
_cell_angle_alpha   106.26939127
_cell_angle_beta   89.59712025
_cell_angle_gamma   101.35339735
_symmetry_Int_Tables_number   1
_chemical_formula_structural   TbBi5(SbO7)2
_chemical_formula_sum   'Tb1 Bi5 Sb2 O14'
_cell_volume   329.69282227
_cell_formula_units_Z   1
loop_
 _symmetry_equiv_pos_site_id
 _symmetry_equiv_pos_as_xyz
  1  'x, y, z'
loop_
 _atom_site_type_symbol
 _atom_site_label
 _atom_site_symmetry_multiplicity
 _atom_site_fract_x
 _atom_site_fract_y
 _atom_site_fract_z
 _atom_site_occupancy
  Tb  Tb0  1  0.534336  0.003981  0.747973  1
  Bi  Bi1  1  0.472068  0.993649  0.255446  1
  Bi  Bi2  1  0.269008  0.506581  0.877455  1
  Bi  Bi3  1  0.745031  0.486838  0.123704  1
  Bi  Bi4  1  0.741971  0.512903  0.627845  1
  Bi  Bi5  1  0.266004  0.487241  0.380253  1
  Sb  Sb6  1  0.000177  0.000061  0.499939  1
  Sb  Sb7  1  0.998717  0.001741  0.997213  1
  O  O8  1  0.464534  0.628690  0.179995  1
  O  O9  1  0.543064  0.352249  0.818392  1
  O  O10  1  0.279499  0.953130  0.940910  1
  O  O11  1  0.710413  0.054050  0.038402  1
  O  O12  1  0.279963  0.941052  0.522046  1
  O  O13  1  0.716026  0.062289  0.487065  1
  O  O14  1  0.536179  0.343714  0.359603  1
  O  O15  1  0.471960  0.654587  0.644350  1
  O  O16  1  0.895672  0.696186  0.958828  1
  O  O17  1  0.094683  0.308886  0.037973  1
  O  O18  1  0.101995  0.306303  0.616267  1
  O  O19  1  0.899753  0.694311  0.387011  1
  O  O20  1  0.892345  0.940349  0.733027  1
  O  O21  1  0.086602  0.071208  0.266301  1
