# generated using pymatgen
data_Th2Ni15As2H3
_symmetry_space_group_name_H-M   'P 1'
_cell_length_a   6.37081697
_cell_length_b   6.34746051
_cell_length_c   6.37081671
_cell_angle_alpha   83.89730574
_cell_angle_beta   84.87724431
_cell_angle_gamma   83.89729474
_symmetry_Int_Tables_number   1
_chemical_formula_structural   Th2Ni15As2H3
_chemical_formula_sum   'Th2 Ni15 As2 H3'
_cell_volume   253.92098595
_cell_formula_units_Z   1
loop_
 _symmetry_equiv_pos_site_id
 _symmetry_equiv_pos_as_xyz
  1  'x, y, z'
loop_
 _atom_site_type_symbol
 _atom_site_label
 _atom_site_symmetry_multiplicity
 _atom_site_fract_x
 _atom_site_fract_y
 _atom_site_fract_z
 _atom_site_occupancy
  Th  Th0  1  0.660887  0.645793  0.660887  1
  Th  Th1  1  0.339113  0.354207  0.339113  1
  Ni  Ni2  1  0.000000  0.500000  0.000000  1
  Ni  Ni3  1  0.709958  0.289368  0.001644  1
  Ni  Ni4  1  0.998356  0.710632  0.290042  1
  Ni  Ni5  1  0.294630  0.000000  0.705370  1
  Ni  Ni6  1  0.001644  0.289368  0.709958  1
  Ni  Ni7  1  0.705370  0.000000  0.294630  1
  Ni  Ni8  1  0.290042  0.710632  0.998356  1
  Ni  Ni9  1  0.341891  0.347381  0.850562  1
  Ni  Ni10  1  0.850562  0.347381  0.341891  1
  Ni  Ni11  1  0.344107  0.855568  0.344107  1
  Ni  Ni12  1  0.658109  0.652619  0.149438  1
  Ni  Ni13  1  0.149438  0.652619  0.658109  1
  Ni  Ni14  1  0.655893  0.144432  0.655893  1
  Ni  Ni15  1  0.904558  0.891312  0.904558  1
  Ni  Ni16  1  0.095442  0.108688  0.095442  1
  As  As17  1  0.000000  0.000000  0.500000  1
  As  As18  1  0.500000  0.000000  0.000000  1
  H  H19  1  0.500000  0.500000  0.000000  1
  H  H20  1  0.000000  0.500000  0.500000  1
  H  H21  1  0.500000  0.000000  0.500000  1
