# generated using pymatgen
data_Dy6Ho2Tc3B24Ru
_symmetry_space_group_name_H-M   'P 1'
_cell_length_a   3.67936600
_cell_length_b   9.15213548
_cell_length_c   11.53850404
_cell_angle_alpha   89.92684455
_cell_angle_beta   90.00000000
_cell_angle_gamma   90.00000000
_symmetry_Int_Tables_number   1
_chemical_formula_structural   Dy6Ho2Tc3B24Ru
_chemical_formula_sum   'Dy6 Ho2 Tc3 B24 Ru1'
_cell_volume   388.54791603
_cell_formula_units_Z   1
loop_
 _symmetry_equiv_pos_site_id
 _symmetry_equiv_pos_as_xyz
  1  'x, y, z'
loop_
 _atom_site_type_symbol
 _atom_site_label
 _atom_site_symmetry_multiplicity
 _atom_site_fract_x
 _atom_site_fract_y
 _atom_site_fract_z
 _atom_site_occupancy
  Dy  Dy0  1  0.000000  0.323763  0.413928  1
  Dy  Dy1  1  0.000000  0.675011  0.584081  1
  Dy  Dy2  1  0.000000  0.823026  0.087131  1
  Dy  Dy3  1  0.000000  0.178045  0.914627  1
  Dy  Dy4  1  0.000000  0.942487  0.370071  1
  Dy  Dy5  1  0.000000  0.057843  0.630911  1
  Ho  Ho6  1  0.000000  0.442891  0.130101  1
  Ho  Ho7  1  0.000000  0.558045  0.869136  1
  Tc  Tc8  1  0.000000  0.637909  0.320211  1
  Tc  Tc9  1  0.000000  0.362200  0.680270  1
  Tc  Tc10  1  0.000000  0.138128  0.178127  1
  B  B11  1  0.500000  0.552826  0.432638  1
  B  B12  1  0.500000  0.446808  0.566952  1
  B  B13  1  0.500000  0.053173  0.066843  1
  B  B14  1  0.500000  0.945999  0.932819  1
  B  B15  1  0.500000  0.747955  0.418476  1
  B  B16  1  0.500000  0.251336  0.581658  1
  B  B17  1  0.500000  0.249286  0.081324  1
  B  B18  1  0.500000  0.751362  0.918344  1
  B  B19  1  0.500000  0.791218  0.265338  1
  B  B20  1  0.500000  0.209027  0.735345  1
  B  B21  1  0.500000  0.291717  0.234499  1
  B  B22  1  0.500000  0.709261  0.765379  1
  B  B23  1  0.500000  0.630599  0.185370  1
  B  B24  1  0.500000  0.369546  0.815109  1
  B  B25  1  0.500000  0.130629  0.313860  1
  B  B26  1  0.500000  0.868711  0.685969  1
  B  B27  1  0.500000  0.982036  0.211591  1
  B  B28  1  0.500000  0.016461  0.788625  1
  B  B29  1  0.500000  0.482004  0.287778  1
  B  B30  1  0.500000  0.517841  0.711768  1
  B  B31  1  0.500000  0.601561  0.027937  1
  B  B32  1  0.500000  0.400139  0.971720  1
  B  B33  1  0.500000  0.101927  0.471997  1
  B  B34  1  0.500000  0.897753  0.528874  1
  Ru  Ru35  1  0.000000  0.861480  0.821190  1
