# generated using pymatgen
data_Ho11Tm(OsPd)2
_symmetry_space_group_name_H-M   'P 1'
_cell_length_a   6.38707100
_cell_length_b   7.25297942
_cell_length_c   9.20781100
_cell_angle_alpha   90.00000000
_cell_angle_beta   90.00000000
_cell_angle_gamma   90.47325580
_symmetry_Int_Tables_number   1
_chemical_formula_structural   Ho11Tm(OsPd)2
_chemical_formula_sum   'Ho11 Tm1 Os2 Pd2'
_cell_volume   426.54000543
_cell_formula_units_Z   1
loop_
 _symmetry_equiv_pos_site_id
 _symmetry_equiv_pos_as_xyz
  1  'x, y, z'
loop_
 _atom_site_type_symbol
 _atom_site_label
 _atom_site_symmetry_multiplicity
 _atom_site_fract_x
 _atom_site_fract_y
 _atom_site_fract_z
 _atom_site_occupancy
  Ho  Ho0  1  0.622295  0.042367  0.250000  1
  Ho  Ho1  1  0.377719  0.957707  0.750000  1
  Ho  Ho2  1  0.123300  0.476706  0.750000  1
  Ho  Ho3  1  0.177805  0.184688  0.061279  1
  Ho  Ho4  1  0.822226  0.815187  0.938925  1
  Ho  Ho5  1  0.664198  0.325062  0.942111  1
  Ho  Ho6  1  0.822226  0.815187  0.561075  1
  Ho  Ho7  1  0.335579  0.675267  0.058310  1
  Ho  Ho8  1  0.177805  0.184688  0.438721  1
  Ho  Ho9  1  0.335579  0.675267  0.441690  1
  Ho  Ho10  1  0.664198  0.325062  0.557889  1
  Tm  Tm11  1  0.876765  0.522955  0.250000  1
  Os  Os12  1  0.458542  0.387020  0.250000  1
  Os  Os13  1  0.542276  0.613506  0.750000  1
  Pd  Pd14  1  0.952686  0.113376  0.750000  1
  Pd  Pd15  1  0.046800  0.885953  0.250000  1
