# generated using pymatgen
data_Er12Ga2Ni3Os
_symmetry_space_group_name_H-M   'P 1'
_cell_length_a   8.25146439
_cell_length_b   8.25146443
_cell_length_c   8.25146483
_cell_angle_alpha   112.59553610
_cell_angle_beta   109.64459090
_cell_angle_gamma   106.23585491
_symmetry_Int_Tables_number   1
_chemical_formula_structural   Er12Ga2Ni3Os
_chemical_formula_sum   'Er12 Ga2 Ni3 Os1'
_cell_volume   431.15420176
_cell_formula_units_Z   1
loop_
 _symmetry_equiv_pos_site_id
 _symmetry_equiv_pos_as_xyz
  1  'x, y, z'
loop_
 _atom_site_type_symbol
 _atom_site_label
 _atom_site_symmetry_multiplicity
 _atom_site_fract_x
 _atom_site_fract_y
 _atom_site_fract_z
 _atom_site_occupancy
  Er  Er0  1  0.054353  0.747411  0.306943  1
  Er  Er1  1  0.960864  0.266118  0.694747  1
  Er  Er2  1  0.559532  0.252589  0.306943  1
  Er  Er3  1  0.428629  0.733882  0.694747  1
  Er  Er4  1  0.674865  0.863763  0.192961  1
  Er  Er5  1  0.329199  0.518096  0.192961  1
  Er  Er6  1  0.329199  0.136237  0.811103  1
  Er  Er7  1  0.674865  0.481904  0.811103  1
  Er  Er8  1  0.174346  0.222469  0.396817  1
  Er  Er9  1  0.814659  0.222145  0.036804  1
  Er  Er10  1  0.174346  0.777531  0.951877  1
  Er  Er11  1  0.814659  0.777855  0.592513  1
  Ga  Ga12  1  0.987821  0.500000  0.487821  1
  Ga  Ga13  1  0.505488  0.000000  0.505488  1
  Ni  Ni14  1  0.348530  0.500000  0.848530  1
  Ni  Ni15  1  0.881788  0.881393  0.000395  1
  Ni  Ni16  1  0.119002  0.118607  0.000395  1
  Os  Os17  1  0.667854  0.500000  0.167854  1
