# generated using pymatgen
data_Lu10Cd3Co
_symmetry_space_group_name_H-M   'P 1'
_cell_length_a   9.40112600
_cell_length_b   9.40112555
_cell_length_c   9.47760300
_cell_angle_alpha   90.00000000
_cell_angle_beta   90.00000000
_cell_angle_gamma   119.99999454
_symmetry_Int_Tables_number   1
_chemical_formula_structural   Lu10Cd3Co
_chemical_formula_sum   'Lu20 Cd6 Co2'
_cell_volume   725.41894707
_cell_formula_units_Z   2
loop_
 _symmetry_equiv_pos_site_id
 _symmetry_equiv_pos_as_xyz
  1  'x, y, z'
loop_
 _atom_site_type_symbol
 _atom_site_label
 _atom_site_symmetry_multiplicity
 _atom_site_fract_x
 _atom_site_fract_y
 _atom_site_fract_z
 _atom_site_occupancy
  Lu  Lu0  1  0.000000  0.000000  0.500000  1
  Lu  Lu1  1  0.000000  0.000000  0.000000  1
  Lu  Lu2  1  0.542455  0.457545  0.250000  1
  Lu  Lu3  1  0.542455  0.084909  0.250000  1
  Lu  Lu4  1  0.915091  0.457545  0.250000  1
  Lu  Lu5  1  0.457545  0.542455  0.750000  1
  Lu  Lu6  1  0.457545  0.915091  0.750000  1
  Lu  Lu7  1  0.084909  0.542455  0.750000  1
  Lu  Lu8  1  0.211720  0.788280  0.435595  1
  Lu  Lu9  1  0.211720  0.423441  0.435595  1
  Lu  Lu10  1  0.576559  0.788280  0.435595  1
  Lu  Lu11  1  0.788280  0.211720  0.564405  1
  Lu  Lu12  1  0.788280  0.576559  0.564405  1
  Lu  Lu13  1  0.423441  0.211720  0.564405  1
  Lu  Lu14  1  0.788280  0.211720  0.935595  1
  Lu  Lu15  1  0.788280  0.576559  0.935595  1
  Lu  Lu16  1  0.423441  0.211720  0.935595  1
  Lu  Lu17  1  0.211720  0.788280  0.064405  1
  Lu  Lu18  1  0.211720  0.423441  0.064405  1
  Lu  Lu19  1  0.576559  0.788280  0.064405  1
  Cd  Cd20  1  0.884692  0.115308  0.250000  1
  Cd  Cd21  1  0.884692  0.769383  0.250000  1
  Cd  Cd22  1  0.230617  0.115308  0.250000  1
  Cd  Cd23  1  0.115308  0.884692  0.750000  1
  Cd  Cd24  1  0.115308  0.230617  0.750000  1
  Cd  Cd25  1  0.769383  0.884692  0.750000  1
  Co  Co26  1  0.333333  0.666667  0.250000  1
  Co  Co27  1  0.666667  0.333333  0.750000  1
