# generated using pymatgen
data_Y8Ho2FeHg3
_symmetry_space_group_name_H-M   'P 1'
_cell_length_a   9.61474699
_cell_length_b   9.61474721
_cell_length_c   9.65815500
_cell_angle_alpha   90.09047195
_cell_angle_beta   89.90952805
_cell_angle_gamma   119.99676853
_symmetry_Int_Tables_number   1
_chemical_formula_structural   Y8Ho2FeHg3
_chemical_formula_sum   'Y16 Ho4 Fe2 Hg6'
_cell_volume   773.23935912
_cell_formula_units_Z   2
loop_
 _symmetry_equiv_pos_site_id
 _symmetry_equiv_pos_as_xyz
  1  'x, y, z'
loop_
 _atom_site_type_symbol
 _atom_site_label
 _atom_site_symmetry_multiplicity
 _atom_site_fract_x
 _atom_site_fract_y
 _atom_site_fract_z
 _atom_site_occupancy
  Y  Y0  1  0.999632  0.000368  0.499669  1
  Y  Y1  1  0.000044  0.999956  0.000072  1
  Y  Y2  1  0.541367  0.458633  0.250435  1
  Y  Y3  1  0.541689  0.083010  0.250861  1
  Y  Y4  1  0.916990  0.458311  0.250861  1
  Y  Y5  1  0.458006  0.541994  0.749207  1
  Y  Y6  1  0.458498  0.916632  0.749039  1
  Y  Y7  1  0.083368  0.541502  0.749039  1
  Y  Y8  1  0.788393  0.576365  0.563717  1
  Y  Y9  1  0.423635  0.211607  0.563717  1
  Y  Y10  1  0.788214  0.211786  0.935488  1
  Y  Y11  1  0.788031  0.575988  0.935768  1
  Y  Y12  1  0.424012  0.211969  0.935768  1
  Y  Y13  1  0.211974  0.788026  0.064671  1
  Y  Y14  1  0.212007  0.424019  0.064674  1
  Y  Y15  1  0.575981  0.787993  0.064674  1
  Ho  Ho16  1  0.212753  0.787247  0.435417  1
  Ho  Ho17  1  0.212307  0.425408  0.435557  1
  Ho  Ho18  1  0.574592  0.787693  0.435557  1
  Ho  Ho19  1  0.787602  0.212398  0.564476  1
  Fe  Fe20  1  0.333370  0.666630  0.252195  1
  Fe  Fe21  1  0.667461  0.332539  0.749178  1
  Hg  Hg22  1  0.881784  0.118216  0.250041  1
  Hg  Hg23  1  0.881821  0.763542  0.249885  1
  Hg  Hg24  1  0.236458  0.118179  0.249885  1
  Hg  Hg25  1  0.118182  0.881818  0.749895  1
  Hg  Hg26  1  0.118225  0.236395  0.750126  1
  Hg  Hg27  1  0.763605  0.881775  0.750126  1
