# generated using pymatgen
data_Gd2Sc2CrFeB12
_symmetry_space_group_name_H-M   'P 1'
_cell_length_a   3.46289600
_cell_length_b   8.98443061
_cell_length_c   11.37506682
_cell_angle_alpha   89.88404481
_cell_angle_beta   90.00000000
_cell_angle_gamma   90.00000000
_symmetry_Int_Tables_number   1
_chemical_formula_structural   Gd2Sc2CrFeB12
_chemical_formula_sum   'Gd4 Sc4 Cr2 Fe2 B24'
_cell_volume   353.90204672
_cell_formula_units_Z   2
loop_
 _symmetry_equiv_pos_site_id
 _symmetry_equiv_pos_as_xyz
  1  'x, y, z'
loop_
 _atom_site_type_symbol
 _atom_site_label
 _atom_site_symmetry_multiplicity
 _atom_site_fract_x
 _atom_site_fract_y
 _atom_site_fract_z
 _atom_site_occupancy
  Gd  Gd0  1  0.000000  0.822509  0.084831  1
  Gd  Gd1  1  0.000000  0.177491  0.915169  1
  Gd  Gd2  1  0.000000  0.321625  0.414425  1
  Gd  Gd3  1  0.000000  0.678375  0.585575  1
  Sc  Sc4  1  0.000000  0.443418  0.129801  1
  Sc  Sc5  1  0.000000  0.556582  0.870199  1
  Sc  Sc6  1  0.000000  0.944473  0.370082  1
  Sc  Sc7  1  0.000000  0.055527  0.629918  1
  Cr  Cr8  1  0.000000  0.641839  0.316967  1
  Cr  Cr9  1  0.000000  0.358161  0.683033  1
  Fe  Fe10  1  0.000000  0.141422  0.182277  1
  Fe  Fe11  1  0.000000  0.858578  0.817723  1
  B  B12  1  0.500000  0.056957  0.070034  1
  B  B13  1  0.500000  0.943043  0.929966  1
  B  B14  1  0.500000  0.555181  0.431438  1
  B  B15  1  0.500000  0.444819  0.568562  1
  B  B16  1  0.500000  0.251605  0.084379  1
  B  B17  1  0.500000  0.748395  0.915621  1
  B  B18  1  0.500000  0.752988  0.417036  1
  B  B19  1  0.500000  0.247012  0.582964  1
  B  B20  1  0.500000  0.291981  0.234448  1
  B  B21  1  0.500000  0.708019  0.765552  1
  B  B22  1  0.500000  0.795241  0.264557  1
  B  B23  1  0.500000  0.204759  0.735443  1
  B  B24  1  0.500000  0.129264  0.315246  1
  B  B25  1  0.500000  0.870736  0.684754  1
  B  B26  1  0.500000  0.629579  0.183145  1
  B  B27  1  0.500000  0.370421  0.816855  1
  B  B28  1  0.500000  0.482216  0.285730  1
  B  B29  1  0.500000  0.517784  0.714270  1
  B  B30  1  0.500000  0.985430  0.213373  1
  B  B31  1  0.500000  0.014570  0.786627  1
  B  B32  1  0.500000  0.096862  0.473448  1
  B  B33  1  0.500000  0.903138  0.526552  1
  B  B34  1  0.500000  0.597340  0.025626  1
  B  B35  1  0.500000  0.402660  0.974374  1
