# generated using pymatgen
data_Tb4In3Au10
_symmetry_space_group_name_H-M   'P 1'
_cell_length_a   8.60538389
_cell_length_b   8.60538442
_cell_length_c   10.27959500
_cell_angle_alpha   90.00000000
_cell_angle_beta   90.00000000
_cell_angle_gamma   108.11145779
_symmetry_Int_Tables_number   1
_chemical_formula_structural   Tb4In3Au10
_chemical_formula_sum   'Tb8 In6 Au20'
_cell_volume   723.51483941
_cell_formula_units_Z   2
loop_
 _symmetry_equiv_pos_site_id
 _symmetry_equiv_pos_as_xyz
  1  'x, y, z'
loop_
 _atom_site_type_symbol
 _atom_site_label
 _atom_site_symmetry_multiplicity
 _atom_site_fract_x
 _atom_site_fract_y
 _atom_site_fract_z
 _atom_site_occupancy
  Tb  Tb0  1  0.698012  0.301988  0.000000  1
  Tb  Tb1  1  0.198012  0.801988  0.500000  1
  Tb  Tb2  1  0.803551  0.803551  0.299729  1
  Tb  Tb3  1  0.303551  0.303551  0.200271  1
  Tb  Tb4  1  0.801988  0.198012  0.500000  1
  Tb  Tb5  1  0.301988  0.698012  0.000000  1
  Tb  Tb6  1  0.696449  0.696449  0.799729  1
  Tb  Tb7  1  0.196449  0.196449  0.700271  1
  In  In8  1  0.519202  0.019202  0.250000  1
  In  In9  1  0.980798  0.480798  0.750000  1
  In  In10  1  0.000000  0.000000  0.000000  1
  In  In11  1  0.019202  0.519202  0.250000  1
  In  In12  1  0.480798  0.980798  0.750000  1
  In  In13  1  0.500000  0.500000  0.500000  1
  Au  Au14  1  0.152202  0.431337  0.482596  1
  Au  Au15  1  0.902760  0.902760  0.596209  1
  Au  Au16  1  0.568663  0.847798  0.517404  1
  Au  Au17  1  0.885747  0.167318  0.210218  1
  Au  Au18  1  0.385747  0.667318  0.289782  1
  Au  Au19  1  0.667318  0.385747  0.289782  1
  Au  Au20  1  0.402760  0.402760  0.903791  1
  Au  Au21  1  0.931337  0.652202  0.017404  1
  Au  Au22  1  0.332682  0.614253  0.710218  1
  Au  Au23  1  0.347798  0.068663  0.982596  1
  Au  Au24  1  0.597240  0.597240  0.096209  1
  Au  Au25  1  0.652202  0.931337  0.017404  1
  Au  Au26  1  0.097240  0.097240  0.403791  1
  Au  Au27  1  0.614253  0.332682  0.710218  1
  Au  Au28  1  0.114253  0.832682  0.789782  1
  Au  Au29  1  0.068663  0.347798  0.982596  1
  Au  Au30  1  0.847798  0.568663  0.517404  1
  Au  Au31  1  0.167318  0.885747  0.210218  1
  Au  Au32  1  0.431337  0.152202  0.482596  1
  Au  Au33  1  0.832682  0.114253  0.789782  1
