# generated using pymatgen
data_Rb4Zr6GeI18
_symmetry_space_group_name_H-M   'P 1'
_cell_length_a   11.43233509
_cell_length_b   11.67545416
_cell_length_c   11.79682242
_cell_angle_alpha   118.53779667
_cell_angle_beta   100.17422498
_cell_angle_gamma   103.96551352
_symmetry_Int_Tables_number   1
_chemical_formula_structural   Rb4Zr6GeI18
_chemical_formula_sum   'Rb4 Zr6 Ge1 I18'
_cell_volume   1261.25141419
_cell_formula_units_Z   1
loop_
 _symmetry_equiv_pos_site_id
 _symmetry_equiv_pos_as_xyz
  1  'x, y, z'
loop_
 _atom_site_type_symbol
 _atom_site_label
 _atom_site_symmetry_multiplicity
 _atom_site_fract_x
 _atom_site_fract_y
 _atom_site_fract_z
 _atom_site_occupancy
  Rb  Rb0  1  0.652435  0.537656  0.227051  1
  Rb  Rb1  1  0.347565  0.462344  0.772949  1
  Rb  Rb2  1  0.687404  0.225854  0.564696  1
  Rb  Rb3  1  0.312596  0.774146  0.435304  1
  Zr  Zr4  1  0.150170  0.055762  0.228753  1
  Zr  Zr5  1  0.849830  0.944238  0.771247  1
  Zr  Zr6  1  0.862124  0.125293  0.131551  1
  Zr  Zr7  1  0.137876  0.874707  0.868449  1
  Zr  Zr8  1  0.145618  0.237733  0.045388  1
  Zr  Zr9  1  0.854382  0.762267  0.954612  1
  Ge  Ge10  1  0.000000  0.000000  0.000000  1
  I  I11  1  0.007834  0.405469  0.194793  1
  I  I12  1  0.992166  0.594531  0.805207  1
  I  I13  1  0.328240  0.330622  0.308785  1
  I  I14  1  0.671760  0.669378  0.691215  1
  I  I15  1  0.318613  0.517448  0.099172  1
  I  I16  1  0.681387  0.482552  0.900828  1
  I  I17  1  0.003802  0.797451  0.206518  1
  I  I18  1  0.996198  0.202549  0.793482  1
  I  I19  1  0.702846  0.271174  0.283809  1
  I  I20  1  0.297154  0.728826  0.716191  1
  I  I21  1  0.315778  0.126810  0.904655  1
  I  I22  1  0.684222  0.873190  0.095345  1
  I  I23  1  0.014727  0.202740  0.403908  1
  I  I24  1  0.985273  0.797260  0.596092  1
  I  I25  1  0.320067  0.924331  0.109475  1
  I  I26  1  0.679933  0.075669  0.890525  1
  I  I27  1  0.330076  0.120233  0.496969  1
  I  I28  1  0.669924  0.879767  0.503031  1
