# generated using pymatgen
data_Pa2Mn7P7Rh5
_symmetry_space_group_name_H-M   'P 1'
_cell_length_a   9.46826669
_cell_length_b   9.41398699
_cell_length_c   3.76409700
_cell_angle_alpha   90.00000000
_cell_angle_beta   90.00000000
_cell_angle_gamma   120.14656324
_symmetry_Int_Tables_number   1
_chemical_formula_structural   Pa2Mn7P7Rh5
_chemical_formula_sum   'Pa2 Mn7 P7 Rh5'
_cell_volume   290.12972225
_cell_formula_units_Z   1
loop_
 _symmetry_equiv_pos_site_id
 _symmetry_equiv_pos_as_xyz
  1  'x, y, z'
loop_
 _atom_site_type_symbol
 _atom_site_label
 _atom_site_symmetry_multiplicity
 _atom_site_fract_x
 _atom_site_fract_y
 _atom_site_fract_z
 _atom_site_occupancy
  Pa  Pa0  1  0.332407  0.656113  0.000000  1
  Pa  Pa1  1  0.003739  0.003991  0.500000  1
  Mn  Mn2  1  0.549250  0.061248  0.000000  1
  Mn  Mn3  1  0.937756  0.487034  0.000000  1
  Mn  Mn4  1  0.513750  0.452732  0.000000  1
  Mn  Mn5  1  0.279219  0.387167  0.500000  1
  Mn  Mn6  1  0.784473  0.228112  0.500000  1
  Mn  Mn7  1  0.770652  0.558246  0.500000  1
  Mn  Mn8  1  0.444208  0.218473  0.500000  1
  P  P9  1  0.772318  0.038056  0.000000  1
  P  P10  1  0.962218  0.734639  0.000000  1
  P  P11  1  0.266817  0.238906  0.000000  1
  P  P12  1  0.389653  0.941199  0.500000  1
  P  P13  1  0.069727  0.448215  0.500000  1
  P  P14  1  0.538844  0.598916  0.500000  1
  P  P15  1  0.665220  0.333710  0.000000  1
  Rh  Rh16  1  0.032676  0.267177  0.000000  1
  Rh  Rh17  1  0.737585  0.768524  0.000000  1
  Rh  Rh18  1  0.231675  0.973289  0.000000  1
  Rh  Rh19  1  0.606389  0.884854  0.500000  1
  Rh  Rh20  1  0.111422  0.719400  0.500000  1
