# generated using pymatgen
data_Tb2Tm3Ru2
_symmetry_space_group_name_H-M   'P 1'
_cell_length_a   6.31573176
_cell_length_b   7.23854107
_cell_length_c   8.41869333
_cell_angle_alpha   96.81016929
_cell_angle_beta   112.03060416
_cell_angle_gamma   90.00000088
_symmetry_Int_Tables_number   1
_chemical_formula_structural   Tb2Tm3Ru2
_chemical_formula_sum   'Tb4 Tm6 Ru4'
_cell_volume   353.84149136
_cell_formula_units_Z   2
loop_
 _symmetry_equiv_pos_site_id
 _symmetry_equiv_pos_as_xyz
  1  'x, y, z'
loop_
 _atom_site_type_symbol
 _atom_site_label
 _atom_site_symmetry_multiplicity
 _atom_site_fract_x
 _atom_site_fract_y
 _atom_site_fract_z
 _atom_site_occupancy
  Tb  Tb0  1  0.788144  0.083186  0.811211  1
  Tb  Tb1  1  0.976933  0.416814  0.188789  1
  Tb  Tb2  1  0.211856  0.916814  0.188789  1
  Tb  Tb3  1  0.023067  0.583186  0.811211  1
  Tm  Tm4  1  0.205130  0.184432  0.566177  1
  Tm  Tm5  1  0.638953  0.315568  0.433823  1
  Tm  Tm6  1  0.794870  0.815568  0.433823  1
  Tm  Tm7  1  0.361047  0.684432  0.566177  1
  Tm  Tm8  1  0.420928  0.250000  0.000000  1
  Tm  Tm9  1  0.579072  0.750000  0.000000  1
  Ru  Ru10  1  0.598907  0.424462  0.778032  1
  Ru  Ru11  1  0.820874  0.075538  0.221968  1
  Ru  Ru12  1  0.401093  0.575538  0.221968  1
  Ru  Ru13  1  0.179126  0.924462  0.778032  1
