# generated using pymatgen
data_Nd9Lu(Si2Sn)2
_symmetry_space_group_name_H-M   'P 1'
_cell_length_a   9.16659832
_cell_length_b   9.16659833
_cell_length_c   9.16659700
_cell_angle_alpha   128.98835290
_cell_angle_beta   128.98833686
_cell_angle_gamma   75.02931868
_symmetry_Int_Tables_number   1
_chemical_formula_structural   Nd9Lu(Si2Sn)2
_chemical_formula_sum   'Nd9 Lu1 Si4 Sn2'
_cell_volume   453.12684871
_cell_formula_units_Z   1
loop_
 _symmetry_equiv_pos_site_id
 _symmetry_equiv_pos_as_xyz
  1  'x, y, z'
loop_
 _atom_site_type_symbol
 _atom_site_label
 _atom_site_symmetry_multiplicity
 _atom_site_fract_x
 _atom_site_fract_y
 _atom_site_fract_z
 _atom_site_occupancy
  Nd  Nd0  1  0.536149  0.036251  0.850266  1
  Nd  Nd1  1  0.185986  0.685884  0.149734  1
  Nd  Nd2  1  0.036251  0.185986  0.500102  1
  Nd  Nd3  1  0.685884  0.536149  0.499898  1
  Nd  Nd4  1  0.463851  0.963749  0.149734  1
  Nd  Nd5  1  0.814014  0.314116  0.850266  1
  Nd  Nd6  1  0.963749  0.814014  0.499898  1
  Nd  Nd7  1  0.314116  0.463851  0.500102  1
  Nd  Nd8  1  0.000000  0.000000  0.000000  1
  Lu  Lu9  1  0.500000  0.500000  0.000000  1
  Si  Si10  1  0.877326  0.383153  0.260479  1
  Si  Si11  1  0.122674  0.616847  0.739521  1
  Si  Si12  1  0.383153  0.122674  0.505827  1
  Si  Si13  1  0.616847  0.877326  0.494173  1
  Sn  Sn14  1  0.251591  0.251591  0.000000  1
  Sn  Sn15  1  0.748409  0.748409  0.000000  1
