# generated using pymatgen
data_Yb5MoN5
_symmetry_space_group_name_H-M   'P 1'
_cell_length_a   6.83010439
_cell_length_b   6.83010360
_cell_length_c   8.81727364
_cell_angle_alpha   79.96301789
_cell_angle_beta   79.96301656
_cell_angle_gamma   59.51146165
_symmetry_Int_Tables_number   1
_chemical_formula_structural   Yb5MoN5
_chemical_formula_sum   'Yb10 Mo2 N10'
_cell_volume   347.23846199
_cell_formula_units_Z   2
loop_
 _symmetry_equiv_pos_site_id
 _symmetry_equiv_pos_as_xyz
  1  'x, y, z'
loop_
 _atom_site_type_symbol
 _atom_site_label
 _atom_site_symmetry_multiplicity
 _atom_site_fract_x
 _atom_site_fract_y
 _atom_site_fract_z
 _atom_site_occupancy
  Yb  Yb0  1  0.873527  0.349506  0.834703  1
  Yb  Yb1  1  0.871889  0.871889  0.828534  1
  Yb  Yb2  1  0.739042  0.739042  0.520583  1
  Yb  Yb3  1  0.757171  0.245997  0.505450  1
  Yb  Yb4  1  0.633756  0.135307  0.156551  1
  Yb  Yb5  1  0.349506  0.873527  0.834703  1
  Yb  Yb6  1  0.245997  0.757171  0.505450  1
  Yb  Yb7  1  0.246453  0.246453  0.491631  1
  Yb  Yb8  1  0.140933  0.140933  0.162313  1
  Yb  Yb9  1  0.135307  0.633756  0.156551  1
  Mo  Mo10  1  0.631049  0.631049  0.220377  1
  Mo  Mo11  1  0.368195  0.368195  0.776624  1
  N  N12  1  0.910279  0.469771  0.319691  1
  N  N13  1  0.998378  0.998378  0.013527  1
  N  N14  1  0.677828  0.677828  0.005384  1
  N  N15  1  0.530816  0.530816  0.692195  1
  N  N16  1  0.469771  0.910279  0.319691  1
  N  N17  1  0.532605  0.089667  0.682230  1
  N  N18  1  0.469839  0.469839  0.297817  1
  N  N19  1  0.324975  0.324975  0.993000  1
  N  N20  1  0.065302  0.065302  0.646571  1
  N  N21  1  0.089667  0.532605  0.682230  1
