# generated using pymatgen
data_V6Zn3GaN2
_symmetry_space_group_name_H-M   'P 1'
_cell_length_a   6.58554962
_cell_length_b   6.58700462
_cell_length_c   6.58585700
_cell_angle_alpha   90.00000000
_cell_angle_beta   90.00000000
_cell_angle_gamma   89.95014450
_symmetry_Int_Tables_number   1
_chemical_formula_structural   V6Zn3GaN2
_chemical_formula_sum   'V12 Zn6 Ga2 N4'
_cell_volume   285.68808439
_cell_formula_units_Z   2
loop_
 _symmetry_equiv_pos_site_id
 _symmetry_equiv_pos_as_xyz
  1  'x, y, z'
loop_
 _atom_site_type_symbol
 _atom_site_label
 _atom_site_symmetry_multiplicity
 _atom_site_fract_x
 _atom_site_fract_y
 _atom_site_fract_z
 _atom_site_occupancy
  V  V0  1  0.789451  0.961006  0.374729  1
  V  V1  1  0.710549  0.038994  0.874729  1
  V  V2  1  0.211070  0.461673  0.124519  1
  V  V3  1  0.288930  0.538327  0.624519  1
  V  V4  1  0.961815  0.374207  0.789123  1
  V  V5  1  0.039063  0.876020  0.710834  1
  V  V6  1  0.460937  0.123980  0.210834  1
  V  V7  1  0.538185  0.625793  0.289123  1
  V  V8  1  0.374266  0.789607  0.961975  1
  V  V9  1  0.875896  0.711389  0.039288  1
  V  V10  1  0.125734  0.210393  0.461975  1
  V  V11  1  0.624104  0.288611  0.539288  1
  Zn  Zn12  1  0.821608  0.322596  0.178067  1
  Zn  Zn13  1  0.678392  0.677404  0.678067  1
  Zn  Zn14  1  0.574657  0.430556  0.928692  1
  Zn  Zn15  1  0.431472  0.926149  0.571940  1
  Zn  Zn16  1  0.925343  0.569444  0.428692  1
  Zn  Zn17  1  0.068528  0.073851  0.071940  1
  Ga  Ga18  1  0.176712  0.822237  0.322929  1
  Ga  Ga19  1  0.323288  0.177763  0.822929  1
  N  N20  1  0.873544  0.125707  0.624461  1
  N  N21  1  0.626456  0.874293  0.124461  1
  N  N22  1  0.124493  0.625308  0.873444  1
  N  N23  1  0.375507  0.374692  0.373444  1
