# generated using pymatgen
data_Ca2MnFeF10
_symmetry_space_group_name_H-M   'P 1'
_cell_length_a   5.63758415
_cell_length_b   5.59212631
_cell_length_c   7.89946725
_cell_angle_alpha   69.89885877
_cell_angle_beta   68.64054363
_cell_angle_gamma   70.90877384
_symmetry_Int_Tables_number   1
_chemical_formula_structural   Ca2MnFeF10
_chemical_formula_sum   'Ca2 Mn1 Fe1 F10'
_cell_volume   211.92284339
_cell_formula_units_Z   1
loop_
 _symmetry_equiv_pos_site_id
 _symmetry_equiv_pos_as_xyz
  1  'x, y, z'
loop_
 _atom_site_type_symbol
 _atom_site_label
 _atom_site_symmetry_multiplicity
 _atom_site_fract_x
 _atom_site_fract_y
 _atom_site_fract_z
 _atom_site_occupancy
  Ca  Ca0  1  0.543570  0.457156  0.745574  1
  Ca  Ca1  1  0.456430  0.542844  0.254426  1
  Mn  Mn2  1  0.000000  0.000000  0.000000  1
  Fe  Fe3  1  0.000000  0.000000  0.500000  1
  F  F4  1  0.091300  0.909204  0.258836  1
  F  F5  1  0.908700  0.090796  0.741164  1
  F  F6  1  0.214891  0.249989  0.379366  1
  F  F7  1  0.757286  0.790784  0.116028  1
  F  F8  1  0.717189  0.303762  0.030067  1
  F  F9  1  0.692575  0.287328  0.464723  1
  F  F10  1  0.282811  0.696238  0.969933  1
  F  F11  1  0.307425  0.712672  0.535277  1
  F  F12  1  0.242714  0.209216  0.883972  1
  F  F13  1  0.785109  0.750011  0.620634  1
