# generated using pymatgen
data_Dy5Lu3P12Ir15Rh
_symmetry_space_group_name_H-M   'P 1'
_cell_length_a   12.93383324
_cell_length_b   12.92557078
_cell_length_c   3.98678800
_cell_angle_alpha   90.00000000
_cell_angle_beta   90.00000000
_cell_angle_gamma   119.91798786
_symmetry_Int_Tables_number   1
_chemical_formula_structural   Dy5Lu3P12Ir15Rh
_chemical_formula_sum   'Dy5 Lu3 P12 Ir15 Rh1'
_cell_volume   577.68231590
_cell_formula_units_Z   1
loop_
 _symmetry_equiv_pos_site_id
 _symmetry_equiv_pos_as_xyz
  1  'x, y, z'
loop_
 _atom_site_type_symbol
 _atom_site_label
 _atom_site_symmetry_multiplicity
 _atom_site_fract_x
 _atom_site_fract_y
 _atom_site_fract_z
 _atom_site_occupancy
  Dy  Dy0  1  0.333006  0.666151  0.500000  1
  Dy  Dy1  1  0.666589  0.333344  0.500000  1
  Dy  Dy2  1  0.000045  0.814254  0.000000  1
  Dy  Dy3  1  0.186057  0.186020  0.000000  1
  Dy  Dy4  1  0.814025  0.000031  0.000000  1
  Lu  Lu5  1  0.000119  0.446289  0.500000  1
  Lu  Lu6  1  0.553607  0.553702  0.500000  1
  Lu  Lu7  1  0.446154  0.999928  0.500000  1
  P  P8  1  0.999792  0.651402  0.500000  1
  P  P9  1  0.348432  0.348565  0.500000  1
  P  P10  1  0.651668  0.000396  0.500000  1
  P  P11  1  0.517285  0.688695  0.000000  1
  P  P12  1  0.311508  0.828393  0.000000  1
  P  P13  1  0.171263  0.483261  0.000000  1
  P  P14  1  0.483455  0.170979  0.000000  1
  P  P15  1  0.687900  0.516770  0.000000  1
  P  P16  1  0.828774  0.312058  0.000000  1
  P  P17  1  0.999981  0.176625  0.500000  1
  P  P18  1  0.823124  0.823299  0.500000  1
  P  P19  1  0.176598  0.000042  0.500000  1
  Ir  Ir20  1  0.133052  0.642814  0.000000  1
  Ir  Ir21  1  0.357061  0.490586  0.000000  1
  Ir  Ir22  1  0.490641  0.356846  0.000000  1
  Ir  Ir23  1  0.866278  0.509368  0.000000  1
  Ir  Ir24  1  0.643586  0.133314  0.000000  1
  Ir  Ir25  1  0.000069  0.275964  0.000000  1
  Ir  Ir26  1  0.724039  0.724085  0.000000  1
  Ir  Ir27  1  0.275858  0.999931  0.000000  1
  Ir  Ir28  1  0.628782  0.807848  0.500000  1
  Ir  Ir29  1  0.191754  0.821191  0.500000  1
  Ir  Ir30  1  0.178533  0.370366  0.500000  1
  Ir  Ir31  1  0.370366  0.178600  0.500000  1
  Ir  Ir32  1  0.808363  0.629726  0.500000  1
  Ir  Ir33  1  0.821709  0.192185  0.500000  1
  Ir  Ir34  1  0.999910  0.999961  0.500000  1
  Rh  Rh35  1  0.510616  0.867010  0.000000  1
