# generated using pymatgen
data_LuHf2Zr(Al3Ir)6
_symmetry_space_group_name_H-M   'P 1'
_cell_length_a   7.48819501
_cell_length_b   7.48206733
_cell_length_c   9.27894200
_cell_angle_alpha   90.00000000
_cell_angle_beta   90.00000000
_cell_angle_gamma   119.82811088
_symmetry_Int_Tables_number   1
_chemical_formula_structural   LuHf2Zr(Al3Ir)6
_chemical_formula_sum   'Lu1 Hf2 Zr1 Al18 Ir6'
_cell_volume   451.00096896
_cell_formula_units_Z   1
loop_
 _symmetry_equiv_pos_site_id
 _symmetry_equiv_pos_as_xyz
  1  'x, y, z'
loop_
 _atom_site_type_symbol
 _atom_site_label
 _atom_site_symmetry_multiplicity
 _atom_site_fract_x
 _atom_site_fract_y
 _atom_site_fract_z
 _atom_site_occupancy
  Lu  Lu0  1  0.329179  0.005328  0.750000  1
  Hf  Hf1  1  0.994782  0.671738  0.250000  1
  Hf  Hf2  1  0.671108  0.994417  0.250000  1
  Zr  Zr3  1  0.005512  0.329714  0.750000  1
  Al  Al4  1  0.123413  0.124339  0.250000  1
  Al  Al5  1  0.872955  0.875508  0.750000  1
  Al  Al6  1  0.997773  0.334429  0.077181  1
  Al  Al7  1  0.000329  0.663603  0.924842  1
  Al  Al8  1  0.000329  0.663603  0.575158  1
  Al  Al9  1  0.334712  0.998397  0.420436  1
  Al  Al10  1  0.997773  0.334429  0.422819  1
  Al  Al11  1  0.667286  0.001860  0.575238  1
  Al  Al12  1  0.667286  0.001860  0.924762  1
  Al  Al13  1  0.334712  0.998397  0.079564  1
  Al  Al14  1  0.331513  0.333160  0.557522  1
  Al  Al15  1  0.668175  0.668067  0.439610  1
  Al  Al16  1  0.668175  0.668067  0.060390  1
  Al  Al17  1  0.331513  0.333160  0.942478  1
  Al  Al18  1  0.338326  0.551933  0.250000  1
  Al  Al19  1  0.665132  0.451607  0.750000  1
  Al  Al20  1  0.552955  0.339214  0.250000  1
  Al  Al21  1  0.447588  0.658036  0.750000  1
  Ir  Ir22  1  0.672555  0.327353  0.001307  1
  Ir  Ir23  1  0.328099  0.673923  0.001684  1
  Ir  Ir24  1  0.328099  0.673923  0.498316  1
  Ir  Ir25  1  0.672555  0.327353  0.498693  1
  Ir  Ir26  1  0.999083  0.998290  0.001646  1
  Ir  Ir27  1  0.999083  0.998290  0.498354  1
