# generated using pymatgen
data_TbAlCo2NiB
_symmetry_space_group_name_H-M   'P 1'
_cell_length_a   5.15055549
_cell_length_b   5.19802694
_cell_length_c   6.69987900
_cell_angle_alpha   90.00000000
_cell_angle_beta   90.00000000
_cell_angle_gamma   120.30261172
_symmetry_Int_Tables_number   1
_chemical_formula_structural   TbAlCo2NiB
_chemical_formula_sum   'Tb2 Al2 Co4 Ni2 B2'
_cell_volume   154.86661059
_cell_formula_units_Z   2
loop_
 _symmetry_equiv_pos_site_id
 _symmetry_equiv_pos_as_xyz
  1  'x, y, z'
loop_
 _atom_site_type_symbol
 _atom_site_label
 _atom_site_symmetry_multiplicity
 _atom_site_fract_x
 _atom_site_fract_y
 _atom_site_fract_z
 _atom_site_occupancy
  Tb  Tb0  1  0.999983  0.000000  0.000000  1
  Tb  Tb1  1  0.999986  0.000000  0.500000  1
  Al  Al2  1  0.337540  0.668778  0.000000  1
  Al  Al3  1  0.662422  0.331222  0.000000  1
  Co  Co4  1  0.499984  0.000000  0.296177  1
  Co  Co5  1  0.499983  0.500000  0.296164  1
  Co  Co6  1  0.499984  0.000000  0.703823  1
  Co  Co7  1  0.499983  0.500000  0.703836  1
  Ni  Ni8  1  0.999983  0.500000  0.294101  1
  Ni  Ni9  1  0.999983  0.500000  0.705899  1
  B  B10  1  0.344244  0.672120  0.500000  1
  B  B11  1  0.655725  0.327880  0.500000  1
