# generated using pymatgen
data_Sr10InSi4Ge
_symmetry_space_group_name_H-M   'P 1'
_cell_length_a   8.16812500
_cell_length_b   9.95279242
_cell_length_c   8.16812500
_cell_angle_alpha   114.22641050
_cell_angle_beta   90.00000000
_cell_angle_gamma   114.22641050
_symmetry_Int_Tables_number   1
_chemical_formula_structural   Sr10InSi4Ge
_chemical_formula_sum   'Sr10 In1 Si4 Ge1'
_cell_volume   540.78410457
_cell_formula_units_Z   1
loop_
 _symmetry_equiv_pos_site_id
 _symmetry_equiv_pos_as_xyz
  1  'x, y, z'
loop_
 _atom_site_type_symbol
 _atom_site_label
 _atom_site_symmetry_multiplicity
 _atom_site_fract_x
 _atom_site_fract_y
 _atom_site_fract_z
 _atom_site_occupancy
  Sr  Sr0  1  0.983520  0.967040  0.983520  1
  Sr  Sr1  1  0.516480  0.032960  0.516480  1
  Sr  Sr2  1  0.529107  0.721707  0.670112  1
  Sr  Sr3  1  0.192601  0.721707  0.051596  1
  Sr  Sr4  1  0.670112  0.721707  0.192601  1
  Sr  Sr5  1  0.051596  0.721707  0.529107  1
  Sr  Sr6  1  0.448404  0.278293  0.307399  1
  Sr  Sr7  1  0.829888  0.278293  0.970893  1
  Sr  Sr8  1  0.307399  0.278293  0.829888  1
  Sr  Sr9  1  0.970893  0.278293  0.448404  1
  In  In10  1  0.750000  0.500000  0.750000  1
  Si  Si11  1  0.893974  0.000000  0.606026  1
  Si  Si12  1  0.106026  0.000000  0.393974  1
  Si  Si13  1  0.606026  0.000000  0.106026  1
  Si  Si14  1  0.393974  0.000000  0.893974  1
  Ge  Ge15  1  0.250000  0.500000  0.250000  1
