# generated using pymatgen
data_Tm3Th(TcB6)2
_symmetry_space_group_name_H-M   'P 1'
_cell_length_a   3.70388500
_cell_length_b   9.15848529
_cell_length_c   11.56272567
_cell_angle_alpha   90.12311825
_cell_angle_beta   90.00000000
_cell_angle_gamma   90.00000000
_symmetry_Int_Tables_number   1
_chemical_formula_structural   Tm3Th(TcB6)2
_chemical_formula_sum   'Tm6 Th2 Tc4 B24'
_cell_volume   392.22960042
_cell_formula_units_Z   2
loop_
 _symmetry_equiv_pos_site_id
 _symmetry_equiv_pos_as_xyz
  1  'x, y, z'
loop_
 _atom_site_type_symbol
 _atom_site_label
 _atom_site_symmetry_multiplicity
 _atom_site_fract_x
 _atom_site_fract_y
 _atom_site_fract_z
 _atom_site_occupancy
  Tm  Tm0  1  0.000000  0.824328  0.084446  1
  Tm  Tm1  1  0.000000  0.175672  0.915554  1
  Tm  Tm2  1  0.000000  0.943261  0.368092  1
  Tm  Tm3  1  0.000000  0.056739  0.631908  1
  Tm  Tm4  1  0.000000  0.442977  0.127373  1
  Tm  Tm5  1  0.000000  0.557023  0.872627  1
  Th  Th6  1  0.000000  0.321394  0.413213  1
  Th  Th7  1  0.000000  0.678606  0.586787  1
  Tc  Tc8  1  0.000000  0.639749  0.318325  1
  Tc  Tc9  1  0.000000  0.360251  0.681675  1
  Tc  Tc10  1  0.000000  0.138515  0.178377  1
  Tc  Tc11  1  0.000000  0.861485  0.821623  1
  B  B12  1  0.500000  0.556352  0.428716  1
  B  B13  1  0.500000  0.443648  0.571284  1
  B  B14  1  0.500000  0.053318  0.065845  1
  B  B15  1  0.500000  0.946682  0.934155  1
  B  B16  1  0.500000  0.751535  0.414289  1
  B  B17  1  0.500000  0.248465  0.585711  1
  B  B18  1  0.500000  0.248819  0.079371  1
  B  B19  1  0.500000  0.751181  0.920629  1
  B  B20  1  0.500000  0.792857  0.262282  1
  B  B21  1  0.500000  0.207143  0.737718  1
  B  B22  1  0.500000  0.290384  0.231089  1
  B  B23  1  0.500000  0.709616  0.768911  1
  B  B24  1  0.500000  0.631730  0.182578  1
  B  B25  1  0.500000  0.368270  0.817422  1
  B  B26  1  0.500000  0.128627  0.311711  1
  B  B27  1  0.500000  0.871373  0.688289  1
  B  B28  1  0.500000  0.981579  0.209808  1
  B  B29  1  0.500000  0.018421  0.790192  1
  B  B30  1  0.500000  0.485058  0.283723  1
  B  B31  1  0.500000  0.514942  0.716277  1
  B  B32  1  0.500000  0.602576  0.028045  1
  B  B33  1  0.500000  0.397424  0.971955  1
  B  B34  1  0.500000  0.097776  0.472910  1
  B  B35  1  0.500000  0.902224  0.527090  1
