# generated using pymatgen
data_LiTi(SbPd)2
_symmetry_space_group_name_H-M   'P 1'
_cell_length_a   6.18272754
_cell_length_b   6.18269464
_cell_length_c   7.66371298
_cell_angle_alpha   113.65711254
_cell_angle_beta   113.65656862
_cell_angle_gamma   90.14242287
_symmetry_Int_Tables_number   1
_chemical_formula_structural   LiTi(SbPd)2
_chemical_formula_sum   'Li2 Ti2 Sb4 Pd4'
_cell_volume   241.07290948
_cell_formula_units_Z   2
loop_
 _symmetry_equiv_pos_site_id
 _symmetry_equiv_pos_as_xyz
  1  'x, y, z'
loop_
 _atom_site_type_symbol
 _atom_site_label
 _atom_site_symmetry_multiplicity
 _atom_site_fract_x
 _atom_site_fract_y
 _atom_site_fract_z
 _atom_site_occupancy
  Li  Li0  1  0.749998  0.000066  0.000194  1
  Li  Li1  1  0.000059  0.750001  0.500191  1
  Ti  Ti2  1  0.249934  0.499681  0.999933  1
  Ti  Ti3  1  0.499679  0.249933  0.499932  1
  Sb  Sb4  1  0.756186  0.506260  0.012037  1
  Sb  Sb5  1  0.994146  0.243885  0.487719  1
  Sb  Sb6  1  0.506233  0.756154  0.511983  1
  Sb  Sb7  1  0.243854  0.994117  0.987665  1
  Pd  Pd8  1  0.607737  0.374990  0.250145  1
  Pd  Pd9  1  0.142467  0.874798  0.250111  1
  Pd  Pd10  1  0.375047  0.607690  0.750068  1
  Pd  Pd11  1  0.874660  0.142425  0.750026  1
