# generated using pymatgen
data_Ac5HfRhO12
_symmetry_space_group_name_H-M   'P 1'
_cell_length_a   7.33182482
_cell_length_b   7.33182594
_cell_length_c   7.95767800
_cell_angle_alpha   74.33350124
_cell_angle_beta   74.33349878
_cell_angle_gamma   50.64615361
_symmetry_Int_Tables_number   1
_chemical_formula_structural   Ac5HfRhO12
_chemical_formula_sum   'Ac5 Hf1 Rh1 O12'
_cell_volume   315.66585519
_cell_formula_units_Z   1
loop_
 _symmetry_equiv_pos_site_id
 _symmetry_equiv_pos_as_xyz
  1  'x, y, z'
loop_
 _atom_site_type_symbol
 _atom_site_label
 _atom_site_symmetry_multiplicity
 _atom_site_fract_x
 _atom_site_fract_y
 _atom_site_fract_z
 _atom_site_occupancy
  Ac  Ac0  1  0.307601  0.311940  0.356208  1
  Ac  Ac1  1  0.688060  0.692399  0.643792  1
  Ac  Ac2  1  0.684020  0.698712  0.166533  1
  Ac  Ac3  1  0.301288  0.315980  0.833467  1
  Ac  Ac4  1  0.002874  0.997126  0.500000  1
  Hf  Hf5  1  0.780515  0.219485  0.000000  1
  Rh  Rh6  1  0.252777  0.747223  0.000000  1
  O  O7  1  0.091210  0.598086  0.577028  1
  O  O8  1  0.012676  0.985714  0.179515  1
  O  O9  1  0.401914  0.908790  0.422972  1
  O  O10  1  0.499528  0.502533  0.169679  1
  O  O11  1  0.100768  0.594494  0.076712  1
  O  O12  1  0.902458  0.407909  0.419533  1
  O  O13  1  0.014286  0.987324  0.820485  1
  O  O14  1  0.592091  0.097541  0.580467  1
  O  O15  1  0.497467  0.500472  0.830321  1
  O  O16  1  0.571668  0.106706  0.077483  1
  O  O17  1  0.405506  0.899232  0.923288  1
  O  O18  1  0.893294  0.428332  0.922517  1
