# generated using pymatgen
data_Ho2VPtF14
_symmetry_space_group_name_H-M   'P 1'
_cell_length_a   5.51082900
_cell_length_b   8.82914568
_cell_length_c   11.85328571
_cell_angle_alpha   62.89475676
_cell_angle_beta   90.00000000
_cell_angle_gamma   90.00000000
_symmetry_Int_Tables_number   1
_chemical_formula_structural   Ho2VPtF14
_chemical_formula_sum   'Ho4 V2 Pt2 F28'
_cell_volume   513.39054691
_cell_formula_units_Z   2
loop_
 _symmetry_equiv_pos_site_id
 _symmetry_equiv_pos_as_xyz
  1  'x, y, z'
loop_
 _atom_site_type_symbol
 _atom_site_label
 _atom_site_symmetry_multiplicity
 _atom_site_fract_x
 _atom_site_fract_y
 _atom_site_fract_z
 _atom_site_occupancy
  Ho  Ho0  1  0.758654  0.812456  0.763721  1
  Ho  Ho1  1  0.258654  0.187544  0.736279  1
  Ho  Ho2  1  0.240256  0.190153  0.228440  1
  Ho  Ho3  1  0.740256  0.809847  0.271560  1
  V  V4  1  0.755546  0.274696  0.954525  1
  V  V5  1  0.255546  0.725304  0.545475  1
  Pt  Pt6  1  0.242383  0.729300  0.043025  1
  Pt  Pt7  1  0.742383  0.270700  0.456975  1
  F  F8  1  0.436529  0.700510  0.914873  1
  F  F9  1  0.936529  0.299490  0.585127  1
  F  F10  1  0.550259  0.290924  0.076619  1
  F  F11  1  0.050259  0.709076  0.423381  1
  F  F12  1  0.439248  0.280807  0.542108  1
  F  F13  1  0.939248  0.719193  0.957892  1
  F  F14  1  0.540847  0.720070  0.454714  1
  F  F15  1  0.040847  0.279930  0.045286  1
  F  F16  1  0.771371  0.508813  0.864276  1
  F  F17  1  0.271371  0.491187  0.635724  1
  F  F18  1  0.228525  0.480284  0.143449  1
  F  F19  1  0.728525  0.519716  0.356551  1
  F  F20  1  0.757150  0.043402  0.046195  1
  F  F21  1  0.257150  0.956598  0.453805  1
  F  F22  1  0.245376  0.978596  0.950017  1
  F  F23  1  0.745376  0.021404  0.549983  1
  F  F24  1  0.983055  0.726296  0.643193  1
  F  F25  1  0.483055  0.273704  0.856807  1
  F  F26  1  0.039579  0.267817  0.366082  1
  F  F27  1  0.539579  0.732183  0.133918  1
  F  F28  1  0.052961  0.751799  0.175527  1
  F  F29  1  0.552961  0.248201  0.324473  1
  F  F30  1  0.958392  0.256631  0.830025  1
  F  F31  1  0.458392  0.743369  0.669975  1
  F  F32  1  0.419311  0.971522  0.230844  1
  F  F33  1  0.919311  0.028478  0.269156  1
  F  F34  1  0.580558  0.028207  0.766570  1
  F  F35  1  0.080558  0.971793  0.733430  1
