# generated using pymatgen
data_ThSe2S
_symmetry_space_group_name_H-M   'P 1'
_cell_length_a   4.21483500
_cell_length_b   5.62568695
_cell_length_c   10.25011601
_cell_angle_alpha   83.67204468
_cell_angle_beta   90.00000000
_cell_angle_gamma   90.00000000
_symmetry_Int_Tables_number   1
_chemical_formula_structural   ThSe2S
_chemical_formula_sum   'Th2 Se4 S2'
_cell_volume   241.56321382
_cell_formula_units_Z   2
loop_
 _symmetry_equiv_pos_site_id
 _symmetry_equiv_pos_as_xyz
  1  'x, y, z'
loop_
 _atom_site_type_symbol
 _atom_site_label
 _atom_site_symmetry_multiplicity
 _atom_site_fract_x
 _atom_site_fract_y
 _atom_site_fract_z
 _atom_site_occupancy
  Th  Th0  1  0.250000  0.722450  0.638170  1
  Th  Th1  1  0.750000  0.277550  0.361830  1
  Se  Se2  1  0.250000  0.529858  0.192698  1
  Se  Se3  1  0.750000  0.470142  0.807302  1
  Se  Se4  1  0.250000  0.106879  0.185864  1
  Se  Se5  1  0.750000  0.893121  0.814136  1
  S  S6  1  0.250000  0.239147  0.551294  1
  S  S7  1  0.750000  0.760853  0.448706  1
