# generated using pymatgen
data_Ho5Er11(AgPd)4
_symmetry_space_group_name_H-M   'P 1'
_cell_length_a   9.44563842
_cell_length_b   9.43931583
_cell_length_c   9.44694400
_cell_angle_alpha   60.33415699
_cell_angle_beta   60.39822293
_cell_angle_gamma   60.33933112
_symmetry_Int_Tables_number   1
_chemical_formula_structural   Ho5Er11(AgPd)4
_chemical_formula_sum   'Ho5 Er11 Ag4 Pd4'
_cell_volume   600.40358886
_cell_formula_units_Z   1
loop_
 _symmetry_equiv_pos_site_id
 _symmetry_equiv_pos_as_xyz
  1  'x, y, z'
loop_
 _atom_site_type_symbol
 _atom_site_label
 _atom_site_symmetry_multiplicity
 _atom_site_fract_x
 _atom_site_fract_y
 _atom_site_fract_z
 _atom_site_occupancy
  Ho  Ho0  1  0.187591  0.187733  0.812626  1
  Ho  Ho1  1  0.435316  0.065539  0.065683  1
  Ho  Ho2  1  0.433758  0.065995  0.433650  1
  Ho  Ho3  1  0.065439  0.435356  0.065908  1
  Ho  Ho4  1  0.638363  0.080365  0.637503  1
  Er  Er5  1  0.186829  0.811592  0.811552  1
  Er  Er6  1  0.065094  0.065430  0.435466  1
  Er  Er7  1  0.812595  0.187705  0.187600  1
  Er  Er8  1  0.812003  0.811606  0.186748  1
  Er  Er9  1  0.637967  0.637666  0.081167  1
  Er  Er10  1  0.644688  0.644479  0.644152  1
  Er  Er11  1  0.065631  0.434401  0.433872  1
  Er  Er12  1  0.080236  0.638342  0.637809  1
  Er  Er13  1  0.811912  0.186773  0.811534  1
  Er  Er14  1  0.434266  0.434707  0.065626  1
  Er  Er15  1  0.188056  0.812051  0.188152  1
  Ag  Ag16  1  0.415579  0.751564  0.416407  1
  Ag  Ag17  1  0.415918  0.416998  0.751573  1
  Ag  Ag18  1  0.752336  0.416159  0.415952  1
  Ag  Ag19  1  0.415273  0.417543  0.415342  1
  Pd  Pd20  1  0.854768  0.438836  0.855915  1
  Pd  Pd21  1  0.856762  0.855133  0.437440  1
  Pd  Pd22  1  0.438431  0.853991  0.856857  1
  Pd  Pd23  1  0.851193  0.850036  0.851465  1
