# generated using pymatgen
data_Dy3(SiRh)2
_symmetry_space_group_name_H-M   'P 1'
_cell_length_a   5.58252800
_cell_length_b   7.79932100
_cell_length_c   12.99935400
_cell_angle_alpha   90.00000000
_cell_angle_beta   90.00000000
_cell_angle_gamma   90.00000000
_symmetry_Int_Tables_number   1
_chemical_formula_structural   Dy3(SiRh)2
_chemical_formula_sum   'Dy12 Si8 Rh8'
_cell_volume   565.99093543
_cell_formula_units_Z   4
loop_
 _symmetry_equiv_pos_site_id
 _symmetry_equiv_pos_as_xyz
  1  'x, y, z'
loop_
 _atom_site_type_symbol
 _atom_site_label
 _atom_site_symmetry_multiplicity
 _atom_site_fract_x
 _atom_site_fract_y
 _atom_site_fract_z
 _atom_site_occupancy
  Dy  Dy0  1  0.629294  0.251635  0.250000  1
  Dy  Dy1  1  0.370706  0.748365  0.750000  1
  Dy  Dy2  1  0.370706  0.751635  0.250000  1
  Dy  Dy3  1  0.629294  0.248365  0.750000  1
  Dy  Dy4  1  0.138331  0.392504  0.102515  1
  Dy  Dy5  1  0.861669  0.607496  0.897485  1
  Dy  Dy6  1  0.861669  0.607496  0.602515  1
  Dy  Dy7  1  0.861669  0.892504  0.397485  1
  Dy  Dy8  1  0.138331  0.392504  0.397485  1
  Dy  Dy9  1  0.138331  0.107496  0.602515  1
  Dy  Dy10  1  0.138331  0.107496  0.897485  1
  Dy  Dy11  1  0.861669  0.892504  0.102515  1
  Si  Si12  1  0.137416  0.105873  0.250000  1
  Si  Si13  1  0.862584  0.894127  0.750000  1
  Si  Si14  1  0.862584  0.605873  0.250000  1
  Si  Si15  1  0.137416  0.394127  0.750000  1
  Si  Si16  1  0.625895  0.250000  0.000000  1
  Si  Si17  1  0.374105  0.750000  0.000000  1
  Si  Si18  1  0.374105  0.750000  0.500000  1
  Si  Si19  1  0.625895  0.250000  0.500000  1
  Rh  Rh20  1  0.367181  0.033020  0.091717  1
  Rh  Rh21  1  0.632819  0.966980  0.908283  1
  Rh  Rh22  1  0.632819  0.966980  0.591717  1
  Rh  Rh23  1  0.632819  0.533020  0.408283  1
  Rh  Rh24  1  0.367181  0.033020  0.408283  1
  Rh  Rh25  1  0.367181  0.466980  0.591717  1
  Rh  Rh26  1  0.367181  0.466980  0.908283  1
  Rh  Rh27  1  0.632819  0.533020  0.091717  1
