# generated using pymatgen
data_ScTi3Be2(B2Ir5)2
_symmetry_space_group_name_H-M   'P 1'
_cell_length_a   9.24489153
_cell_length_b   9.24489153
_cell_length_c   2.92533200
_cell_angle_alpha   90.00000000
_cell_angle_beta   90.00000000
_cell_angle_gamma   90.03877194
_symmetry_Int_Tables_number   1
_chemical_formula_structural   ScTi3Be2(B2Ir5)2
_chemical_formula_sum   'Sc1 Ti3 Be2 B4 Ir10'
_cell_volume   250.02227484
_cell_formula_units_Z   1
loop_
 _symmetry_equiv_pos_site_id
 _symmetry_equiv_pos_as_xyz
  1  'x, y, z'
loop_
 _atom_site_type_symbol
 _atom_site_label
 _atom_site_symmetry_multiplicity
 _atom_site_fract_x
 _atom_site_fract_y
 _atom_site_fract_z
 _atom_site_occupancy
  Sc  Sc0  1  0.323752  0.176248  0.000000  1
  Ti  Ti1  1  0.823114  0.322520  0.000000  1
  Ti  Ti2  1  0.177480  0.676886  0.000000  1
  Ti  Ti3  1  0.677744  0.822256  0.000000  1
  Be  Be4  1  0.000726  0.000652  0.000000  1
  Be  Be5  1  0.499348  0.499274  0.000000  1
  B  B6  1  0.629715  0.129571  0.000000  1
  B  B7  1  0.128414  0.371586  0.000000  1
  B  B8  1  0.870019  0.629980  0.000000  1
  B  B9  1  0.370429  0.870284  0.000000  1
  Ir  Ir10  1  0.503098  0.996902  0.499999  1
  Ir  Ir11  1  0.792337  0.066368  0.499999  1
  Ir  Ir12  1  0.062257  0.210150  0.499999  1
  Ir  Ir13  1  0.571750  0.292949  0.499999  1
  Ir  Ir14  1  0.289850  0.437744  0.499999  1
  Ir  Ir15  1  0.999022  0.500978  0.499999  1
  Ir  Ir16  1  0.707957  0.567697  0.499999  1
  Ir  Ir17  1  0.433633  0.707662  0.499999  1
  Ir  Ir18  1  0.932302  0.792042  0.499999  1
  Ir  Ir19  1  0.207051  0.928249  0.499999  1
