# generated using pymatgen
data_Tb7Dy3AlSb5
_symmetry_space_group_name_H-M   'P 1'
_cell_length_a   6.40569201
_cell_length_b   8.97599422
_cell_length_c   8.95926250
_cell_angle_alpha   120.05852856
_cell_angle_beta   89.99921919
_cell_angle_gamma   89.99555631
_symmetry_Int_Tables_number   1
_chemical_formula_structural   Tb7Dy3AlSb5
_chemical_formula_sum   'Tb7 Dy3 Al1 Sb5'
_cell_volume   445.85646795
_cell_formula_units_Z   1
loop_
 _symmetry_equiv_pos_site_id
 _symmetry_equiv_pos_as_xyz
  1  'x, y, z'
loop_
 _atom_site_type_symbol
 _atom_site_label
 _atom_site_symmetry_multiplicity
 _atom_site_fract_x
 _atom_site_fract_y
 _atom_site_fract_z
 _atom_site_occupancy
  Tb  Tb0  1  0.500667  0.338121  0.672892  1
  Tb  Tb1  1  0.750024  0.248440  0.000011  1
  Tb  Tb2  1  0.750033  0.753679  0.762325  1
  Tb  Tb3  1  0.750051  0.991359  0.237696  1
  Tb  Tb4  1  0.249928  0.756845  0.000005  1
  Tb  Tb5  1  0.249956  0.245522  0.244886  1
  Tb  Tb6  1  0.249981  0.000725  0.755170  1
  Dy  Dy7  1  0.500777  0.665219  0.326980  1
  Dy  Dy8  1  0.999251  0.665261  0.327076  1
  Dy  Dy9  1  0.999291  0.338161  0.672907  1
  Al  Al10  1  0.750233  0.604552  0.000192  1
  Sb  Sb11  1  0.750211  0.388702  0.390314  1
  Sb  Sb12  1  0.750186  0.997998  0.609544  1
  Sb  Sb13  1  0.249755  0.392324  0.000208  1
  Sb  Sb14  1  0.249839  0.610852  0.608205  1
  Sb  Sb15  1  0.249817  0.002244  0.391588  1
