# generated using pymatgen
data_NaInI3
_symmetry_space_group_name_H-M   'P 1'
_cell_length_a   12.28494500
_cell_length_b   7.74507229
_cell_length_c   9.52742881
_cell_angle_alpha   86.77859999
_cell_angle_beta   90.00000000
_cell_angle_gamma   90.00000000
_symmetry_Int_Tables_number   1
_chemical_formula_structural   NaInI3
_chemical_formula_sum   'Na4 In4 I12'
_cell_volume   905.08133653
_cell_formula_units_Z   4
loop_
 _symmetry_equiv_pos_site_id
 _symmetry_equiv_pos_as_xyz
  1  'x, y, z'
loop_
 _atom_site_type_symbol
 _atom_site_label
 _atom_site_symmetry_multiplicity
 _atom_site_fract_x
 _atom_site_fract_y
 _atom_site_fract_z
 _atom_site_occupancy
  Na  Na0  1  0.500000  0.000000  0.500000  1
  Na  Na1  1  0.500000  0.500000  0.000000  1
  Na  Na2  1  0.000000  0.000000  0.500000  1
  Na  Na3  1  0.000000  0.500000  0.000000  1
  In  In4  1  0.250000  0.032993  0.964158  1
  In  In5  1  0.750000  0.864602  0.757415  1
  In  In6  1  0.750000  0.967007  0.035842  1
  In  In7  1  0.250000  0.135398  0.242585  1
  I  I8  1  0.750000  0.326213  0.068936  1
  I  I9  1  0.569782  0.661702  0.682606  1
  I  I10  1  0.069782  0.338298  0.317394  1
  I  I11  1  0.430218  0.338298  0.317394  1
  I  I12  1  0.069669  0.175463  0.813076  1
  I  I13  1  0.569669  0.824537  0.186924  1
  I  I14  1  0.930331  0.824537  0.186924  1
  I  I15  1  0.430331  0.175463  0.813076  1
  I  I16  1  0.250000  0.673787  0.931064  1
  I  I17  1  0.750000  0.134815  0.544737  1
  I  I18  1  0.250000  0.865185  0.455263  1
  I  I19  1  0.930218  0.661702  0.682606  1
