# generated using pymatgen
data_TbSm7(Si3Au)4
_symmetry_space_group_name_H-M   'P 1'
_cell_length_a   8.25743100
_cell_length_b   8.25743037
_cell_length_c   8.45302300
_cell_angle_alpha   90.00000000
_cell_angle_beta   90.00000000
_cell_angle_gamma   120.00000653
_symmetry_Int_Tables_number   1
_chemical_formula_structural   TbSm7(Si3Au)4
_chemical_formula_sum   'Tb1 Sm7 Si12 Au4'
_cell_volume   499.15166876
_cell_formula_units_Z   1
loop_
 _symmetry_equiv_pos_site_id
 _symmetry_equiv_pos_as_xyz
  1  'x, y, z'
loop_
 _atom_site_type_symbol
 _atom_site_label
 _atom_site_symmetry_multiplicity
 _atom_site_fract_x
 _atom_site_fract_y
 _atom_site_fract_z
 _atom_site_occupancy
  Tb  Tb0  1  0.000000  0.000000  0.750000  1
  Sm  Sm1  1  0.499963  0.999925  0.250000  1
  Sm  Sm2  1  0.500027  0.000055  0.750000  1
  Sm  Sm3  1  0.000075  0.500037  0.250000  1
  Sm  Sm4  1  0.999945  0.499973  0.750000  1
  Sm  Sm5  1  0.499963  0.500037  0.250000  1
  Sm  Sm6  1  0.500027  0.499973  0.750000  1
  Sm  Sm7  1  0.000000  0.000000  0.250000  1
  Si  Si8  1  0.163636  0.327273  0.998397  1
  Si  Si9  1  0.836359  0.672718  0.999020  1
  Si  Si10  1  0.672727  0.836364  0.998397  1
  Si  Si11  1  0.836359  0.672718  0.500980  1
  Si  Si12  1  0.327282  0.163641  0.999020  1
  Si  Si13  1  0.163636  0.327273  0.501603  1
  Si  Si14  1  0.163636  0.836364  0.998397  1
  Si  Si15  1  0.327282  0.163641  0.500980  1
  Si  Si16  1  0.836359  0.163641  0.999020  1
  Si  Si17  1  0.672727  0.836364  0.501603  1
  Si  Si18  1  0.836359  0.163641  0.500980  1
  Si  Si19  1  0.163636  0.836364  0.501603  1
  Au  Au20  1  0.333333  0.666667  0.000933  1
  Au  Au21  1  0.666667  0.333333  0.000587  1
  Au  Au22  1  0.666667  0.333333  0.499413  1
  Au  Au23  1  0.333333  0.666667  0.499067  1
