# generated using pymatgen
data_CeIn(NiPt)2
_symmetry_space_group_name_H-M   'P 1'
_cell_length_a   5.21433208
_cell_length_b   5.21433166
_cell_length_c   5.41118800
_cell_angle_alpha   58.74308259
_cell_angle_beta   58.74308538
_cell_angle_gamma   59.44270927
_symmetry_Int_Tables_number   1
_chemical_formula_structural   CeIn(NiPt)2
_chemical_formula_sum   'Ce1 In1 Ni2 Pt2'
_cell_volume   101.59379077
_cell_formula_units_Z   1
loop_
 _symmetry_equiv_pos_site_id
 _symmetry_equiv_pos_as_xyz
  1  'x, y, z'
loop_
 _atom_site_type_symbol
 _atom_site_label
 _atom_site_symmetry_multiplicity
 _atom_site_fract_x
 _atom_site_fract_y
 _atom_site_fract_z
 _atom_site_occupancy
  Ce  Ce0  1  0.004556  0.004556  0.995444  1
  In  In1  1  0.243897  0.243897  0.256103  1
  Ni  Ni2  1  0.626162  0.126726  0.623555  1
  Ni  Ni3  1  0.126726  0.626162  0.623555  1
  Pt  Pt4  1  0.624329  0.624329  0.623716  1
  Pt  Pt5  1  0.624329  0.624329  0.127625  1
