# generated using pymatgen
data_Tb8Hg2PtRh
_symmetry_space_group_name_H-M   'P 1'
_cell_length_a   9.66037908
_cell_length_b   9.67108648
_cell_length_c   9.67108765
_cell_angle_alpha   60.06489953
_cell_angle_beta   60.03662497
_cell_angle_gamma   60.03662444
_symmetry_Int_Tables_number   1
_chemical_formula_structural   Tb8Hg2PtRh
_chemical_formula_sum   'Tb16 Hg4 Pt2 Rh2'
_cell_volume   639.56214175
_cell_formula_units_Z   2
loop_
 _symmetry_equiv_pos_site_id
 _symmetry_equiv_pos_as_xyz
  1  'x, y, z'
loop_
 _atom_site_type_symbol
 _atom_site_label
 _atom_site_symmetry_multiplicity
 _atom_site_fract_x
 _atom_site_fract_y
 _atom_site_fract_z
 _atom_site_occupancy
  Tb  Tb0  1  0.307880  0.897985  0.897985  1
  Tb  Tb1  1  0.685038  0.313144  0.687213  1
  Tb  Tb2  1  0.314604  0.687213  0.313144  1
  Tb  Tb3  1  0.059537  0.440463  0.440463  1
  Tb  Tb4  1  0.686447  0.313553  0.313553  1
  Tb  Tb5  1  0.443052  0.060624  0.436872  1
  Tb  Tb6  1  0.439329  0.060671  0.060671  1
  Tb  Tb7  1  0.896152  0.897985  0.897985  1
  Tb  Tb8  1  0.059451  0.436872  0.060624  1
  Tb  Tb9  1  0.896997  0.307372  0.898636  1
  Tb  Tb10  1  0.313168  0.686832  0.686832  1
  Tb  Tb11  1  0.896997  0.898636  0.307372  1
  Tb  Tb12  1  0.443052  0.436872  0.060624  1
  Tb  Tb13  1  0.314604  0.313144  0.687213  1
  Tb  Tb14  1  0.685038  0.687213  0.313144  1
  Tb  Tb15  1  0.059451  0.060624  0.436872  1
  Hg  Hg16  1  0.005510  0.665014  0.665014  1
  Hg  Hg17  1  0.663739  0.008286  0.664237  1
  Hg  Hg18  1  0.663739  0.664237  0.008286  1
  Hg  Hg19  1  0.664463  0.665014  0.665014  1
  Pt  Pt20  1  0.106980  0.105951  0.680088  1
  Pt  Pt21  1  0.106980  0.680088  0.105951  1
  Rh  Rh22  1  0.107183  0.106104  0.106104  1
  Rh  Rh23  1  0.680608  0.106104  0.106104  1
