# generated using pymatgen
data_Na4Ga5Pt9
_symmetry_space_group_name_H-M   'P 1'
_cell_length_a   5.62954873
_cell_length_b   5.62954947
_cell_length_c   12.37515147
_cell_angle_alpha   76.85278970
_cell_angle_beta   76.85278903
_cell_angle_gamma   59.99999436
_symmetry_Int_Tables_number   1
_chemical_formula_structural   Na4Ga5Pt9
_chemical_formula_sum   'Na4 Ga5 Pt9'
_cell_volume   327.72365656
_cell_formula_units_Z   1
loop_
 _symmetry_equiv_pos_site_id
 _symmetry_equiv_pos_as_xyz
  1  'x, y, z'
loop_
 _atom_site_type_symbol
 _atom_site_label
 _atom_site_symmetry_multiplicity
 _atom_site_fract_x
 _atom_site_fract_y
 _atom_site_fract_z
 _atom_site_occupancy
  Na  Na0  1  0.951169  0.951169  0.146492  1
  Na  Na1  1  0.048831  0.048831  0.853508  1
  Na  Na2  1  0.854038  0.854038  0.437884  1
  Na  Na3  1  0.145962  0.145962  0.562116  1
  Ga  Ga4  1  0.500000  0.500000  0.500000  1
  Ga  Ga5  1  0.722219  0.722219  0.833341  1
  Ga  Ga6  1  0.277781  0.277781  0.166659  1
  Ga  Ga7  1  0.610190  0.610190  0.169431  1
  Ga  Ga8  1  0.389810  0.389810  0.830569  1
  Pt  Pt9  1  0.000000  0.500000  0.000000  1
  Pt  Pt10  1  0.500000  0.000000  0.000000  1
  Pt  Pt11  1  0.500000  0.500000  0.000000  1
  Pt  Pt12  1  0.386651  0.386651  0.332505  1
  Pt  Pt13  1  0.894194  0.386651  0.332505  1
  Pt  Pt14  1  0.386651  0.894194  0.332505  1
  Pt  Pt15  1  0.613349  0.613349  0.667495  1
  Pt  Pt16  1  0.105806  0.613349  0.667495  1
  Pt  Pt17  1  0.613349  0.105806  0.667495  1
