# generated using pymatgen
data_Sc4Si2B4Ru9Rh
_symmetry_space_group_name_H-M   'P 1'
_cell_length_a   9.32067628
_cell_length_b   9.34765928
_cell_length_c   3.00316700
_cell_angle_alpha   90.00000000
_cell_angle_beta   90.00000000
_cell_angle_gamma   90.02802132
_symmetry_Int_Tables_number   1
_chemical_formula_structural   Sc4Si2B4Ru9Rh
_chemical_formula_sum   'Sc4 Si2 B4 Ru9 Rh1'
_cell_volume   261.65541667
_cell_formula_units_Z   1
loop_
 _symmetry_equiv_pos_site_id
 _symmetry_equiv_pos_as_xyz
  1  'x, y, z'
loop_
 _atom_site_type_symbol
 _atom_site_label
 _atom_site_symmetry_multiplicity
 _atom_site_fract_x
 _atom_site_fract_y
 _atom_site_fract_z
 _atom_site_occupancy
  Sc  Sc0  1  0.673730  0.177518  0.000000  1
  Sc  Sc1  1  0.175373  0.325923  0.000000  1
  Sc  Sc2  1  0.826343  0.671103  0.000000  1
  Sc  Sc3  1  0.324254  0.826076  0.000000  1
  Si  Si4  1  0.002953  0.000639  0.000000  1
  Si  Si5  1  0.499658  0.499317  0.000000  1
  B  B6  1  0.376277  0.125455  0.000000  1
  B  B7  1  0.875427  0.375576  0.000000  1
  B  B8  1  0.123841  0.623971  0.000000  1
  B  B9  1  0.618146  0.873559  0.000000  1
  Ru  Ru10  1  0.501507  0.000588  0.500000  1
  Ru  Ru11  1  0.211216  0.069902  0.500000  1
  Ru  Ru12  1  0.930958  0.209346  0.500000  1
  Ru  Ru13  1  0.431492  0.290203  0.500000  1
  Ru  Ru14  1  0.709934  0.431284  0.500000  1
  Ru  Ru15  1  0.000339  0.499088  0.500000  1
  Ru  Ru16  1  0.290118  0.570662  0.500000  1
  Ru  Ru17  1  0.569392  0.710416  0.500000  1
  Ru  Ru18  1  0.068732  0.790208  0.500000  1
  Rh  Rh19  1  0.790307  0.929161  0.500000  1
