# generated using pymatgen
data_RbU2I11
_symmetry_space_group_name_H-M   'P 1'
_cell_length_a   8.60340493
_cell_length_b   8.67058868
_cell_length_c   20.91355227
_cell_angle_alpha   79.31884930
_cell_angle_beta   79.22157802
_cell_angle_gamma   87.94962321
_symmetry_Int_Tables_number   1
_chemical_formula_structural   RbU2I11
_chemical_formula_sum   'Rb2 U4 I22'
_cell_volume   1506.00192611
_cell_formula_units_Z   2
loop_
 _symmetry_equiv_pos_site_id
 _symmetry_equiv_pos_as_xyz
  1  'x, y, z'
loop_
 _atom_site_type_symbol
 _atom_site_label
 _atom_site_symmetry_multiplicity
 _atom_site_fract_x
 _atom_site_fract_y
 _atom_site_fract_z
 _atom_site_occupancy
  Rb  Rb0  1  0.746303  0.750379  0.506095  1
  Rb  Rb1  1  0.253697  0.249621  0.493905  1
  U  U2  1  0.315754  0.815272  0.355024  1
  U  U3  1  0.684246  0.184728  0.644976  1
  U  U4  1  0.837629  0.334237  0.084910  1
  U  U5  1  0.162371  0.665763  0.915090  1
  I  I6  1  0.244974  0.777902  0.502459  1
  I  I7  1  0.755026  0.222098  0.497541  1
  I  I8  1  0.581726  0.020310  0.353257  1
  I  I9  1  0.418274  0.979690  0.646743  1
  I  I10  1  0.530606  0.542462  0.364968  1
  I  I11  1  0.469394  0.457538  0.635032  1
  I  I12  1  0.380383  0.851108  0.213095  1
  I  I13  1  0.619617  0.148892  0.786905  1
  I  I14  1  0.047681  0.602725  0.364821  1
  I  I15  1  0.952319  0.397275  0.635179  1
  I  I16  1  0.104221  0.087832  0.346665  1
  I  I17  1  0.895779  0.912168  0.653335  1
  I  I18  1  0.891087  0.023864  0.153178  1
  I  I19  1  0.108913  0.976136  0.846822  1
  I  I20  1  0.522793  0.373165  0.154872  1
  I  I21  1  0.477207  0.626835  0.845128  1
  I  I22  1  0.715508  0.208493  0.985671  1
  I  I23  1  0.284492  0.791507  0.014329  1
  I  I24  1  0.967937  0.470449  0.179080  1
  I  I25  1  0.032063  0.529551  0.820920  1
  I  I26  1  0.173830  0.332939  0.999631  1
  I  I27  1  0.826170  0.667061  0.000369  1
