# generated using pymatgen
data_Yb3C3S
_symmetry_space_group_name_H-M   'P 1'
_cell_length_a   3.81572391
_cell_length_b   3.81699648
_cell_length_c   8.36250045
_cell_angle_alpha   82.55477659
_cell_angle_beta   82.59140822
_cell_angle_gamma   88.83881437
_symmetry_Int_Tables_number   1
_chemical_formula_structural   Yb3C3S
_chemical_formula_sum   'Yb3 C3 S1'
_cell_volume   119.76068294
_cell_formula_units_Z   1
loop_
 _symmetry_equiv_pos_site_id
 _symmetry_equiv_pos_as_xyz
  1  'x, y, z'
loop_
 _atom_site_type_symbol
 _atom_site_label
 _atom_site_symmetry_multiplicity
 _atom_site_fract_x
 _atom_site_fract_y
 _atom_site_fract_z
 _atom_site_occupancy
  Yb  Yb0  1  0.848006  0.414447  0.187612  1
  Yb  Yb1  1  0.294002  0.859976  0.484782  1
  Yb  Yb2  1  0.440863  0.008562  0.818103  1
  C  C3  1  0.767784  0.334283  0.491307  1
  C  C4  1  0.859987  0.426715  0.629877  1
  C  C5  1  0.969569  0.536646  0.760973  1
  S  S6  1  0.358441  0.924941  0.146983  1
