# generated using pymatgen
data_Gd2Nb3Si4
_symmetry_space_group_name_H-M   'P 1'
_cell_length_a   7.10100200
_cell_length_b   7.10100200
_cell_length_c   13.13855100
_cell_angle_alpha   90.00000000
_cell_angle_beta   90.00000000
_cell_angle_gamma   90.00000000
_symmetry_Int_Tables_number   1
_chemical_formula_structural   Gd2Nb3Si4
_chemical_formula_sum   'Gd8 Nb12 Si16'
_cell_volume   662.50130966
_cell_formula_units_Z   4
loop_
 _symmetry_equiv_pos_site_id
 _symmetry_equiv_pos_as_xyz
  1  'x, y, z'
loop_
 _atom_site_type_symbol
 _atom_site_label
 _atom_site_symmetry_multiplicity
 _atom_site_fract_x
 _atom_site_fract_y
 _atom_site_fract_z
 _atom_site_occupancy
  Gd  Gd0  1  0.997495  0.340399  0.217450  1
  Gd  Gd1  1  0.002505  0.659601  0.717450  1
  Gd  Gd2  1  0.159601  0.497495  0.467450  1
  Gd  Gd3  1  0.502505  0.840399  0.032550  1
  Gd  Gd4  1  0.840399  0.502505  0.967450  1
  Gd  Gd5  1  0.497495  0.159601  0.532550  1
  Gd  Gd6  1  0.340399  0.997495  0.782550  1
  Gd  Gd7  1  0.659601  0.002505  0.282550  1
  Nb  Nb8  1  0.171122  0.171122  0.000000  1
  Nb  Nb9  1  0.828878  0.828878  0.500000  1
  Nb  Nb10  1  0.328878  0.671122  0.250000  1
  Nb  Nb11  1  0.671122  0.328878  0.750000  1
  Nb  Nb12  1  0.154897  0.991995  0.375956  1
  Nb  Nb13  1  0.845103  0.008005  0.875956  1
  Nb  Nb14  1  0.508005  0.654897  0.625956  1
  Nb  Nb15  1  0.345103  0.491995  0.874044  1
  Nb  Nb16  1  0.491995  0.345103  0.125956  1
  Nb  Nb17  1  0.654897  0.508005  0.374044  1
  Nb  Nb18  1  0.991995  0.154897  0.624044  1
  Nb  Nb19  1  0.008005  0.845103  0.124044  1
  Si  Si20  1  0.292801  0.044808  0.186546  1
  Si  Si21  1  0.707199  0.955192  0.686546  1
  Si  Si22  1  0.455192  0.792801  0.436546  1
  Si  Si23  1  0.207199  0.544808  0.063454  1
  Si  Si24  1  0.544808  0.207199  0.936546  1
  Si  Si25  1  0.792801  0.455192  0.563454  1
  Si  Si26  1  0.044808  0.292801  0.813454  1
  Si  Si27  1  0.955192  0.707199  0.313454  1
  Si  Si28  1  0.368422  0.296345  0.316493  1
  Si  Si29  1  0.631578  0.703655  0.816493  1
  Si  Si30  1  0.203655  0.868422  0.566493  1
  Si  Si31  1  0.131578  0.796345  0.933507  1
  Si  Si32  1  0.796345  0.131578  0.066493  1
  Si  Si33  1  0.868422  0.203655  0.433507  1
  Si  Si34  1  0.296345  0.368422  0.683507  1
  Si  Si35  1  0.703655  0.631578  0.183507  1
