# generated using pymatgen
data_YErReC2
_symmetry_space_group_name_H-M   'P 1'
_cell_length_a   5.09456400
_cell_length_b   6.57881900
_cell_length_c   9.83462700
_cell_angle_alpha   90.00000000
_cell_angle_beta   90.00000000
_cell_angle_gamma   90.00000000
_symmetry_Int_Tables_number   1
_chemical_formula_structural   YErReC2
_chemical_formula_sum   'Y4 Er4 Re4 C8'
_cell_volume   329.61946747
_cell_formula_units_Z   4
loop_
 _symmetry_equiv_pos_site_id
 _symmetry_equiv_pos_as_xyz
  1  'x, y, z'
loop_
 _atom_site_type_symbol
 _atom_site_label
 _atom_site_symmetry_multiplicity
 _atom_site_fract_x
 _atom_site_fract_y
 _atom_site_fract_z
 _atom_site_occupancy
  Y  Y0  1  0.250000  0.467154  0.216080  1
  Y  Y1  1  0.250000  0.967154  0.283920  1
  Y  Y2  1  0.750000  0.532846  0.783920  1
  Y  Y3  1  0.750000  0.032846  0.716080  1
  Er  Er4  1  0.250000  0.821886  0.942608  1
  Er  Er5  1  0.250000  0.321886  0.557392  1
  Er  Er6  1  0.750000  0.178114  0.057392  1
  Er  Er7  1  0.750000  0.678114  0.442608  1
  Re  Re8  1  0.250000  0.278426  0.866571  1
  Re  Re9  1  0.250000  0.778426  0.633429  1
  Re  Re10  1  0.750000  0.721574  0.133429  1
  Re  Re11  1  0.750000  0.221574  0.366571  1
  C  C12  1  0.250000  0.045874  0.740731  1
  C  C13  1  0.250000  0.545874  0.759269  1
  C  C14  1  0.750000  0.954126  0.259269  1
  C  C15  1  0.750000  0.454126  0.240731  1
  C  C16  1  0.250000  0.674492  0.450339  1
  C  C17  1  0.250000  0.174492  0.049661  1
  C  C18  1  0.750000  0.325508  0.549661  1
  C  C19  1  0.750000  0.825508  0.950339  1
