# generated using pymatgen
data_Sr6TbYSb6
_symmetry_space_group_name_H-M   'P 1'
_cell_length_a   8.47167800
_cell_length_b   8.47121469
_cell_length_c   8.60032328
_cell_angle_alpha   109.80868626
_cell_angle_beta   109.84552870
_cell_angle_gamma   108.73279207
_symmetry_Int_Tables_number   1
_chemical_formula_structural   Sr6TbYSb6
_chemical_formula_sum   'Sr6 Tb1 Y1 Sb6'
_cell_volume   475.23811893
_cell_formula_units_Z   1
loop_
 _symmetry_equiv_pos_site_id
 _symmetry_equiv_pos_as_xyz
  1  'x, y, z'
loop_
 _atom_site_type_symbol
 _atom_site_label
 _atom_site_symmetry_multiplicity
 _atom_site_fract_x
 _atom_site_fract_y
 _atom_site_fract_z
 _atom_site_occupancy
  Sr  Sr0  1  0.500414  0.003427  0.361211  1
  Sr  Sr1  1  0.995480  0.360497  0.494760  1
  Sr  Sr2  1  0.503530  0.000545  0.861438  1
  Sr  Sr3  1  0.640800  0.639851  0.644515  1
  Sr  Sr4  1  0.140125  0.141090  0.144570  1
  Sr  Sr5  1  0.860503  0.495479  0.994741  1
  Tb  Tb6  1  0.997862  0.860228  0.496861  1
  Y  Y7  1  0.360118  0.497928  0.996994  1
  Sb  Sb8  1  0.743822  0.860577  0.134336  1
  Sb  Sb9  1  0.360976  0.244316  0.634574  1
  Sb  Sb10  1  0.248101  0.629589  0.370815  1
  Sb  Sb11  1  0.895506  0.123564  0.747445  1
  Sb  Sb12  1  0.623093  0.395198  0.246855  1
  Sb  Sb13  1  0.129669  0.747709  0.870883  1
