# generated using pymatgen
data_Zr6Ga5SbRu12
_symmetry_space_group_name_H-M   'P 1'
_cell_length_a   4.49011800
_cell_length_b   6.35953500
_cell_length_c   13.43882900
_cell_angle_alpha   90.00000000
_cell_angle_beta   90.00007239
_cell_angle_gamma   90.00000000
_symmetry_Int_Tables_number   1
_chemical_formula_structural   Zr6Ga5SbRu12
_chemical_formula_sum   'Zr6 Ga5 Sb1 Ru12'
_cell_volume   383.74660303
_cell_formula_units_Z   1
loop_
 _symmetry_equiv_pos_site_id
 _symmetry_equiv_pos_as_xyz
  1  'x, y, z'
loop_
 _atom_site_type_symbol
 _atom_site_label
 _atom_site_symmetry_multiplicity
 _atom_site_fract_x
 _atom_site_fract_y
 _atom_site_fract_z
 _atom_site_occupancy
  Zr  Zr0  1  0.000000  0.500000  0.000000  1
  Zr  Zr1  1  0.499983  0.000000  0.172082  1
  Zr  Zr2  1  0.999995  0.500000  0.335880  1
  Zr  Zr3  1  0.500001  0.000000  0.500000  1
  Zr  Zr4  1  0.000005  0.500000  0.664120  1
  Zr  Zr5  1  0.500019  0.000000  0.827918  1
  Ga  Ga6  1  0.500000  0.500000  0.167460  1
  Ga  Ga7  1  0.999998  0.000000  0.333798  1
  Ga  Ga8  1  0.500001  0.500000  0.500000  1
  Ga  Ga9  1  0.000002  0.000000  0.666202  1
  Ga  Ga10  1  0.499999  0.500000  0.832539  1
  Sb  Sb11  1  0.000000  0.000000  0.000000  1
  Ru  Ru12  1  0.500001  0.252541  0.000000  1
  Ru  Ru13  1  0.500001  0.747459  0.000000  1
  Ru  Ru14  1  0.999999  0.251867  0.168256  1
  Ru  Ru15  1  0.999999  0.748133  0.168256  1
  Ru  Ru16  1  0.499995  0.251945  0.334113  1
  Ru  Ru17  1  0.499995  0.748055  0.334113  1
  Ru  Ru18  1  0.000000  0.246875  0.500000  1
  Ru  Ru19  1  0.000000  0.753125  0.500000  1
  Ru  Ru20  1  0.500004  0.251945  0.665887  1
  Ru  Ru21  1  0.500004  0.748055  0.665887  1
  Ru  Ru22  1  0.000001  0.251867  0.831744  1
  Ru  Ru23  1  0.000001  0.748133  0.831744  1
