# generated using pymatgen
data_Tb5Er5Si5Te
_symmetry_space_group_name_H-M   'P 1'
_cell_length_a   8.50388800
_cell_length_b   8.53126846
_cell_length_c   6.37014800
_cell_angle_alpha   90.00000000
_cell_angle_beta   90.00000000
_cell_angle_gamma   119.81133668
_symmetry_Int_Tables_number   1
_chemical_formula_structural   Tb5Er5Si5Te
_chemical_formula_sum   'Tb5 Er5 Si5 Te1'
_cell_volume   400.99023353
_cell_formula_units_Z   1
loop_
 _symmetry_equiv_pos_site_id
 _symmetry_equiv_pos_as_xyz
  1  'x, y, z'
loop_
 _atom_site_type_symbol
 _atom_site_label
 _atom_site_symmetry_multiplicity
 _atom_site_fract_x
 _atom_site_fract_y
 _atom_site_fract_z
 _atom_site_occupancy
  Tb  Tb0  1  0.986748  0.745076  0.750000  1
  Tb  Tb1  1  0.999670  0.245277  0.250000  1
  Tb  Tb2  1  0.753078  0.753792  0.250000  1
  Tb  Tb3  1  0.764709  0.999808  0.750000  1
  Tb  Tb4  1  0.243119  0.000411  0.250000  1
  Er  Er5  1  0.241853  0.255710  0.750000  1
  Er  Er6  1  0.330564  0.655109  0.496974  1
  Er  Er7  1  0.675411  0.344686  0.003198  1
  Er  Er8  1  0.675411  0.344686  0.496802  1
  Er  Er9  1  0.330564  0.655109  0.003026  1
  Si  Si10  1  0.394792  0.392428  0.250000  1
  Si  Si11  1  0.002531  0.607983  0.250000  1
  Si  Si12  1  0.000257  0.394851  0.750000  1
  Si  Si13  1  0.602245  0.603238  0.750000  1
  Si  Si14  1  0.605363  0.000276  0.250000  1
  Te  Te15  1  0.393689  0.001560  0.750000  1
