# generated using pymatgen
data_YbErAl7Si2Ir3
_symmetry_space_group_name_H-M   'P 1'
_cell_length_a   7.49732881
_cell_length_b   7.47182107
_cell_length_c   9.41772097
_cell_angle_alpha   89.96431588
_cell_angle_beta   90.02651585
_cell_angle_gamma   119.85059867
_symmetry_Int_Tables_number   1
_chemical_formula_structural   YbErAl7Si2Ir3
_chemical_formula_sum   'Yb2 Er2 Al14 Si4 Ir6'
_cell_volume   457.57388571
_cell_formula_units_Z   2
loop_
 _symmetry_equiv_pos_site_id
 _symmetry_equiv_pos_as_xyz
  1  'x, y, z'
loop_
 _atom_site_type_symbol
 _atom_site_label
 _atom_site_symmetry_multiplicity
 _atom_site_fract_x
 _atom_site_fract_y
 _atom_site_fract_z
 _atom_site_occupancy
  Yb  Yb0  1  0.669857  0.000989  0.249995  1
  Yb  Yb1  1  0.319721  0.991035  0.745368  1
  Er  Er2  1  0.000760  0.669108  0.249936  1
  Er  Er3  1  0.005477  0.341619  0.754451  1
  Al  Al4  1  0.130732  0.126502  0.250126  1
  Al  Al5  1  0.871946  0.872216  0.750039  1
  Al  Al6  1  0.000223  0.328115  0.427717  1
  Al  Al7  1  0.668982  0.000335  0.576538  1
  Al  Al8  1  0.662578  0.997922  0.923319  1
  Al  Al9  1  0.340379  0.004496  0.071079  1
  Al  Al10  1  0.332734  0.333649  0.558492  1
  Al  Al11  1  0.663606  0.668335  0.441052  1
  Al  Al12  1  0.663039  0.668211  0.058805  1
  Al  Al13  1  0.336469  0.332159  0.941690  1
  Al  Al14  1  0.337357  0.546819  0.250339  1
  Al  Al15  1  0.660197  0.450712  0.751264  1
  Al  Al16  1  0.549479  0.345321  0.249698  1
  Al  Al17  1  0.454697  0.658872  0.748948  1
  Si  Si18  1  0.000896  0.327103  0.076848  1
  Si  Si19  1  0.997761  0.672123  0.930931  1
  Si  Si20  1  0.992026  0.659881  0.569019  1
  Si  Si21  1  0.340805  0.007004  0.424157  1
  Ir  Ir22  1  0.690508  0.338997  0.002067  1
  Ir  Ir23  1  0.309501  0.661056  0.998487  1
  Ir  Ir24  1  0.317539  0.677108  0.499721  1
  Ir  Ir25  1  0.673990  0.330250  0.499938  1
  Ir  Ir26  1  0.001115  0.999445  0.000617  1
  Ir  Ir27  1  0.007628  0.990619  0.499360  1
