# generated using pymatgen
data_La5NiSnSb
_symmetry_space_group_name_H-M   'P 1'
_cell_length_a   8.37964600
_cell_length_b   9.29518200
_cell_length_c   12.82051600
_cell_angle_alpha   90.00000000
_cell_angle_beta   90.00000000
_cell_angle_gamma   90.00000000
_symmetry_Int_Tables_number   1
_chemical_formula_structural   La5NiSnSb
_chemical_formula_sum   'La20 Ni4 Sn4 Sb4'
_cell_volume   998.59428183
_cell_formula_units_Z   4
loop_
 _symmetry_equiv_pos_site_id
 _symmetry_equiv_pos_as_xyz
  1  'x, y, z'
loop_
 _atom_site_type_symbol
 _atom_site_label
 _atom_site_symmetry_multiplicity
 _atom_site_fract_x
 _atom_site_fract_y
 _atom_site_fract_z
 _atom_site_occupancy
  La  La0  1  0.153725  0.749953  0.205918  1
  La  La1  1  0.653725  0.250047  0.294082  1
  La  La2  1  0.846275  0.249953  0.794082  1
  La  La3  1  0.346275  0.750047  0.705918  1
  La  La4  1  0.446810  0.750525  0.995891  1
  La  La5  1  0.946810  0.249475  0.504109  1
  La  La6  1  0.553190  0.250525  0.004109  1
  La  La7  1  0.053190  0.749475  0.495891  1
  La  La8  1  0.629831  0.751039  0.301016  1
  La  La9  1  0.129831  0.248961  0.198984  1
  La  La10  1  0.370169  0.251039  0.698984  1
  La  La11  1  0.870169  0.748961  0.801016  1
  La  La12  1  0.815293  0.963689  0.067187  1
  La  La13  1  0.315293  0.036311  0.432813  1
  La  La14  1  0.184707  0.463689  0.932813  1
  La  La15  1  0.684707  0.536311  0.567187  1
  La  La16  1  0.186893  0.036789  0.935785  1
  La  La17  1  0.686893  0.963211  0.564215  1
  La  La18  1  0.813107  0.536789  0.064215  1
  La  La19  1  0.313107  0.463211  0.435785  1
  Ni  Ni20  1  0.426383  0.750518  0.489253  1
  Ni  Ni21  1  0.926383  0.249482  0.010747  1
  Ni  Ni22  1  0.573617  0.250518  0.510747  1
  Ni  Ni23  1  0.073617  0.749482  0.989253  1
  Sn  Sn24  1  0.927895  0.995267  0.328072  1
  Sn  Sn25  1  0.427895  0.004733  0.171928  1
  Sn  Sn26  1  0.072105  0.495267  0.671928  1
  Sn  Sn27  1  0.572105  0.504733  0.828072  1
  Sb  Sb28  1  0.072942  0.004767  0.673110  1
  Sb  Sb29  1  0.572942  0.995233  0.826890  1
  Sb  Sb30  1  0.927058  0.504767  0.326890  1
  Sb  Sb31  1  0.427058  0.495233  0.173110  1
