# generated using pymatgen
data_SrNb9Se16
_symmetry_space_group_name_H-M   'P 1'
_cell_length_a   6.99633500
_cell_length_b   6.99633452
_cell_length_c   14.49089300
_cell_angle_alpha   90.00000000
_cell_angle_beta   90.00000000
_cell_angle_gamma   120.00000700
_symmetry_Int_Tables_number   1
_chemical_formula_structural   SrNb9Se16
_chemical_formula_sum   'Sr1 Nb9 Se16'
_cell_volume   614.28076078
_cell_formula_units_Z   1
loop_
 _symmetry_equiv_pos_site_id
 _symmetry_equiv_pos_as_xyz
  1  'x, y, z'
loop_
 _atom_site_type_symbol
 _atom_site_label
 _atom_site_symmetry_multiplicity
 _atom_site_fract_x
 _atom_site_fract_y
 _atom_site_fract_z
 _atom_site_occupancy
  Sr  Sr0  1  0.000000  0.000000  0.500000  1
  Nb  Nb1  1  0.000000  0.000000  0.000000  1
  Nb  Nb2  1  0.000000  0.000000  0.225922  1
  Nb  Nb3  1  0.000000  0.000000  0.774078  1
  Nb  Nb4  1  0.506078  0.493922  0.225748  1
  Nb  Nb5  1  0.506078  0.012156  0.225748  1
  Nb  Nb6  1  0.987844  0.493922  0.225748  1
  Nb  Nb7  1  0.493922  0.506078  0.774252  1
  Nb  Nb8  1  0.493922  0.987844  0.774252  1
  Nb  Nb9  1  0.012156  0.506078  0.774252  1
  Se  Se10  1  0.333333  0.666667  0.892419  1
  Se  Se11  1  0.666667  0.333333  0.107581  1
  Se  Se12  1  0.666667  0.333333  0.345461  1
  Se  Se13  1  0.333333  0.666667  0.654539  1
  Se  Se14  1  0.168735  0.831265  0.340619  1
  Se  Se15  1  0.168735  0.337469  0.340619  1
  Se  Se16  1  0.662531  0.831265  0.340619  1
  Se  Se17  1  0.831265  0.168735  0.659381  1
  Se  Se18  1  0.831265  0.662531  0.659381  1
  Se  Se19  1  0.337469  0.168735  0.659381  1
  Se  Se20  1  0.830955  0.169045  0.889188  1
  Se  Se21  1  0.830955  0.661909  0.889188  1
  Se  Se22  1  0.338091  0.169045  0.889188  1
  Se  Se23  1  0.169045  0.830955  0.110812  1
  Se  Se24  1  0.169045  0.338091  0.110812  1
  Se  Se25  1  0.661909  0.830955  0.110812  1
