# generated using pymatgen
data_Ta3BiPb4O13
_symmetry_space_group_name_H-M   'P 1'
_cell_length_a   7.78592277
_cell_length_b   7.78592374
_cell_length_c   7.78592233
_cell_angle_alpha   59.07468495
_cell_angle_beta   59.07467871
_cell_angle_gamma   59.07467639
_symmetry_Int_Tables_number   1
_chemical_formula_structural   Ta3BiPb4O13
_chemical_formula_sum   'Ta3 Bi1 Pb4 O13'
_cell_volume   326.70413464
_cell_formula_units_Z   1
loop_
 _symmetry_equiv_pos_site_id
 _symmetry_equiv_pos_as_xyz
  1  'x, y, z'
loop_
 _atom_site_type_symbol
 _atom_site_label
 _atom_site_symmetry_multiplicity
 _atom_site_fract_x
 _atom_site_fract_y
 _atom_site_fract_z
 _atom_site_occupancy
  Ta  Ta0  1  0.004841  0.500384  0.500384  1
  Ta  Ta1  1  0.500384  0.500384  0.004841  1
  Ta  Ta2  1  0.500384  0.004841  0.500384  1
  Bi  Bi3  1  0.503117  0.503117  0.503117  1
  Pb  Pb4  1  0.002605  0.002605  0.002605  1
  Pb  Pb5  1  0.497405  0.014181  0.014181  1
  Pb  Pb6  1  0.014181  0.014181  0.497405  1
  Pb  Pb7  1  0.014181  0.497405  0.014181  1
  O  O8  1  0.891918  0.394334  0.394334  1
  O  O9  1  0.428309  0.794178  0.794178  1
  O  O10  1  0.394334  0.394334  0.891918  1
  O  O11  1  0.794178  0.794178  0.428309  1
  O  O12  1  0.794178  0.428309  0.794178  1
  O  O13  1  0.394334  0.891918  0.394334  1
  O  O14  1  0.150979  0.576207  0.576207  1
  O  O15  1  0.582973  0.192096  0.192096  1
  O  O16  1  0.576207  0.576207  0.150979  1
  O  O17  1  0.192096  0.192096  0.582973  1
  O  O18  1  0.192096  0.582973  0.192096  1
  O  O19  1  0.576207  0.150979  0.576207  1
  O  O20  1  0.120093  0.120093  0.120093  1
