# generated using pymatgen
data_Na4CuSb2Au
_symmetry_space_group_name_H-M   'P 1'
_cell_length_a   6.04006954
_cell_length_b   6.04007002
_cell_length_c   5.74834642
_cell_angle_alpha   90.83216551
_cell_angle_beta   90.83215531
_cell_angle_gamma   102.27117399
_symmetry_Int_Tables_number   1
_chemical_formula_structural   Na4CuSb2Au
_chemical_formula_sum   'Na4 Cu1 Sb2 Au1'
_cell_volume   204.86741494
_cell_formula_units_Z   1
loop_
 _symmetry_equiv_pos_site_id
 _symmetry_equiv_pos_as_xyz
  1  'x, y, z'
loop_
 _atom_site_type_symbol
 _atom_site_label
 _atom_site_symmetry_multiplicity
 _atom_site_fract_x
 _atom_site_fract_y
 _atom_site_fract_z
 _atom_site_occupancy
  Na  Na0  1  0.015987  0.660602  0.247193  1
  Na  Na1  1  0.984013  0.339398  0.752807  1
  Na  Na2  1  0.660602  0.015987  0.247193  1
  Na  Na3  1  0.339398  0.984013  0.752807  1
  Cu  Cu4  1  0.500000  0.500000  0.500000  1
  Sb  Sb5  1  0.788373  0.788373  0.733353  1
  Sb  Sb6  1  0.211627  0.211627  0.266647  1
  Au  Au7  1  0.500000  0.500000  0.000000  1
