# generated using pymatgen
data_Tb2Cd2Ga6CoNi
_symmetry_space_group_name_H-M   'P 1'
_cell_length_a   4.21766104
_cell_length_b   6.51325500
_cell_length_c   8.16075102
_cell_angle_alpha   90.00000000
_cell_angle_beta   104.97583184
_cell_angle_gamma   90.00000000
_symmetry_Int_Tables_number   1
_chemical_formula_structural   Tb2Cd2Ga6CoNi
_chemical_formula_sum   'Tb2 Cd2 Ga6 Co1 Ni1'
_cell_volume   216.56721210
_cell_formula_units_Z   1
loop_
 _symmetry_equiv_pos_site_id
 _symmetry_equiv_pos_as_xyz
  1  'x, y, z'
loop_
 _atom_site_type_symbol
 _atom_site_label
 _atom_site_symmetry_multiplicity
 _atom_site_fract_x
 _atom_site_fract_y
 _atom_site_fract_z
 _atom_site_occupancy
  Tb  Tb0  1  0.873458  0.750000  0.746915  1
  Tb  Tb1  1  0.127069  0.250000  0.254139  1
  Cd  Cd2  1  0.499758  0.500077  0.999517  1
  Cd  Cd3  1  0.499758  0.999923  0.999517  1
  Ga  Ga4  1  0.072830  0.750000  0.145661  1
  Ga  Ga5  1  0.928294  0.250000  0.856587  1
  Ga  Ga6  1  0.688420  0.552100  0.376839  1
  Ga  Ga7  1  0.311069  0.451233  0.622139  1
  Ga  Ga8  1  0.688420  0.947900  0.376839  1
  Ga  Ga9  1  0.311069  0.048767  0.622139  1
  Co  Co10  1  0.221003  0.750000  0.442006  1
  Ni  Ni11  1  0.778851  0.250000  0.557702  1
