# generated using pymatgen
data_Ho4ZnCd2Pd3
_symmetry_space_group_name_H-M   'P 1'
_cell_length_a   7.69821209
_cell_length_b   7.69821209
_cell_length_c   3.74727300
_cell_angle_alpha   90.00000000
_cell_angle_beta   90.00000000
_cell_angle_gamma   89.44561802
_symmetry_Int_Tables_number   1
_chemical_formula_structural   Ho4ZnCd2Pd3
_chemical_formula_sum   'Ho4 Zn1 Cd2 Pd3'
_cell_volume   222.06225613
_cell_formula_units_Z   1
loop_
 _symmetry_equiv_pos_site_id
 _symmetry_equiv_pos_as_xyz
  1  'x, y, z'
loop_
 _atom_site_type_symbol
 _atom_site_label
 _atom_site_symmetry_multiplicity
 _atom_site_fract_x
 _atom_site_fract_y
 _atom_site_fract_z
 _atom_site_occupancy
  Ho  Ho0  1  0.674012  0.174012  0.500000  1
  Ho  Ho1  1  0.340264  0.840264  0.500000  1
  Ho  Ho2  1  0.165477  0.315586  0.500000  1
  Ho  Ho3  1  0.815586  0.665477  0.500000  1
  Zn  Zn4  1  0.125811  0.625811  0.000000  1
  Cd  Cd5  1  0.999169  0.994284  0.000000  1
  Cd  Cd6  1  0.494284  0.499169  0.000000  1
  Pd  Pd7  1  0.879074  0.379074  0.000000  1
  Pd  Pd8  1  0.632083  0.874241  0.000000  1
  Pd  Pd9  1  0.374241  0.132083  0.000000  1
