# generated using pymatgen
data_Dy6Al24Co3Os5
_symmetry_space_group_name_H-M   'P 1'
_cell_length_a   8.75353401
_cell_length_b   8.78800598
_cell_length_c   9.48448236
_cell_angle_alpha   89.99999829
_cell_angle_beta   89.72498905
_cell_angle_gamma   120.13034758
_symmetry_Int_Tables_number   1
_chemical_formula_structural   Dy6Al24Co3Os5
_chemical_formula_sum   'Dy6 Al24 Co3 Os5'
_cell_volume   631.01460575
_cell_formula_units_Z   1
loop_
 _symmetry_equiv_pos_site_id
 _symmetry_equiv_pos_as_xyz
  1  'x, y, z'
loop_
 _atom_site_type_symbol
 _atom_site_label
 _atom_site_symmetry_multiplicity
 _atom_site_fract_x
 _atom_site_fract_y
 _atom_site_fract_z
 _atom_site_occupancy
  Dy  Dy0  1  0.196330  0.387855  0.250324  1
  Dy  Dy1  1  0.803670  0.612145  0.749676  1
  Dy  Dy2  1  0.610729  0.805365  0.248012  1
  Dy  Dy3  1  0.389271  0.194635  0.751988  1
  Dy  Dy4  1  0.196330  0.808476  0.250324  1
  Dy  Dy5  1  0.803670  0.191524  0.749676  1
  Al  Al6  1  0.326915  0.663458  0.015730  1
  Al  Al7  1  0.673085  0.336542  0.984270  1
  Al  Al8  1  0.666611  0.333305  0.515116  1
  Al  Al9  1  0.333389  0.666695  0.484884  1
  Al  Al10  1  0.159176  0.319351  0.576106  1
  Al  Al11  1  0.840824  0.680649  0.423894  1
  Al  Al12  1  0.680844  0.840423  0.574980  1
  Al  Al13  1  0.841490  0.679324  0.074867  1
  Al  Al14  1  0.319156  0.159577  0.425020  1
  Al  Al15  1  0.158510  0.320676  0.925133  1
  Al  Al16  1  0.159176  0.839825  0.576106  1
  Al  Al17  1  0.321185  0.160592  0.075061  1
  Al  Al18  1  0.840824  0.160175  0.423894  1
  Al  Al19  1  0.678815  0.839408  0.924939  1
  Al  Al20  1  0.841490  0.162164  0.074867  1
  Al  Al21  1  0.158510  0.837836  0.925133  1
  Al  Al22  1  0.563167  0.124440  0.248997  1
  Al  Al23  1  0.436833  0.875560  0.751003  1
  Al  Al24  1  0.881593  0.440797  0.244242  1
  Al  Al25  1  0.118407  0.559203  0.755758  1
  Al  Al26  1  0.563167  0.438727  0.248997  1
  Al  Al27  1  0.436833  0.561273  0.751003  1
  Al  Al28  1  0.000802  0.000401  0.250203  1
  Al  Al29  1  0.999198  0.999599  0.749797  1
  Co  Co30  1  0.000000  0.500000  0.000000  1
  Co  Co31  1  0.000000  0.000000  0.000000  1
  Co  Co32  1  0.000000  0.000000  0.500000  1
  Os  Os33  1  0.500000  0.000000  0.000000  1
  Os  Os34  1  0.500000  0.000000  0.500000  1
  Os  Os35  1  0.500000  0.500000  0.000000  1
  Os  Os36  1  0.000000  0.500000  0.500000  1
  Os  Os37  1  0.500000  0.500000  0.500000  1
