# generated using pymatgen
data_BeB3W4
_symmetry_space_group_name_H-M   'P 1'
_cell_length_a   3.14658096
_cell_length_b   3.18233948
_cell_length_c   8.87999454
_cell_angle_alpha   100.32234130
_cell_angle_beta   100.20510342
_cell_angle_gamma   90.00001731
_symmetry_Int_Tables_number   1
_chemical_formula_structural   BeB3W4
_chemical_formula_sum   'Be1 B3 W4'
_cell_volume   86.05033247
_cell_formula_units_Z   1
loop_
 _symmetry_equiv_pos_site_id
 _symmetry_equiv_pos_as_xyz
  1  'x, y, z'
loop_
 _atom_site_type_symbol
 _atom_site_label
 _atom_site_symmetry_multiplicity
 _atom_site_fract_x
 _atom_site_fract_y
 _atom_site_fract_z
 _atom_site_occupancy
  Be  Be0  1  0.592877  0.092877  0.185754  1
  B  B1  1  0.657050  0.657050  0.314100  1
  B  B2  1  0.344573  0.344573  0.689145  1
  B  B3  1  0.905634  0.405634  0.811267  1
  W  W4  1  0.050718  0.550718  0.101435  1
  W  W5  1  0.199068  0.199068  0.398137  1
  W  W6  1  0.803643  0.803643  0.607286  1
  W  W7  1  0.446438  0.946438  0.892877  1
