# generated using pymatgen
data_SrPrSm5CoI12
_symmetry_space_group_name_H-M   'P 1'
_cell_length_a   9.95268303
_cell_length_b   10.03638891
_cell_length_c   10.03384137
_cell_angle_alpha   106.34059565
_cell_angle_beta   106.45747098
_cell_angle_gamma   106.12437779
_symmetry_Int_Tables_number   1
_chemical_formula_structural   SrPrSm5CoI12
_chemical_formula_sum   'Sr1 Pr1 Sm5 Co1 I12'
_cell_volume   849.97023666
_cell_formula_units_Z   1
loop_
 _symmetry_equiv_pos_site_id
 _symmetry_equiv_pos_as_xyz
  1  'x, y, z'
loop_
 _atom_site_type_symbol
 _atom_site_label
 _atom_site_symmetry_multiplicity
 _atom_site_fract_x
 _atom_site_fract_y
 _atom_site_fract_z
 _atom_site_occupancy
  Sr  Sr0  1  0.500173  0.499611  0.499958  1
  Pr  Pr1  1  0.715231  0.980671  0.909475  1
  Sm  Sm2  1  0.979924  0.905419  0.704304  1
  Sm  Sm3  1  0.020163  0.094697  0.296017  1
  Sm  Sm4  1  0.095119  0.295344  0.020679  1
  Sm  Sm5  1  0.279471  0.019445  0.089296  1
  Sm  Sm6  1  0.906803  0.705091  0.979897  1
  Co  Co7  1  0.999855  0.000402  0.000057  1
  I  I8  1  0.550424  0.627768  0.858946  1
  I  I9  1  0.449021  0.366435  0.140384  1
  I  I10  1  0.318703  0.927249  0.778042  1
  I  I11  1  0.368463  0.139761  0.446863  1
  I  I12  1  0.927583  0.777516  0.320751  1
  I  I13  1  0.680630  0.074181  0.227693  1
  I  I14  1  0.072902  0.222626  0.679317  1
  I  I15  1  0.778650  0.325069  0.927389  1
  I  I16  1  0.225261  0.681344  0.073892  1
  I  I17  1  0.862121  0.552120  0.632695  1
  I  I18  1  0.138427  0.448155  0.367240  1
  I  I19  1  0.631076  0.857096  0.547105  1
