# generated using pymatgen
data_Er2Mn4SiPC2
_symmetry_space_group_name_H-M   'P 1'
_cell_length_a   5.55574735
_cell_length_b   5.55574702
_cell_length_c   6.94332800
_cell_angle_alpha   90.00000000
_cell_angle_beta   90.00000000
_cell_angle_gamma   141.75638757
_symmetry_Int_Tables_number   1
_chemical_formula_structural   Er2Mn4SiPC2
_chemical_formula_sum   'Er2 Mn4 Si1 P1 C2'
_cell_volume   132.66237458
_cell_formula_units_Z   1
loop_
 _symmetry_equiv_pos_site_id
 _symmetry_equiv_pos_as_xyz
  1  'x, y, z'
loop_
 _atom_site_type_symbol
 _atom_site_label
 _atom_site_symmetry_multiplicity
 _atom_site_fract_x
 _atom_site_fract_y
 _atom_site_fract_z
 _atom_site_occupancy
  Er  Er0  1  0.542690  0.457310  0.250000  1
  Er  Er1  1  0.457587  0.542413  0.750000  1
  Mn  Mn2  1  0.830642  0.169358  0.063504  1
  Mn  Mn3  1  0.169763  0.830237  0.946238  1
  Mn  Mn4  1  0.169763  0.830237  0.553762  1
  Mn  Mn5  1  0.830642  0.169358  0.436496  1
  Si  Si6  1  0.735205  0.264795  0.750000  1
  P  P7  1  0.264886  0.735114  0.250000  1
  C  C8  1  0.999411  0.000589  0.000211  1
  C  C9  1  0.999411  0.000589  0.499789  1
