# generated using pymatgen
data_La9Pr3(GaI3)4
_symmetry_space_group_name_H-M   'P 1'
_cell_length_a   11.03069604
_cell_length_b   11.07955076
_cell_length_c   11.05696956
_cell_angle_alpha   109.45699212
_cell_angle_beta   109.24741085
_cell_angle_gamma   109.36473428
_symmetry_Int_Tables_number   1
_chemical_formula_structural   La9Pr3(GaI3)4
_chemical_formula_sum   'La9 Pr3 Ga4 I12'
_cell_volume   1044.65075814
_cell_formula_units_Z   1
loop_
 _symmetry_equiv_pos_site_id
 _symmetry_equiv_pos_as_xyz
  1  'x, y, z'
loop_
 _atom_site_type_symbol
 _atom_site_label
 _atom_site_symmetry_multiplicity
 _atom_site_fract_x
 _atom_site_fract_y
 _atom_site_fract_z
 _atom_site_occupancy
  La  La0  1  0.025108  0.261965  0.013850  1
  La  La1  1  0.750245  0.012603  0.486176  1
  La  La2  1  0.261671  0.750812  0.237484  1
  La  La3  1  0.487341  0.750255  0.011421  1
  La  La4  1  0.750507  0.237261  0.261759  1
  La  La5  1  0.012706  0.487555  0.748596  1
  La  La6  1  0.237652  0.261977  0.748653  1
  La  La7  1  0.485988  0.237087  0.474983  1
  La  La8  1  0.473865  0.485767  0.237477  1
  Pr  Pr9  1  0.264183  0.015833  0.030867  1
  Pr  Pr10  1  0.015463  0.029208  0.264400  1
  Pr  Pr11  1  0.235082  0.469562  0.484113  1
  Ga  Ga12  1  0.500112  0.999972  0.250241  1
  Ga  Ga13  1  0.249961  0.500012  0.999760  1
  Ga  Ga14  1  0.249585  0.249596  0.250277  1
  Ga  Ga15  1  0.000356  0.250030  0.499586  1
  I  I16  1  0.759011  0.743964  0.249358  1
  I  I17  1  0.994336  0.508141  0.252824  1
  I  I18  1  0.250075  0.757349  0.742528  1
  I  I19  1  0.756917  0.514904  0.507174  1
  I  I20  1  0.505577  0.247236  0.991724  1
  I  I21  1  0.745006  0.991983  0.986338  1
  I  I22  1  0.994395  0.985423  0.744290  1
  I  I23  1  0.513265  0.507587  0.754858  1
  I  I24  1  0.247323  0.991797  0.505574  1
  I  I25  1  0.742318  0.250357  0.757674  1
  I  I26  1  0.505054  0.755350  0.514073  1
  I  I27  1  0.986899  0.746415  0.993944  1
