# generated using pymatgen
data_Mg2NbGaPt12
_symmetry_space_group_name_H-M   'P 1'
_cell_length_a   5.62075366
_cell_length_b   5.62075431
_cell_length_c   7.92388900
_cell_angle_alpha   90.00000000
_cell_angle_beta   90.00000000
_cell_angle_gamma   90.08800176
_symmetry_Int_Tables_number   1
_chemical_formula_structural   Mg2NbGaPt12
_chemical_formula_sum   'Mg2 Nb1 Ga1 Pt12'
_cell_volume   250.33814257
_cell_formula_units_Z   1
loop_
 _symmetry_equiv_pos_site_id
 _symmetry_equiv_pos_as_xyz
  1  'x, y, z'
loop_
 _atom_site_type_symbol
 _atom_site_label
 _atom_site_symmetry_multiplicity
 _atom_site_fract_x
 _atom_site_fract_y
 _atom_site_fract_z
 _atom_site_occupancy
  Mg  Mg0  1  0.500000  0.000000  0.248735  1
  Mg  Mg1  1  0.500000  0.000000  0.751641  1
  Nb  Nb2  1  0.000000  0.500000  0.749515  1
  Ga  Ga3  1  0.000000  0.500000  0.249261  1
  Pt  Pt4  1  0.248203  0.251797  0.999896  1
  Pt  Pt5  1  0.753290  0.253290  0.499645  1
  Pt  Pt6  1  0.753799  0.253799  0.999979  1
  Pt  Pt7  1  0.751797  0.748203  0.999896  1
  Pt  Pt8  1  0.500000  0.500000  0.750026  1
  Pt  Pt9  1  0.248319  0.251681  0.500703  1
  Pt  Pt10  1  0.751681  0.748319  0.500703  1
  Pt  Pt11  1  0.246710  0.746710  0.499645  1
  Pt  Pt12  1  0.500000  0.500000  0.250176  1
  Pt  Pt13  1  0.000000  0.000000  0.750026  1
  Pt  Pt14  1  0.000000  0.000000  0.250176  1
  Pt  Pt15  1  0.246201  0.746201  0.999979  1
