# generated using pymatgen
data_LiNb5(TcGe)6
_symmetry_space_group_name_H-M   'P 1'
_cell_length_a   7.81766852
_cell_length_b   7.73942604
_cell_length_c   7.81767100
_cell_angle_alpha   125.91592669
_cell_angle_beta   129.62624379
_cell_angle_gamma   77.24911473
_symmetry_Int_Tables_number   1
_chemical_formula_structural   LiNb5(TcGe)6
_chemical_formula_sum   'Li1 Nb5 Tc6 Ge6'
_cell_volume   285.99061081
_cell_formula_units_Z   1
loop_
 _symmetry_equiv_pos_site_id
 _symmetry_equiv_pos_as_xyz
  1  'x, y, z'
loop_
 _atom_site_type_symbol
 _atom_site_label
 _atom_site_symmetry_multiplicity
 _atom_site_fract_x
 _atom_site_fract_y
 _atom_site_fract_z
 _atom_site_occupancy
  Li  Li0  1  0.555767  0.107354  0.051589  1
  Nb  Nb1  1  0.446514  0.490026  0.543512  1
  Nb  Nb2  1  0.949144  0.492346  0.043203  1
  Nb  Nb3  1  0.048080  0.092099  0.544021  1
  Nb  Nb4  1  0.753718  0.902679  0.648961  1
  Nb  Nb5  1  0.241862  0.886504  0.144642  1
  Tc  Tc6  1  0.501927  0.238587  0.732300  1
  Tc  Tc7  1  0.006286  0.238587  0.236660  1
  Tc  Tc8  1  0.121016  0.754068  0.618263  1
  Tc  Tc9  1  0.876346  0.504281  0.639600  1
  Tc  Tc10  1  0.635804  0.754068  0.133053  1
  Tc  Tc11  1  0.364680  0.504281  0.127935  1
  Ge  Ge12  1  0.743901  0.486734  0.242832  1
  Ge  Ge13  1  0.250680  0.497240  0.746561  1
  Ge  Ge14  1  0.343879  0.836908  0.517692  1
  Ge  Ge15  1  0.658730  0.159762  0.477315  1
  Ge  Ge16  1  0.819215  0.836908  0.993028  1
  Ge  Ge17  1  0.182447  0.159762  0.001032  1
