# generated using pymatgen
data_Tm12In7Ge
_symmetry_space_group_name_H-M   'P 1'
_cell_length_a   11.34384239
_cell_length_b   11.34384252
_cell_length_c   11.34384200
_cell_angle_alpha   117.49690494
_cell_angle_beta   117.49690527
_cell_angle_gamma   94.39308181
_symmetry_Int_Tables_number   1
_chemical_formula_structural   Tm12In7Ge
_chemical_formula_sum   'Tm24 In14 Ge2'
_cell_volume   1067.86071621
_cell_formula_units_Z   2
loop_
 _symmetry_equiv_pos_site_id
 _symmetry_equiv_pos_as_xyz
  1  'x, y, z'
loop_
 _atom_site_type_symbol
 _atom_site_label
 _atom_site_symmetry_multiplicity
 _atom_site_fract_x
 _atom_site_fract_y
 _atom_site_fract_z
 _atom_site_occupancy
  Tm  Tm0  1  0.146150  0.646148  0.500001  1
  Tm  Tm1  1  0.853850  0.353852  0.499999  1
  Tm  Tm2  1  0.646147  0.146148  0.499998  1
  Tm  Tm3  1  0.353853  0.853852  0.500002  1
  Tm  Tm4  1  0.837828  0.701571  0.263950  1
  Tm  Tm5  1  0.162172  0.298429  0.736050  1
  Tm  Tm6  1  0.437620  0.573875  0.736049  1
  Tm  Tm7  1  0.701569  0.437622  0.863743  1
  Tm  Tm8  1  0.062379  0.798429  0.136257  1
  Tm  Tm9  1  0.562380  0.426125  0.263951  1
  Tm  Tm10  1  0.298431  0.562378  0.136257  1
  Tm  Tm11  1  0.937621  0.201571  0.863743  1
  Tm  Tm12  1  0.573878  0.837828  0.136257  1
  Tm  Tm13  1  0.662174  0.926125  0.863746  1
  Tm  Tm14  1  0.426122  0.162172  0.863743  1
  Tm  Tm15  1  0.337826  0.073875  0.136254  1
  Tm  Tm16  1  0.926120  0.062378  0.263947  1
  Tm  Tm17  1  0.073880  0.937622  0.736053  1
  Tm  Tm18  1  0.798430  0.662172  0.736051  1
  Tm  Tm19  1  0.201570  0.337828  0.263949  1
  Tm  Tm20  1  0.171253  0.671254  0.842506  1
  Tm  Tm21  1  0.828747  0.328746  0.157494  1
  Tm  Tm22  1  0.671252  0.828746  0.499999  1
  Tm  Tm23  1  0.328748  0.171254  0.500001  1
  In  In24  1  0.620918  0.120914  0.741834  1
  In  In25  1  0.379082  0.879086  0.258166  1
  In  In26  1  0.120920  0.379086  0.500004  1
  In  In27  1  0.879080  0.620914  0.499996  1
  In  In28  1  0.500000  0.500000  0.000000  1
  In  In29  1  0.000000  0.000000  0.000000  1
  In  In30  1  0.375244  0.875236  0.848054  1
  In  In31  1  0.624756  0.124764  0.151946  1
  In  In32  1  0.027187  0.527191  0.151947  1
  In  In33  1  0.875245  0.027191  0.500004  1
  In  In34  1  0.472819  0.624764  0.500008  1
  In  In35  1  0.972813  0.472809  0.848053  1
  In  In36  1  0.124755  0.972809  0.499996  1
  In  In37  1  0.527181  0.375236  0.499992  1
  Ge  Ge38  1  0.749963  0.750000  0.999963  1
  Ge  Ge39  1  0.250037  0.250000  0.000037  1
