# generated using pymatgen
data_Lu9ScCd3Ru
_symmetry_space_group_name_H-M   'P 1'
_cell_length_a   9.31105600
_cell_length_b   9.31105597
_cell_length_c   9.60921800
_cell_angle_alpha   90.00000000
_cell_angle_beta   90.00000000
_cell_angle_gamma   120.00000010
_symmetry_Int_Tables_number   1
_chemical_formula_structural   Lu9ScCd3Ru
_chemical_formula_sum   'Lu18 Sc2 Cd6 Ru2'
_cell_volume   721.46713660
_cell_formula_units_Z   2
loop_
 _symmetry_equiv_pos_site_id
 _symmetry_equiv_pos_as_xyz
  1  'x, y, z'
loop_
 _atom_site_type_symbol
 _atom_site_label
 _atom_site_symmetry_multiplicity
 _atom_site_fract_x
 _atom_site_fract_y
 _atom_site_fract_z
 _atom_site_occupancy
  Lu  Lu0  1  0.208851  0.791149  0.441718  1
  Lu  Lu1  1  0.208851  0.417702  0.441718  1
  Lu  Lu2  1  0.582298  0.791149  0.441718  1
  Lu  Lu3  1  0.791149  0.208851  0.558282  1
  Lu  Lu4  1  0.791149  0.582298  0.558282  1
  Lu  Lu5  1  0.417702  0.208851  0.558282  1
  Lu  Lu6  1  0.791149  0.208851  0.941718  1
  Lu  Lu7  1  0.791149  0.582298  0.941718  1
  Lu  Lu8  1  0.417702  0.208851  0.941718  1
  Lu  Lu9  1  0.208851  0.791149  0.058282  1
  Lu  Lu10  1  0.208851  0.417702  0.058282  1
  Lu  Lu11  1  0.582298  0.791149  0.058282  1
  Lu  Lu12  1  0.540947  0.459053  0.250000  1
  Lu  Lu13  1  0.540947  0.081894  0.250000  1
  Lu  Lu14  1  0.918106  0.459053  0.250000  1
  Lu  Lu15  1  0.459053  0.540947  0.750000  1
  Lu  Lu16  1  0.459053  0.918106  0.750000  1
  Lu  Lu17  1  0.081894  0.540947  0.750000  1
  Sc  Sc18  1  0.000000  0.000000  0.500000  1
  Sc  Sc19  1  0.000000  0.000000  0.000000  1
  Cd  Cd20  1  0.888752  0.111248  0.250000  1
  Cd  Cd21  1  0.888752  0.777506  0.250000  1
  Cd  Cd22  1  0.222494  0.111248  0.250000  1
  Cd  Cd23  1  0.111248  0.888752  0.750000  1
  Cd  Cd24  1  0.111248  0.222494  0.750000  1
  Cd  Cd25  1  0.777506  0.888752  0.750000  1
  Ru  Ru26  1  0.333333  0.666667  0.250000  1
  Ru  Ru27  1  0.666667  0.333333  0.750000  1
