# generated using pymatgen
data_Zr4Fe2P4PdPt
_symmetry_space_group_name_H-M   'P 1'
_cell_length_a   3.77411600
_cell_length_b   6.51217989
_cell_length_c   7.37767953
_cell_angle_alpha   88.07736943
_cell_angle_beta   90.00000000
_cell_angle_gamma   90.00000000
_symmetry_Int_Tables_number   1
_chemical_formula_structural   Zr4Fe2P4PdPt
_chemical_formula_sum   'Zr4 Fe2 P4 Pd1 Pt1'
_cell_volume   181.22447964
_cell_formula_units_Z   1
loop_
 _symmetry_equiv_pos_site_id
 _symmetry_equiv_pos_as_xyz
  1  'x, y, z'
loop_
 _atom_site_type_symbol
 _atom_site_label
 _atom_site_symmetry_multiplicity
 _atom_site_fract_x
 _atom_site_fract_y
 _atom_site_fract_z
 _atom_site_occupancy
  Zr  Zr0  1  0.250000  0.526734  0.688884  1
  Zr  Zr1  1  0.750000  0.474419  0.310788  1
  Zr  Zr2  1  0.250000  0.020799  0.826281  1
  Zr  Zr3  1  0.750000  0.978451  0.173113  1
  Fe  Fe4  1  0.750000  0.366153  0.943961  1
  Fe  Fe5  1  0.250000  0.635092  0.055632  1
  P  P6  1  0.250000  0.283277  0.095688  1
  P  P7  1  0.750000  0.716164  0.905692  1
  P  P8  1  0.250000  0.749637  0.353418  1
  P  P9  1  0.750000  0.250045  0.645885  1
  Pd  Pd10  1  0.250000  0.151743  0.435061  1
  Pt  Pt11  1  0.750000  0.847487  0.565598  1
