# generated using pymatgen
data_Tm3LuAl16(SiRh3)2
_symmetry_space_group_name_H-M   'P 1'
_cell_length_a   7.51909984
_cell_length_b   7.49116232
_cell_length_c   9.36988511
_cell_angle_alpha   89.99219511
_cell_angle_beta   89.84719753
_cell_angle_gamma   119.69390153
_symmetry_Int_Tables_number   1
_chemical_formula_structural   Tm3LuAl16(SiRh3)2
_chemical_formula_sum   'Tm3 Lu1 Al16 Si2 Rh6'
_cell_volume   458.46809125
_cell_formula_units_Z   1
loop_
 _symmetry_equiv_pos_site_id
 _symmetry_equiv_pos_as_xyz
  1  'x, y, z'
loop_
 _atom_site_type_symbol
 _atom_site_label
 _atom_site_symmetry_multiplicity
 _atom_site_fract_x
 _atom_site_fract_y
 _atom_site_fract_z
 _atom_site_occupancy
  Tm  Tm0  1  0.994817  0.664797  0.242774  1
  Tm  Tm1  1  0.005243  0.335219  0.757232  1
  Tm  Tm2  1  0.676577  0.001776  0.247360  1
  Lu  Lu3  1  0.323300  0.998145  0.752625  1
  Al  Al4  1  0.128393  0.126530  0.250429  1
  Al  Al5  1  0.871774  0.873539  0.749571  1
  Al  Al6  1  0.999336  0.665564  0.570632  1
  Al  Al7  1  0.335030  0.998616  0.423884  1
  Al  Al8  1  0.000792  0.334571  0.429488  1
  Al  Al9  1  0.664832  0.001378  0.576338  1
  Al  Al10  1  0.660901  0.997217  0.921389  1
  Al  Al11  1  0.338951  0.002773  0.078378  1
  Al  Al12  1  0.332467  0.331269  0.555842  1
  Al  Al13  1  0.667528  0.668608  0.444279  1
  Al  Al14  1  0.664360  0.667649  0.056013  1
  Al  Al15  1  0.335645  0.332228  0.943864  1
  Al  Al16  1  0.339699  0.551064  0.249863  1
  Al  Al17  1  0.660177  0.448760  0.750134  1
  Al  Al18  1  0.548612  0.341542  0.250237  1
  Al  Al19  1  0.451307  0.658518  0.749765  1
  Si  Si20  1  0.002198  0.328701  0.078804  1
  Si  Si21  1  0.997994  0.671486  0.921061  1
  Rh  Rh22  1  0.690246  0.337051  0.001615  1
  Rh  Rh23  1  0.309733  0.662990  0.998376  1
  Rh  Rh24  1  0.326784  0.671595  0.500536  1
  Rh  Rh25  1  0.673178  0.328426  0.499492  1
  Rh  Rh26  1  0.000060  0.999983  0.999980  1
  Rh  Rh27  1  0.000066  0.000006  0.500040  1
