# generated using pymatgen
data_NaTl3Ir3PbO14
_symmetry_space_group_name_H-M   'P 1'
_cell_length_a   7.55807017
_cell_length_b   7.55806898
_cell_length_c   7.55807077
_cell_angle_alpha   57.70419123
_cell_angle_beta   57.70419479
_cell_angle_gamma   57.70418927
_symmetry_Int_Tables_number   1
_chemical_formula_structural   NaTl3Ir3PbO14
_chemical_formula_sum   'Na1 Tl3 Ir3 Pb1 O14'
_cell_volume   289.19053967
_cell_formula_units_Z   1
loop_
 _symmetry_equiv_pos_site_id
 _symmetry_equiv_pos_as_xyz
  1  'x, y, z'
loop_
 _atom_site_type_symbol
 _atom_site_label
 _atom_site_symmetry_multiplicity
 _atom_site_fract_x
 _atom_site_fract_y
 _atom_site_fract_z
 _atom_site_occupancy
  Na  Na0  1  0.625000  0.625000  0.625000  1
  Tl  Tl1  1  0.625000  0.125000  0.125000  1
  Tl  Tl2  1  0.125000  0.625000  0.125000  1
  Tl  Tl3  1  0.125000  0.125000  0.625000  1
  Ir  Ir4  1  0.125000  0.625000  0.625000  1
  Ir  Ir5  1  0.625000  0.125000  0.625000  1
  Ir  Ir6  1  0.625000  0.625000  0.125000  1
  Pb  Pb7  1  0.125000  0.125000  0.125000  1
  O  O8  1  0.735139  0.735139  0.222274  1
  O  O9  1  0.322390  0.322390  0.733428  1
  O  O10  1  0.735139  0.222274  0.735139  1
  O  O11  1  0.322390  0.733428  0.322390  1
  O  O12  1  0.222274  0.735139  0.735139  1
  O  O13  1  0.733428  0.322390  0.322390  1
  O  O14  1  0.514861  0.514861  0.027726  1
  O  O15  1  0.927610  0.927610  0.516572  1
  O  O16  1  0.514861  0.027726  0.514861  1
  O  O17  1  0.927610  0.516572  0.927610  1
  O  O18  1  0.027726  0.514861  0.514861  1
  O  O19  1  0.516572  0.927610  0.927610  1
  O  O20  1  0.241245  0.241245  0.241245  1
  O  O21  1  0.008755  0.008755  0.008755  1
