# generated using pymatgen
data_Zr3ScTiBe4ZnIr10
_symmetry_space_group_name_H-M   'P 1'
_cell_length_a   9.48129100
_cell_length_b   9.48129100
_cell_length_c   3.14021900
_cell_angle_alpha   90.00000000
_cell_angle_beta   90.00000000
_cell_angle_gamma   90.00000000
_symmetry_Int_Tables_number   1
_chemical_formula_structural   Zr3ScTiBe4ZnIr10
_chemical_formula_sum   'Zr3 Sc1 Ti1 Be4 Zn1 Ir10'
_cell_volume   282.28960712
_cell_formula_units_Z   1
loop_
 _symmetry_equiv_pos_site_id
 _symmetry_equiv_pos_as_xyz
  1  'x, y, z'
loop_
 _atom_site_type_symbol
 _atom_site_label
 _atom_site_symmetry_multiplicity
 _atom_site_fract_x
 _atom_site_fract_y
 _atom_site_fract_z
 _atom_site_occupancy
  Zr  Zr0  1  0.680812  0.171810  0.000000  1
  Zr  Zr1  1  0.320079  0.826235  0.000000  1
  Zr  Zr2  1  0.172337  0.321996  0.000000  1
  Sc  Sc3  1  0.826405  0.679314  0.000000  1
  Ti  Ti4  1  0.501763  0.500794  0.000000  1
  Be  Be5  1  0.118950  0.625704  0.000000  1
  Be  Be6  1  0.878967  0.375833  0.000000  1
  Be  Be7  1  0.627626  0.877499  0.000000  1
  Be  Be8  1  0.374726  0.120577  0.000000  1
  Zn  Zn9  1  0.999528  0.999040  0.000000  1
  Ir  Ir10  1  0.211290  0.070813  0.500000  1
  Ir  Ir11  1  0.788198  0.932055  0.500000  1
  Ir  Ir12  1  0.071450  0.788788  0.500000  1
  Ir  Ir13  1  0.711039  0.429980  0.500000  1
  Ir  Ir14  1  0.930928  0.211880  0.500000  1
  Ir  Ir15  1  0.288429  0.567629  0.500000  1
  Ir  Ir16  1  0.566715  0.711593  0.500000  1
  Ir  Ir17  1  0.431280  0.288765  0.500000  1
  Ir  Ir18  1  0.499909  0.999535  0.500000  1
  Ir  Ir19  1  0.999570  0.500160  0.500000  1
