# generated using pymatgen
data_Nd14Y2Cd4CuRu3
_symmetry_space_group_name_H-M   'P 1'
_cell_length_a   9.92026392
_cell_length_b   9.89674294
_cell_length_c   9.92026425
_cell_angle_alpha   59.69840445
_cell_angle_beta   59.81257608
_cell_angle_gamma   59.69839523
_symmetry_Int_Tables_number   1
_chemical_formula_structural   Nd14Y2Cd4CuRu3
_chemical_formula_sum   'Nd14 Y2 Cd4 Cu1 Ru3'
_cell_volume   684.56635476
_cell_formula_units_Z   1
loop_
 _symmetry_equiv_pos_site_id
 _symmetry_equiv_pos_as_xyz
  1  'x, y, z'
loop_
 _atom_site_type_symbol
 _atom_site_label
 _atom_site_symmetry_multiplicity
 _atom_site_fract_x
 _atom_site_fract_y
 _atom_site_fract_z
 _atom_site_occupancy
  Nd  Nd0  1  0.440043  0.438479  0.059953  1
  Nd  Nd1  1  0.066718  0.056613  0.438355  1
  Nd  Nd2  1  0.438355  0.056613  0.066718  1
  Nd  Nd3  1  0.850232  0.846590  0.850232  1
  Nd  Nd4  1  0.688982  0.317672  0.304428  1
  Nd  Nd5  1  0.059953  0.438479  0.440043  1
  Nd  Nd6  1  0.312628  0.686970  0.687971  1
  Nd  Nd7  1  0.304428  0.317672  0.688982  1
  Nd  Nd8  1  0.853384  0.844414  0.453371  1
  Nd  Nd9  1  0.687971  0.686970  0.312628  1
  Nd  Nd10  1  0.453371  0.844414  0.853384  1
  Nd  Nd11  1  0.060896  0.438054  0.060896  1
  Nd  Nd12  1  0.844679  0.458294  0.844679  1
  Nd  Nd13  1  0.440054  0.055674  0.440054  1
  Y  Y14  1  0.310308  0.688178  0.310308  1
  Y  Y15  1  0.690991  0.314803  0.690991  1
  Cd  Cd16  1  0.080568  0.759065  0.080568  1
  Cd  Cd17  1  0.077685  0.080985  0.760117  1
  Cd  Cd18  1  0.760117  0.080985  0.077685  1
  Cd  Cd19  1  0.080672  0.077717  0.080672  1
  Cu  Cu20  1  0.642802  0.075086  0.642802  1
  Ru  Ru21  1  0.637577  0.644711  0.637577  1
  Ru  Ru22  1  0.638949  0.645781  0.078635  1
  Ru  Ru23  1  0.078635  0.645781  0.638949  1
