# generated using pymatgen
data_Na3Yb2SbO6
_symmetry_space_group_name_H-M   'P 1'
_cell_length_a   5.73924345
_cell_length_b   5.83533253
_cell_length_c   5.73924228
_cell_angle_alpha   80.27886405
_cell_angle_beta   119.92810202
_cell_angle_gamma   80.27851945
_symmetry_Int_Tables_number   1
_chemical_formula_structural   Na3Yb2SbO6
_chemical_formula_sum   'Na3 Yb2 Sb1 O6'
_cell_volume   156.81407597
_cell_formula_units_Z   1
loop_
 _symmetry_equiv_pos_site_id
 _symmetry_equiv_pos_as_xyz
  1  'x, y, z'
loop_
 _atom_site_type_symbol
 _atom_site_label
 _atom_site_symmetry_multiplicity
 _atom_site_fract_x
 _atom_site_fract_y
 _atom_site_fract_z
 _atom_site_occupancy
  Na  Na0  1  0.500003  0.500001  0.500002  1
  Na  Na1  1  0.836204  0.500002  0.163796  1
  Na  Na2  1  0.163796  0.500001  0.836203  1
  Yb  Yb3  1  0.333070  0.999999  0.666935  1
  Yb  Yb4  1  0.666936  0.999998  0.333069  1
  Sb  Sb5  1  0.999982  0.999988  0.999987  1
  O  O6  1  0.225651  0.204560  0.225654  1
  O  O7  1  0.774355  0.795449  0.774354  1
  O  O8  1  0.367659  0.787298  0.071067  1
  O  O9  1  0.071069  0.787299  0.367659  1
  O  O10  1  0.928934  0.212702  0.632344  1
  O  O11  1  0.632341  0.212703  0.928930  1
