# generated using pymatgen
data_Hf7Co16P12W
_symmetry_space_group_name_H-M   'P 1'
_cell_length_a   11.99221954
_cell_length_b   11.99221974
_cell_length_c   3.63959100
_cell_angle_alpha   90.00000000
_cell_angle_beta   90.00000000
_cell_angle_gamma   120.09967825
_symmetry_Int_Tables_number   1
_chemical_formula_structural   Hf7Co16P12W
_chemical_formula_sum   'Hf7 Co16 P12 W1'
_cell_volume   452.84050857
_cell_formula_units_Z   1
loop_
 _symmetry_equiv_pos_site_id
 _symmetry_equiv_pos_as_xyz
  1  'x, y, z'
loop_
 _atom_site_type_symbol
 _atom_site_label
 _atom_site_symmetry_multiplicity
 _atom_site_fract_x
 _atom_site_fract_y
 _atom_site_fract_z
 _atom_site_occupancy
  Hf  Hf0  1  0.819632  0.819632  0.500000  1
  Hf  Hf1  1  0.999372  0.174937  0.500000  1
  Hf  Hf2  1  0.556009  0.000078  0.000000  1
  Hf  Hf3  1  0.334493  0.666569  0.000000  1
  Hf  Hf4  1  0.666569  0.334493  0.000000  1
  Hf  Hf5  1  0.000078  0.556009  0.000000  1
  Hf  Hf6  1  0.174937  0.999372  0.500000  1
  Co  Co7  1  0.627144  0.818624  0.000000  1
  Co  Co8  1  0.373041  0.197177  0.000000  1
  Co  Co9  1  0.000160  0.721834  0.500000  1
  Co  Co10  1  0.279634  0.279634  0.500000  1
  Co  Co11  1  0.874348  0.355156  0.500000  1
  Co  Co12  1  0.721834  0.000160  0.500000  1
  Co  Co13  1  0.818624  0.627144  0.000000  1
  Co  Co14  1  0.179186  0.807937  0.000000  1
  Co  Co15  1  0.355156  0.874348  0.500000  1
  Co  Co16  1  0.130326  0.482698  0.500000  1
  Co  Co17  1  0.642419  0.514623  0.500000  1
  Co  Co18  1  0.000009  0.000009  0.000000  1
  Co  Co19  1  0.514623  0.642419  0.500000  1
  Co  Co20  1  0.482698  0.130326  0.500000  1
  Co  Co21  1  0.197177  0.373041  0.000000  1
  Co  Co22  1  0.807937  0.179186  0.000000  1
  P  P23  1  0.003403  0.346726  0.000000  1
  P  P24  1  0.826161  0.516661  0.500000  1
  P  P25  1  0.690864  0.174172  0.500000  1
  P  P26  1  0.175646  0.175646  0.000000  1
  P  P27  1  0.644757  0.644757  0.000000  1
  P  P28  1  0.824060  0.998162  0.000000  1
  P  P29  1  0.516661  0.826161  0.500000  1
  P  P30  1  0.174172  0.690864  0.500000  1
  P  P31  1  0.346726  0.003403  0.000000  1
  P  P32  1  0.480908  0.314345  0.500000  1
  P  P33  1  0.998162  0.824060  0.000000  1
  P  P34  1  0.314345  0.480908  0.500000  1
  W  W35  1  0.448728  0.448728  0.000000  1
