# generated using pymatgen
data_Yb2CdN
_symmetry_space_group_name_H-M   'P 1'
_cell_length_a   10.32656172
_cell_length_b   10.32656103
_cell_length_c   5.06982700
_cell_angle_alpha   90.00000000
_cell_angle_beta   90.00000000
_cell_angle_gamma   161.49751393
_symmetry_Int_Tables_number   1
_chemical_formula_structural   Yb2CdN
_chemical_formula_sum   'Yb4 Cd2 N2'
_cell_volume   171.56842371
_cell_formula_units_Z   2
loop_
 _symmetry_equiv_pos_site_id
 _symmetry_equiv_pos_as_xyz
  1  'x, y, z'
loop_
 _atom_site_type_symbol
 _atom_site_label
 _atom_site_symmetry_multiplicity
 _atom_site_fract_x
 _atom_site_fract_y
 _atom_site_fract_z
 _atom_site_occupancy
  Yb  Yb0  1  0.281490  0.718509  0.249999  1
  Yb  Yb1  1  0.122625  0.877374  0.249999  1
  Yb  Yb2  1  0.877374  0.122625  0.750000  1
  Yb  Yb3  1  0.718509  0.281490  0.750000  1
  Cd  Cd4  1  0.458223  0.541776  0.249999  1
  Cd  Cd5  1  0.541776  0.458223  0.750000  1
  N  N6  1  0.700739  0.299260  0.249999  1
  N  N7  1  0.299260  0.700739  0.750000  1
