# generated using pymatgen
data_Hf18Ta2CoCuRe6
_symmetry_space_group_name_H-M   'P 1'
_cell_length_a   8.69763000
_cell_length_b   8.69762767
_cell_length_c   8.45402700
_cell_angle_alpha   90.00000000
_cell_angle_beta   90.00000000
_cell_angle_gamma   119.99999364
_symmetry_Int_Tables_number   1
_chemical_formula_structural   Hf18Ta2CoCuRe6
_chemical_formula_sum   'Hf18 Ta2 Co1 Cu1 Re6'
_cell_volume   553.85493689
_cell_formula_units_Z   1
loop_
 _symmetry_equiv_pos_site_id
 _symmetry_equiv_pos_as_xyz
  1  'x, y, z'
loop_
 _atom_site_type_symbol
 _atom_site_label
 _atom_site_symmetry_multiplicity
 _atom_site_fract_x
 _atom_site_fract_y
 _atom_site_fract_z
 _atom_site_occupancy
  Hf  Hf0  1  0.197069  0.802931  0.445364  1
  Hf  Hf1  1  0.197069  0.394139  0.445364  1
  Hf  Hf2  1  0.605861  0.802931  0.445364  1
  Hf  Hf3  1  0.798663  0.201337  0.558692  1
  Hf  Hf4  1  0.798663  0.597325  0.558692  1
  Hf  Hf5  1  0.402675  0.201337  0.558692  1
  Hf  Hf6  1  0.798663  0.201337  0.941308  1
  Hf  Hf7  1  0.798663  0.597325  0.941308  1
  Hf  Hf8  1  0.402675  0.201337  0.941308  1
  Hf  Hf9  1  0.197069  0.802931  0.054636  1
  Hf  Hf10  1  0.197069  0.394139  0.054636  1
  Hf  Hf11  1  0.605861  0.802931  0.054636  1
  Hf  Hf12  1  0.541801  0.458199  0.250000  1
  Hf  Hf13  1  0.541801  0.083602  0.250000  1
  Hf  Hf14  1  0.916398  0.458199  0.250000  1
  Hf  Hf15  1  0.458699  0.541301  0.750000  1
  Hf  Hf16  1  0.458699  0.917400  0.750000  1
  Hf  Hf17  1  0.082600  0.541301  0.750000  1
  Ta  Ta18  1  0.000000  0.000000  0.501283  1
  Ta  Ta19  1  0.000000  0.000000  0.998717  1
  Co  Co20  1  0.666667  0.333333  0.750000  1
  Cu  Cu21  1  0.333333  0.666667  0.250000  1
  Re  Re22  1  0.885606  0.114394  0.250000  1
  Re  Re23  1  0.885606  0.771213  0.250000  1
  Re  Re24  1  0.228787  0.114394  0.250000  1
  Re  Re25  1  0.114570  0.885430  0.750000  1
  Re  Re26  1  0.114570  0.229138  0.750000  1
  Re  Re27  1  0.770862  0.885430  0.750000  1
