# generated using pymatgen
data_Ba3DyTc2O9
_symmetry_space_group_name_H-M   'P 1'
_cell_length_a   5.99142100
_cell_length_b   5.99235973
_cell_length_c   14.56219100
_cell_angle_alpha   90.00000000
_cell_angle_beta   90.00000000
_cell_angle_gamma   119.99481254
_symmetry_Int_Tables_number   1
_chemical_formula_structural   Ba3DyTc2O9
_chemical_formula_sum   'Ba6 Dy2 Tc4 O18'
_cell_volume   452.80140713
_cell_formula_units_Z   2
loop_
 _symmetry_equiv_pos_site_id
 _symmetry_equiv_pos_as_xyz
  1  'x, y, z'
loop_
 _atom_site_type_symbol
 _atom_site_label
 _atom_site_symmetry_multiplicity
 _atom_site_fract_x
 _atom_site_fract_y
 _atom_site_fract_z
 _atom_site_occupancy
  Ba  Ba0  1  0.666675  0.333350  0.096201  1
  Ba  Ba1  1  0.000032  0.000065  0.250000  1
  Ba  Ba2  1  0.666675  0.333350  0.403799  1
  Ba  Ba3  1  0.333324  0.666650  0.596201  1
  Ba  Ba4  1  0.999968  0.999935  0.750000  1
  Ba  Ba5  1  0.333324  0.666650  0.903799  1
  Dy  Dy6  1  0.000000  0.000000  0.000000  1
  Dy  Dy7  1  0.000000  0.000000  0.500000  1
  Tc  Tc8  1  0.333359  0.666720  0.164143  1
  Tc  Tc9  1  0.333359  0.666720  0.335857  1
  Tc  Tc10  1  0.666641  0.333280  0.664142  1
  Tc  Tc11  1  0.666641  0.333280  0.835857  1
  O  O12  1  0.175695  0.351391  0.088885  1
  O  O13  1  0.175787  0.824312  0.088871  1
  O  O14  1  0.648525  0.824312  0.088871  1
  O  O15  1  0.017245  0.508354  0.250000  1
  O  O16  1  0.491109  0.508354  0.250000  1
  O  O17  1  0.491515  0.983030  0.250000  1
  O  O18  1  0.175695  0.351391  0.411114  1
  O  O19  1  0.175787  0.824312  0.411129  1
  O  O20  1  0.648525  0.824312  0.411129  1
  O  O21  1  0.824305  0.648609  0.588886  1
  O  O22  1  0.351475  0.175688  0.588871  1
  O  O23  1  0.824213  0.175688  0.588871  1
  O  O24  1  0.508485  0.016970  0.750000  1
  O  O25  1  0.508891  0.491646  0.750000  1
  O  O26  1  0.982755  0.491646  0.750000  1
  O  O27  1  0.351475  0.175688  0.911129  1
  O  O28  1  0.824213  0.175688  0.911129  1
  O  O29  1  0.824305  0.648609  0.911115  1
