# generated using pymatgen
data_Dy2Al2IrRh
_symmetry_space_group_name_H-M   'P 1'
_cell_length_a   4.20536200
_cell_length_b   6.91403051
_cell_length_c   7.95984702
_cell_angle_alpha   90.04519740
_cell_angle_beta   90.00000000
_cell_angle_gamma   90.00000000
_symmetry_Int_Tables_number   1
_chemical_formula_structural   Dy2Al2IrRh
_chemical_formula_sum   'Dy4 Al4 Ir2 Rh2'
_cell_volume   231.44044916
_cell_formula_units_Z   2
loop_
 _symmetry_equiv_pos_site_id
 _symmetry_equiv_pos_as_xyz
  1  'x, y, z'
loop_
 _atom_site_type_symbol
 _atom_site_label
 _atom_site_symmetry_multiplicity
 _atom_site_fract_x
 _atom_site_fract_y
 _atom_site_fract_z
 _atom_site_occupancy
  Dy  Dy0  1  0.250000  0.532323  0.179255  1
  Dy  Dy1  1  0.750000  0.467677  0.820745  1
  Dy  Dy2  1  0.750000  0.965562  0.680348  1
  Dy  Dy3  1  0.250000  0.034438  0.319652  1
  Al  Al4  1  0.250000  0.637745  0.561652  1
  Al  Al5  1  0.750000  0.362255  0.438348  1
  Al  Al6  1  0.750000  0.862065  0.060205  1
  Al  Al7  1  0.250000  0.137935  0.939795  1
  Ir  Ir8  1  0.250000  0.767554  0.878178  1
  Ir  Ir9  1  0.750000  0.232446  0.121822  1
  Rh  Rh10  1  0.750000  0.733193  0.380612  1
  Rh  Rh11  1  0.250000  0.266807  0.619388  1
