# generated using pymatgen
data_Sr2NdU3Se10
_symmetry_space_group_name_H-M   'P 1'
_cell_length_a   7.88298800
_cell_length_b   8.60503938
_cell_length_c   12.35991000
_cell_angle_alpha   89.71509928
_cell_angle_beta   90.00000000
_cell_angle_gamma   90.00000000
_symmetry_Int_Tables_number   1
_chemical_formula_structural   Sr2NdU3Se10
_chemical_formula_sum   'Sr4 Nd2 U6 Se20'
_cell_volume   838.40462811
_cell_formula_units_Z   2
loop_
 _symmetry_equiv_pos_site_id
 _symmetry_equiv_pos_as_xyz
  1  'x, y, z'
loop_
 _atom_site_type_symbol
 _atom_site_label
 _atom_site_symmetry_multiplicity
 _atom_site_fract_x
 _atom_site_fract_y
 _atom_site_fract_z
 _atom_site_occupancy
  Sr  Sr0  1  0.044842  0.494619  0.328160  1
  Sr  Sr1  1  0.544842  0.505381  0.171840  1
  Sr  Sr2  1  0.951114  0.505272  0.672078  1
  Sr  Sr3  1  0.451114  0.494728  0.827922  1
  Nd  Nd4  1  0.030988  0.999571  0.319935  1
  Nd  Nd5  1  0.530988  0.000429  0.180065  1
  U  U6  1  0.975662  0.000071  0.678857  1
  U  U7  1  0.475662  0.999929  0.821143  1
  U  U8  1  0.066749  0.750618  0.007127  1
  U  U9  1  0.566749  0.249382  0.492873  1
  U  U10  1  0.931409  0.247777  0.990634  1
  U  U11  1  0.431409  0.752223  0.509366  1
  Se  Se12  1  0.664644  0.957149  0.411167  1
  Se  Se13  1  0.164644  0.042851  0.088833  1
  Se  Se14  1  0.333532  0.045066  0.598170  1
  Se  Se15  1  0.833532  0.954934  0.901830  1
  Se  Se16  1  0.449830  0.776359  0.996224  1
  Se  Se17  1  0.949830  0.223641  0.503776  1
  Se  Se18  1  0.547804  0.222703  0.991037  1
  Se  Se19  1  0.047804  0.777297  0.508963  1
  Se  Se20  1  0.840732  0.762079  0.186970  1
  Se  Se21  1  0.340732  0.237921  0.313030  1
  Se  Se22  1  0.158131  0.226436  0.808353  1
  Se  Se23  1  0.658131  0.773564  0.691647  1
  Se  Se24  1  0.315864  0.756462  0.288685  1
  Se  Se25  1  0.815864  0.243538  0.211315  1
  Se  Se26  1  0.685082  0.231704  0.714713  1
  Se  Se27  1  0.185082  0.768296  0.785287  1
  Se  Se28  1  0.179385  0.456815  0.071942  1
  Se  Se29  1  0.679385  0.543185  0.428058  1
  Se  Se30  1  0.824231  0.539971  0.919088  1
  Se  Se31  1  0.324231  0.460029  0.580912  1
