# generated using pymatgen
data_Zr6Zn16Pd7C
_symmetry_space_group_name_H-M   'P 1'
_cell_length_a   8.78200935
_cell_length_b   8.78200828
_cell_length_c   8.78200800
_cell_angle_alpha   59.99999351
_cell_angle_beta   59.99999753
_cell_angle_gamma   59.99999216
_symmetry_Int_Tables_number   1
_chemical_formula_structural   Zr6Zn16Pd7C
_chemical_formula_sum   'Zr6 Zn16 Pd7 C1'
_cell_volume   478.92390222
_cell_formula_units_Z   1
loop_
 _symmetry_equiv_pos_site_id
 _symmetry_equiv_pos_as_xyz
  1  'x, y, z'
loop_
 _atom_site_type_symbol
 _atom_site_label
 _atom_site_symmetry_multiplicity
 _atom_site_fract_x
 _atom_site_fract_y
 _atom_site_fract_z
 _atom_site_occupancy
  Zr  Zr0  1  0.686277  0.313723  0.313723  1
  Zr  Zr1  1  0.313723  0.686277  0.686277  1
  Zr  Zr2  1  0.313723  0.686277  0.313723  1
  Zr  Zr3  1  0.686277  0.313723  0.686277  1
  Zr  Zr4  1  0.313723  0.313723  0.686277  1
  Zr  Zr5  1  0.686277  0.686277  0.313723  1
  Zn  Zn6  1  0.120252  0.120252  0.120252  1
  Zn  Zn7  1  0.879748  0.879748  0.879748  1
  Zn  Zn8  1  0.120252  0.120252  0.639245  1
  Zn  Zn9  1  0.120252  0.639245  0.120252  1
  Zn  Zn10  1  0.879748  0.879748  0.360755  1
  Zn  Zn11  1  0.879748  0.360755  0.879748  1
  Zn  Zn12  1  0.639245  0.120252  0.120252  1
  Zn  Zn13  1  0.360755  0.879748  0.879748  1
  Zn  Zn14  1  0.334386  0.334386  0.334386  1
  Zn  Zn15  1  0.665614  0.665614  0.665614  1
  Zn  Zn16  1  0.334386  0.334386  0.996843  1
  Zn  Zn17  1  0.334386  0.996843  0.334386  1
  Zn  Zn18  1  0.665614  0.665614  0.003157  1
  Zn  Zn19  1  0.665614  0.003157  0.665614  1
  Zn  Zn20  1  0.996843  0.334386  0.334386  1
  Zn  Zn21  1  0.003157  0.665614  0.665614  1
  Pd  Pd22  1  0.500000  0.000000  0.000000  1
  Pd  Pd23  1  0.000000  0.500000  0.500000  1
  Pd  Pd24  1  0.000000  0.500000  0.000000  1
  Pd  Pd25  1  0.500000  0.000000  0.500000  1
  Pd  Pd26  1  0.000000  0.000000  0.500000  1
  Pd  Pd27  1  0.500000  0.500000  0.000000  1
  Pd  Pd28  1  0.000000  0.000000  0.000000  1
  C  C29  1  0.500000  0.500000  0.500000  1
