# generated using pymatgen
data_Er6TmSn23Os6
_symmetry_space_group_name_H-M   'P 1'
_cell_length_a   9.83957600
_cell_length_b   9.83957571
_cell_length_c   10.10047800
_cell_angle_alpha   89.99998643
_cell_angle_beta   90.00001150
_cell_angle_gamma   120.00068744
_symmetry_Int_Tables_number   1
_chemical_formula_structural   Er6TmSn23Os6
_chemical_formula_sum   'Er6 Tm1 Sn23 Os6'
_cell_volume   846.88083840
_cell_formula_units_Z   1
loop_
 _symmetry_equiv_pos_site_id
 _symmetry_equiv_pos_as_xyz
  1  'x, y, z'
loop_
 _atom_site_type_symbol
 _atom_site_label
 _atom_site_symmetry_multiplicity
 _atom_site_fract_x
 _atom_site_fract_y
 _atom_site_fract_z
 _atom_site_occupancy
  Er  Er0  1  0.513124  0.486876  0.698956  1
  Er  Er1  1  0.486869  0.973737  0.301043  1
  Er  Er2  1  0.513132  0.026269  0.698957  1
  Er  Er3  1  0.026263  0.513131  0.301043  1
  Er  Er4  1  0.973731  0.486868  0.698957  1
  Er  Er5  1  0.000001  0.999999  0.999998  1
  Tm  Tm6  1  0.486906  0.513094  0.301020  1
  Sn  Sn7  1  0.117942  0.882058  0.277196  1
  Sn  Sn8  1  0.882058  0.117942  0.722802  1
  Sn  Sn9  1  0.117971  0.235901  0.277200  1
  Sn  Sn10  1  0.882051  0.764113  0.722805  1
  Sn  Sn11  1  0.764099  0.882029  0.277200  1
  Sn  Sn12  1  0.235887  0.117949  0.722805  1
  Sn  Sn13  1  0.779129  0.220871  0.464289  1
  Sn  Sn14  1  0.220868  0.779132  0.535712  1
  Sn  Sn15  1  0.779092  0.558260  0.464271  1
  Sn  Sn16  1  0.220892  0.441735  0.535697  1
  Sn  Sn17  1  0.441740  0.220908  0.464271  1
  Sn  Sn18  1  0.558265  0.779108  0.535697  1
  Sn  Sn19  1  0.349899  0.000004  0.999995  1
  Sn  Sn20  1  0.650100  0.999996  0.000000  1
  Sn  Sn21  1  0.000004  0.349900  0.000000  1
  Sn  Sn22  1  0.999996  0.650101  0.999995  1
  Sn  Sn23  1  0.650101  0.650100  0.000007  1
  Sn  Sn24  1  0.349900  0.349899  0.000007  1
  Sn  Sn25  1  0.333359  0.666641  0.134206  1
  Sn  Sn26  1  0.666666  0.333334  0.865821  1
  Sn  Sn27  1  0.333335  0.666665  0.828107  1
  Sn  Sn28  1  0.666657  0.333343  0.171901  1
  Sn  Sn29  1  0.999999  0.000001  0.500000  1
  Os  Os30  1  0.829400  0.170600  0.202538  1
  Os  Os31  1  0.170603  0.829397  0.797466  1
  Os  Os32  1  0.829327  0.658761  0.202558  1
  Os  Os33  1  0.170602  0.341207  0.797462  1
  Os  Os34  1  0.341239  0.170673  0.202558  1
  Os  Os35  1  0.658793  0.829398  0.797462  1
