# generated using pymatgen
data_La2HoCu5(Ni4B)2
_symmetry_space_group_name_H-M   'P 1'
_cell_length_a   5.11780205
_cell_length_b   5.08334712
_cell_length_c   10.93188950
_cell_angle_alpha   90.01274740
_cell_angle_beta   89.97469922
_cell_angle_gamma   120.22445583
_symmetry_Int_Tables_number   1
_chemical_formula_structural   La2HoCu5(Ni4B)2
_chemical_formula_sum   'La2 Ho1 Cu5 Ni8 B2'
_cell_volume   245.73801793
_cell_formula_units_Z   1
loop_
 _symmetry_equiv_pos_site_id
 _symmetry_equiv_pos_as_xyz
  1  'x, y, z'
loop_
 _atom_site_type_symbol
 _atom_site_label
 _atom_site_symmetry_multiplicity
 _atom_site_fract_x
 _atom_site_fract_y
 _atom_site_fract_z
 _atom_site_occupancy
  La  La0  1  0.998927  0.000000  0.324406  1
  La  La1  1  0.999685  0.000000  0.675694  1
  Ho  Ho2  1  0.000565  0.000000  0.000029  1
  Cu  Cu3  1  0.498949  0.000000  0.499839  1
  Cu  Cu4  1  0.330409  0.663285  0.314702  1
  Cu  Cu5  1  0.667124  0.336715  0.314702  1
  Cu  Cu6  1  0.667786  0.336324  0.685283  1
  Cu  Cu7  1  0.331461  0.663676  0.685283  1
  Ni  Ni8  1  0.499023  0.499419  0.500141  1
  Ni  Ni9  1  0.999604  0.500581  0.500141  1
  Ni  Ni10  1  0.499738  0.000000  0.126742  1
  Ni  Ni11  1  0.500299  0.500408  0.126748  1
  Ni  Ni12  1  0.999891  0.499592  0.126748  1
  Ni  Ni13  1  0.501127  0.000000  0.873134  1
  Ni  Ni14  1  0.502040  0.500521  0.873206  1
  Ni  Ni15  1  0.001519  0.499479  0.873206  1
  B  B16  1  0.334022  0.666290  0.999995  1
  B  B17  1  0.667732  0.333710  0.999995  1
