# generated using pymatgen
data_Tb3HoPdPt3O14
_symmetry_space_group_name_H-M   'P 1'
_cell_length_a   7.27487760
_cell_length_b   7.27487720
_cell_length_c   7.28115167
_cell_angle_alpha   60.02850796
_cell_angle_beta   60.02850629
_cell_angle_gamma   60.00000256
_symmetry_Int_Tables_number   1
_chemical_formula_structural   Tb3HoPdPt3O14
_chemical_formula_sum   'Tb3 Ho1 Pd1 Pt3 O14'
_cell_volume   272.59848747
_cell_formula_units_Z   1
loop_
 _symmetry_equiv_pos_site_id
 _symmetry_equiv_pos_as_xyz
  1  'x, y, z'
loop_
 _atom_site_type_symbol
 _atom_site_label
 _atom_site_symmetry_multiplicity
 _atom_site_fract_x
 _atom_site_fract_y
 _atom_site_fract_z
 _atom_site_occupancy
  Tb  Tb0  1  0.625000  0.625000  0.625000  1
  Tb  Tb1  1  0.625000  0.125000  0.625000  1
  Tb  Tb2  1  0.125000  0.625000  0.625000  1
  Ho  Ho3  1  0.625000  0.625000  0.125000  1
  Pd  Pd4  1  0.125000  0.125000  0.625000  1
  Pt  Pt5  1  0.125000  0.125000  0.125000  1
  Pt  Pt6  1  0.625000  0.125000  0.125000  1
  Pt  Pt7  1  0.125000  0.625000  0.125000  1
  O  O8  1  0.035020  0.466389  0.463573  1
  O  O9  1  0.784218  0.784218  0.214251  1
  O  O10  1  0.784218  0.217311  0.214251  1
  O  O11  1  0.466389  0.035020  0.463573  1
  O  O12  1  0.748698  0.748698  0.753906  1
  O  O13  1  0.035020  0.035020  0.463573  1
  O  O14  1  0.032689  0.465782  0.035749  1
  O  O15  1  0.783611  0.214980  0.786427  1
  O  O16  1  0.217311  0.784218  0.214251  1
  O  O17  1  0.214980  0.214980  0.786427  1
  O  O18  1  0.501302  0.501302  0.496094  1
  O  O19  1  0.465782  0.032689  0.035749  1
  O  O20  1  0.465782  0.465782  0.035749  1
  O  O21  1  0.214980  0.783611  0.786427  1
