# generated using pymatgen
data_Li8ScPaAg
_symmetry_space_group_name_H-M   'P 1'
_cell_length_a   8.27068584
_cell_length_b   8.03687700
_cell_length_c   10.19017756
_cell_angle_alpha   107.56747198
_cell_angle_beta   92.90306358
_cell_angle_gamma   116.37970054
_symmetry_Int_Tables_number   1
_chemical_formula_structural   Li8ScPaAg
_chemical_formula_sum   'Li8 Sc1 Pa1 Ag1'
_cell_volume   564.81560045
_cell_formula_units_Z   1
loop_
 _symmetry_equiv_pos_site_id
 _symmetry_equiv_pos_as_xyz
  1  'x, y, z'
loop_
 _atom_site_type_symbol
 _atom_site_label
 _atom_site_symmetry_multiplicity
 _atom_site_fract_x
 _atom_site_fract_y
 _atom_site_fract_z
 _atom_site_occupancy
  Li  Li0  1  0.270671  0.815841  0.405642  1
  Li  Li1  1  0.861262  0.057451  0.944006  1
  Li  Li2  1  0.824147  0.313485  0.818230  1
  Li  Li3  1  0.952179  0.286230  0.154462  1
  Li  Li4  1  0.546987  0.012371  0.582682  1
  Li  Li5  1  0.154647  0.854896  0.993066  1
  Li  Li6  1  0.495004  0.523467  0.573683  1
  Li  Li7  1  0.805588  0.056069  0.084434  1
  Sc  Sc8  1  0.224597  0.267824  0.788837  1
  Pa  Pa9  1  0.714965  0.902900  0.050377  1
  Ag  Ag10  1  0.195988  0.880624  0.502176  1
