# generated using pymatgen
data_Dy5P12Ir16Ru2Rh
_symmetry_space_group_name_H-M   'P 1'
_cell_length_a   12.68084800
_cell_length_b   12.69783410
_cell_length_c   3.97206700
_cell_angle_alpha   90.00000000
_cell_angle_beta   90.00000000
_cell_angle_gamma   119.95575855
_symmetry_Int_Tables_number   1
_chemical_formula_structural   Dy5P12Ir16Ru2Rh
_chemical_formula_sum   'Dy5 P12 Ir16 Ru2 Rh1'
_cell_volume   554.13882735
_cell_formula_units_Z   1
loop_
 _symmetry_equiv_pos_site_id
 _symmetry_equiv_pos_as_xyz
  1  'x, y, z'
loop_
 _atom_site_type_symbol
 _atom_site_label
 _atom_site_symmetry_multiplicity
 _atom_site_fract_x
 _atom_site_fract_y
 _atom_site_fract_z
 _atom_site_occupancy
  Dy  Dy0  1  0.332434  0.665881  0.500000  1
  Dy  Dy1  1  0.666554  0.334119  0.500000  1
  Dy  Dy2  1  0.999191  0.814969  0.000000  1
  Dy  Dy3  1  0.184221  0.185031  0.000000  1
  Dy  Dy4  1  0.814863  0.000000  0.000000  1
  P  P5  1  0.000067  0.639331  0.500000  1
  P  P6  1  0.360735  0.360669  0.500000  1
  P  P7  1  0.640984  0.000000  0.500000  1
  P  P8  1  0.516783  0.685454  0.000000  1
  P  P9  1  0.312806  0.829765  0.000000  1
  P  P10  1  0.169313  0.483751  0.000000  1
  P  P11  1  0.483041  0.170235  0.000000  1
  P  P12  1  0.685562  0.516249  0.000000  1
  P  P13  1  0.831329  0.314546  0.000000  1
  P  P14  1  0.000370  0.178335  0.500000  1
  P  P15  1  0.822035  0.821665  0.500000  1
  P  P16  1  0.178759  0.000000  0.500000  1
  Ir  Ir17  1  0.507020  0.864858  0.000000  1
  Ir  Ir18  1  0.130265  0.639654  0.000000  1
  Ir  Ir19  1  0.359350  0.491370  0.000000  1
  Ir  Ir20  1  0.490612  0.360346  0.000000  1
  Ir  Ir21  1  0.867982  0.508630  0.000000  1
  Ir  Ir22  1  0.642164  0.135142  0.000000  1
  Ir  Ir23  1  0.000713  0.285933  0.000000  1
  Ir  Ir24  1  0.714780  0.714067  0.000000  1
  Ir  Ir25  1  0.283368  0.000000  0.000000  1
  Ir  Ir26  1  0.626259  0.805615  0.500000  1
  Ir  Ir27  1  0.194260  0.818855  0.500000  1
  Ir  Ir28  1  0.180166  0.375052  0.500000  1
  Ir  Ir29  1  0.375405  0.181145  0.500000  1
  Ir  Ir30  1  0.805114  0.624948  0.500000  1
  Ir  Ir31  1  0.820644  0.194385  0.500000  1
  Ir  Ir32  1  0.000234  0.000000  0.500000  1
  Ru  Ru33  1  0.999595  0.458587  0.500000  1
  Ru  Ru34  1  0.541009  0.541413  0.500000  1
  Rh  Rh35  1  0.462012  0.000000  0.500000  1
