# generated using pymatgen
data_Pr12IrPdRh2
_symmetry_space_group_name_H-M   'P 1'
_cell_length_a   6.60559072
_cell_length_b   7.41833630
_cell_length_c   10.07210600
_cell_angle_alpha   90.00000000
_cell_angle_beta   90.00000000
_cell_angle_gamma   90.28823912
_symmetry_Int_Tables_number   1
_chemical_formula_structural   Pr12IrPdRh2
_chemical_formula_sum   'Pr12 Ir1 Pd1 Rh2'
_cell_volume   493.55206207
_cell_formula_units_Z   1
loop_
 _symmetry_equiv_pos_site_id
 _symmetry_equiv_pos_as_xyz
  1  'x, y, z'
loop_
 _atom_site_type_symbol
 _atom_site_label
 _atom_site_symmetry_multiplicity
 _atom_site_fract_x
 _atom_site_fract_y
 _atom_site_fract_z
 _atom_site_occupancy
  Pr  Pr0  1  0.335570  0.671052  0.063749  1
  Pr  Pr1  1  0.170175  0.181199  0.437227  1
  Pr  Pr2  1  0.671482  0.325091  0.566130  1
  Pr  Pr3  1  0.831576  0.825332  0.932037  1
  Pr  Pr4  1  0.671482  0.325091  0.933870  1
  Pr  Pr5  1  0.831576  0.825332  0.567963  1
  Pr  Pr6  1  0.335570  0.671052  0.436251  1
  Pr  Pr7  1  0.170175  0.181199  0.062773  1
  Pr  Pr8  1  0.853584  0.524510  0.250000  1
  Pr  Pr9  1  0.632246  0.037151  0.250000  1
  Pr  Pr10  1  0.142903  0.464929  0.750000  1
  Pr  Pr11  1  0.358532  0.964306  0.750000  1
  Ir  Ir12  1  0.430067  0.381138  0.250000  1
  Pd  Pd13  1  0.069643  0.884147  0.250000  1
  Rh  Rh14  1  0.931504  0.119373  0.750000  1
  Rh  Rh15  1  0.563916  0.619097  0.750000  1
