# generated using pymatgen
data_Tb12Ga4Ge4Ru5Rh3
_symmetry_space_group_name_H-M   'P 1'
_cell_length_a   5.55700319
_cell_length_b   7.82751804
_cell_length_c   13.60538964
_cell_angle_alpha   90.10114381
_cell_angle_beta   90.15052004
_cell_angle_gamma   90.29702119
_symmetry_Int_Tables_number   1
_chemical_formula_structural   Tb12Ga4Ge4Ru5Rh3
_chemical_formula_sum   'Tb12 Ga4 Ge4 Ru5 Rh3'
_cell_volume   591.79008614
_cell_formula_units_Z   1
loop_
 _symmetry_equiv_pos_site_id
 _symmetry_equiv_pos_as_xyz
  1  'x, y, z'
loop_
 _atom_site_type_symbol
 _atom_site_label
 _atom_site_symmetry_multiplicity
 _atom_site_fract_x
 _atom_site_fract_y
 _atom_site_fract_z
 _atom_site_occupancy
  Tb  Tb0  1  0.630072  0.262885  0.252076  1
  Tb  Tb1  1  0.368652  0.739681  0.749806  1
  Tb  Tb2  1  0.367043  0.767220  0.250180  1
  Tb  Tb3  1  0.633464  0.230876  0.750103  1
  Tb  Tb4  1  0.150902  0.397007  0.099317  1
  Tb  Tb5  1  0.848656  0.603140  0.900812  1
  Tb  Tb6  1  0.848132  0.601038  0.598112  1
  Tb  Tb7  1  0.847295  0.902276  0.401138  1
  Tb  Tb8  1  0.150366  0.402102  0.399490  1
  Tb  Tb9  1  0.154011  0.095782  0.598551  1
  Tb  Tb10  1  0.153001  0.094964  0.901255  1
  Tb  Tb11  1  0.847610  0.905495  0.099200  1
  Ga  Ga12  1  0.639321  0.248641  0.999103  1
  Ga  Ga13  1  0.360477  0.751498  0.000618  1
  Ga  Ga14  1  0.364955  0.750098  0.498961  1
  Ga  Ga15  1  0.637923  0.249818  0.500207  1
  Ge  Ge16  1  0.125307  0.113505  0.250419  1
  Ge  Ge17  1  0.874433  0.885703  0.749500  1
  Ge  Ge18  1  0.871265  0.614012  0.249519  1
  Ge  Ge19  1  0.127385  0.385568  0.750593  1
  Ru  Ru20  1  0.356968  0.035910  0.092843  1
  Ru  Ru21  1  0.643419  0.963485  0.906906  1
  Ru  Ru22  1  0.642888  0.966391  0.593588  1
  Ru  Ru23  1  0.641938  0.531311  0.407243  1
  Ru  Ru24  1  0.356526  0.034194  0.406907  1
  Rh  Rh25  1  0.357914  0.467030  0.594332  1
  Rh  Rh26  1  0.358752  0.467631  0.906813  1
  Rh  Rh27  1  0.641327  0.532738  0.092408  1
