# generated using pymatgen
data_Hf7Zr3Zn2(Sn2Sb)2
_symmetry_space_group_name_H-M   'P 1'
_cell_length_a   8.64704784
_cell_length_b   8.63743929
_cell_length_c   5.82463200
_cell_angle_alpha   90.00000000
_cell_angle_beta   90.00000000
_cell_angle_gamma   119.98553152
_symmetry_Int_Tables_number   1
_chemical_formula_structural   Hf7Zr3Zn2(Sn2Sb)2
_chemical_formula_sum   'Hf7 Zr3 Zn2 Sn4 Sb2'
_cell_volume   376.80381607
_cell_formula_units_Z   1
loop_
 _symmetry_equiv_pos_site_id
 _symmetry_equiv_pos_as_xyz
  1  'x, y, z'
loop_
 _atom_site_type_symbol
 _atom_site_label
 _atom_site_symmetry_multiplicity
 _atom_site_fract_x
 _atom_site_fract_y
 _atom_site_fract_z
 _atom_site_occupancy
  Hf  Hf0  1  0.999764  0.731530  0.750000  1
  Hf  Hf1  1  0.269391  0.268988  0.750000  1
  Hf  Hf2  1  0.268776  0.000029  0.250000  1
  Hf  Hf3  1  0.334052  0.667279  0.500357  1
  Hf  Hf4  1  0.665944  0.333243  0.999636  1
  Hf  Hf5  1  0.665944  0.333243  0.500364  1
  Hf  Hf6  1  0.334052  0.667279  0.999643  1
  Zr  Zr7  1  0.730998  0.731635  0.250000  1
  Zr  Zr8  1  0.730495  0.999139  0.750000  1
  Zr  Zr9  1  0.999401  0.267558  0.250000  1
  Zn  Zn10  1  0.002800  0.000825  0.999202  1
  Zn  Zn11  1  0.002800  0.000825  0.500798  1
  Sn  Sn12  1  0.382866  0.999640  0.750000  1
  Sn  Sn13  1  0.383519  0.383368  0.250000  1
  Sn  Sn14  1  0.001079  0.615480  0.250000  1
  Sn  Sn15  1  0.001029  0.386549  0.750000  1
  Sb  Sb16  1  0.613839  0.612628  0.750000  1
  Sb  Sb17  1  0.613255  0.000762  0.250000  1
