# generated using pymatgen
data_YTm3Lu2(Sb4Au3)2
_symmetry_space_group_name_H-M   'P 1'
_cell_length_a   8.56238218
_cell_length_b   8.56232468
_cell_length_c   8.56235533
_cell_angle_alpha   109.41317144
_cell_angle_beta   109.54800785
_cell_angle_gamma   109.45300657
_symmetry_Int_Tables_number   1
_chemical_formula_structural   YTm3Lu2(Sb4Au3)2
_chemical_formula_sum   'Y1 Tm3 Lu2 Sb8 Au6'
_cell_volume   483.23053856
_cell_formula_units_Z   1
loop_
 _symmetry_equiv_pos_site_id
 _symmetry_equiv_pos_as_xyz
  1  'x, y, z'
loop_
 _atom_site_type_symbol
 _atom_site_label
 _atom_site_symmetry_multiplicity
 _atom_site_fract_x
 _atom_site_fract_y
 _atom_site_fract_z
 _atom_site_occupancy
  Y  Y0  1  0.874975  0.249972  0.124967  1
  Tm  Tm1  1  0.749884  0.375050  0.624973  1
  Tm  Tm2  1  0.125166  0.875116  0.250120  1
  Tm  Tm3  1  0.375026  0.624922  0.750107  1
  Lu  Lu4  1  0.625020  0.749985  0.375001  1
  Lu  Lu5  1  0.249926  0.124953  0.874829  1
  Sb  Sb6  1  0.679090  0.499530  0.999700  1
  Sb  Sb7  1  0.500147  0.000487  0.679662  1
  Sb  Sb8  1  0.000191  0.680169  0.500047  1
  Sb  Sb9  1  0.819962  0.819959  0.820128  1
  Sb  Sb10  1  0.500014  0.000217  0.180058  1
  Sb  Sb11  1  0.179929  0.499745  0.999779  1
  Sb  Sb12  1  0.000284  0.179395  0.499864  1
  Sb  Sb13  1  0.320381  0.320504  0.320767  1
  Au  Au14  1  0.374831  0.249845  0.625268  1
  Au  Au15  1  0.125167  0.750433  0.875010  1
  Au  Au16  1  0.253480  0.627726  0.376472  1
  Au  Au17  1  0.748747  0.872275  0.125755  1
  Au  Au18  1  0.623105  0.376739  0.250813  1
  Au  Au19  1  0.874674  0.122978  0.746681  1
