# generated using pymatgen
data_Ta5Zn(B2Ru5)2
_symmetry_space_group_name_H-M   'P 1'
_cell_length_a   9.36132500
_cell_length_b   9.36132500
_cell_length_c   3.02244000
_cell_angle_alpha   90.00000000
_cell_angle_beta   90.00000000
_cell_angle_gamma   90.00000000
_symmetry_Int_Tables_number   1
_chemical_formula_structural   Ta5Zn(B2Ru5)2
_chemical_formula_sum   'Ta5 Zn1 B4 Ru10'
_cell_volume   264.86973333
_cell_formula_units_Z   1
loop_
 _symmetry_equiv_pos_site_id
 _symmetry_equiv_pos_as_xyz
  1  'x, y, z'
loop_
 _atom_site_type_symbol
 _atom_site_label
 _atom_site_symmetry_multiplicity
 _atom_site_fract_x
 _atom_site_fract_y
 _atom_site_fract_z
 _atom_site_occupancy
  Ta  Ta0  1  0.820274  0.674402  0.000000  1
  Ta  Ta1  1  0.179726  0.325598  0.000000  1
  Ta  Ta2  1  0.325598  0.820274  0.000000  1
  Ta  Ta3  1  0.674402  0.179726  0.000000  1
  Ta  Ta4  1  0.000000  0.000000  0.000000  1
  Zn  Zn5  1  0.500000  0.500000  0.000000  1
  B  B6  1  0.616309  0.869606  0.000000  1
  B  B7  1  0.383691  0.130394  0.000000  1
  B  B8  1  0.130394  0.616309  0.000000  1
  B  B9  1  0.869606  0.383691  0.000000  1
  Ru  Ru10  1  0.500000  0.000000  0.500000  1
  Ru  Ru11  1  0.000000  0.500000  0.500000  1
  Ru  Ru12  1  0.569648  0.714593  0.500000  1
  Ru  Ru13  1  0.430352  0.285407  0.500000  1
  Ru  Ru14  1  0.072161  0.780920  0.500000  1
  Ru  Ru15  1  0.927839  0.219080  0.500000  1
  Ru  Ru16  1  0.285407  0.569648  0.500000  1
  Ru  Ru17  1  0.714593  0.430352  0.500000  1
  Ru  Ru18  1  0.219080  0.072161  0.500000  1
  Ru  Ru19  1  0.780920  0.927839  0.500000  1
