# generated using pymatgen
data_U8BeS17
_symmetry_space_group_name_H-M   'P 1'
_cell_length_a   7.79392872
_cell_length_b   7.79392908
_cell_length_c   10.27159776
_cell_angle_alpha   79.99852569
_cell_angle_beta   79.99852702
_cell_angle_gamma   64.29031562
_symmetry_Int_Tables_number   1
_chemical_formula_structural   U8BeS17
_chemical_formula_sum   'U8 Be1 S17'
_cell_volume   550.22919933
_cell_formula_units_Z   1
loop_
 _symmetry_equiv_pos_site_id
 _symmetry_equiv_pos_as_xyz
  1  'x, y, z'
loop_
 _atom_site_type_symbol
 _atom_site_label
 _atom_site_symmetry_multiplicity
 _atom_site_fract_x
 _atom_site_fract_y
 _atom_site_fract_z
 _atom_site_occupancy
  U  U0  1  0.181992  0.697198  0.702841  1
  U  U1  1  0.697198  0.181992  0.702841  1
  U  U2  1  0.818008  0.302802  0.297159  1
  U  U3  1  0.302802  0.818008  0.297159  1
  U  U4  1  0.201499  0.201499  0.547112  1
  U  U5  1  0.798501  0.798501  0.452888  1
  U  U6  1  0.682099  0.682099  0.983866  1
  U  U7  1  0.317901  0.317901  0.016134  1
  Be  Be8  1  0.000000  0.000000  0.000000  1
  S  S9  1  0.820171  0.433524  0.535305  1
  S  S10  1  0.433524  0.820171  0.535305  1
  S  S11  1  0.179829  0.566476  0.464695  1
  S  S12  1  0.566476  0.179829  0.464695  1
  S  S13  1  0.057366  0.680276  0.971619  1
  S  S14  1  0.680276  0.057366  0.971619  1
  S  S15  1  0.942634  0.319724  0.028381  1
  S  S16  1  0.319724  0.942634  0.028381  1
  S  S17  1  0.053997  0.053997  0.782055  1
  S  S18  1  0.946003  0.946003  0.217945  1
  S  S19  1  0.213143  0.213143  0.279490  1
  S  S20  1  0.786857  0.786857  0.720510  1
  S  S21  1  0.299448  0.299448  0.757109  1
  S  S22  1  0.700552  0.700552  0.242891  1
  S  S23  1  0.520464  0.520464  0.829618  1
  S  S24  1  0.479536  0.479536  0.170382  1
  S  S25  1  0.000000  0.000000  0.500000  1
