# generated using pymatgen
data_ErNbB6W
_symmetry_space_group_name_H-M   'P 1'
_cell_length_a   3.54245000
_cell_length_b   8.92217500
_cell_length_c   11.26929000
_cell_angle_alpha   90.00000000
_cell_angle_beta   90.00000000
_cell_angle_gamma   90.00000000
_symmetry_Int_Tables_number   1
_chemical_formula_structural   ErNbB6W
_chemical_formula_sum   'Er4 Nb4 B24 W4'
_cell_volume   356.18122349
_cell_formula_units_Z   4
loop_
 _symmetry_equiv_pos_site_id
 _symmetry_equiv_pos_as_xyz
  1  'x, y, z'
loop_
 _atom_site_type_symbol
 _atom_site_label
 _atom_site_symmetry_multiplicity
 _atom_site_fract_x
 _atom_site_fract_y
 _atom_site_fract_z
 _atom_site_occupancy
  Er  Er0  1  0.000000  0.321035  0.413493  1
  Er  Er1  1  0.000000  0.678965  0.586507  1
  Er  Er2  1  0.000000  0.821035  0.086507  1
  Er  Er3  1  0.000000  0.178965  0.913493  1
  Nb  Nb4  1  0.000000  0.945902  0.373779  1
  Nb  Nb5  1  0.000000  0.054098  0.626221  1
  Nb  Nb6  1  0.000000  0.445902  0.126221  1
  Nb  Nb7  1  0.000000  0.554098  0.873779  1
  B  B8  1  0.500000  0.553252  0.434405  1
  B  B9  1  0.500000  0.446748  0.565595  1
  B  B10  1  0.500000  0.053252  0.065595  1
  B  B11  1  0.500000  0.946748  0.934405  1
  B  B12  1  0.500000  0.755673  0.419968  1
  B  B13  1  0.500000  0.244327  0.580032  1
  B  B14  1  0.500000  0.255673  0.080032  1
  B  B15  1  0.500000  0.744327  0.919968  1
  B  B16  1  0.500000  0.797852  0.263373  1
  B  B17  1  0.500000  0.202148  0.736627  1
  B  B18  1  0.500000  0.297852  0.236627  1
  B  B19  1  0.500000  0.702148  0.763373  1
  B  B20  1  0.500000  0.629782  0.180467  1
  B  B21  1  0.500000  0.370218  0.819533  1
  B  B22  1  0.500000  0.129782  0.319533  1
  B  B23  1  0.500000  0.870218  0.680467  1
  B  B24  1  0.500000  0.979550  0.213880  1
  B  B25  1  0.500000  0.020450  0.786120  1
  B  B26  1  0.500000  0.479550  0.286120  1
  B  B27  1  0.500000  0.520450  0.713880  1
  B  B28  1  0.500000  0.598607  0.026272  1
  B  B29  1  0.500000  0.401393  0.973728  1
  B  B30  1  0.500000  0.098607  0.473728  1
  B  B31  1  0.500000  0.901393  0.526272  1
  W  W32  1  0.000000  0.642807  0.316666  1
  W  W33  1  0.000000  0.357193  0.683334  1
  W  W34  1  0.000000  0.142807  0.183334  1
  W  W35  1  0.000000  0.857193  0.816666  1
