# generated using pymatgen
data_Tm3Ni29(Ge2B5)2
_symmetry_space_group_name_H-M   'P 1'
_cell_length_a   7.81470100
_cell_length_b   11.11090200
_cell_length_c   11.11090200
_cell_angle_alpha   90.00000000
_cell_angle_beta   90.00000000
_cell_angle_gamma   90.00000000
_symmetry_Int_Tables_number   1
_chemical_formula_structural   Tm3Ni29(Ge2B5)2
_chemical_formula_sum   'Tm6 Ni58 Ge8 B20'
_cell_volume   964.74158734
_cell_formula_units_Z   2
loop_
 _symmetry_equiv_pos_site_id
 _symmetry_equiv_pos_as_xyz
  1  'x, y, z'
loop_
 _atom_site_type_symbol
 _atom_site_label
 _atom_site_symmetry_multiplicity
 _atom_site_fract_x
 _atom_site_fract_y
 _atom_site_fract_z
 _atom_site_occupancy
  Tm  Tm0  1  0.000000  0.500000  0.500000  1
  Tm  Tm1  1  0.000000  0.000000  0.500000  1
  Tm  Tm2  1  0.000000  0.500000  0.000000  1
  Tm  Tm3  1  0.000000  0.000000  0.000000  1
  Tm  Tm4  1  0.500000  0.750000  0.250000  1
  Tm  Tm5  1  0.500000  0.250000  0.750000  1
  Ni  Ni6  1  0.335148  0.425417  0.590466  1
  Ni  Ni7  1  0.524718  0.750000  0.520424  1
  Ni  Ni8  1  0.524718  0.520424  0.750000  1
  Ni  Ni9  1  0.524718  0.979576  0.750000  1
  Ni  Ni10  1  0.968429  0.250000  0.084069  1
  Ni  Ni11  1  0.968429  0.415931  0.250000  1
  Ni  Ni12  1  0.968429  0.084069  0.250000  1
  Ni  Ni13  1  0.968429  0.250000  0.415931  1
  Ni  Ni14  1  0.031571  0.750000  0.915931  1
  Ni  Ni15  1  0.031571  0.750000  0.584069  1
  Ni  Ni16  1  0.031571  0.584069  0.750000  1
  Ni  Ni17  1  0.031571  0.915931  0.750000  1
  Ni  Ni18  1  0.246536  0.132596  0.132596  1
  Ni  Ni19  1  0.246536  0.367404  0.132596  1
  Ni  Ni20  1  0.246536  0.132596  0.367404  1
  Ni  Ni21  1  0.246536  0.367404  0.367404  1
  Ni  Ni22  1  0.753464  0.632596  0.867404  1
  Ni  Ni23  1  0.753464  0.867404  0.632596  1
  Ni  Ni24  1  0.753464  0.632596  0.632596  1
  Ni  Ni25  1  0.753464  0.867404  0.867404  1
  Ni  Ni26  1  0.699748  0.139739  0.139739  1
  Ni  Ni27  1  0.699748  0.360261  0.139739  1
  Ni  Ni28  1  0.699748  0.139739  0.360261  1
  Ni  Ni29  1  0.699748  0.360261  0.360261  1
  Ni  Ni30  1  0.300252  0.639739  0.860261  1
  Ni  Ni31  1  0.300252  0.860261  0.639739  1
  Ni  Ni32  1  0.300252  0.639739  0.639739  1
  Ni  Ni33  1  0.300252  0.860261  0.860261  1
  Ni  Ni34  1  0.335148  0.074583  0.590466  1
  Ni  Ni35  1  0.335148  0.909534  0.074583  1
  Ni  Ni36  1  0.335148  0.590466  0.425417  1
  Ni  Ni37  1  0.335148  0.425417  0.909534  1
  Ni  Ni38  1  0.664852  0.574583  0.409534  1
  Ni  Ni39  1  0.664852  0.925417  0.090466  1
  Ni  Ni40  1  0.664852  0.090466  0.574583  1
  Ni  Ni41  1  0.885614  0.250000  0.861257  1
  Ni  Ni42  1  0.664852  0.925417  0.409534  1
  Ni  Ni43  1  0.664852  0.090466  0.925417  1
  Ni  Ni44  1  0.664852  0.409534  0.574583  1
  Ni  Ni45  1  0.664852  0.574583  0.090466  1
  Ni  Ni46  1  0.524718  0.750000  0.979576  1
  Ni  Ni47  1  0.885614  0.638743  0.250000  1
  Ni  Ni48  1  0.335148  0.909534  0.425417  1
  Ni  Ni49  1  0.335148  0.590466  0.074583  1
  Ni  Ni50  1  0.885614  0.861257  0.250000  1
  Ni  Ni51  1  0.885614  0.250000  0.638743  1
  Ni  Ni52  1  0.536368  0.750000  0.750000  1
  Ni  Ni53  1  0.463632  0.250000  0.250000  1
  Ni  Ni54  1  0.114386  0.750000  0.361257  1
  Ni  Ni55  1  0.475282  0.250000  0.479576  1
  Ni  Ni56  1  0.475282  0.020424  0.250000  1
  Ni  Ni57  1  0.475282  0.479576  0.250000  1
  Ni  Ni58  1  0.475282  0.250000  0.020424  1
  Ni  Ni59  1  0.114386  0.361257  0.750000  1
  Ni  Ni60  1  0.114386  0.138743  0.750000  1
  Ni  Ni61  1  0.114386  0.750000  0.138743  1
  Ni  Ni62  1  0.664852  0.409534  0.925417  1
  Ni  Ni63  1  0.335148  0.074583  0.909534  1
  Ge  Ge64  1  0.822714  0.435117  0.750000  1
  Ge  Ge65  1  0.177286  0.250000  0.564883  1
  Ge  Ge66  1  0.177286  0.935117  0.250000  1
  Ge  Ge67  1  0.177286  0.564883  0.250000  1
  Ge  Ge68  1  0.177286  0.250000  0.935117  1
  Ge  Ge69  1  0.822714  0.750000  0.435117  1
  Ge  Ge70  1  0.822714  0.750000  0.064883  1
  Ge  Ge71  1  0.822714  0.064883  0.750000  1
  B  B72  1  0.518657  0.937309  0.937309  1
  B  B73  1  0.518657  0.562691  0.562691  1
  B  B74  1  0.518657  0.937309  0.562691  1
  B  B75  1  0.518657  0.562691  0.937309  1
  B  B76  1  0.481343  0.437309  0.437309  1
  B  B77  1  0.481343  0.062691  0.437309  1
  B  B78  1  0.263944  0.003626  0.750000  1
  B  B79  1  0.263944  0.496374  0.750000  1
  B  B80  1  0.263944  0.750000  0.496374  1
  B  B81  1  0.263944  0.750000  0.003626  1
  B  B82  1  0.736056  0.250000  0.503626  1
  B  B83  1  0.736056  0.996374  0.250000  1
  B  B84  1  0.736056  0.503626  0.250000  1
  B  B85  1  0.736056  0.250000  0.996374  1
  B  B86  1  0.144433  0.750000  0.750000  1
  B  B87  1  0.855567  0.250000  0.250000  1
  B  B88  1  0.895365  0.750000  0.750000  1
  B  B89  1  0.104635  0.250000  0.250000  1
  B  B90  1  0.481343  0.437309  0.062691  1
  B  B91  1  0.481343  0.062691  0.062691  1
