# generated using pymatgen
data_TbY2Mg3Ga2Hg
_symmetry_space_group_name_H-M   'P 1'
_cell_length_a   7.43739919
_cell_length_b   7.43739776
_cell_length_c   4.39079400
_cell_angle_alpha   90.00000000
_cell_angle_beta   90.00000000
_cell_angle_gamma   120.02568024
_symmetry_Int_Tables_number   1
_chemical_formula_structural   TbY2Mg3Ga2Hg
_chemical_formula_sum   'Tb1 Y2 Mg3 Ga2 Hg1'
_cell_volume   210.28260742
_cell_formula_units_Z   1
loop_
 _symmetry_equiv_pos_site_id
 _symmetry_equiv_pos_as_xyz
  1  'x, y, z'
loop_
 _atom_site_type_symbol
 _atom_site_label
 _atom_site_symmetry_multiplicity
 _atom_site_fract_x
 _atom_site_fract_y
 _atom_site_fract_z
 _atom_site_occupancy
  Tb  Tb0  1  0.426994  0.426994  0.000000  1
  Y  Y1  1  0.572992  0.000017  0.000000  1
  Y  Y2  1  0.000017  0.572992  0.000000  1
  Mg  Mg3  1  0.250042  0.000007  0.500000  1
  Mg  Mg4  1  0.000007  0.250042  0.500000  1
  Mg  Mg5  1  0.749980  0.749980  0.500000  1
  Ga  Ga6  1  0.333313  0.666654  0.500000  1
  Ga  Ga7  1  0.666654  0.333313  0.500000  1
  Hg  Hg8  1  0.000000  0.000000  0.000000  1
