# generated using pymatgen
data_Sc6Al13Ga(Si5Tc3)2
_symmetry_space_group_name_H-M   'P 1'
_cell_length_a   8.49354700
_cell_length_b   8.49354634
_cell_length_c   9.20532800
_cell_angle_alpha   90.00000000
_cell_angle_beta   90.00000000
_cell_angle_gamma   119.99999867
_symmetry_Int_Tables_number   1
_chemical_formula_structural   Sc6Al13Ga(Si5Tc3)2
_chemical_formula_sum   'Sc6 Al13 Ga1 Si10 Tc6'
_cell_volume   575.10621422
_cell_formula_units_Z   1
loop_
 _symmetry_equiv_pos_site_id
 _symmetry_equiv_pos_as_xyz
  1  'x, y, z'
loop_
 _atom_site_type_symbol
 _atom_site_label
 _atom_site_symmetry_multiplicity
 _atom_site_fract_x
 _atom_site_fract_y
 _atom_site_fract_z
 _atom_site_occupancy
  Sc  Sc0  1  0.199757  0.800243  0.250000  1
  Sc  Sc1  1  0.199757  0.399514  0.250000  1
  Sc  Sc2  1  0.600486  0.800243  0.250000  1
  Sc  Sc3  1  0.799779  0.200221  0.750000  1
  Sc  Sc4  1  0.799779  0.599558  0.750000  1
  Sc  Sc5  1  0.400442  0.200221  0.750000  1
  Al  Al6  1  0.162441  0.837559  0.916612  1
  Al  Al7  1  0.162441  0.324881  0.916612  1
  Al  Al8  1  0.675119  0.837559  0.916612  1
  Al  Al9  1  0.837613  0.162387  0.082581  1
  Al  Al10  1  0.837613  0.675225  0.082581  1
  Al  Al11  1  0.324775  0.162387  0.082581  1
  Al  Al12  1  0.837613  0.162387  0.417419  1
  Al  Al13  1  0.837613  0.675225  0.417419  1
  Al  Al14  1  0.324775  0.162387  0.417419  1
  Al  Al15  1  0.162441  0.837559  0.583388  1
  Al  Al16  1  0.162441  0.324881  0.583388  1
  Al  Al17  1  0.675119  0.837559  0.583388  1
  Al  Al18  1  0.000000  0.000000  0.750000  1
  Ga  Ga19  1  0.000000  0.000000  0.250000  1
  Si  Si20  1  0.563908  0.436092  0.250000  1
  Si  Si21  1  0.563908  0.127817  0.250000  1
  Si  Si22  1  0.872183  0.436092  0.250000  1
  Si  Si23  1  0.436109  0.563891  0.750000  1
  Si  Si24  1  0.436109  0.872218  0.750000  1
  Si  Si25  1  0.127782  0.563891  0.750000  1
  Si  Si26  1  0.333333  0.666667  0.452028  1
  Si  Si27  1  0.666667  0.333333  0.547555  1
  Si  Si28  1  0.666667  0.333333  0.952445  1
  Si  Si29  1  0.333333  0.666667  0.047972  1
  Tc  Tc30  1  0.499830  0.500170  0.499582  1
  Tc  Tc31  1  0.499830  0.999659  0.499582  1
  Tc  Tc32  1  0.000341  0.500170  0.499582  1
  Tc  Tc33  1  0.499830  0.500170  0.000418  1
  Tc  Tc34  1  0.499830  0.999659  0.000418  1
  Tc  Tc35  1  0.000341  0.500170  0.000418  1
