# generated using pymatgen
data_Dy3YAl8
_symmetry_space_group_name_H-M   'P 1'
_cell_length_a   9.65013949
_cell_length_b   9.65013901
_cell_length_c   9.65014023
_cell_angle_alpha   33.53429876
_cell_angle_beta   33.53430377
_cell_angle_gamma   33.53430070
_symmetry_Int_Tables_number   1
_chemical_formula_structural   Dy3YAl8
_chemical_formula_sum   'Dy3 Y1 Al8'
_cell_volume   244.28196199
_cell_formula_units_Z   1
loop_
 _symmetry_equiv_pos_site_id
 _symmetry_equiv_pos_as_xyz
  1  'x, y, z'
loop_
 _atom_site_type_symbol
 _atom_site_label
 _atom_site_symmetry_multiplicity
 _atom_site_fract_x
 _atom_site_fract_y
 _atom_site_fract_z
 _atom_site_occupancy
  Dy  Dy0  1  0.312595  0.312595  0.312595  1
  Dy  Dy1  1  0.687466  0.687466  0.687466  1
  Dy  Dy2  1  0.187413  0.187413  0.187413  1
  Y  Y3  1  0.812528  0.812528  0.812528  1
  Al  Al4  1  0.500024  0.500024  0.500024  1
  Al  Al5  1  0.000021  0.000021  0.000021  1
  Al  Al6  1  0.249914  0.249914  0.750043  1
  Al  Al7  1  0.749956  0.749956  0.250169  1
  Al  Al8  1  0.249914  0.750043  0.249914  1
  Al  Al9  1  0.749956  0.250169  0.749956  1
  Al  Al10  1  0.750043  0.249914  0.249914  1
  Al  Al11  1  0.250169  0.749956  0.749956  1
