# generated using pymatgen
data_Lu10In3Sn2Sb
_symmetry_space_group_name_H-M   'P 1'
_cell_length_a   8.75504679
_cell_length_b   8.79162786
_cell_length_c   6.45058200
_cell_angle_alpha   90.00000000
_cell_angle_beta   90.00000000
_cell_angle_gamma   119.74815949
_symmetry_Int_Tables_number   1
_chemical_formula_structural   Lu10In3Sn2Sb
_chemical_formula_sum   'Lu10 In3 Sn2 Sb1'
_cell_volume   431.07598555
_cell_formula_units_Z   1
loop_
 _symmetry_equiv_pos_site_id
 _symmetry_equiv_pos_as_xyz
  1  'x, y, z'
loop_
 _atom_site_type_symbol
 _atom_site_label
 _atom_site_symmetry_multiplicity
 _atom_site_fract_x
 _atom_site_fract_y
 _atom_site_fract_z
 _atom_site_occupancy
  Lu  Lu0  1  0.667587  0.333494  0.002643  1
  Lu  Lu1  1  0.336013  0.669222  0.002447  1
  Lu  Lu2  1  0.336013  0.669222  0.497553  1
  Lu  Lu3  1  0.667587  0.333494  0.497357  1
  Lu  Lu4  1  0.764297  0.768644  0.750000  1
  Lu  Lu5  1  0.233413  0.998180  0.750000  1
  Lu  Lu6  1  0.994724  0.233338  0.750000  1
  Lu  Lu7  1  0.236655  0.233201  0.250000  1
  Lu  Lu8  1  0.764119  0.998009  0.250000  1
  Lu  Lu9  1  0.000875  0.764308  0.250000  1
  In  In10  1  0.597463  0.001304  0.750000  1
  In  In11  1  0.602717  0.601334  0.250000  1
  In  In12  1  0.401282  0.001001  0.250000  1
  Sn  Sn13  1  0.999913  0.603581  0.750000  1
  Sn  Sn14  1  0.002473  0.396263  0.250000  1
  Sb  Sb15  1  0.394867  0.395405  0.750000  1
