# generated using pymatgen
data_La2Nd4InHg9
_symmetry_space_group_name_H-M   'P 1'
_cell_length_a   6.59731800
_cell_length_b   6.56787513
_cell_length_c   10.64879600
_cell_angle_alpha   90.00000000
_cell_angle_beta   90.00000000
_cell_angle_gamma   105.62092518
_symmetry_Int_Tables_number   1
_chemical_formula_structural   La2Nd4InHg9
_chemical_formula_sum   'La2 Nd4 In1 Hg9'
_cell_volume   444.37343907
_cell_formula_units_Z   1
loop_
 _symmetry_equiv_pos_site_id
 _symmetry_equiv_pos_as_xyz
  1  'x, y, z'
loop_
 _atom_site_type_symbol
 _atom_site_label
 _atom_site_symmetry_multiplicity
 _atom_site_fract_x
 _atom_site_fract_y
 _atom_site_fract_z
 _atom_site_occupancy
  La  La0  1  0.593007  0.593285  0.250000  1
  La  La1  1  0.409401  0.405461  0.750000  1
  Nd  Nd2  1  0.205091  0.797739  0.502346  1
  Nd  Nd3  1  0.205091  0.797739  0.997654  1
  Nd  Nd4  1  0.793466  0.202224  0.499970  1
  Nd  Nd5  1  0.793466  0.202224  0.000030  1
  In  In6  1  0.054788  0.483631  0.250000  1
  Hg  Hg7  1  0.996362  0.993136  0.250000  1
  Hg  Hg8  1  0.001431  0.003392  0.750000  1
  Hg  Hg9  1  0.297050  0.302963  0.035499  1
  Hg  Hg10  1  0.702466  0.699125  0.965964  1
  Hg  Hg11  1  0.297050  0.302963  0.464501  1
  Hg  Hg12  1  0.702466  0.699125  0.534036  1
  Hg  Hg13  1  0.480782  0.054569  0.250000  1
  Hg  Hg14  1  0.950393  0.514756  0.750000  1
  Hg  Hg15  1  0.517689  0.947669  0.750000  1
