# generated using pymatgen
data_Pm2CuPdO6
_symmetry_space_group_name_H-M   'P 1'
_cell_length_a   5.34054000
_cell_length_b   5.57543038
_cell_length_c   8.31554704
_cell_angle_alpha   89.75386200
_cell_angle_beta   90.00000000
_cell_angle_gamma   90.00000000
_symmetry_Int_Tables_number   1
_chemical_formula_structural   Pm2CuPdO6
_chemical_formula_sum   'Pm4 Cu2 Pd2 O12'
_cell_volume   247.59985549
_cell_formula_units_Z   2
loop_
 _symmetry_equiv_pos_site_id
 _symmetry_equiv_pos_as_xyz
  1  'x, y, z'
loop_
 _atom_site_type_symbol
 _atom_site_label
 _atom_site_symmetry_multiplicity
 _atom_site_fract_x
 _atom_site_fract_y
 _atom_site_fract_z
 _atom_site_occupancy
  Pm  Pm0  1  0.980678  0.061298  0.272177  1
  Pm  Pm1  1  0.519324  0.561298  0.272177  1
  Pm  Pm2  1  0.480678  0.438702  0.727823  1
  Pm  Pm3  1  0.019323  0.938701  0.727823  1
  Cu  Cu4  1  0.500001  0.000000  0.500000  1
  Cu  Cu5  1  0.000000  0.500000  0.500000  1
  Pd  Pd6  1  0.500001  0.000000  0.000000  1
  Pd  Pd7  1  0.000000  0.500000  0.000000  1
  O  O8  1  0.705639  0.288863  0.080055  1
  O  O9  1  0.794361  0.788864  0.080055  1
  O  O10  1  0.098773  0.471992  0.239119  1
  O  O11  1  0.401228  0.971992  0.239119  1
  O  O12  1  0.703007  0.297660  0.462755  1
  O  O13  1  0.796993  0.797661  0.462755  1
  O  O14  1  0.203006  0.202338  0.537245  1
  O  O15  1  0.296993  0.702338  0.537245  1
  O  O16  1  0.598774  0.028008  0.760881  1
  O  O17  1  0.901227  0.528007  0.760881  1
  O  O18  1  0.205638  0.211135  0.919945  1
  O  O19  1  0.294361  0.711135  0.919945  1
