# generated using pymatgen
data_PaVSb2F20
_symmetry_space_group_name_H-M   'P 1'
_cell_length_a   8.88922996
_cell_length_b   8.88923040
_cell_length_c   5.55111600
_cell_angle_alpha   88.54503650
_cell_angle_beta   88.54503643
_cell_angle_gamma   110.88960733
_symmetry_Int_Tables_number   1
_chemical_formula_structural   PaVSb2F20
_chemical_formula_sum   'Pa1 V1 Sb2 F20'
_cell_volume   409.39735054
_cell_formula_units_Z   1
loop_
 _symmetry_equiv_pos_site_id
 _symmetry_equiv_pos_as_xyz
  1  'x, y, z'
loop_
 _atom_site_type_symbol
 _atom_site_label
 _atom_site_symmetry_multiplicity
 _atom_site_fract_x
 _atom_site_fract_y
 _atom_site_fract_z
 _atom_site_occupancy
  Pa  Pa0  1  0.788779  0.211221  0.000000  1
  V  V1  1  0.200941  0.799059  0.000000  1
  Sb  Sb2  1  0.260009  0.246991  0.243045  1
  Sb  Sb3  1  0.753009  0.739991  0.756955  1
  F  F4  1  0.268981  0.451348  0.344643  1
  F  F5  1  0.466163  0.256223  0.336143  1
  F  F6  1  0.743777  0.533837  0.663857  1
  F  F7  1  0.548652  0.731019  0.655357  1
  F  F8  1  0.332475  0.325844  0.926461  1
  F  F9  1  0.674156  0.667525  0.073539  1
  F  F10  1  0.841394  0.432077  0.147843  1
  F  F11  1  0.389118  0.831583  0.113391  1
  F  F12  1  0.168417  0.610882  0.886609  1
  F  F13  1  0.567923  0.158606  0.852157  1
  F  F14  1  0.036517  0.209597  0.125802  1
  F  F15  1  0.214956  0.023380  0.118871  1
  F  F16  1  0.976620  0.785044  0.881129  1
  F  F17  1  0.790403  0.963483  0.874198  1
  F  F18  1  0.152451  0.140120  0.529955  1
  F  F19  1  0.859880  0.847549  0.470045  1
  F  F20  1  0.912653  0.305207  0.683992  1
  F  F21  1  0.266166  0.908239  0.726424  1
  F  F22  1  0.091761  0.733834  0.273576  1
  F  F23  1  0.694793  0.087347  0.316008  1
