# generated using pymatgen
data_LaNd3Cd2PtAu3
_symmetry_space_group_name_H-M   'P 1'
_cell_length_a   8.12622808
_cell_length_b   8.12622794
_cell_length_c   3.89609300
_cell_angle_alpha   90.00000000
_cell_angle_beta   90.00000000
_cell_angle_gamma   90.58383279
_symmetry_Int_Tables_number   1
_chemical_formula_structural   LaNd3Cd2PtAu3
_chemical_formula_sum   'La1 Nd3 Cd2 Pt1 Au3'
_cell_volume   257.26741056
_cell_formula_units_Z   1
loop_
 _symmetry_equiv_pos_site_id
 _symmetry_equiv_pos_as_xyz
  1  'x, y, z'
loop_
 _atom_site_type_symbol
 _atom_site_label
 _atom_site_symmetry_multiplicity
 _atom_site_fract_x
 _atom_site_fract_y
 _atom_site_fract_z
 _atom_site_occupancy
  La  La0  1  0.317346  0.817346  0.500000  1
  Nd  Nd1  1  0.671427  0.171427  0.500000  1
  Nd  Nd2  1  0.174806  0.339637  0.500000  1
  Nd  Nd3  1  0.839637  0.674806  0.500000  1
  Cd  Cd4  1  0.998812  0.001834  0.000000  1
  Cd  Cd5  1  0.501834  0.498812  0.000000  1
  Pt  Pt6  1  0.124300  0.624300  0.000000  1
  Au  Au7  1  0.872739  0.372739  0.000000  1
  Au  Au8  1  0.627456  0.871644  0.000000  1
  Au  Au9  1  0.371644  0.127456  0.000000  1
