# generated using pymatgen
data_Ho3Cd3CuPtAu
_symmetry_space_group_name_H-M   'P 1'
_cell_length_a   7.78358600
_cell_length_b   7.78358395
_cell_length_c   3.74617700
_cell_angle_alpha   90.00000000
_cell_angle_beta   90.00000000
_cell_angle_gamma   119.99999170
_symmetry_Int_Tables_number   1
_chemical_formula_structural   Ho3Cd3CuPtAu
_chemical_formula_sum   'Ho3 Cd3 Cu1 Pt1 Au1'
_cell_volume   196.55237843
_cell_formula_units_Z   1
loop_
 _symmetry_equiv_pos_site_id
 _symmetry_equiv_pos_as_xyz
  1  'x, y, z'
loop_
 _atom_site_type_symbol
 _atom_site_label
 _atom_site_symmetry_multiplicity
 _atom_site_fract_x
 _atom_site_fract_y
 _atom_site_fract_z
 _atom_site_occupancy
  Ho  Ho0  1  0.583429  0.984360  0.000000  1
  Ho  Ho1  1  0.015640  0.599067  0.000000  1
  Ho  Ho2  1  0.400933  0.416571  0.000000  1
  Cd  Cd3  1  0.251655  0.003144  0.500000  1
  Cd  Cd4  1  0.996856  0.248510  0.500000  1
  Cd  Cd5  1  0.751490  0.748345  0.500000  1
  Cu  Cu6  1  0.000000  0.000000  0.000000  1
  Pt  Pt7  1  0.333333  0.666667  0.500000  1
  Au  Au8  1  0.666667  0.333333  0.500000  1
