# generated using pymatgen
data_Tm8In2RuPt
_symmetry_space_group_name_H-M   'P 1'
_cell_length_a   9.56864423
_cell_length_b   9.56864425
_cell_length_c   9.58053500
_cell_angle_alpha   59.95888746
_cell_angle_beta   59.95888738
_cell_angle_gamma   59.77696540
_symmetry_Int_Tables_number   1
_chemical_formula_structural   Tm8In2RuPt
_chemical_formula_sum   'Tm16 In4 Ru2 Pt2'
_cell_volume   618.82655151
_cell_formula_units_Z   2
loop_
 _symmetry_equiv_pos_site_id
 _symmetry_equiv_pos_as_xyz
  1  'x, y, z'
loop_
 _atom_site_type_symbol
 _atom_site_label
 _atom_site_symmetry_multiplicity
 _atom_site_fract_x
 _atom_site_fract_y
 _atom_site_fract_z
 _atom_site_occupancy
  Tm  Tm0  1  0.349520  0.349520  0.353503  1
  Tm  Tm1  1  0.349520  0.349520  0.947459  1
  Tm  Tm2  1  0.347135  0.952134  0.350366  1
  Tm  Tm3  1  0.952134  0.347135  0.350366  1
  Tm  Tm4  1  0.815247  0.188536  0.189943  1
  Tm  Tm5  1  0.188536  0.815247  0.806275  1
  Tm  Tm6  1  0.188536  0.815247  0.189943  1
  Tm  Tm7  1  0.815247  0.188536  0.806275  1
  Tm  Tm8  1  0.188584  0.188584  0.811416  1
  Tm  Tm9  1  0.808912  0.808912  0.191088  1
  Tm  Tm10  1  0.937641  0.558523  0.564931  1
  Tm  Tm11  1  0.558523  0.937641  0.938904  1
  Tm  Tm12  1  0.558523  0.937641  0.564931  1
  Tm  Tm13  1  0.937641  0.558523  0.938904  1
  Tm  Tm14  1  0.562231  0.562231  0.937769  1
  Tm  Tm15  1  0.939916  0.939916  0.560084  1
  In  In16  1  0.583007  0.583007  0.584365  1
  In  In17  1  0.583007  0.583007  0.249621  1
  In  In18  1  0.583006  0.249032  0.583981  1
  In  In19  1  0.249032  0.583006  0.583981  1
  Ru  Ru20  1  0.143159  0.143159  0.140333  1
  Ru  Ru21  1  0.143159  0.143159  0.573351  1
  Pt  Pt22  1  0.143966  0.573821  0.141107  1
  Pt  Pt23  1  0.573821  0.143966  0.141107  1
