# generated using pymatgen
data_HoErHf3Si4
_symmetry_space_group_name_H-M   'P 1'
_cell_length_a   7.25889100
_cell_length_b   7.25889100
_cell_length_c   13.32451100
_cell_angle_alpha   90.00000000
_cell_angle_beta   90.00000000
_cell_angle_gamma   90.00000000
_symmetry_Int_Tables_number   1
_chemical_formula_structural   HoErHf3Si4
_chemical_formula_sum   'Ho4 Er4 Hf12 Si16'
_cell_volume   702.08845203
_cell_formula_units_Z   4
loop_
 _symmetry_equiv_pos_site_id
 _symmetry_equiv_pos_as_xyz
  1  'x, y, z'
loop_
 _atom_site_type_symbol
 _atom_site_label
 _atom_site_symmetry_multiplicity
 _atom_site_fract_x
 _atom_site_fract_y
 _atom_site_fract_z
 _atom_site_occupancy
  Ho  Ho0  1  0.495281  0.153607  0.534924  1
  Ho  Ho1  1  0.504719  0.846393  0.034924  1
  Ho  Ho2  1  0.653607  0.004719  0.284924  1
  Ho  Ho3  1  0.346393  0.995281  0.784924  1
  Er  Er4  1  0.846760  0.504458  0.965056  1
  Er  Er5  1  0.153240  0.495542  0.465056  1
  Er  Er6  1  0.004458  0.653240  0.715056  1
  Er  Er7  1  0.995542  0.346760  0.215056  1
  Hf  Hf8  1  0.676237  0.324165  0.750015  1
  Hf  Hf9  1  0.323763  0.675835  0.250015  1
  Hf  Hf10  1  0.824165  0.823763  0.500015  1
  Hf  Hf11  1  0.175835  0.176237  0.000015  1
  Hf  Hf12  1  0.496356  0.352979  0.125066  1
  Hf  Hf13  1  0.503644  0.647021  0.625066  1
  Hf  Hf14  1  0.852979  0.003644  0.875066  1
  Hf  Hf15  1  0.147021  0.996356  0.375066  1
  Hf  Hf16  1  0.647144  0.503520  0.374919  1
  Hf  Hf17  1  0.352856  0.496480  0.874919  1
  Hf  Hf18  1  0.003520  0.852856  0.124919  1
  Hf  Hf19  1  0.996480  0.147144  0.624919  1
  Si  Si20  1  0.795803  0.141262  0.067923  1
  Si  Si21  1  0.204197  0.858738  0.567923  1
  Si  Si22  1  0.641262  0.704197  0.817923  1
  Si  Si23  1  0.358738  0.295803  0.317923  1
  Si  Si24  1  0.859432  0.204690  0.432100  1
  Si  Si25  1  0.140568  0.795310  0.932100  1
  Si  Si26  1  0.704690  0.640568  0.182100  1
  Si  Si27  1  0.295310  0.359432  0.682100  1
  Si  Si28  1  0.550703  0.205324  0.935926  1
  Si  Si29  1  0.449297  0.794676  0.435926  1
  Si  Si30  1  0.705324  0.949297  0.685926  1
  Si  Si31  1  0.294676  0.050703  0.185926  1
  Si  Si32  1  0.795315  0.449721  0.564070  1
  Si  Si33  1  0.204685  0.550279  0.064070  1
  Si  Si34  1  0.949721  0.704685  0.314070  1
  Si  Si35  1  0.050279  0.295315  0.814070  1
