# generated using pymatgen
data_Tb10Pr6Cd4IrPd3
_symmetry_space_group_name_H-M   'P 1'
_cell_length_a   9.85813312
_cell_length_b   9.83264387
_cell_length_c   9.83264400
_cell_angle_alpha   59.99999956
_cell_angle_beta   60.08549393
_cell_angle_gamma   60.08549323
_symmetry_Int_Tables_number   1
_chemical_formula_structural   Tb10Pr6Cd4IrPd3
_chemical_formula_sum   'Tb10 Pr6 Cd4 Ir1 Pd3'
_cell_volume   674.80813196
_cell_formula_units_Z   1
loop_
 _symmetry_equiv_pos_site_id
 _symmetry_equiv_pos_as_xyz
  1  'x, y, z'
loop_
 _atom_site_type_symbol
 _atom_site_label
 _atom_site_symmetry_multiplicity
 _atom_site_fract_x
 _atom_site_fract_y
 _atom_site_fract_z
 _atom_site_occupancy
  Tb  Tb0  1  0.352993  0.346673  0.346673  1
  Tb  Tb1  1  0.352993  0.346673  0.953661  1
  Tb  Tb2  1  0.352993  0.953661  0.346673  1
  Tb  Tb3  1  0.942734  0.352422  0.352422  1
  Tb  Tb4  1  0.807947  0.187306  0.187306  1
  Tb  Tb5  1  0.190880  0.810938  0.810938  1
  Tb  Tb6  1  0.190880  0.810938  0.187245  1
  Tb  Tb7  1  0.807947  0.187306  0.817442  1
  Tb  Tb8  1  0.190880  0.187245  0.810938  1
  Tb  Tb9  1  0.807947  0.817442  0.187306  1
  Pr  Pr10  1  0.938397  0.562582  0.562582  1
  Pr  Pr11  1  0.565756  0.937477  0.937477  1
  Pr  Pr12  1  0.565756  0.937477  0.559290  1
  Pr  Pr13  1  0.938397  0.562582  0.936438  1
  Pr  Pr14  1  0.565756  0.559290  0.937477  1
  Pr  Pr15  1  0.938397  0.936438  0.562582  1
  Cd  Cd16  1  0.577920  0.580401  0.580401  1
  Cd  Cd17  1  0.577920  0.580401  0.261277  1
  Cd  Cd18  1  0.577920  0.261277  0.580401  1
  Cd  Cd19  1  0.262481  0.579173  0.579173  1
  Ir  Ir20  1  0.572456  0.142514  0.142514  1
  Pd  Pd21  1  0.140214  0.143808  0.143808  1
  Pd  Pd22  1  0.140214  0.143808  0.572168  1
  Pd  Pd23  1  0.140214  0.572168  0.143808  1
