# generated using pymatgen
data_LiY3Ag2Sn3
_symmetry_space_group_name_H-M   'P 1'
_cell_length_a   7.35585100
_cell_length_b   7.37200520
_cell_length_c   4.56101300
_cell_angle_alpha   90.00000000
_cell_angle_beta   90.00000000
_cell_angle_gamma   119.92754364
_symmetry_Int_Tables_number   1
_chemical_formula_structural   LiY3Ag2Sn3
_chemical_formula_sum   'Li1 Y3 Ag2 Sn3'
_cell_volume   214.35179358
_cell_formula_units_Z   1
loop_
 _symmetry_equiv_pos_site_id
 _symmetry_equiv_pos_as_xyz
  1  'x, y, z'
loop_
 _atom_site_type_symbol
 _atom_site_label
 _atom_site_symmetry_multiplicity
 _atom_site_fract_x
 _atom_site_fract_y
 _atom_site_fract_z
 _atom_site_occupancy
  Li  Li0  1  0.230179  0.000000  0.000000  1
  Y  Y1  1  0.575713  0.000000  0.500000  1
  Y  Y2  1  0.434400  0.438260  0.500000  1
  Y  Y3  1  0.996140  0.561740  0.500000  1
  Ag  Ag4  1  0.759230  0.757075  0.000000  1
  Ag  Ag5  1  0.002155  0.242925  0.000000  1
  Sn  Sn6  1  0.012565  0.000000  0.500000  1
  Sn  Sn7  1  0.332092  0.674568  0.000000  1
  Sn  Sn8  1  0.657525  0.325432  0.000000  1
