# generated using pymatgen
data_La7Tb(PrPt)6
_symmetry_space_group_name_H-M   'P 1'
_cell_length_a   6.57660002
_cell_length_b   10.29124628
_cell_length_c   10.29124567
_cell_angle_alpha   119.98087702
_cell_angle_beta   90.00799200
_cell_angle_gamma   89.99200387
_symmetry_Int_Tables_number   1
_chemical_formula_structural   La7Tb(PrPt)6
_chemical_formula_sum   'La7 Tb1 Pr6 Pt6'
_cell_volume   603.32542446
_cell_formula_units_Z   1
loop_
 _symmetry_equiv_pos_site_id
 _symmetry_equiv_pos_as_xyz
  1  'x, y, z'
loop_
 _atom_site_type_symbol
 _atom_site_label
 _atom_site_symmetry_multiplicity
 _atom_site_fract_x
 _atom_site_fract_y
 _atom_site_fract_z
 _atom_site_occupancy
  La  La0  1  0.960767  0.666615  0.333385  1
  La  La1  1  0.248464  0.129028  0.870972  1
  La  La2  1  0.248295  0.742229  0.871128  1
  La  La3  1  0.248295  0.128872  0.257771  1
  La  La4  1  0.746153  0.871998  0.128002  1
  La  La5  1  0.746037  0.255724  0.127850  1
  La  La6  1  0.746037  0.872150  0.744276  1
  Tb  Tb7  1  0.465869  0.333380  0.666620  1
  Pr  Pr8  1  0.441136  0.537222  0.462778  1
  Pr  Pr9  1  0.440965  0.925513  0.462798  1
  Pr  Pr10  1  0.440965  0.537202  0.074487  1
  Pr  Pr11  1  0.942501  0.461087  0.538913  1
  Pr  Pr12  1  0.942367  0.077919  0.538927  1
  Pr  Pr13  1  0.942367  0.461073  0.922081  1
  Pt  Pt14  1  0.188808  0.811649  0.188351  1
  Pt  Pt15  1  0.188647  0.376634  0.188416  1
  Pt  Pt16  1  0.188647  0.811584  0.623366  1
  Pt  Pt17  1  0.686663  0.189821  0.810179  1
  Pt  Pt18  1  0.686508  0.620432  0.810131  1
  Pt  Pt19  1  0.686508  0.189869  0.379568  1
