# generated using pymatgen
data_Al11Re3Tc
_symmetry_space_group_name_H-M   'P 1'
_cell_length_a   5.19036251
_cell_length_b   5.17904266
_cell_length_c   9.01289202
_cell_angle_alpha   105.03176351
_cell_angle_beta   90.49837194
_cell_angle_gamma   99.53285704
_symmetry_Int_Tables_number   1
_chemical_formula_structural   Al11Re3Tc
_chemical_formula_sum   'Al11 Re3 Tc1'
_cell_volume   230.41563697
_cell_formula_units_Z   1
loop_
 _symmetry_equiv_pos_site_id
 _symmetry_equiv_pos_as_xyz
  1  'x, y, z'
loop_
 _atom_site_type_symbol
 _atom_site_label
 _atom_site_symmetry_multiplicity
 _atom_site_fract_x
 _atom_site_fract_y
 _atom_site_fract_z
 _atom_site_occupancy
  Al  Al0  1  0.799370  0.259717  0.636468  1
  Al  Al1  1  0.197487  0.738429  0.365732  1
  Al  Al2  1  0.145901  0.464325  0.871356  1
  Al  Al3  1  0.855741  0.537164  0.128205  1
  Al  Al4  1  0.000431  0.000539  0.999092  1
  Al  Al5  1  0.496627  0.095915  0.871950  1
  Al  Al6  1  0.503371  0.904815  0.128400  1
  Al  Al7  1  0.566284  0.320587  0.377832  1
  Al  Al8  1  0.434643  0.678616  0.622514  1
  Al  Al9  1  0.943648  0.801327  0.666911  1
  Al  Al10  1  0.058120  0.197722  0.331415  1
  Re  Re11  1  0.718953  0.846079  0.396580  1
  Re  Re12  1  0.661582  0.611273  0.868544  1
  Re  Re13  1  0.338533  0.388878  0.131880  1
  Tc  Tc14  1  0.279308  0.154614  0.603121  1
