# generated using pymatgen
data_Ho13Lu7(Bi2Ru)4
_symmetry_space_group_name_H-M   'P 1'
_cell_length_a   7.89788446
_cell_length_b   8.96258964
_cell_length_c   12.41190476
_cell_angle_alpha   89.96885099
_cell_angle_beta   90.02535784
_cell_angle_gamma   90.02995049
_symmetry_Int_Tables_number   1
_chemical_formula_structural   Ho13Lu7(Bi2Ru)4
_chemical_formula_sum   'Ho13 Lu7 Bi8 Ru4'
_cell_volume   878.58251701
_cell_formula_units_Z   1
loop_
 _symmetry_equiv_pos_site_id
 _symmetry_equiv_pos_as_xyz
  1  'x, y, z'
loop_
 _atom_site_type_symbol
 _atom_site_label
 _atom_site_symmetry_multiplicity
 _atom_site_fract_x
 _atom_site_fract_y
 _atom_site_fract_z
 _atom_site_occupancy
  Ho  Ho0  1  0.840582  0.750315  0.792428  1
  Ho  Ho1  1  0.158997  0.249941  0.207563  1
  Ho  Ho2  1  0.341178  0.249824  0.707104  1
  Ho  Ho3  1  0.658999  0.750051  0.292667  1
  Ho  Ho4  1  0.376150  0.750116  0.689297  1
  Ho  Ho5  1  0.623918  0.249940  0.310652  1
  Ho  Ho6  1  0.875564  0.249721  0.810315  1
  Ho  Ho7  1  0.123698  0.750503  0.189883  1
  Ho  Ho8  1  0.945291  0.750066  0.504379  1
  Ho  Ho9  1  0.054567  0.249992  0.495471  1
  Ho  Ho10  1  0.445954  0.249431  0.995682  1
  Ho  Ho11  1  0.555211  0.750422  0.004468  1
  Ho  Ho12  1  0.174152  0.542001  0.935398  1
  Lu  Lu13  1  0.671857  0.042306  0.564364  1
  Lu  Lu14  1  0.328280  0.957604  0.435608  1
  Lu  Lu15  1  0.171911  0.957658  0.935581  1
  Lu  Lu16  1  0.328232  0.542464  0.435642  1
  Lu  Lu17  1  0.828275  0.042436  0.064404  1
  Lu  Lu18  1  0.671853  0.457730  0.564313  1
  Lu  Lu19  1  0.827438  0.457437  0.064669  1
  Bi  Bi20  1  0.567083  0.493347  0.827099  1
  Bi  Bi21  1  0.433437  0.506463  0.172553  1
  Bi  Bi22  1  0.066144  0.506488  0.672412  1
  Bi  Bi23  1  0.433678  0.993608  0.172681  1
  Bi  Bi24  1  0.933667  0.493474  0.327455  1
  Bi  Bi25  1  0.566291  0.006504  0.827337  1
  Bi  Bi26  1  0.933619  0.006586  0.327517  1
  Bi  Bi27  1  0.066352  0.993512  0.672542  1
  Ru  Ru28  1  0.572243  0.749929  0.509459  1
  Ru  Ru29  1  0.427842  0.250029  0.490499  1
  Ru  Ru30  1  0.071519  0.249002  0.990705  1
  Ru  Ru31  1  0.926021  0.751098  0.009854  1
