# generated using pymatgen
data_Pa3Ga3Co5Ni7
_symmetry_space_group_name_H-M   'P 1'
_cell_length_a   8.35612400
_cell_length_b   8.31430440
_cell_length_c   4.14214200
_cell_angle_alpha   90.00000000
_cell_angle_beta   90.00000000
_cell_angle_gamma   120.16652563
_symmetry_Int_Tables_number   1
_chemical_formula_structural   Pa3Ga3Co5Ni7
_chemical_formula_sum   'Pa3 Ga3 Co5 Ni7'
_cell_volume   248.80276776
_cell_formula_units_Z   1
loop_
 _symmetry_equiv_pos_site_id
 _symmetry_equiv_pos_as_xyz
  1  'x, y, z'
loop_
 _atom_site_type_symbol
 _atom_site_label
 _atom_site_symmetry_multiplicity
 _atom_site_fract_x
 _atom_site_fract_y
 _atom_site_fract_z
 _atom_site_occupancy
  Pa  Pa0  1  0.333793  0.660093  0.000000  1
  Pa  Pa1  1  0.673701  0.339907  0.000000  1
  Pa  Pa2  1  0.990608  0.000000  0.000000  1
  Ga  Ga3  1  0.499740  0.000000  0.500000  1
  Ga  Ga4  1  0.002364  0.501622  0.500000  1
  Ga  Ga5  1  0.500742  0.498378  0.500000  1
  Co  Co6  1  0.666308  0.000000  0.000000  1
  Co  Co7  1  0.000951  0.329765  0.000000  1
  Co  Co8  1  0.003987  0.676029  0.000000  1
  Co  Co9  1  0.671186  0.670235  0.000000  1
  Co  Co10  1  0.327958  0.323971  0.000000  1
  Ni  Ni11  1  0.328924  0.000000  0.000000  1
  Ni  Ni12  1  0.167694  0.333765  0.500000  1
  Ni  Ni13  1  0.833930  0.666235  0.500000  1
  Ni  Ni14  1  0.662695  0.831356  0.500000  1
  Ni  Ni15  1  0.335342  0.166604  0.500000  1
  Ni  Ni16  1  0.168737  0.833396  0.500000  1
  Ni  Ni17  1  0.831340  0.168644  0.500000  1
