# generated using pymatgen
data_Ce3Pr(Rh2Pb)2
_symmetry_space_group_name_H-M   'P 1'
_cell_length_a   7.80978385
_cell_length_b   7.80978498
_cell_length_c   3.73949400
_cell_angle_alpha   90.00000000
_cell_angle_beta   90.00000000
_cell_angle_gamma   91.71404140
_symmetry_Int_Tables_number   1
_chemical_formula_structural   Ce3Pr(Rh2Pb)2
_chemical_formula_sum   'Ce3 Pr1 Rh4 Pb2'
_cell_volume   227.97990478
_cell_formula_units_Z   1
loop_
 _symmetry_equiv_pos_site_id
 _symmetry_equiv_pos_as_xyz
  1  'x, y, z'
loop_
 _atom_site_type_symbol
 _atom_site_label
 _atom_site_symmetry_multiplicity
 _atom_site_fract_x
 _atom_site_fract_y
 _atom_site_fract_z
 _atom_site_occupancy
  Ce  Ce0  1  0.674259  0.168464  0.500000  1
  Ce  Ce1  1  0.331536  0.825741  0.500000  1
  Ce  Ce2  1  0.171982  0.328018  0.500000  1
  Pr  Pr3  1  0.828765  0.671235  0.500000  1
  Rh  Rh4  1  0.146728  0.628277  0.000000  1
  Rh  Rh5  1  0.871723  0.353272  0.000000  1
  Rh  Rh6  1  0.610597  0.889403  0.000000  1
  Rh  Rh7  1  0.355993  0.144007  0.000000  1
  Pb  Pb8  1  0.004345  0.995928  0.000000  1
  Pb  Pb9  1  0.504072  0.495655  0.000000  1
