# generated using pymatgen
data_DyHo7(Sc3Pt4)4
_symmetry_space_group_name_H-M   'P 1'
_cell_length_a   7.24796106
_cell_length_b   7.29642403
_cell_length_c   14.17489315
_cell_angle_alpha   90.00830105
_cell_angle_beta   90.01418062
_cell_angle_gamma   90.00561702
_symmetry_Int_Tables_number   1
_chemical_formula_structural   DyHo7(Sc3Pt4)4
_chemical_formula_sum   'Dy1 Ho7 Sc12 Pt16'
_cell_volume   749.62781086
_cell_formula_units_Z   1
loop_
 _symmetry_equiv_pos_site_id
 _symmetry_equiv_pos_as_xyz
  1  'x, y, z'
loop_
 _atom_site_type_symbol
 _atom_site_label
 _atom_site_symmetry_multiplicity
 _atom_site_fract_x
 _atom_site_fract_y
 _atom_site_fract_z
 _atom_site_occupancy
  Dy  Dy0  1  0.496906  0.677177  0.592572  1
  Ho  Ho1  1  0.997128  0.822803  0.907425  1
  Ho  Ho2  1  0.502947  0.322758  0.092571  1
  Ho  Ho3  1  0.002938  0.177232  0.407424  1
  Ho  Ho4  1  0.502889  0.322707  0.407367  1
  Ho  Ho5  1  0.002974  0.177274  0.092570  1
  Ho  Ho6  1  0.497159  0.677160  0.907449  1
  Ho  Ho7  1  0.996990  0.822765  0.592599  1
  Sc  Sc8  1  0.655630  0.168119  0.624512  1
  Sc  Sc9  1  0.155588  0.331829  0.875521  1
  Sc  Sc10  1  0.344422  0.831884  0.124473  1
  Sc  Sc11  1  0.844454  0.668149  0.375466  1
  Sc  Sc12  1  0.344313  0.831910  0.375432  1
  Sc  Sc13  1  0.844395  0.668094  0.124471  1
  Sc  Sc14  1  0.655579  0.168103  0.875537  1
  Sc  Sc15  1  0.155456  0.331820  0.624516  1
  Sc  Sc16  1  0.821610  0.503572  0.750049  1
  Sc  Sc17  1  0.321466  0.996424  0.750053  1
  Sc  Sc18  1  0.178497  0.496379  0.250001  1
  Sc  Sc19  1  0.678481  0.003607  0.249976  1
  Pt  Pt20  1  0.680943  0.959615  0.458760  1
  Pt  Pt21  1  0.180843  0.540594  0.041156  1
  Pt  Pt22  1  0.319102  0.040547  0.958806  1
  Pt  Pt23  1  0.819482  0.459174  0.541121  1
  Pt  Pt24  1  0.319063  0.040899  0.541098  1
  Pt  Pt25  1  0.819098  0.459459  0.958806  1
  Pt  Pt26  1  0.680865  0.959448  0.041162  1
  Pt  Pt27  1  0.180755  0.540451  0.458711  1
  Pt  Pt28  1  0.457545  0.380451  0.750105  1
  Pt  Pt29  1  0.957596  0.119455  0.750026  1
  Pt  Pt30  1  0.542403  0.619407  0.249989  1
  Pt  Pt31  1  0.042417  0.880583  0.249995  1
  Pt  Pt32  1  0.683828  0.855737  0.750182  1
  Pt  Pt33  1  0.183511  0.644380  0.750118  1
  Pt  Pt34  1  0.316355  0.144440  0.249987  1
  Pt  Pt35  1  0.816370  0.355597  0.249996  1
