# generated using pymatgen
data_Li4La8Si11Ge
_symmetry_space_group_name_H-M   'P 1'
_cell_length_a   11.29140625
_cell_length_b   9.56620517
_cell_length_c   8.45654024
_cell_angle_alpha   77.31374482
_cell_angle_beta   55.76114308
_cell_angle_gamma   46.99102770
_symmetry_Int_Tables_number   1
_chemical_formula_structural   Li4La8Si11Ge
_chemical_formula_sum   'Li4 La8 Si11 Ge1'
_cell_volume   531.44095836
_cell_formula_units_Z   1
loop_
 _symmetry_equiv_pos_site_id
 _symmetry_equiv_pos_as_xyz
  1  'x, y, z'
loop_
 _atom_site_type_symbol
 _atom_site_label
 _atom_site_symmetry_multiplicity
 _atom_site_fract_x
 _atom_site_fract_y
 _atom_site_fract_z
 _atom_site_occupancy
  Li  Li0  1  0.084206  0.415981  0.079981  1
  Li  Li1  1  0.832978  0.167488  0.832320  1
  Li  Li2  1  0.167046  0.832730  0.167385  1
  Li  Li3  1  0.417381  0.082415  0.416956  1
  La  La4  1  0.124025  0.123737  0.876185  1
  La  La5  1  0.875885  0.877145  0.123214  1
  La  La6  1  0.126664  0.124354  0.374290  1
  La  La7  1  0.375734  0.373226  0.124644  1
  La  La8  1  0.622022  0.623310  0.377111  1
  La  La9  1  0.376746  0.377026  0.623072  1
  La  La10  1  0.626387  0.627266  0.873892  1
  La  La11  1  0.872891  0.873807  0.627643  1
  Si  Si12  1  0.078691  0.414024  0.591645  1
  Si  Si13  1  0.416640  0.076593  0.919082  1
  Si  Si14  1  0.588929  0.917907  0.075943  1
  Si  Si15  1  0.331934  0.661043  0.833165  1
  Si  Si16  1  0.660903  0.332387  0.174297  1
  Si  Si17  1  0.832860  0.173867  0.332028  1
  Si  Si18  1  0.173730  0.833006  0.661372  1
  Si  Si19  1  0.914464  0.585055  0.916124  1
  Si  Si20  1  0.579692  0.920707  0.587246  1
  Si  Si21  1  0.334876  0.665418  0.334774  1
  Si  Si22  1  0.664903  0.334891  0.665463  1
  Ge  Ge23  1  0.920419  0.586624  0.412162  1
