# generated using pymatgen
data_Ce2Sm2Si3Rh4
_symmetry_space_group_name_H-M   'P 1'
_cell_length_a   10.68676550
_cell_length_b   10.68676549
_cell_length_c   7.92413497
_cell_angle_alpha   70.73056588
_cell_angle_beta   70.73056768
_cell_angle_gamma   30.42870887
_symmetry_Int_Tables_number   1
_chemical_formula_structural   Ce2Sm2Si3Rh4
_chemical_formula_sum   'Ce4 Sm4 Si6 Rh8'
_cell_volume   430.70927415
_cell_formula_units_Z   2
loop_
 _symmetry_equiv_pos_site_id
 _symmetry_equiv_pos_as_xyz
  1  'x, y, z'
loop_
 _atom_site_type_symbol
 _atom_site_label
 _atom_site_symmetry_multiplicity
 _atom_site_fract_x
 _atom_site_fract_y
 _atom_site_fract_z
 _atom_site_occupancy
  Ce  Ce0  1  0.791621  0.078629  0.170248  1
  Ce  Ce1  1  0.921371  0.208379  0.329752  1
  Ce  Ce2  1  0.208379  0.921371  0.829752  1
  Ce  Ce3  1  0.078629  0.791621  0.670248  1
  Sm  Sm4  1  0.792051  0.546704  0.600772  1
  Sm  Sm5  1  0.453296  0.207949  0.899228  1
  Sm  Sm6  1  0.207949  0.453296  0.399228  1
  Sm  Sm7  1  0.546704  0.792051  0.100772  1
  Si  Si8  1  0.950274  0.704324  0.059021  1
  Si  Si9  1  0.295676  0.049726  0.440979  1
  Si  Si10  1  0.049726  0.295676  0.940979  1
  Si  Si11  1  0.704324  0.950274  0.559021  1
  Si  Si12  1  0.647544  0.352456  0.750000  1
  Si  Si13  1  0.352456  0.647544  0.250000  1
  Rh  Rh14  1  0.576052  0.299601  0.515859  1
  Rh  Rh15  1  0.700399  0.423948  0.984141  1
  Rh  Rh16  1  0.423948  0.700399  0.484141  1
  Rh  Rh17  1  0.299601  0.576052  0.015859  1
  Rh  Rh18  1  0.635458  0.926348  0.314116  1
  Rh  Rh19  1  0.073652  0.364542  0.185884  1
  Rh  Rh20  1  0.364542  0.073652  0.685884  1
  Rh  Rh21  1  0.926348  0.635458  0.814116  1
