# generated using pymatgen
data_Hf6Al6Pd5Ru
_symmetry_space_group_name_H-M   'P 1'
_cell_length_a   7.32559100
_cell_length_b   7.32558947
_cell_length_c   6.76147900
_cell_angle_alpha   90.00000000
_cell_angle_beta   90.00000000
_cell_angle_gamma   119.99999337
_symmetry_Int_Tables_number   1
_chemical_formula_structural   Hf6Al6Pd5Ru
_chemical_formula_sum   'Hf6 Al6 Pd5 Ru1'
_cell_volume   314.23720885
_cell_formula_units_Z   1
loop_
 _symmetry_equiv_pos_site_id
 _symmetry_equiv_pos_as_xyz
  1  'x, y, z'
loop_
 _atom_site_type_symbol
 _atom_site_label
 _atom_site_symmetry_multiplicity
 _atom_site_fract_x
 _atom_site_fract_y
 _atom_site_fract_z
 _atom_site_occupancy
  Hf  Hf0  1  0.600515  0.602054  0.255696  1
  Hf  Hf1  1  0.016509  0.406601  0.743855  1
  Hf  Hf2  1  0.397946  0.998460  0.255696  1
  Hf  Hf3  1  0.001540  0.399485  0.255696  1
  Hf  Hf4  1  0.390093  0.983491  0.743855  1
  Hf  Hf5  1  0.593399  0.609907  0.743855  1
  Al  Al6  1  0.266082  0.264573  0.499335  1
  Al  Al7  1  0.735427  0.001509  0.499335  1
  Al  Al8  1  0.998491  0.733918  0.499335  1
  Al  Al9  1  0.736775  0.005733  0.000137  1
  Al  Al10  1  0.268957  0.263225  0.000137  1
  Al  Al11  1  0.994267  0.731043  0.000137  1
  Pd  Pd12  1  0.000000  0.000000  0.750552  1
  Pd  Pd13  1  0.000000  0.000000  0.248592  1
  Pd  Pd14  1  0.333333  0.666667  0.011726  1
  Pd  Pd15  1  0.666667  0.333333  0.511498  1
  Pd  Pd16  1  0.666667  0.333333  0.986690  1
  Ru  Ru17  1  0.333333  0.666667  0.493878  1
