# generated using pymatgen
data_Tm4Si10Os5Pt
_symmetry_space_group_name_H-M   'P 1'
_cell_length_a   8.20461025
_cell_length_b   8.19608306
_cell_length_c   8.19608337
_cell_angle_alpha   139.23569904
_cell_angle_beta   107.47243383
_cell_angle_gamma   86.68065235
_symmetry_Int_Tables_number   1
_chemical_formula_structural   Tm4Si10Os5Pt
_chemical_formula_sum   'Tm4 Si10 Os5 Pt1'
_cell_volume   330.31185960
_cell_formula_units_Z   1
loop_
 _symmetry_equiv_pos_site_id
 _symmetry_equiv_pos_as_xyz
  1  'x, y, z'
loop_
 _atom_site_type_symbol
 _atom_site_label
 _atom_site_symmetry_multiplicity
 _atom_site_fract_x
 _atom_site_fract_y
 _atom_site_fract_z
 _atom_site_occupancy
  Tm  Tm0  1  0.366406  0.634606  0.731800  1
  Tm  Tm1  1  0.897968  0.132814  0.765153  1
  Tm  Tm2  1  0.101313  0.868459  0.232855  1
  Tm  Tm3  1  0.634496  0.367196  0.267300  1
  Si  Si4  1  0.291781  0.540205  0.259322  1
  Si  Si5  1  0.710886  0.962718  0.250198  1
  Si  Si6  1  0.007070  0.760645  0.760951  1
  Si  Si7  1  0.234363  0.400289  0.834075  1
  Si  Si8  1  0.751113  0.596819  0.154294  1
  Si  Si9  1  0.433213  0.096140  0.337072  1
  Si  Si10  1  0.007070  0.246119  0.246424  1
  Si  Si11  1  0.565896  0.899358  0.666540  1
  Si  Si12  1  0.710886  0.460689  0.748169  1
  Si  Si13  1  0.291781  0.032459  0.751576  1
  Os  Os14  1  0.954288  0.357444  0.596843  1
  Os  Os15  1  0.497652  0.749421  0.250765  1
  Os  Os16  1  0.497652  0.246886  0.748231  1
  Os  Os17  1  0.253234  0.146780  0.106455  1
  Os  Os18  1  0.759471  0.856162  0.903308  1
  Pt  Pt19  1  0.033460  0.644793  0.388667  1
