# generated using pymatgen
data_Ac4GeI6
_symmetry_space_group_name_H-M   'P 1'
_cell_length_a   4.60461400
_cell_length_b   15.19509900
_cell_length_c   16.08459700
_cell_angle_alpha   90.00000000
_cell_angle_beta   90.00000000
_cell_angle_gamma   90.00000000
_symmetry_Int_Tables_number   1
_chemical_formula_structural   Ac4GeI6
_chemical_formula_sum   'Ac8 Ge2 I12'
_cell_volume   1125.40009553
_cell_formula_units_Z   2
loop_
 _symmetry_equiv_pos_site_id
 _symmetry_equiv_pos_as_xyz
  1  'x, y, z'
loop_
 _atom_site_type_symbol
 _atom_site_label
 _atom_site_symmetry_multiplicity
 _atom_site_fract_x
 _atom_site_fract_y
 _atom_site_fract_z
 _atom_site_occupancy
  Ac  Ac0  1  0.500000  0.117610  0.343191  1
  Ac  Ac1  1  0.500000  0.882390  0.656809  1
  Ac  Ac2  1  0.500000  0.617610  0.156809  1
  Ac  Ac3  1  0.500000  0.382390  0.843191  1
  Ac  Ac4  1  0.000000  0.114583  0.576982  1
  Ac  Ac5  1  0.000000  0.885417  0.423018  1
  Ac  Ac6  1  0.000000  0.614583  0.923018  1
  Ac  Ac7  1  0.000000  0.385417  0.076982  1
  Ge  Ge8  1  0.500000  0.000000  0.500000  1
  Ge  Ge9  1  0.500000  0.500000  0.000000  1
  I  I10  1  0.500000  0.245549  0.164160  1
  I  I11  1  0.500000  0.754451  0.835840  1
  I  I12  1  0.500000  0.745549  0.335840  1
  I  I13  1  0.500000  0.254451  0.664160  1
  I  I14  1  0.000000  0.259027  0.414179  1
  I  I15  1  0.000000  0.740973  0.585821  1
  I  I16  1  0.000000  0.759027  0.085821  1
  I  I17  1  0.000000  0.240973  0.914179  1
  I  I18  1  0.000000  0.999626  0.240181  1
  I  I19  1  0.000000  0.000374  0.759819  1
  I  I20  1  0.000000  0.499626  0.259819  1
  I  I21  1  0.000000  0.500374  0.740181  1
