# generated using pymatgen
data_La4Er2Sn7Hg3
_symmetry_space_group_name_H-M   'P 1'
_cell_length_a   6.60616273
_cell_length_b   6.60616145
_cell_length_c   10.43057554
_cell_angle_alpha   90.51461419
_cell_angle_beta   90.51462376
_cell_angle_gamma   102.26057213
_symmetry_Int_Tables_number   1
_chemical_formula_structural   La4Er2Sn7Hg3
_chemical_formula_sum   'La4 Er2 Sn7 Hg3'
_cell_volume   444.77678771
_cell_formula_units_Z   1
loop_
 _symmetry_equiv_pos_site_id
 _symmetry_equiv_pos_as_xyz
  1  'x, y, z'
loop_
 _atom_site_type_symbol
 _atom_site_label
 _atom_site_symmetry_multiplicity
 _atom_site_fract_x
 _atom_site_fract_y
 _atom_site_fract_z
 _atom_site_occupancy
  La  La0  1  0.205490  0.797272  0.500476  1
  La  La1  1  0.207190  0.791858  0.000486  1
  La  La2  1  0.797272  0.205490  0.500476  1
  La  La3  1  0.791858  0.207190  0.000486  1
  Er  Er4  1  0.627980  0.627980  0.250811  1
  Er  Er5  1  0.372071  0.372071  0.743714  1
  Sn  Sn6  1  0.010346  0.010346  0.246299  1
  Sn  Sn7  1  0.988380  0.988380  0.752862  1
  Sn  Sn8  1  0.686571  0.686571  0.544348  1
  Sn  Sn9  1  0.485997  0.068508  0.249074  1
  Sn  Sn10  1  0.933549  0.511871  0.752894  1
  Sn  Sn11  1  0.511871  0.933549  0.752894  1
  Sn  Sn12  1  0.068508  0.485997  0.249074  1
  Hg  Hg13  1  0.316285  0.316285  0.034054  1
  Hg  Hg14  1  0.684011  0.684011  0.963541  1
  Hg  Hg15  1  0.312622  0.312622  0.458513  1
