# generated using pymatgen
data_Y13Tm2Th(CdNi)4
_symmetry_space_group_name_H-M   'P 1'
_cell_length_a   9.58709416
_cell_length_b   9.58903513
_cell_length_c   9.58903449
_cell_angle_alpha   59.96280666
_cell_angle_beta   59.93773761
_cell_angle_gamma   59.93773906
_symmetry_Int_Tables_number   1
_chemical_formula_structural   Y13Tm2Th(CdNi)4
_chemical_formula_sum   'Y13 Tm2 Th1 Cd4 Ni4'
_cell_volume   622.57322937
_cell_formula_units_Z   1
loop_
 _symmetry_equiv_pos_site_id
 _symmetry_equiv_pos_as_xyz
  1  'x, y, z'
loop_
 _atom_site_type_symbol
 _atom_site_label
 _atom_site_symmetry_multiplicity
 _atom_site_fract_x
 _atom_site_fract_y
 _atom_site_fract_z
 _atom_site_occupancy
  Y  Y0  1  0.200727  0.598508  0.598508  1
  Y  Y1  1  0.061574  0.438862  0.438862  1
  Y  Y2  1  0.441209  0.060616  0.060616  1
  Y  Y3  1  0.439289  0.061637  0.439415  1
  Y  Y4  1  0.060638  0.440867  0.061474  1
  Y  Y5  1  0.439289  0.439415  0.061637  1
  Y  Y6  1  0.060638  0.061474  0.440867  1
  Y  Y7  1  0.187297  0.814055  0.814055  1
  Y  Y8  1  0.813615  0.186823  0.186823  1
  Y  Y9  1  0.813726  0.187266  0.813904  1
  Y  Y10  1  0.186717  0.814148  0.185955  1
  Y  Y11  1  0.813726  0.813904  0.187266  1
  Y  Y12  1  0.186717  0.185955  0.814148  1
  Tm  Tm13  1  0.598108  0.597647  0.203601  1
  Tm  Tm14  1  0.598108  0.203601  0.597647  1
  Th  Th15  1  0.595357  0.594615  0.594615  1
  Cd  Cd16  1  0.830308  0.831213  0.831213  1
  Cd  Cd17  1  0.831339  0.832204  0.506058  1
  Cd  Cd18  1  0.831339  0.506058  0.832204  1
  Cd  Cd19  1  0.506261  0.831901  0.831901  1
  Ni  Ni20  1  0.395253  0.392524  0.392524  1
  Ni  Ni21  1  0.395277  0.393202  0.819457  1
  Ni  Ni22  1  0.395277  0.819457  0.393202  1
  Ni  Ni23  1  0.818212  0.394047  0.394047  1
