# generated using pymatgen
data_PRuCl10
_symmetry_space_group_name_H-M   'P 1'
_cell_length_a   9.70764900
_cell_length_b   9.70764900
_cell_length_c   7.98546200
_cell_angle_alpha   90.00000000
_cell_angle_beta   90.00000000
_cell_angle_gamma   90.00000000
_symmetry_Int_Tables_number   1
_chemical_formula_structural   PRuCl10
_chemical_formula_sum   'P2 Ru2 Cl20'
_cell_volume   752.53755428
_cell_formula_units_Z   2
loop_
 _symmetry_equiv_pos_site_id
 _symmetry_equiv_pos_as_xyz
  1  'x, y, z'
loop_
 _atom_site_type_symbol
 _atom_site_label
 _atom_site_symmetry_multiplicity
 _atom_site_fract_x
 _atom_site_fract_y
 _atom_site_fract_z
 _atom_site_occupancy
  P  P0  1  0.000000  0.000000  0.000000  1
  P  P1  1  0.500000  0.500000  0.000000  1
  Ru  Ru2  1  0.000000  0.500000  0.618279  1
  Ru  Ru3  1  0.500000  0.000000  0.381721  1
  Cl  Cl4  1  0.341609  0.544009  0.142358  1
  Cl  Cl5  1  0.044009  0.158391  0.142358  1
  Cl  Cl6  1  0.955991  0.841609  0.142358  1
  Cl  Cl7  1  0.658391  0.455991  0.142358  1
  Cl  Cl8  1  0.158391  0.955991  0.857642  1
  Cl  Cl9  1  0.455991  0.341609  0.857642  1
  Cl  Cl10  1  0.544009  0.658391  0.857642  1
  Cl  Cl11  1  0.841609  0.044009  0.857642  1
  Cl  Cl12  1  0.000000  0.500000  0.908427  1
  Cl  Cl13  1  0.500000  0.000000  0.091573  1
  Cl  Cl14  1  0.000000  0.500000  0.324414  1
  Cl  Cl15  1  0.500000  0.000000  0.675586  1
  Cl  Cl16  1  0.219394  0.594819  0.617990  1
  Cl  Cl17  1  0.094819  0.280606  0.617990  1
  Cl  Cl18  1  0.905181  0.719394  0.617990  1
  Cl  Cl19  1  0.780606  0.405181  0.617990  1
  Cl  Cl20  1  0.280606  0.905181  0.382010  1
  Cl  Cl21  1  0.405181  0.219394  0.382010  1
  Cl  Cl22  1  0.594819  0.780606  0.382010  1
  Cl  Cl23  1  0.719394  0.094819  0.382010  1
