# generated using pymatgen
data_Tm2Ni3PRh3
_symmetry_space_group_name_H-M   'P 1'
_cell_length_a   5.85891505
_cell_length_b   5.85891570
_cell_length_c   5.68879538
_cell_angle_alpha   59.00573082
_cell_angle_beta   59.00572866
_cell_angle_gamma   60.00000988
_symmetry_Int_Tables_number   1
_chemical_formula_structural   Tm2Ni3PRh3
_chemical_formula_sum   'Tm2 Ni3 P1 Rh3'
_cell_volume   135.97118529
_cell_formula_units_Z   1
loop_
 _symmetry_equiv_pos_site_id
 _symmetry_equiv_pos_as_xyz
  1  'x, y, z'
loop_
 _atom_site_type_symbol
 _atom_site_label
 _atom_site_symmetry_multiplicity
 _atom_site_fract_x
 _atom_site_fract_y
 _atom_site_fract_z
 _atom_site_occupancy
  Tm  Tm0  1  0.250023  0.250023  0.249931  1
  Tm  Tm1  1  0.741555  0.741555  0.775336  1
  Ni  Ni2  1  0.775776  0.204288  0.244157  1
  Ni  Ni3  1  0.204288  0.775776  0.244157  1
  Ni  Ni4  1  0.775776  0.775776  0.244157  1
  P  P5  1  0.517325  0.517325  0.448024  1
  Rh  Rh6  1  0.237620  0.237620  0.764745  1
  Rh  Rh7  1  0.760013  0.237620  0.764745  1
  Rh  Rh8  1  0.237620  0.760013  0.764745  1
