# generated using pymatgen
data_Tb2Er3Tm11(InRh)4
_symmetry_space_group_name_H-M   'P 1'
_cell_length_a   9.57104835
_cell_length_b   9.56512632
_cell_length_c   9.55912428
_cell_angle_alpha   59.97886928
_cell_angle_beta   59.94003364
_cell_angle_gamma   59.96580823
_symmetry_Int_Tables_number   1
_chemical_formula_structural   Tb2Er3Tm11(InRh)4
_chemical_formula_sum   'Tb2 Er3 Tm11 In4 Rh4'
_cell_volume   618.26487181
_cell_formula_units_Z   1
loop_
 _symmetry_equiv_pos_site_id
 _symmetry_equiv_pos_as_xyz
  1  'x, y, z'
loop_
 _atom_site_type_symbol
 _atom_site_label
 _atom_site_symmetry_multiplicity
 _atom_site_fract_x
 _atom_site_fract_y
 _atom_site_fract_z
 _atom_site_occupancy
  Tb  Tb0  1  0.061738  0.062604  0.437182  1
  Tb  Tb1  1  0.438611  0.062362  0.437357  1
  Er  Er2  1  0.062087  0.438036  0.061593  1
  Er  Er3  1  0.048250  0.649843  0.650418  1
  Er  Er4  1  0.438460  0.438160  0.061353  1
  Tm  Tm5  1  0.650605  0.049474  0.649334  1
  Tm  Tm6  1  0.188396  0.811116  0.189116  1
  Tm  Tm7  1  0.188061  0.189345  0.812099  1
  Tm  Tm8  1  0.811233  0.810994  0.189342  1
  Tm  Tm9  1  0.439605  0.061115  0.059714  1
  Tm  Tm10  1  0.811420  0.188917  0.188221  1
  Tm  Tm11  1  0.061010  0.439516  0.438271  1
  Tm  Tm12  1  0.810340  0.189573  0.811971  1
  Tm  Tm13  1  0.188668  0.810459  0.812390  1
  Tm  Tm14  1  0.650850  0.648988  0.049322  1
  Tm  Tm15  1  0.651698  0.649889  0.650500  1
  In  In16  1  0.416689  0.417194  0.416778  1
  In  In17  1  0.749330  0.417332  0.416867  1
  In  In18  1  0.417579  0.748222  0.416800  1
  In  In19  1  0.416864  0.416575  0.749977  1
  Rh  Rh20  1  0.857535  0.857371  0.426857  1
  Rh  Rh21  1  0.856528  0.857954  0.858572  1
  Rh  Rh22  1  0.427320  0.857608  0.858227  1
  Rh  Rh23  1  0.857120  0.427350  0.857734  1
