# generated using pymatgen
data_TbY18TmSn16
_symmetry_space_group_name_H-M   'P 1'
_cell_length_a   8.05083609
_cell_length_b   8.19660540
_cell_length_c   15.50249206
_cell_angle_alpha   90.00198671
_cell_angle_beta   89.99010862
_cell_angle_gamma   89.96296901
_symmetry_Int_Tables_number   1
_chemical_formula_structural   TbY18TmSn16
_chemical_formula_sum   'Tb1 Y18 Tm1 Sn16'
_cell_volume   1023.00188244
_cell_formula_units_Z   1
loop_
 _symmetry_equiv_pos_site_id
 _symmetry_equiv_pos_as_xyz
  1  'x, y, z'
loop_
 _atom_site_type_symbol
 _atom_site_label
 _atom_site_symmetry_multiplicity
 _atom_site_fract_x
 _atom_site_fract_y
 _atom_site_fract_z
 _atom_site_occupancy
  Tb  Tb0  1  0.020341  0.179961  0.902010  1
  Y  Y1  1  0.367070  0.836139  0.877817  1
  Y  Y2  1  0.867855  0.663270  0.622136  1
  Y  Y3  1  0.632598  0.163660  0.378201  1
  Y  Y4  1  0.132622  0.336352  0.121458  1
  Y  Y5  1  0.632597  0.163654  0.121803  1
  Y  Y6  1  0.132627  0.336361  0.378529  1
  Y  Y7  1  0.367074  0.836167  0.622183  1
  Y  Y8  1  0.867830  0.663270  0.877850  1
  Y  Y9  1  0.520005  0.320779  0.902026  1
  Y  Y10  1  0.020473  0.179914  0.598024  1
  Y  Y11  1  0.479895  0.679636  0.402494  1
  Y  Y12  1  0.979811  0.820285  0.097713  1
  Y  Y13  1  0.479907  0.679658  0.097506  1
  Y  Y14  1  0.979792  0.820286  0.402298  1
  Y  Y15  1  0.519989  0.320767  0.597958  1
  Y  Y16  1  0.698587  0.997961  0.749969  1
  Y  Y17  1  0.801124  0.497668  0.250011  1
  Y  Y18  1  0.301097  0.002249  0.249993  1
  Tm  Tm19  1  0.199181  0.502621  0.749993  1
  Sn  Sn20  1  0.292669  0.035279  0.041657  1
  Sn  Sn21  1  0.792381  0.464301  0.458358  1
  Sn  Sn22  1  0.707441  0.964457  0.542101  1
  Sn  Sn23  1  0.207517  0.535250  0.957221  1
  Sn  Sn24  1  0.707408  0.964410  0.957914  1
  Sn  Sn25  1  0.207487  0.535227  0.542775  1
  Sn  Sn26  1  0.292595  0.035309  0.458359  1
  Sn  Sn27  1  0.792400  0.464264  0.041614  1
  Sn  Sn28  1  0.564075  0.618315  0.750002  1
  Sn  Sn29  1  0.065456  0.880407  0.750033  1
  Sn  Sn30  1  0.434554  0.381276  0.250002  1
  Sn  Sn31  1  0.934771  0.118852  0.250010  1
  Sn  Sn32  1  0.328269  0.148368  0.749998  1
  Sn  Sn33  1  0.829650  0.354017  0.749973  1
  Sn  Sn34  1  0.671300  0.853765  0.250008  1
  Sn  Sn35  1  0.171547  0.645847  0.250003  1
