# generated using pymatgen
data_Y8Be3Si12B
_symmetry_space_group_name_H-M   'P 1'
_cell_length_a   7.79224700
_cell_length_b   7.79224738
_cell_length_c   8.11506500
_cell_angle_alpha   90.00000000
_cell_angle_beta   90.00000000
_cell_angle_gamma   120.00000265
_symmetry_Int_Tables_number   1
_chemical_formula_structural   Y8Be3Si12B
_chemical_formula_sum   'Y8 Be3 Si12 B1'
_cell_volume   426.72497802
_cell_formula_units_Z   1
loop_
 _symmetry_equiv_pos_site_id
 _symmetry_equiv_pos_as_xyz
  1  'x, y, z'
loop_
 _atom_site_type_symbol
 _atom_site_label
 _atom_site_symmetry_multiplicity
 _atom_site_fract_x
 _atom_site_fract_y
 _atom_site_fract_z
 _atom_site_occupancy
  Y  Y0  1  0.000000  0.000000  0.251174  1
  Y  Y1  1  0.000000  0.000000  0.748762  1
  Y  Y2  1  0.996510  0.498254  0.251757  1
  Y  Y3  1  0.501746  0.498254  0.251757  1
  Y  Y4  1  0.502110  0.004223  0.748221  1
  Y  Y5  1  0.501746  0.003490  0.251757  1
  Y  Y6  1  0.502110  0.497890  0.748221  1
  Y  Y7  1  0.995777  0.497890  0.748221  1
  Be  Be8  1  0.333333  0.666667  0.999052  1
  Be  Be9  1  0.333333  0.666667  0.500170  1
  Be  Be10  1  0.666667  0.333333  0.001620  1
  Si  Si11  1  0.172467  0.344933  0.999962  1
  Si  Si12  1  0.655067  0.827533  0.999962  1
  Si  Si13  1  0.171332  0.342664  0.500411  1
  Si  Si14  1  0.346634  0.173318  0.999930  1
  Si  Si15  1  0.172467  0.827533  0.999962  1
  Si  Si16  1  0.657336  0.828668  0.500411  1
  Si  Si17  1  0.826682  0.653366  0.999930  1
  Si  Si18  1  0.356987  0.178493  0.499476  1
  Si  Si19  1  0.171332  0.828668  0.500411  1
  Si  Si20  1  0.821507  0.643013  0.499476  1
  Si  Si21  1  0.826682  0.173318  0.999930  1
  Si  Si22  1  0.821507  0.178493  0.499476  1
  B  B23  1  0.666667  0.333333  0.499951  1
