# generated using pymatgen
data_RbCu(Sb4Ru)3
_symmetry_space_group_name_H-M   'P 1'
_cell_length_a   8.17577968
_cell_length_b   8.17578011
_cell_length_c   8.17578061
_cell_angle_alpha   109.43750819
_cell_angle_beta   109.43750277
_cell_angle_gamma   109.43749079
_symmetry_Int_Tables_number   1
_chemical_formula_structural   RbCu(Sb4Ru)3
_chemical_formula_sum   'Rb1 Cu1 Sb12 Ru3'
_cell_volume   421.21781839
_cell_formula_units_Z   1
loop_
 _symmetry_equiv_pos_site_id
 _symmetry_equiv_pos_as_xyz
  1  'x, y, z'
loop_
 _atom_site_type_symbol
 _atom_site_label
 _atom_site_symmetry_multiplicity
 _atom_site_fract_x
 _atom_site_fract_y
 _atom_site_fract_z
 _atom_site_occupancy
  Rb  Rb0  1  0.000000  0.000000  0.000000  1
  Cu  Cu1  1  0.500000  0.500000  0.500000  1
  Sb  Sb2  1  0.152011  0.502027  0.341960  1
  Sb  Sb3  1  0.497973  0.658040  0.847989  1
  Sb  Sb4  1  0.339626  0.839878  0.180595  1
  Sb  Sb5  1  0.819405  0.660374  0.160122  1
  Sb  Sb6  1  0.658040  0.847989  0.497973  1
  Sb  Sb7  1  0.180595  0.339626  0.839878  1
  Sb  Sb8  1  0.660374  0.160122  0.819405  1
  Sb  Sb9  1  0.341960  0.152011  0.502027  1
  Sb  Sb10  1  0.502027  0.341960  0.152011  1
  Sb  Sb11  1  0.847989  0.497973  0.658040  1
  Sb  Sb12  1  0.839878  0.180595  0.339626  1
  Sb  Sb13  1  0.160122  0.819405  0.660374  1
  Ru  Ru14  1  0.500000  0.000000  0.000000  1
  Ru  Ru15  1  0.000000  0.500000  0.000000  1
  Ru  Ru16  1  0.000000  0.000000  0.500000  1
