# generated using pymatgen
data_Y10In8Cu3Au
_symmetry_space_group_name_H-M   'P 1'
_cell_length_a   3.68363300
_cell_length_b   8.10262136
_cell_length_c   18.12418912
_cell_angle_alpha   90.08051017
_cell_angle_beta   90.00000000
_cell_angle_gamma   90.00000000
_symmetry_Int_Tables_number   1
_chemical_formula_structural   Y10In8Cu3Au
_chemical_formula_sum   'Y10 In8 Cu3 Au1'
_cell_volume   540.95365100
_cell_formula_units_Z   1
loop_
 _symmetry_equiv_pos_site_id
 _symmetry_equiv_pos_as_xyz
  1  'x, y, z'
loop_
 _atom_site_type_symbol
 _atom_site_label
 _atom_site_symmetry_multiplicity
 _atom_site_fract_x
 _atom_site_fract_y
 _atom_site_fract_z
 _atom_site_occupancy
  Y  Y0  1  0.500000  0.232002  0.780449  1
  Y  Y1  1  0.500000  0.761395  0.219351  1
  Y  Y2  1  0.500000  0.261754  0.281345  1
  Y  Y3  1  0.500000  0.744403  0.715989  1
  Y  Y4  1  0.500000  0.117535  0.582186  1
  Y  Y5  1  0.500000  0.881792  0.416267  1
  Y  Y6  1  0.500000  0.380400  0.084622  1
  Y  Y7  1  0.500000  0.620677  0.921414  1
  Y  Y8  1  0.500000  0.000101  0.000962  1
  Y  Y9  1  0.500000  0.500086  0.498660  1
  In  In10  1  0.000000  0.078473  0.151912  1
  In  In11  1  0.000000  0.922083  0.849550  1
  In  In12  1  0.000000  0.417766  0.647359  1
  In  In13  1  0.000000  0.579537  0.348712  1
  In  In14  1  0.000000  0.206822  0.430187  1
  In  In15  1  0.000000  0.793196  0.567537  1
  In  In16  1  0.000000  0.290252  0.933552  1
  In  In17  1  0.000000  0.706707  0.070244  1
  Cu  Cu18  1  0.000000  0.025165  0.696301  1
  Cu  Cu19  1  0.000000  0.975997  0.302415  1
  Cu  Cu20  1  0.000000  0.475860  0.198166  1
  Au  Au21  1  0.000000  0.527998  0.802822  1
