# generated using pymatgen
data_Zn6GaSn5Rh12
_symmetry_space_group_name_H-M   'P 1'
_cell_length_a   4.41301900
_cell_length_b   6.23547900
_cell_length_c   13.31590800
_cell_angle_alpha   90.00000000
_cell_angle_beta   90.00096660
_cell_angle_gamma   90.00000000
_symmetry_Int_Tables_number   1
_chemical_formula_structural   Zn6GaSn5Rh12
_chemical_formula_sum   'Zn6 Ga1 Sn5 Rh12'
_cell_volume   366.41766608
_cell_formula_units_Z   1
loop_
 _symmetry_equiv_pos_site_id
 _symmetry_equiv_pos_as_xyz
  1  'x, y, z'
loop_
 _atom_site_type_symbol
 _atom_site_label
 _atom_site_symmetry_multiplicity
 _atom_site_fract_x
 _atom_site_fract_y
 _atom_site_fract_z
 _atom_site_occupancy
  Zn  Zn0  1  0.999984  0.000000  0.996794  1
  Zn  Zn1  1  0.499748  0.500000  0.164044  1
  Zn  Zn2  1  0.999746  0.000000  0.333344  1
  Zn  Zn3  1  0.500000  0.500000  0.502584  1
  Zn  Zn4  1  0.000263  0.000000  0.669859  1
  Zn  Zn5  1  0.500258  0.500000  0.833347  1
  Ga  Ga6  1  0.500266  0.000000  0.833320  1
  Sn  Sn7  1  0.000002  0.500000  0.996912  1
  Sn  Sn8  1  0.499758  0.000000  0.164242  1
  Sn  Sn9  1  0.999682  0.500000  0.333467  1
  Sn  Sn10  1  0.499974  0.000000  0.502510  1
  Sn  Sn11  1  0.000243  0.500000  0.669665  1
  Rh  Rh12  1  0.500009  0.245977  0.996245  1
  Rh  Rh13  1  0.500009  0.754023  0.996245  1
  Rh  Rh14  1  0.999763  0.251007  0.165975  1
  Rh  Rh15  1  0.999763  0.748993  0.165975  1
  Rh  Rh16  1  0.499756  0.249102  0.333308  1
  Rh  Rh17  1  0.499756  0.750898  0.333308  1
  Rh  Rh18  1  0.999992  0.250958  0.500709  1
  Rh  Rh19  1  0.999992  0.749042  0.500709  1
  Rh  Rh20  1  0.500261  0.245948  0.670384  1
  Rh  Rh21  1  0.500261  0.754052  0.670384  1
  Rh  Rh22  1  0.000251  0.242562  0.833336  1
  Rh  Rh23  1  0.000251  0.757438  0.833336  1
