# generated using pymatgen
data_Ho3Ga3GeIr2
_symmetry_space_group_name_H-M   'P 1'
_cell_length_a   7.17446200
_cell_length_b   7.17446120
_cell_length_c   3.96395700
_cell_angle_alpha   90.00000000
_cell_angle_beta   90.00000000
_cell_angle_gamma   119.99999448
_symmetry_Int_Tables_number   1
_chemical_formula_structural   Ho3Ga3GeIr2
_chemical_formula_sum   'Ho3 Ga3 Ge1 Ir2'
_cell_volume   176.70068018
_cell_formula_units_Z   1
loop_
 _symmetry_equiv_pos_site_id
 _symmetry_equiv_pos_as_xyz
  1  'x, y, z'
loop_
 _atom_site_type_symbol
 _atom_site_label
 _atom_site_symmetry_multiplicity
 _atom_site_fract_x
 _atom_site_fract_y
 _atom_site_fract_z
 _atom_site_occupancy
  Ho  Ho0  1  0.408603  0.415331  0.500000  1
  Ho  Ho1  1  0.584669  0.993272  0.500000  1
  Ho  Ho2  1  0.006728  0.591397  0.500000  1
  Ga  Ga3  1  0.744800  0.762980  0.000000  1
  Ga  Ga4  1  0.237020  0.981820  0.000000  1
  Ga  Ga5  1  0.018180  0.255200  0.000000  1
  Ge  Ge6  1  0.666667  0.333333  0.000000  1
  Ir  Ir7  1  0.333333  0.666667  0.000000  1
  Ir  Ir8  1  0.000000  0.000000  0.500000  1
