# generated using pymatgen
data_Sr3Bi5O14
_symmetry_space_group_name_H-M   'P 1'
_cell_length_a   7.92167543
_cell_length_b   7.92167655
_cell_length_c   7.89934181
_cell_angle_alpha   59.90643206
_cell_angle_beta   59.90642393
_cell_angle_gamma   60.00000067
_symmetry_Int_Tables_number   1
_chemical_formula_structural   Sr3Bi5O14
_chemical_formula_sum   'Sr3 Bi5 O14'
_cell_volume   350.02121703
_cell_formula_units_Z   1
loop_
 _symmetry_equiv_pos_site_id
 _symmetry_equiv_pos_as_xyz
  1  'x, y, z'
loop_
 _atom_site_type_symbol
 _atom_site_label
 _atom_site_symmetry_multiplicity
 _atom_site_fract_x
 _atom_site_fract_y
 _atom_site_fract_z
 _atom_site_occupancy
  Sr  Sr0  1  0.500001  0.500001  0.499999  1
  Sr  Sr1  1  0.499999  0.000000  0.500001  1
  Sr  Sr2  1  0.000000  0.499999  0.500001  1
  Bi  Bi3  1  0.000000  0.000000  0.000000  1
  Bi  Bi4  1  0.500001  0.000000  0.000000  1
  Bi  Bi5  1  0.000000  0.499998  0.000000  1
  Bi  Bi6  1  0.500000  0.500000  0.000000  1
  Bi  Bi7  1  0.000000  0.000000  0.500001  1
  O  O8  1  0.670502  0.670501  0.076098  1
  O  O9  1  0.670502  0.082900  0.076098  1
  O  O10  1  0.082901  0.670500  0.076098  1
  O  O11  1  0.920635  0.329828  0.328905  1
  O  O12  1  0.329827  0.920633  0.328907  1
  O  O13  1  0.920633  0.920633  0.328907  1
  O  O14  1  0.383030  0.383029  0.350911  1
  O  O15  1  0.616972  0.616970  0.649089  1
  O  O16  1  0.079367  0.079367  0.671094  1
  O  O17  1  0.670169  0.079367  0.671094  1
  O  O18  1  0.079365  0.670172  0.671096  1
  O  O19  1  0.329500  0.329498  0.923902  1
  O  O20  1  0.917101  0.329498  0.923902  1
  O  O21  1  0.329500  0.917100  0.923902  1
