# generated using pymatgen
data_GaAg3Au16
_symmetry_space_group_name_H-M   'P 1'
_cell_length_a   5.06965090
_cell_length_b   4.84773800
_cell_length_c   14.64150700
_cell_angle_alpha   90.00000000
_cell_angle_beta   90.06123274
_cell_angle_gamma   90.00000000
_symmetry_Int_Tables_number   1
_chemical_formula_structural   GaAg3Au16
_chemical_formula_sum   'Ga1 Ag3 Au16'
_cell_volume   359.83443827
_cell_formula_units_Z   1
loop_
 _symmetry_equiv_pos_site_id
 _symmetry_equiv_pos_as_xyz
  1  'x, y, z'
loop_
 _atom_site_type_symbol
 _atom_site_label
 _atom_site_symmetry_multiplicity
 _atom_site_fract_x
 _atom_site_fract_y
 _atom_site_fract_z
 _atom_site_occupancy
  Ga  Ga0  1  0.837603  0.250000  0.901352  1
  Ag  Ag1  1  0.165463  0.749999  0.099840  1
  Ag  Ag2  1  0.664672  0.749999  0.400127  1
  Ag  Ag3  1  0.336072  0.250000  0.600247  1
  Au  Au4  1  0.665948  0.749999  0.998067  1
  Au  Au5  1  0.833986  0.250000  0.097059  1
  Au  Au6  1  0.335478  0.250000  0.199675  1
  Au  Au7  1  0.665612  0.749999  0.199467  1
  Au  Au8  1  0.165214  0.749999  0.300204  1
  Au  Au9  1  0.835996  0.250000  0.298999  1
  Au  Au10  1  0.334196  0.250000  0.399830  1
  Au  Au11  1  0.166604  0.749999  0.500519  1
  Au  Au12  1  0.834285  0.250000  0.500249  1
  Au  Au13  1  0.666789  0.749999  0.600139  1
  Au  Au14  1  0.166440  0.749999  0.699908  1
  Au  Au15  1  0.834407  0.250000  0.702901  1
  Au  Au16  1  0.334206  0.250000  0.801769  1
  Au  Au17  1  0.664350  0.749999  0.800949  1
  Au  Au18  1  0.159807  0.749999  0.899550  1
  Au  Au19  1  0.332862  0.250000  0.999151  1
