# generated using pymatgen
data_Yb17(MgRh4)3
_symmetry_space_group_name_H-M   'P 1'
_cell_length_a   10.53265300
_cell_length_b   10.53265300
_cell_length_c   6.16163100
_cell_angle_alpha   90.00000000
_cell_angle_beta   90.00000000
_cell_angle_gamma   90.00000000
_symmetry_Int_Tables_number   1
_chemical_formula_structural   Yb17(MgRh4)3
_chemical_formula_sum   'Yb17 Mg3 Rh12'
_cell_volume   683.55149787
_cell_formula_units_Z   1
loop_
 _symmetry_equiv_pos_site_id
 _symmetry_equiv_pos_as_xyz
  1  'x, y, z'
loop_
 _atom_site_type_symbol
 _atom_site_label
 _atom_site_symmetry_multiplicity
 _atom_site_fract_x
 _atom_site_fract_y
 _atom_site_fract_z
 _atom_site_occupancy
  Yb  Yb0  1  0.285441  0.083372  0.365677  1
  Yb  Yb1  1  0.284173  0.918410  0.864478  1
  Yb  Yb2  1  0.715827  0.081590  0.864478  1
  Yb  Yb3  1  0.714559  0.916628  0.365677  1
  Yb  Yb4  1  0.584278  0.786941  0.865463  1
  Yb  Yb5  1  0.583054  0.208797  0.361813  1
  Yb  Yb6  1  0.416946  0.791203  0.361813  1
  Yb  Yb7  1  0.415722  0.213059  0.865463  1
  Yb  Yb8  1  0.208797  0.416946  0.638187  1
  Yb  Yb9  1  0.213059  0.584278  0.134537  1
  Yb  Yb10  1  0.786941  0.415722  0.134537  1
  Yb  Yb11  1  0.791203  0.583054  0.638187  1
  Yb  Yb12  1  0.918410  0.715827  0.135522  1
  Yb  Yb13  1  0.916628  0.285441  0.634323  1
  Yb  Yb14  1  0.083372  0.714559  0.634323  1
  Yb  Yb15  1  0.081590  0.284173  0.135522  1
  Yb  Yb16  1  0.500000  0.500000  0.500000  1
  Mg  Mg17  1  0.000000  0.000000  0.500000  1
  Mg  Mg18  1  0.000000  0.000000  0.000000  1
  Mg  Mg19  1  0.500000  0.500000  0.000000  1
  Rh  Rh20  1  0.845752  0.151722  0.252425  1
  Rh  Rh21  1  0.848278  0.845752  0.747575  1
  Rh  Rh22  1  0.151722  0.154248  0.747575  1
  Rh  Rh23  1  0.154248  0.848278  0.252425  1
  Rh  Rh24  1  0.653148  0.343831  0.749886  1
  Rh  Rh25  1  0.656169  0.653148  0.250114  1
  Rh  Rh26  1  0.343831  0.346852  0.250114  1
  Rh  Rh27  1  0.346852  0.656169  0.749886  1
  Rh  Rh28  1  0.500000  0.000000  0.116494  1
  Rh  Rh29  1  0.500000  0.000000  0.617677  1
  Rh  Rh30  1  0.000000  0.500000  0.883506  1
  Rh  Rh31  1  0.000000  0.500000  0.382323  1
