# generated using pymatgen
data_Ce3Sc2Ru2Pt
_symmetry_space_group_name_H-M   'P 1'
_cell_length_a   6.24549700
_cell_length_b   8.04637452
_cell_length_c   8.04637278
_cell_angle_alpha   120.17867648
_cell_angle_beta   90.00000000
_cell_angle_gamma   90.00000000
_symmetry_Int_Tables_number   1
_chemical_formula_structural   Ce3Sc2Ru2Pt
_chemical_formula_sum   'Ce6 Sc4 Ru4 Pt2'
_cell_volume   349.55319663
_cell_formula_units_Z   2
loop_
 _symmetry_equiv_pos_site_id
 _symmetry_equiv_pos_as_xyz
  1  'x, y, z'
loop_
 _atom_site_type_symbol
 _atom_site_label
 _atom_site_symmetry_multiplicity
 _atom_site_fract_x
 _atom_site_fract_y
 _atom_site_fract_z
 _atom_site_occupancy
  Ce  Ce0  1  0.750000  0.751118  0.751118  1
  Ce  Ce1  1  0.250000  0.248882  0.248882  1
  Ce  Ce2  1  0.750000  0.984660  0.246344  1
  Ce  Ce3  1  0.250000  0.015340  0.753656  1
  Ce  Ce4  1  0.750000  0.246344  0.984660  1
  Ce  Ce5  1  0.250000  0.753656  0.015340  1
  Sc  Sc6  1  0.000000  0.665984  0.334016  1
  Sc  Sc7  1  0.000000  0.334016  0.665984  1
  Sc  Sc8  1  0.500000  0.334016  0.665984  1
  Sc  Sc9  1  0.500000  0.665984  0.334016  1
  Ru  Ru10  1  0.750000  0.999968  0.621474  1
  Ru  Ru11  1  0.250000  0.000032  0.378526  1
  Ru  Ru12  1  0.750000  0.621474  0.999968  1
  Ru  Ru13  1  0.250000  0.378526  0.000032  1
  Pt  Pt14  1  0.750000  0.392001  0.392001  1
  Pt  Pt15  1  0.250000  0.607999  0.607999  1
