# generated using pymatgen
data_Tb10In8AgPt3
_symmetry_space_group_name_H-M   'P 1'
_cell_length_a   3.66380200
_cell_length_b   8.20547815
_cell_length_c   18.41437230
_cell_angle_alpha   90.06147823
_cell_angle_beta   90.00000000
_cell_angle_gamma   90.00000000
_symmetry_Int_Tables_number   1
_chemical_formula_structural   Tb10In8AgPt3
_chemical_formula_sum   'Tb10 In8 Ag1 Pt3'
_cell_volume   553.59550912
_cell_formula_units_Z   1
loop_
 _symmetry_equiv_pos_site_id
 _symmetry_equiv_pos_as_xyz
  1  'x, y, z'
loop_
 _atom_site_type_symbol
 _atom_site_label
 _atom_site_symmetry_multiplicity
 _atom_site_fract_x
 _atom_site_fract_y
 _atom_site_fract_z
 _atom_site_occupancy
  Tb  Tb0  1  0.000000  0.122220  0.422213  1
  Tb  Tb1  1  0.000000  0.883724  0.586404  1
  Tb  Tb2  1  0.000000  0.384382  0.914174  1
  Tb  Tb3  1  0.000000  0.617437  0.083010  1
  Tb  Tb4  1  0.000000  0.255601  0.214955  1
  Tb  Tb5  1  0.000000  0.756160  0.780200  1
  Tb  Tb6  1  0.000000  0.256822  0.720620  1
  Tb  Tb7  1  0.000000  0.724742  0.280445  1
  Tb  Tb8  1  0.000000  0.998910  0.998971  1
  Tb  Tb9  1  0.000000  0.499978  0.500808  1
  In  In10  1  0.500000  0.417399  0.352175  1
  In  In11  1  0.500000  0.575725  0.649028  1
  In  In12  1  0.500000  0.075936  0.851183  1
  In  In13  1  0.500000  0.922645  0.148458  1
  In  In14  1  0.500000  0.291897  0.064836  1
  In  In15  1  0.500000  0.708520  0.932258  1
  In  In16  1  0.500000  0.209436  0.568754  1
  In  In17  1  0.500000  0.792931  0.433164  1
  Ag  Ag18  1  0.500000  0.027205  0.301855  1
  Pt  Pt19  1  0.500000  0.974922  0.697335  1
  Pt  Pt20  1  0.500000  0.475568  0.803273  1
  Pt  Pt21  1  0.500000  0.527840  0.195884  1
