# generated using pymatgen
data_HfZrFeNiSb2
_symmetry_space_group_name_H-M   'P 1'
_cell_length_a   7.48817292
_cell_length_b   7.48704921
_cell_length_c   7.48758902
_cell_angle_alpha   131.75848723
_cell_angle_beta   131.76167970
_cell_angle_gamma   70.60879513
_symmetry_Int_Tables_number   1
_chemical_formula_structural   HfZrFeNiSb2
_chemical_formula_sum   'Hf2 Zr2 Fe2 Ni2 Sb4'
_cell_volume   228.83789633
_cell_formula_units_Z   2
loop_
 _symmetry_equiv_pos_site_id
 _symmetry_equiv_pos_as_xyz
  1  'x, y, z'
loop_
 _atom_site_type_symbol
 _atom_site_label
 _atom_site_symmetry_multiplicity
 _atom_site_fract_x
 _atom_site_fract_y
 _atom_site_fract_z
 _atom_site_occupancy
  Hf  Hf0  1  0.629119  0.625320  0.504306  1
  Hf  Hf1  1  0.874800  0.370870  0.995815  1
  Zr  Zr2  1  0.374637  0.879419  0.004200  1
  Zr  Zr3  1  0.120561  0.125242  0.495690  1
  Fe  Fe4  1  0.998320  0.000073  0.998410  1
  Fe  Fe5  1  0.749910  0.251658  0.501583  1
  Ni  Ni6  1  0.503457  0.500107  0.003558  1
  Ni  Ni7  1  0.249899  0.746541  0.496432  1
  Sb  Sb8  1  0.629977  0.125502  0.004302  1
  Sb  Sb9  1  0.375575  0.371149  0.495646  1
  Sb  Sb10  1  0.874492  0.879650  0.505288  1
  Sb  Sb11  1  0.119254  0.624469  0.994769  1
