# generated using pymatgen
data_Pr3Nd(ZnIn)4
_symmetry_space_group_name_H-M   'P 1'
_cell_length_a   4.76018500
_cell_length_b   4.76018600
_cell_length_c   15.37115000
_cell_angle_alpha   90.00000000
_cell_angle_beta   90.00000000
_cell_angle_gamma   120.00000002
_symmetry_Int_Tables_number   1
_chemical_formula_structural   Pr3Nd(ZnIn)4
_chemical_formula_sum   'Pr3 Nd1 Zn4 In4'
_cell_volume   301.63709273
_cell_formula_units_Z   1
loop_
 _symmetry_equiv_pos_site_id
 _symmetry_equiv_pos_as_xyz
  1  'x, y, z'
loop_
 _atom_site_type_symbol
 _atom_site_label
 _atom_site_symmetry_multiplicity
 _atom_site_fract_x
 _atom_site_fract_y
 _atom_site_fract_z
 _atom_site_occupancy
  Pr  Pr0  1  0.000000  0.000000  0.501399  1
  Pr  Pr1  1  0.000000  0.000000  0.998601  1
  Pr  Pr2  1  0.000000  0.000000  0.250000  1
  Nd  Nd3  1  0.000000  0.000000  0.750000  1
  Zn  Zn4  1  0.333333  0.666667  0.349468  1
  Zn  Zn5  1  0.666667  0.333333  0.601805  1
  Zn  Zn6  1  0.666667  0.333333  0.898195  1
  Zn  Zn7  1  0.333333  0.666667  0.150532  1
  In  In8  1  0.333333  0.666667  0.860229  1
  In  In9  1  0.666667  0.333333  0.110923  1
  In  In10  1  0.666667  0.333333  0.389077  1
  In  In11  1  0.333333  0.666667  0.639771  1
