# generated using pymatgen
data_Dy3Er9Co5Sn
_symmetry_space_group_name_H-M   'P 1'
_cell_length_a   8.20007842
_cell_length_b   8.20007830
_cell_length_c   8.19926612
_cell_angle_alpha   106.78002923
_cell_angle_beta   110.72166733
_cell_angle_gamma   110.94901391
_symmetry_Int_Tables_number   1
_chemical_formula_structural   Dy3Er9Co5Sn
_chemical_formula_sum   'Dy3 Er9 Co5 Sn1'
_cell_volume   423.69261275
_cell_formula_units_Z   1
loop_
 _symmetry_equiv_pos_site_id
 _symmetry_equiv_pos_as_xyz
  1  'x, y, z'
loop_
 _atom_site_type_symbol
 _atom_site_label
 _atom_site_symmetry_multiplicity
 _atom_site_fract_x
 _atom_site_fract_y
 _atom_site_fract_z
 _atom_site_occupancy
  Dy  Dy0  1  0.806690  0.790587  0.597277  1
  Dy  Dy1  1  0.193772  0.790175  0.983946  1
  Dy  Dy2  1  0.807156  0.209415  0.016572  1
  Er  Er3  1  0.475683  0.290729  0.185519  1
  Er  Er4  1  0.106029  0.291537  0.814048  1
  Er  Er5  1  0.894790  0.709836  0.185519  1
  Er  Er6  1  0.522511  0.708019  0.814048  1
  Er  Er7  1  0.305942  0.619336  0.314150  1
  Er  Er8  1  0.305620  0.991873  0.685510  1
  Er  Er9  1  0.693638  0.379891  0.685510  1
  Er  Er10  1  0.694814  0.008206  0.314150  1
  Er  Er11  1  0.194066  0.210295  0.404360  1
  Co  Co12  1  0.500181  0.612268  0.112449  1
  Co  Co13  1  0.498872  0.387094  0.885966  1
  Co  Co14  1  0.376042  0.000320  0.376363  1
  Co  Co15  1  0.622066  0.999759  0.621825  1
  Co  Co16  1  0.001804  0.000916  0.002720  1
  Sn  Sn17  1  0.000325  0.499744  0.500069  1
