# generated using pymatgen
data_TbSm2Zn2In3Ir
_symmetry_space_group_name_H-M   'P 1'
_cell_length_a   7.84820384
_cell_length_b   7.84720123
_cell_length_c   3.90351100
_cell_angle_alpha   90.00000000
_cell_angle_beta   90.00000000
_cell_angle_gamma   120.15476913
_symmetry_Int_Tables_number   1
_chemical_formula_structural   TbSm2Zn2In3Ir
_chemical_formula_sum   'Tb1 Sm2 Zn2 In3 Ir1'
_cell_volume   207.86993560
_cell_formula_units_Z   1
loop_
 _symmetry_equiv_pos_site_id
 _symmetry_equiv_pos_as_xyz
  1  'x, y, z'
loop_
 _atom_site_type_symbol
 _atom_site_label
 _atom_site_symmetry_multiplicity
 _atom_site_fract_x
 _atom_site_fract_y
 _atom_site_fract_z
 _atom_site_occupancy
  Tb  Tb0  1  0.971267  0.583482  0.000000  1
  Sm  Sm1  1  0.415429  0.389888  0.000000  1
  Sm  Sm2  1  0.610570  0.025485  0.000000  1
  Zn  Zn3  1  0.000110  0.999438  0.000000  1
  Zn  Zn4  1  0.331312  0.665870  0.500000  1
  In  In5  1  0.005897  0.266850  0.500000  1
  In  In6  1  0.735856  0.739821  0.500000  1
  In  In7  1  0.258342  0.992484  0.500000  1
  Ir  Ir8  1  0.671218  0.336682  0.500000  1
