# generated using pymatgen
data_Nd7Th(NpSe5)4
_symmetry_space_group_name_H-M   'P 1'
_cell_length_a   7.90383599
_cell_length_b   8.43640372
_cell_length_c   12.53030405
_cell_angle_alpha   89.99911902
_cell_angle_beta   89.89022911
_cell_angle_gamma   90.06529252
_symmetry_Int_Tables_number   1
_chemical_formula_structural   Nd7Th(NpSe5)4
_chemical_formula_sum   'Nd7 Th1 Np4 Se20'
_cell_volume   835.51798846
_cell_formula_units_Z   1
loop_
 _symmetry_equiv_pos_site_id
 _symmetry_equiv_pos_as_xyz
  1  'x, y, z'
loop_
 _atom_site_type_symbol
 _atom_site_label
 _atom_site_symmetry_multiplicity
 _atom_site_fract_x
 _atom_site_fract_y
 _atom_site_fract_z
 _atom_site_occupancy
  Nd  Nd0  1  0.523994  0.999094  0.821538  1
  Nd  Nd1  1  0.024228  0.000840  0.679050  1
  Nd  Nd2  1  0.475304  0.499206  0.175944  1
  Nd  Nd3  1  0.023500  0.498938  0.679807  1
  Nd  Nd4  1  0.477545  0.001072  0.176966  1
  Nd  Nd5  1  0.974525  0.998528  0.322910  1
  Nd  Nd6  1  0.522350  0.501150  0.820802  1
  Th  Th7  1  0.976502  0.499392  0.324278  1
  Np  Np8  1  0.935656  0.750350  0.004133  1
  Np  Np9  1  0.562623  0.750809  0.505492  1
  Np  Np10  1  0.063977  0.249577  0.994188  1
  Np  Np11  1  0.436475  0.250700  0.495497  1
  Se  Se12  1  0.834704  0.038759  0.097969  1
  Se  Se13  1  0.666832  0.461030  0.595782  1
  Se  Se14  1  0.165490  0.540513  0.903570  1
  Se  Se15  1  0.335297  0.961905  0.400483  1
  Se  Se16  1  0.166322  0.958943  0.903867  1
  Se  Se17  1  0.332183  0.541094  0.401465  1
  Se  Se18  1  0.837799  0.461524  0.101456  1
  Se  Se19  1  0.668501  0.039462  0.595840  1
  Se  Se20  1  0.546262  0.749186  0.001058  1
  Se  Se21  1  0.956015  0.745789  0.498811  1
  Se  Se22  1  0.454169  0.249906  0.999378  1
  Se  Se23  1  0.045439  0.253283  0.497105  1
  Se  Se24  1  0.167099  0.744961  0.186970  1
  Se  Se25  1  0.326078  0.750856  0.684895  1
  Se  Se26  1  0.827439  0.250371  0.815275  1
  Se  Se27  1  0.675878  0.254142  0.315089  1
  Se  Se28  1  0.696976  0.746532  0.287094  1
  Se  Se29  1  0.803693  0.750635  0.786616  1
  Se  Se30  1  0.303135  0.249301  0.713032  1
  Se  Se31  1  0.194008  0.252155  0.213638  1
