# generated using pymatgen
data_Cs3GeS3
_symmetry_space_group_name_H-M   'P 1'
_cell_length_a   10.45887461
_cell_length_b   10.45887472
_cell_length_c   9.50962247
_cell_angle_alpha   85.36325465
_cell_angle_beta   85.36325055
_cell_angle_gamma   79.75525265
_symmetry_Int_Tables_number   1
_chemical_formula_structural   Cs3GeS3
_chemical_formula_sum   'Cs12 Ge4 S12'
_cell_volume   1017.95946859
_cell_formula_units_Z   4
loop_
 _symmetry_equiv_pos_site_id
 _symmetry_equiv_pos_as_xyz
  1  'x, y, z'
loop_
 _atom_site_type_symbol
 _atom_site_label
 _atom_site_symmetry_multiplicity
 _atom_site_fract_x
 _atom_site_fract_y
 _atom_site_fract_z
 _atom_site_occupancy
  Cs  Cs0  1  0.206224  0.249416  0.303510  1
  Cs  Cs1  1  0.750584  0.793776  0.196490  1
  Cs  Cs2  1  0.793776  0.750584  0.696490  1
  Cs  Cs3  1  0.249416  0.206224  0.803510  1
  Cs  Cs4  1  0.193856  0.611596  0.626082  1
  Cs  Cs5  1  0.388404  0.806144  0.873918  1
  Cs  Cs6  1  0.806144  0.388404  0.373918  1
  Cs  Cs7  1  0.611596  0.193856  0.126082  1
  Cs  Cs8  1  0.586667  0.413333  0.750000  1
  Cs  Cs9  1  0.413333  0.586667  0.250000  1
  Cs  Cs10  1  0.076271  0.923729  0.250000  1
  Cs  Cs11  1  0.923729  0.076271  0.750000  1
  Ge  Ge12  1  0.568170  0.080942  0.538300  1
  Ge  Ge13  1  0.919058  0.431830  0.961700  1
  Ge  Ge14  1  0.431830  0.919058  0.461700  1
  Ge  Ge15  1  0.080942  0.568170  0.038300  1
  S  S16  1  0.581970  0.058665  0.776144  1
  S  S17  1  0.941335  0.418030  0.723856  1
  S  S18  1  0.418030  0.941335  0.223856  1
  S  S19  1  0.058665  0.581970  0.276144  1
  S  S20  1  0.472184  0.287453  0.471937  1
  S  S21  1  0.712547  0.527816  0.028063  1
  S  S22  1  0.527816  0.712547  0.528063  1
  S  S23  1  0.287453  0.472184  0.971937  1
  S  S24  1  0.770658  0.041154  0.432225  1
  S  S25  1  0.958846  0.229342  0.067775  1
  S  S26  1  0.229342  0.958846  0.567775  1
  S  S27  1  0.041154  0.770658  0.932225  1
