# generated using pymatgen
data_Li4B4Os3Rh
_symmetry_space_group_name_H-M   'P 1'
_cell_length_a   6.80656204
_cell_length_b   6.05790207
_cell_length_c   5.56987541
_cell_angle_alpha   71.51830181
_cell_angle_beta   57.57634967
_cell_angle_gamma   50.47398094
_symmetry_Int_Tables_number   1
_chemical_formula_structural   Li4B4Os3Rh
_chemical_formula_sum   'Li4 B4 Os3 Rh1'
_cell_volume   149.42910560
_cell_formula_units_Z   1
loop_
 _symmetry_equiv_pos_site_id
 _symmetry_equiv_pos_as_xyz
  1  'x, y, z'
loop_
 _atom_site_type_symbol
 _atom_site_label
 _atom_site_symmetry_multiplicity
 _atom_site_fract_x
 _atom_site_fract_y
 _atom_site_fract_z
 _atom_site_occupancy
  Li  Li0  1  0.122246  0.625866  0.619815  1
  Li  Li1  1  0.626665  0.621265  0.628324  1
  Li  Li2  1  0.621265  0.626665  0.123745  1
  Li  Li3  1  0.625866  0.122246  0.632073  1
  B  B4  1  0.436092  0.063460  0.436618  1
  B  B5  1  0.166303  0.831857  0.188470  1
  B  B6  1  0.063460  0.436092  0.063829  1
  B  B7  1  0.831857  0.166303  0.813369  1
  Os  Os8  1  0.863596  0.863596  0.136404  1
  Os  Os9  1  0.135729  0.135729  0.864271  1
  Os  Os10  1  0.117770  0.117770  0.382230  1
  Rh  Rh11  1  0.389149  0.389149  0.110851  1
