# generated using pymatgen
data_Cd3In8HgIr4
_symmetry_space_group_name_H-M   'P 1'
_cell_length_a   7.22305204
_cell_length_b   7.19816320
_cell_length_c   7.12135100
_cell_angle_alpha   90.00000000
_cell_angle_beta   90.00000000
_cell_angle_gamma   90.19161255
_symmetry_Int_Tables_number   1
_chemical_formula_structural   Cd3In8HgIr4
_chemical_formula_sum   'Cd3 In8 Hg1 Ir4'
_cell_volume   370.25624834
_cell_formula_units_Z   1
loop_
 _symmetry_equiv_pos_site_id
 _symmetry_equiv_pos_as_xyz
  1  'x, y, z'
loop_
 _atom_site_type_symbol
 _atom_site_label
 _atom_site_symmetry_multiplicity
 _atom_site_fract_x
 _atom_site_fract_y
 _atom_site_fract_z
 _atom_site_occupancy
  Cd  Cd0  1  0.500000  0.000000  0.000000  1
  Cd  Cd1  1  0.000000  0.500000  0.500000  1
  Cd  Cd2  1  0.500000  0.000000  0.500000  1
  In  In3  1  0.341283  0.340277  0.265318  1
  In  In4  1  0.158001  0.839832  0.764138  1
  In  In5  1  0.158001  0.839832  0.235862  1
  In  In6  1  0.841999  0.160168  0.235862  1
  In  In7  1  0.841999  0.160168  0.764138  1
  In  In8  1  0.658717  0.659723  0.265318  1
  In  In9  1  0.658717  0.659723  0.734682  1
  In  In10  1  0.341283  0.340277  0.734682  1
  Hg  Hg11  1  0.000000  0.500000  0.000000  1
  Ir  Ir12  1  0.154499  0.149894  0.000000  1
  Ir  Ir13  1  0.652900  0.348283  0.500000  1
  Ir  Ir14  1  0.347100  0.651717  0.500000  1
  Ir  Ir15  1  0.845501  0.850106  0.000000  1
