# generated using pymatgen
data_Pr8Si11GeRh4
_symmetry_space_group_name_H-M   'P 1'
_cell_length_a   8.31987102
_cell_length_b   8.31987064
_cell_length_c   8.51043702
_cell_angle_alpha   89.99251767
_cell_angle_beta   90.00748417
_cell_angle_gamma   120.11247027
_symmetry_Int_Tables_number   1
_chemical_formula_structural   Pr8Si11GeRh4
_chemical_formula_sum   'Pr8 Si11 Ge1 Rh4'
_cell_volume   509.59169729
_cell_formula_units_Z   1
loop_
 _symmetry_equiv_pos_site_id
 _symmetry_equiv_pos_as_xyz
  1  'x, y, z'
loop_
 _atom_site_type_symbol
 _atom_site_label
 _atom_site_symmetry_multiplicity
 _atom_site_fract_x
 _atom_site_fract_y
 _atom_site_fract_z
 _atom_site_occupancy
  Pr  Pr0  1  0.000503  0.999497  0.749105  1
  Pr  Pr1  1  0.000467  0.999533  0.250897  1
  Pr  Pr2  1  0.500986  0.499014  0.748791  1
  Pr  Pr3  1  0.499147  0.998394  0.749640  1
  Pr  Pr4  1  0.001606  0.500853  0.749640  1
  Pr  Pr5  1  0.501322  0.498678  0.251028  1
  Pr  Pr6  1  0.000206  0.500240  0.250481  1
  Pr  Pr7  1  0.499760  0.999794  0.250481  1
  Si  Si8  1  0.833476  0.667671  0.000133  1
  Si  Si9  1  0.332329  0.166524  0.000133  1
  Si  Si10  1  0.833523  0.166477  0.499960  1
  Si  Si11  1  0.833566  0.666797  0.499836  1
  Si  Si12  1  0.333203  0.166434  0.499836  1
  Si  Si13  1  0.166857  0.833143  0.500222  1
  Si  Si14  1  0.666889  0.833118  0.500140  1
  Si  Si15  1  0.166882  0.333111  0.500140  1
  Si  Si16  1  0.165706  0.834294  0.999930  1
  Si  Si17  1  0.662351  0.826431  0.999921  1
  Si  Si18  1  0.173569  0.337649  0.999921  1
  Ge  Ge19  1  0.834066  0.165934  0.999615  1
  Rh  Rh20  1  0.661854  0.338146  0.000715  1
  Rh  Rh21  1  0.667090  0.332910  0.499365  1
  Rh  Rh22  1  0.333024  0.666976  0.500984  1
  Rh  Rh23  1  0.331617  0.668383  0.999085  1
