# generated using pymatgen
data_Dy2Ho2BCl6
_symmetry_space_group_name_H-M   'P 1'
_cell_length_a   3.85676000
_cell_length_b   12.64040300
_cell_length_c   13.10908900
_cell_angle_alpha   90.00000000
_cell_angle_beta   90.00000000
_cell_angle_gamma   90.00000000
_symmetry_Int_Tables_number   1
_chemical_formula_structural   Dy2Ho2BCl6
_chemical_formula_sum   'Dy4 Ho4 B2 Cl12'
_cell_volume   639.08120668
_cell_formula_units_Z   2
loop_
 _symmetry_equiv_pos_site_id
 _symmetry_equiv_pos_as_xyz
  1  'x, y, z'
loop_
 _atom_site_type_symbol
 _atom_site_label
 _atom_site_symmetry_multiplicity
 _atom_site_fract_x
 _atom_site_fract_y
 _atom_site_fract_z
 _atom_site_occupancy
  Dy  Dy0  1  0.500000  0.126366  0.851309  1
  Dy  Dy1  1  0.500000  0.873634  0.148691  1
  Dy  Dy2  1  0.500000  0.626366  0.648691  1
  Dy  Dy3  1  0.500000  0.373634  0.351309  1
  Ho  Ho4  1  0.000000  0.106025  0.083980  1
  Ho  Ho5  1  0.000000  0.893975  0.916020  1
  Ho  Ho6  1  0.000000  0.606025  0.416020  1
  Ho  Ho7  1  0.000000  0.393975  0.583980  1
  B  B8  1  0.500000  0.000000  0.000000  1
  B  B9  1  0.500000  0.500000  0.500000  1
  Cl  Cl10  1  0.500000  0.268165  0.682356  1
  Cl  Cl11  1  0.500000  0.731835  0.317644  1
  Cl  Cl12  1  0.500000  0.768165  0.817644  1
  Cl  Cl13  1  0.500000  0.231835  0.182356  1
  Cl  Cl14  1  0.000000  0.256412  0.929687  1
  Cl  Cl15  1  0.000000  0.743588  0.070313  1
  Cl  Cl16  1  0.000000  0.478542  0.243650  1
  Cl  Cl17  1  0.000000  0.521458  0.756350  1
  Cl  Cl18  1  0.000000  0.978542  0.256350  1
  Cl  Cl19  1  0.000000  0.021458  0.743650  1
  Cl  Cl20  1  0.000000  0.243588  0.429687  1
  Cl  Cl21  1  0.000000  0.756412  0.570313  1
