# generated using pymatgen
data_Ba4BiAsO
_symmetry_space_group_name_H-M   'P 1'
_cell_length_a   9.99876614
_cell_length_b   9.99876565
_cell_length_c   9.99876587
_cell_angle_alpha   149.45121552
_cell_angle_beta   149.45121149
_cell_angle_gamma   43.74756085
_symmetry_Int_Tables_number   1
_chemical_formula_structural   Ba4BiAsO
_chemical_formula_sum   'Ba4 Bi1 As1 O1'
_cell_volume   257.52548059
_cell_formula_units_Z   1
loop_
 _symmetry_equiv_pos_site_id
 _symmetry_equiv_pos_as_xyz
  1  'x, y, z'
loop_
 _atom_site_type_symbol
 _atom_site_label
 _atom_site_symmetry_multiplicity
 _atom_site_fract_x
 _atom_site_fract_y
 _atom_site_fract_z
 _atom_site_occupancy
  Ba  Ba0  1  0.665691  0.665691  0.000000  1
  Ba  Ba1  1  0.307833  0.307833  0.000000  1
  Ba  Ba2  1  0.504233  0.004233  0.500000  1
  Ba  Ba3  1  0.004233  0.504233  0.500000  1
  Bi  Bi4  1  0.860832  0.860832  0.000000  1
  As  As5  1  0.131166  0.131166  0.000000  1
  O  O6  1  0.526013  0.526013  0.000000  1
