# generated using pymatgen
data_Li6TiV5Ir12
_symmetry_space_group_name_H-M   'P 1'
_cell_length_a   4.20257400
_cell_length_b   5.94320100
_cell_length_c   12.61218600
_cell_angle_alpha   90.00000454
_cell_angle_beta   90.00150396
_cell_angle_gamma   90.00000000
_symmetry_Int_Tables_number   1
_chemical_formula_structural   Li6TiV5Ir12
_chemical_formula_sum   'Li6 Ti1 V5 Ir12'
_cell_volume   315.01131572
_cell_formula_units_Z   1
loop_
 _symmetry_equiv_pos_site_id
 _symmetry_equiv_pos_as_xyz
  1  'x, y, z'
loop_
 _atom_site_type_symbol
 _atom_site_label
 _atom_site_symmetry_multiplicity
 _atom_site_fract_x
 _atom_site_fract_y
 _atom_site_fract_z
 _atom_site_occupancy
  Li  Li0  1  0.000005  0.000000  0.000149  1
  Li  Li1  1  0.499568  0.500000  0.167314  1
  Li  Li2  1  0.999492  0.000000  0.333303  1
  Li  Li3  1  0.500000  0.499999  0.499344  1
  Li  Li4  1  0.000449  0.000001  0.666574  1
  Li  Li5  1  0.500505  0.500000  0.833342  1
  Ti  Ti6  1  0.500365  0.000000  0.833340  1
  V  V7  1  0.999989  0.500000  0.000204  1
  V  V8  1  0.499642  0.000000  0.166936  1
  V  V9  1  0.999653  0.500003  0.333322  1
  V  V10  1  0.499996  0.999998  0.499726  1
  V  V11  1  0.000346  0.499999  0.666459  1
  Ir  Ir12  1  0.499981  0.252544  0.002908  1
  Ir  Ir13  1  0.499982  0.747456  0.002909  1
  Ir  Ir14  1  0.999649  0.249311  0.167539  1
  Ir  Ir15  1  0.999651  0.750689  0.167539  1
  Ir  Ir16  1  0.499632  0.250351  0.333300  1
  Ir  Ir17  1  0.499632  0.749647  0.333301  1
  Ir  Ir18  1  0.000001  0.249369  0.499138  1
  Ir  Ir19  1  0.000000  0.750630  0.499138  1
  Ir  Ir20  1  0.500357  0.252628  0.663785  1
  Ir  Ir21  1  0.500356  0.747373  0.663785  1
  Ir  Ir22  1  0.000369  0.255188  0.833322  1
  Ir  Ir23  1  0.000369  0.744812  0.833322  1
