# generated using pymatgen
data_Pr4TiMn4Tc3O20
_symmetry_space_group_name_H-M   'P 1'
_cell_length_a   5.85712300
_cell_length_b   7.83385815
_cell_length_c   8.90937144
_cell_angle_alpha   89.32174581
_cell_angle_beta   90.00000000
_cell_angle_gamma   90.00000000
_symmetry_Int_Tables_number   1
_chemical_formula_structural   Pr4TiMn4Tc3O20
_chemical_formula_sum   'Pr4 Ti1 Mn4 Tc3 O20'
_cell_volume   408.76780475
_cell_formula_units_Z   1
loop_
 _symmetry_equiv_pos_site_id
 _symmetry_equiv_pos_as_xyz
  1  'x, y, z'
loop_
 _atom_site_type_symbol
 _atom_site_label
 _atom_site_symmetry_multiplicity
 _atom_site_fract_x
 _atom_site_fract_y
 _atom_site_fract_z
 _atom_site_occupancy
  Pr  Pr0  1  0.002674  0.358421  0.672634  1
  Pr  Pr1  1  0.002674  0.641579  0.327366  1
  Pr  Pr2  1  0.999772  0.855497  0.830804  1
  Pr  Pr3  1  0.999772  0.144503  0.169196  1
  Ti  Ti4  1  0.258997  0.000000  0.500000  1
  Mn  Mn5  1  0.496837  0.078901  0.849604  1
  Mn  Mn6  1  0.496837  0.921099  0.150396  1
  Mn  Mn7  1  0.501086  0.591146  0.643713  1
  Mn  Mn8  1  0.501086  0.408854  0.356287  1
  Tc  Tc9  1  0.280207  0.500000  0.000000  1
  Tc  Tc10  1  0.744710  0.000000  0.500000  1
  Tc  Tc11  1  0.721324  0.500000  0.000000  1
  O  O12  1  0.245001  0.905029  0.292276  1
  O  O13  1  0.245001  0.094971  0.707724  1
  O  O14  1  0.750176  0.397168  0.208273  1
  O  O15  1  0.750176  0.602832  0.791727  1
  O  O16  1  0.754650  0.096324  0.709641  1
  O  O17  1  0.754650  0.903676  0.290359  1
  O  O18  1  0.252087  0.600041  0.791619  1
  O  O19  1  0.252087  0.399959  0.208381  1
  O  O20  1  0.500016  0.329816  0.926104  1
  O  O21  1  0.500016  0.670184  0.073896  1
  O  O22  1  0.492500  0.844778  0.566700  1
  O  O23  1  0.492500  0.155222  0.433300  1
  O  O24  1  0.271258  0.000000  0.000000  1
  O  O25  1  0.729195  0.500000  0.500000  1
  O  O26  1  0.722846  0.000000  0.000000  1
  O  O27  1  0.271639  0.500000  0.500000  1
  O  O28  1  0.004613  0.162510  0.446141  1
  O  O29  1  0.004613  0.837490  0.553859  1
  O  O30  1  0.000502  0.653660  0.053401  1
  O  O31  1  0.000502  0.346340  0.946599  1
