# generated using pymatgen
data_Dy10Y5Th(CdNi)4
_symmetry_space_group_name_H-M   'P 1'
_cell_length_a   9.58943017
_cell_length_b   9.59232299
_cell_length_c   9.59232209
_cell_angle_alpha   60.10517851
_cell_angle_beta   60.10354910
_cell_angle_gamma   60.10355330
_symmetry_Int_Tables_number   1
_chemical_formula_structural   Dy10Y5Th(CdNi)4
_chemical_formula_sum   'Dy10 Y5 Th1 Cd4 Ni4'
_cell_volume   625.38639787
_cell_formula_units_Z   1
loop_
 _symmetry_equiv_pos_site_id
 _symmetry_equiv_pos_as_xyz
  1  'x, y, z'
loop_
 _atom_site_type_symbol
 _atom_site_label
 _atom_site_symmetry_multiplicity
 _atom_site_fract_x
 _atom_site_fract_y
 _atom_site_fract_z
 _atom_site_occupancy
  Dy  Dy0  1  0.598606  0.598598  0.201252  1
  Dy  Dy1  1  0.598606  0.201252  0.598598  1
  Dy  Dy2  1  0.201258  0.598668  0.598668  1
  Dy  Dy3  1  0.062783  0.438993  0.438993  1
  Dy  Dy4  1  0.439218  0.062465  0.062465  1
  Dy  Dy5  1  0.438881  0.062691  0.439120  1
  Dy  Dy6  1  0.062585  0.439506  0.062371  1
  Dy  Dy7  1  0.438881  0.439120  0.062691  1
  Dy  Dy8  1  0.062585  0.062371  0.439506  1
  Dy  Dy9  1  0.187957  0.814281  0.814281  1
  Y  Y10  1  0.812826  0.186807  0.186807  1
  Y  Y11  1  0.814530  0.187602  0.814205  1
  Y  Y12  1  0.186633  0.812954  0.186454  1
  Y  Y13  1  0.814530  0.814205  0.187602  1
  Y  Y14  1  0.186633  0.186454  0.812954  1
  Th  Th15  1  0.593699  0.594349  0.594349  1
  Cd  Cd16  1  0.830826  0.830733  0.830733  1
  Cd  Cd17  1  0.831712  0.831641  0.505707  1
  Cd  Cd18  1  0.831712  0.505707  0.831641  1
  Cd  Cd19  1  0.505586  0.831669  0.831669  1
  Ni  Ni20  1  0.392778  0.392897  0.392897  1
  Ni  Ni21  1  0.393140  0.393026  0.820944  1
  Ni  Ni22  1  0.393140  0.820944  0.393026  1
  Ni  Ni23  1  0.820894  0.393067  0.393067  1
