# generated using pymatgen
data_Tb5ErMg2(Co4P3)4
_symmetry_space_group_name_H-M   'P 1'
_cell_length_a   3.74262100
_cell_length_b   10.64501110
_cell_length_c   12.32022711
_cell_angle_alpha   90.01515731
_cell_angle_beta   90.00000000
_cell_angle_gamma   90.00000000
_symmetry_Int_Tables_number   1
_chemical_formula_structural   Tb5ErMg2(Co4P3)4
_chemical_formula_sum   'Tb5 Er1 Mg2 Co16 P12'
_cell_volume   490.84081306
_cell_formula_units_Z   1
loop_
 _symmetry_equiv_pos_site_id
 _symmetry_equiv_pos_as_xyz
  1  'x, y, z'
loop_
 _atom_site_type_symbol
 _atom_site_label
 _atom_site_symmetry_multiplicity
 _atom_site_fract_x
 _atom_site_fract_y
 _atom_site_fract_z
 _atom_site_occupancy
  Tb  Tb0  1  0.000000  0.500008  0.525423  1
  Tb  Tb1  1  0.500000  0.999921  0.473425  1
  Tb  Tb2  1  0.500000  0.177762  0.206418  1
  Tb  Tb3  1  0.000000  0.677947  0.793550  1
  Tb  Tb4  1  0.000000  0.322149  0.794027  1
  Er  Er5  1  0.500000  0.822117  0.206811  1
  Mg  Mg6  1  0.500000  0.500125  0.156373  1
  Mg  Mg7  1  0.000000  0.999895  0.843034  1
  Co  Co8  1  0.500000  0.500267  0.705901  1
  Co  Co9  1  0.000000  0.998921  0.293954  1
  Co  Co10  1  0.000000  0.500599  0.989409  1
  Co  Co11  1  0.500000  0.999349  0.011951  1
  Co  Co12  1  0.500000  0.332555  0.997211  1
  Co  Co13  1  0.500000  0.667958  0.997990  1
  Co  Co14  1  0.000000  0.166816  0.003590  1
  Co  Co15  1  0.000000  0.832560  0.003822  1
  Co  Co16  1  0.500000  0.296327  0.431962  1
  Co  Co17  1  0.500000  0.703737  0.431138  1
  Co  Co18  1  0.000000  0.203889  0.567777  1
  Co  Co19  1  0.000000  0.796090  0.567135  1
  Co  Co20  1  0.500000  0.878117  0.705212  1
  Co  Co21  1  0.500000  0.121900  0.705387  1
  Co  Co22  1  0.000000  0.622686  0.293577  1
  Co  Co23  1  0.000000  0.378446  0.294470  1
  P  P24  1  0.500000  0.500370  0.886331  1
  P  P25  1  0.000000  0.999044  0.114803  1
  P  P26  1  0.500000  0.499815  0.354766  1
  P  P27  1  0.000000  0.999953  0.644395  1
  P  P28  1  0.500000  0.309120  0.615227  1
  P  P29  1  0.500000  0.691145  0.614611  1
  P  P30  1  0.000000  0.191209  0.384712  1
  P  P31  1  0.000000  0.808756  0.383615  1
  P  P32  1  0.500000  0.839243  0.893649  1
  P  P33  1  0.500000  0.160415  0.893938  1
  P  P34  1  0.000000  0.661573  0.107846  1
  P  P35  1  0.000000  0.339217  0.106559  1
