# generated using pymatgen
data_Ca2Y2Cd3Hg
_symmetry_space_group_name_H-M   'P 1'
_cell_length_a   7.53589100
_cell_length_b   7.54791600
_cell_length_c   7.49548600
_cell_angle_alpha   90.00000000
_cell_angle_beta   89.99879536
_cell_angle_gamma   90.00000000
_symmetry_Int_Tables_number   1
_chemical_formula_structural   Ca2Y2Cd3Hg
_chemical_formula_sum   'Ca4 Y4 Cd6 Hg2'
_cell_volume   426.34528430
_cell_formula_units_Z   2
loop_
 _symmetry_equiv_pos_site_id
 _symmetry_equiv_pos_as_xyz
  1  'x, y, z'
loop_
 _atom_site_type_symbol
 _atom_site_label
 _atom_site_symmetry_multiplicity
 _atom_site_fract_x
 _atom_site_fract_y
 _atom_site_fract_z
 _atom_site_occupancy
  Ca  Ca0  1  0.751552  0.250000  0.002156  1
  Ca  Ca1  1  0.247210  0.750002  0.497826  1
  Ca  Ca2  1  0.752762  0.250000  0.497994  1
  Ca  Ca3  1  0.248425  0.749999  0.002040  1
  Y  Y4  1  0.247719  0.249999  0.002681  1
  Y  Y5  1  0.752260  0.750002  0.002673  1
  Y  Y6  1  0.753512  0.749998  0.497334  1
  Y  Y7  1  0.246476  0.250004  0.497342  1
  Cd  Cd8  1  0.500076  0.000075  0.251151  1
  Cd  Cd9  1  0.500077  0.499926  0.251149  1
  Cd  Cd10  1  0.499928  0.500063  0.748859  1
  Cd  Cd11  1  0.499927  0.999937  0.748858  1
  Cd  Cd12  1  0.999910  0.000064  0.751179  1
  Cd  Cd13  1  0.999911  0.499935  0.751180  1
  Hg  Hg14  1  0.000126  0.500074  0.248790  1
  Hg  Hg15  1  0.000128  0.999927  0.248790  1
