# generated using pymatgen
data_Sb(O2F3)2
_symmetry_space_group_name_H-M   'P 1'
_cell_length_a   6.53646249
_cell_length_b   6.55484914
_cell_length_c   6.55092175
_cell_angle_alpha   119.83487665
_cell_angle_beta   119.92244669
_cell_angle_gamma   90.25967647
_symmetry_Int_Tables_number   1
_chemical_formula_structural   Sb(O2F3)2
_chemical_formula_sum   'Sb1 O4 F6'
_cell_volume   198.74535832
_cell_formula_units_Z   1
loop_
 _symmetry_equiv_pos_site_id
 _symmetry_equiv_pos_as_xyz
  1  'x, y, z'
loop_
 _atom_site_type_symbol
 _atom_site_label
 _atom_site_symmetry_multiplicity
 _atom_site_fract_x
 _atom_site_fract_y
 _atom_site_fract_z
 _atom_site_occupancy
  Sb  Sb0  1  0.005272  0.005171  0.000118  1
  O  O1  1  0.282159  0.691866  0.409689  1
  O  O2  1  0.282114  0.872462  0.590295  1
  O  O3  1  0.691643  0.282347  0.409286  1
  O  O4  1  0.873445  0.282307  0.591219  1
  F  F5  1  0.213014  0.212804  0.000124  1
  F  F6  1  0.214251  0.213992  0.415509  1
  F  F7  1  0.214330  0.798802  0.000238  1
  F  F8  1  0.797336  0.797784  0.999648  1
  F  F9  1  0.797839  0.798369  0.584469  1
  F  F10  1  0.797799  0.213297  0.999405  1
