# generated using pymatgen
data_Dy5Er4LuPb6
_symmetry_space_group_name_H-M   'P 1'
_cell_length_a   6.56967200
_cell_length_b   9.02044880
_cell_length_c   9.02476853
_cell_angle_alpha   120.01710213
_cell_angle_beta   90.00258894
_cell_angle_gamma   89.99863981
_symmetry_Int_Tables_number   1
_chemical_formula_structural   Dy5Er4LuPb6
_chemical_formula_sum   'Dy5 Er4 Lu1 Pb6'
_cell_volume   463.08814964
_cell_formula_units_Z   1
loop_
 _symmetry_equiv_pos_site_id
 _symmetry_equiv_pos_as_xyz
  1  'x, y, z'
loop_
 _atom_site_type_symbol
 _atom_site_label
 _atom_site_symmetry_multiplicity
 _atom_site_fract_x
 _atom_site_fract_y
 _atom_site_fract_z
 _atom_site_occupancy
  Dy  Dy0  1  0.750165  0.237065  0.999723  1
  Dy  Dy1  1  0.750163  0.762830  0.762537  1
  Dy  Dy2  1  0.750162  0.000151  0.238042  1
  Dy  Dy3  1  0.249858  0.762660  0.999771  1
  Dy  Dy4  1  0.249836  0.237349  0.237339  1
  Er  Er5  1  0.249822  0.000019  0.762602  1
  Er  Er6  1  0.499908  0.333375  0.666786  1
  Er  Er7  1  0.499892  0.666592  0.333191  1
  Er  Er8  1  0.000122  0.666588  0.333159  1
  Lu  Lu9  1  0.000096  0.333361  0.666810  1
  Pb  Pb10  1  0.750654  0.604071  0.999247  1
  Pb  Pb11  1  0.750668  0.395411  0.396004  1
  Pb  Pb12  1  0.750723  0.000699  0.604609  1
  Pb  Pb13  1  0.249283  0.394185  0.998711  1
  Pb  Pb14  1  0.249351  0.604991  0.605059  1
  Pb  Pb15  1  0.249294  0.000654  0.396409  1
