# generated using pymatgen
data_Hf2Ti3AlRh10
_symmetry_space_group_name_H-M   'P 1'
_cell_length_a   4.10958700
_cell_length_b   5.49398635
_cell_length_c   10.72755846
_cell_angle_alpha   90.35592319
_cell_angle_beta   90.00000000
_cell_angle_gamma   90.00000000
_symmetry_Int_Tables_number   1
_chemical_formula_structural   Hf2Ti3AlRh10
_chemical_formula_sum   'Hf2 Ti3 Al1 Rh10'
_cell_volume   242.20230109
_cell_formula_units_Z   1
loop_
 _symmetry_equiv_pos_site_id
 _symmetry_equiv_pos_as_xyz
  1  'x, y, z'
loop_
 _atom_site_type_symbol
 _atom_site_label
 _atom_site_symmetry_multiplicity
 _atom_site_fract_x
 _atom_site_fract_y
 _atom_site_fract_z
 _atom_site_occupancy
  Hf  Hf0  1  0.500000  0.325010  0.140752  1
  Hf  Hf1  1  0.500000  0.674990  0.859248  1
  Ti  Ti2  1  0.000000  0.500000  0.500000  1
  Ti  Ti3  1  0.500000  0.837741  0.356580  1
  Ti  Ti4  1  0.500000  0.162259  0.643420  1
  Al  Al5  1  0.000000  0.000000  0.000000  1
  Rh  Rh6  1  0.000000  0.000000  0.500000  1
  Rh  Rh7  1  0.000000  0.500000  0.000000  1
  Rh  Rh8  1  0.000000  0.077583  0.246030  1
  Rh  Rh9  1  0.000000  0.922417  0.753970  1
  Rh  Rh10  1  0.000000  0.588969  0.263455  1
  Rh  Rh11  1  0.000000  0.411031  0.736545  1
  Rh  Rh12  1  0.500000  0.311427  0.397933  1
  Rh  Rh13  1  0.500000  0.688573  0.602067  1
  Rh  Rh14  1  0.500000  0.816634  0.112668  1
  Rh  Rh15  1  0.500000  0.183366  0.887332  1
