# generated using pymatgen
data_ThPa(AlOs)2
_symmetry_space_group_name_H-M   'P 1'
_cell_length_a   4.07231600
_cell_length_b   7.09352327
_cell_length_c   8.30047500
_cell_angle_alpha   91.93939013
_cell_angle_beta   90.00000000
_cell_angle_gamma   90.00000000
_symmetry_Int_Tables_number   1
_chemical_formula_structural   ThPa(AlOs)2
_chemical_formula_sum   'Th2 Pa2 Al4 Os4'
_cell_volume   239.63904103
_cell_formula_units_Z   2
loop_
 _symmetry_equiv_pos_site_id
 _symmetry_equiv_pos_as_xyz
  1  'x, y, z'
loop_
 _atom_site_type_symbol
 _atom_site_label
 _atom_site_symmetry_multiplicity
 _atom_site_fract_x
 _atom_site_fract_y
 _atom_site_fract_z
 _atom_site_occupancy
  Th  Th0  1  0.750000  0.962158  0.685953  1
  Th  Th1  1  0.250000  0.037842  0.314047  1
  Pa  Pa2  1  0.250000  0.535737  0.184216  1
  Pa  Pa3  1  0.750000  0.464263  0.815784  1
  Al  Al4  1  0.250000  0.628308  0.557641  1
  Al  Al5  1  0.750000  0.371692  0.442359  1
  Al  Al6  1  0.750000  0.863345  0.057747  1
  Al  Al7  1  0.250000  0.136655  0.942253  1
  Os  Os8  1  0.250000  0.742741  0.879913  1
  Os  Os9  1  0.750000  0.257259  0.120087  1
  Os  Os10  1  0.750000  0.734815  0.366886  1
  Os  Os11  1  0.250000  0.265185  0.633114  1
