# generated using pymatgen
data_ErTm9CoRu3
_symmetry_space_group_name_H-M   'P 1'
_cell_length_a   6.21623200
_cell_length_b   7.16693637
_cell_length_c   8.31414502
_cell_angle_alpha   96.69413623
_cell_angle_beta   111.75621877
_cell_angle_gamma   90.27174899
_symmetry_Int_Tables_number   1
_chemical_formula_structural   ErTm9CoRu3
_chemical_formula_sum   'Er1 Tm9 Co1 Ru3'
_cell_volume   341.21472472
_cell_formula_units_Z   1
loop_
 _symmetry_equiv_pos_site_id
 _symmetry_equiv_pos_as_xyz
  1  'x, y, z'
loop_
 _atom_site_type_symbol
 _atom_site_label
 _atom_site_symmetry_multiplicity
 _atom_site_fract_x
 _atom_site_fract_y
 _atom_site_fract_z
 _atom_site_occupancy
  Er  Er0  1  0.789665  0.088402  0.814137  1
  Tm  Tm1  1  0.979657  0.415745  0.189294  1
  Tm  Tm2  1  0.209133  0.916522  0.185186  1
  Tm  Tm3  1  0.014204  0.584576  0.814795  1
  Tm  Tm4  1  0.208818  0.186589  0.565890  1
  Tm  Tm5  1  0.644781  0.315878  0.435008  1
  Tm  Tm6  1  0.794432  0.814793  0.435669  1
  Tm  Tm7  1  0.357969  0.680431  0.566578  1
  Tm  Tm8  1  0.421186  0.253394  0.998648  1
  Tm  Tm9  1  0.579381  0.745675  0.997632  1
  Co  Co10  1  0.602577  0.422325  0.776219  1
  Ru  Ru11  1  0.823252  0.075343  0.218886  1
  Ru  Ru12  1  0.397505  0.575638  0.221736  1
  Ru  Ru13  1  0.177439  0.924690  0.780321  1
