# generated using pymatgen
data_HoCoNi4As3
_symmetry_space_group_name_H-M   'P 1'
_cell_length_a   3.83989400
_cell_length_b   10.71876900
_cell_length_c   12.26896000
_cell_angle_alpha   90.00000000
_cell_angle_beta   90.00000000
_cell_angle_gamma   90.00000000
_symmetry_Int_Tables_number   1
_chemical_formula_structural   HoCoNi4As3
_chemical_formula_sum   'Ho4 Co4 Ni16 As12'
_cell_volume   504.97734888
_cell_formula_units_Z   4
loop_
 _symmetry_equiv_pos_site_id
 _symmetry_equiv_pos_as_xyz
  1  'x, y, z'
loop_
 _atom_site_type_symbol
 _atom_site_label
 _atom_site_symmetry_multiplicity
 _atom_site_fract_x
 _atom_site_fract_y
 _atom_site_fract_z
 _atom_site_occupancy
  Ho  Ho0  1  0.250000  0.580584  0.702833  1
  Ho  Ho1  1  0.250000  0.919416  0.202833  1
  Ho  Ho2  1  0.750000  0.419416  0.297167  1
  Ho  Ho3  1  0.750000  0.080584  0.797167  1
  Co  Co4  1  0.250000  0.471310  0.931610  1
  Co  Co5  1  0.250000  0.028690  0.431610  1
  Co  Co6  1  0.750000  0.528690  0.068390  1
  Co  Co7  1  0.750000  0.971310  0.568390  1
  Ni  Ni8  1  0.250000  0.708805  0.993326  1
  Ni  Ni9  1  0.250000  0.791195  0.493326  1
  Ni  Ni10  1  0.750000  0.291195  0.006674  1
  Ni  Ni11  1  0.750000  0.208805  0.506674  1
  Ni  Ni12  1  0.250000  0.406398  0.488950  1
  Ni  Ni13  1  0.250000  0.093602  0.988950  1
  Ni  Ni14  1  0.750000  0.593602  0.511050  1
  Ni  Ni15  1  0.750000  0.906398  0.011050  1
  Ni  Ni16  1  0.250000  0.215884  0.180187  1
  Ni  Ni17  1  0.250000  0.284116  0.680187  1
  Ni  Ni18  1  0.750000  0.784116  0.819813  1
  Ni  Ni19  1  0.750000  0.715884  0.319813  1
  Ni  Ni20  1  0.250000  0.883708  0.697588  1
  Ni  Ni21  1  0.250000  0.616292  0.197588  1
  Ni  Ni22  1  0.750000  0.116292  0.302412  1
  Ni  Ni23  1  0.750000  0.383708  0.802412  1
  As  As24  1  0.250000  0.415743  0.113352  1
  As  As25  1  0.250000  0.084257  0.613352  1
  As  As26  1  0.750000  0.584257  0.886648  1
  As  As27  1  0.750000  0.915743  0.386648  1
  As  As28  1  0.250000  0.269503  0.871607  1
  As  As29  1  0.250000  0.230497  0.371607  1
  As  As30  1  0.750000  0.730497  0.128393  1
  As  As31  1  0.750000  0.769503  0.628393  1
  As  As32  1  0.250000  0.601762  0.392304  1
  As  As33  1  0.250000  0.898238  0.892304  1
  As  As34  1  0.750000  0.398238  0.607696  1
  As  As35  1  0.750000  0.101762  0.107696  1
