# generated using pymatgen
data_Rb8Dy6NiBr20
_symmetry_space_group_name_H-M   'P 1'
_cell_length_a   12.34889681
_cell_length_b   12.34889696
_cell_length_c   12.34889600
_cell_angle_alpha   59.99999721
_cell_angle_beta   59.99999681
_cell_angle_gamma   59.99999982
_symmetry_Int_Tables_number   1
_chemical_formula_structural   Rb8Dy6NiBr20
_chemical_formula_sum   'Rb8 Dy6 Ni1 Br20'
_cell_volume   1331.58668352
_cell_formula_units_Z   1
loop_
 _symmetry_equiv_pos_site_id
 _symmetry_equiv_pos_as_xyz
  1  'x, y, z'
loop_
 _atom_site_type_symbol
 _atom_site_label
 _atom_site_symmetry_multiplicity
 _atom_site_fract_x
 _atom_site_fract_y
 _atom_site_fract_z
 _atom_site_occupancy
  Rb  Rb0  1  0.358842  0.358842  0.358842  1
  Rb  Rb1  1  0.641158  0.641158  0.641158  1
  Rb  Rb2  1  0.358842  0.358842  0.923474  1
  Rb  Rb3  1  0.358842  0.923474  0.358842  1
  Rb  Rb4  1  0.641158  0.641158  0.076526  1
  Rb  Rb5  1  0.641158  0.076526  0.641158  1
  Rb  Rb6  1  0.923474  0.358842  0.358842  1
  Rb  Rb7  1  0.076526  0.641158  0.641158  1
  Dy  Dy8  1  0.845346  0.154654  0.154654  1
  Dy  Dy9  1  0.154654  0.845346  0.845346  1
  Dy  Dy10  1  0.154654  0.845346  0.154654  1
  Dy  Dy11  1  0.845346  0.154654  0.845346  1
  Dy  Dy12  1  0.154654  0.154654  0.845346  1
  Dy  Dy13  1  0.845346  0.845346  0.154654  1
  Ni  Ni14  1  0.000000  0.000000  0.000000  1
  Br  Br15  1  0.331138  0.000000  0.000000  1
  Br  Br16  1  0.668862  0.000000  0.000000  1
  Br  Br17  1  0.000000  0.331138  0.668862  1
  Br  Br18  1  0.000000  0.668862  0.331138  1
  Br  Br19  1  0.000000  0.331138  0.000000  1
  Br  Br20  1  0.668862  0.000000  0.331138  1
  Br  Br21  1  0.000000  0.668862  0.000000  1
  Br  Br22  1  0.331138  0.000000  0.668862  1
  Br  Br23  1  0.000000  0.000000  0.331138  1
  Br  Br24  1  0.000000  0.000000  0.668862  1
  Br  Br25  1  0.668862  0.331138  0.000000  1
  Br  Br26  1  0.331138  0.668862  0.000000  1
  Br  Br27  1  0.680477  0.319523  0.319523  1
  Br  Br28  1  0.319523  0.680477  0.680477  1
  Br  Br29  1  0.319523  0.680477  0.319523  1
  Br  Br30  1  0.680477  0.319523  0.680477  1
  Br  Br31  1  0.319523  0.319523  0.680477  1
  Br  Br32  1  0.680477  0.680477  0.319523  1
  Br  Br33  1  0.250000  0.250000  0.250000  1
  Br  Br34  1  0.750000  0.750000  0.750000  1
