# generated using pymatgen
data_Bi3AsO7
_symmetry_space_group_name_H-M   'P 1'
_cell_length_a   8.43187500
_cell_length_b   8.43187589
_cell_length_c   5.47578400
_cell_angle_alpha   90.00000000
_cell_angle_beta   90.00000000
_cell_angle_gamma   119.99998943
_symmetry_Int_Tables_number   1
_chemical_formula_structural   Bi3AsO7
_chemical_formula_sum   'Bi6 As2 O14'
_cell_volume   337.15169818
_cell_formula_units_Z   2
loop_
 _symmetry_equiv_pos_site_id
 _symmetry_equiv_pos_as_xyz
  1  'x, y, z'
loop_
 _atom_site_type_symbol
 _atom_site_label
 _atom_site_symmetry_multiplicity
 _atom_site_fract_x
 _atom_site_fract_y
 _atom_site_fract_z
 _atom_site_occupancy
  Bi  Bi0  1  0.330381  0.231017  0.795329  1
  Bi  Bi1  1  0.768983  0.099364  0.795329  1
  Bi  Bi2  1  0.099364  0.330381  0.295329  1
  Bi  Bi3  1  0.900636  0.669619  0.795329  1
  Bi  Bi4  1  0.231017  0.900636  0.295329  1
  Bi  Bi5  1  0.669619  0.768983  0.295329  1
  As  As6  1  0.666667  0.333333  0.324734  1
  As  As7  1  0.333333  0.666667  0.824734  1
  O  O8  1  0.240852  0.157441  0.174744  1
  O  O9  1  0.526708  0.118371  0.451461  1
  O  O10  1  0.842559  0.083412  0.174744  1
  O  O11  1  0.666667  0.333333  0.010213  1
  O  O12  1  0.591664  0.473292  0.451461  1
  O  O13  1  0.881629  0.408336  0.451461  1
  O  O14  1  0.083412  0.240852  0.674744  1
  O  O15  1  0.916588  0.759148  0.174744  1
  O  O16  1  0.118371  0.591664  0.951461  1
  O  O17  1  0.408336  0.526708  0.951461  1
  O  O18  1  0.333333  0.666667  0.510213  1
  O  O19  1  0.157441  0.916588  0.674744  1
  O  O20  1  0.473292  0.881629  0.951461  1
  O  O21  1  0.759148  0.842559  0.674744  1
