# generated using pymatgen
data_Ba6Fe3WO14
_symmetry_space_group_name_H-M   'P 1'
_cell_length_a   11.25625700
_cell_length_b   11.25625638
_cell_length_c   5.74377400
_cell_angle_alpha   90.00073807
_cell_angle_beta   90.00073298
_cell_angle_gamma   150.33453717
_symmetry_Int_Tables_number   1
_chemical_formula_structural   Ba6Fe3WO14
_chemical_formula_sum   'Ba6 Fe3 W1 O14'
_cell_volume   360.19150589
_cell_formula_units_Z   1
loop_
 _symmetry_equiv_pos_site_id
 _symmetry_equiv_pos_as_xyz
  1  'x, y, z'
loop_
 _atom_site_type_symbol
 _atom_site_label
 _atom_site_symmetry_multiplicity
 _atom_site_fract_x
 _atom_site_fract_y
 _atom_site_fract_z
 _atom_site_occupancy
  Ba  Ba0  1  0.187136  0.812866  0.999999  1
  Ba  Ba1  1  0.817543  0.182456  0.000001  1
  Ba  Ba2  1  0.319294  0.680706  0.499999  1
  Ba  Ba3  1  0.994280  0.005721  0.000000  1
  Ba  Ba4  1  0.686142  0.313856  0.500001  1
  Ba  Ba5  1  0.494603  0.505396  0.500000  1
  Fe  Fe6  1  0.897841  0.102158  0.500000  1
  Fe  Fe7  1  0.404100  0.595899  0.000000  1
  Fe  Fe8  1  0.595017  0.404978  0.000000  1
  W  W9  1  0.094605  0.905395  0.499999  1
  O  O10  1  0.150357  0.339236  0.255203  1
  O  O11  1  0.334736  0.141824  0.256810  1
  O  O12  1  0.660764  0.849644  0.744797  1
  O  O13  1  0.338159  0.145290  0.739708  1
  O  O14  1  0.806507  0.193493  0.500001  1
  O  O15  1  0.854710  0.661840  0.260290  1
  O  O16  1  0.187179  0.812823  0.500000  1
  O  O17  1  0.686777  0.313224  0.000001  1
  O  O18  1  0.660735  0.849615  0.255285  1
  O  O19  1  0.312324  0.687677  0.000000  1
  O  O20  1  0.007035  0.992965  0.500000  1
  O  O21  1  0.858177  0.665265  0.743190  1
  O  O22  1  0.501597  0.498405  0.000000  1
  O  O23  1  0.150386  0.339266  0.744715  1
