# generated using pymatgen
data_TbSm3OsBr4
_symmetry_space_group_name_H-M   'P 1'
_cell_length_a   9.23657839
_cell_length_b   9.17605310
_cell_length_c   6.60768921
_cell_angle_alpha   89.04657409
_cell_angle_beta   89.71993809
_cell_angle_gamma   89.30541061
_symmetry_Int_Tables_number   1
_chemical_formula_structural   TbSm3OsBr4
_chemical_formula_sum   'Tb2 Sm6 Os2 Br8'
_cell_volume   559.91207113
_cell_formula_units_Z   2
loop_
 _symmetry_equiv_pos_site_id
 _symmetry_equiv_pos_as_xyz
  1  'x, y, z'
loop_
 _atom_site_type_symbol
 _atom_site_label
 _atom_site_symmetry_multiplicity
 _atom_site_fract_x
 _atom_site_fract_y
 _atom_site_fract_z
 _atom_site_occupancy
  Tb  Tb0  1  0.094787  0.244686  0.990557  1
  Tb  Tb1  1  0.905213  0.755314  0.009443  1
  Sm  Sm2  1  0.248760  0.900756  0.009022  1
  Sm  Sm3  1  0.751240  0.099244  0.990978  1
  Sm  Sm4  1  0.097736  0.748976  0.494056  1
  Sm  Sm5  1  0.902264  0.251024  0.505944  1
  Sm  Sm6  1  0.751783  0.903592  0.506507  1
  Sm  Sm7  1  0.248217  0.096408  0.493493  1
  Os  Os8  1  0.997400  0.003347  0.249862  1
  Os  Os9  1  0.002600  0.996653  0.750138  1
  Br  Br10  1  0.412929  0.815546  0.429567  1
  Br  Br11  1  0.587071  0.184454  0.570433  1
  Br  Br12  1  0.178504  0.584276  0.080124  1
  Br  Br13  1  0.821496  0.415724  0.919876  1
  Br  Br14  1  0.405621  0.187244  0.071768  1
  Br  Br15  1  0.594379  0.812756  0.928232  1
  Br  Br16  1  0.814104  0.591191  0.415106  1
  Br  Br17  1  0.185896  0.408809  0.584894  1
