# generated using pymatgen
data_CeCr(FeP4)3
_symmetry_space_group_name_H-M   'P 1'
_cell_length_a   6.82741706
_cell_length_b   6.82740848
_cell_length_c   6.82738843
_cell_angle_alpha   109.59241997
_cell_angle_beta   109.59298784
_cell_angle_gamma   109.59516588
_symmetry_Int_Tables_number   1
_chemical_formula_structural   CeCr(FeP4)3
_chemical_formula_sum   'Ce1 Cr1 Fe3 P12'
_cell_volume   243.87247111
_cell_formula_units_Z   1
loop_
 _symmetry_equiv_pos_site_id
 _symmetry_equiv_pos_as_xyz
  1  'x, y, z'
loop_
 _atom_site_type_symbol
 _atom_site_label
 _atom_site_symmetry_multiplicity
 _atom_site_fract_x
 _atom_site_fract_y
 _atom_site_fract_z
 _atom_site_occupancy
  Ce  Ce0  1  0.000000  0.000000  0.000000  1
  Cr  Cr1  1  0.500000  0.500000  0.500000  1
  Fe  Fe2  1  0.000000  0.000000  0.500000  1
  Fe  Fe3  1  0.000000  0.500000  0.000000  1
  Fe  Fe4  1  0.500000  0.000000  0.000000  1
  P  P5  1  0.861244  0.653539  0.498749  1
  P  P6  1  0.849811  0.350384  0.199784  1
  P  P7  1  0.150189  0.649616  0.800216  1
  P  P8  1  0.346457  0.501239  0.138751  1
  P  P9  1  0.501252  0.138758  0.346448  1
  P  P10  1  0.138756  0.346461  0.501251  1
  P  P11  1  0.649599  0.800226  0.150165  1
  P  P12  1  0.199780  0.849832  0.350402  1
  P  P13  1  0.653543  0.498761  0.861249  1
  P  P14  1  0.800220  0.150168  0.649598  1
  P  P15  1  0.350401  0.199774  0.849835  1
  P  P16  1  0.498748  0.861242  0.653552  1
