# generated using pymatgen
data_Y8Lu4InCo4Pt
_symmetry_space_group_name_H-M   'P 1'
_cell_length_a   8.27990082
_cell_length_b   8.27990125
_cell_length_c   8.27990239
_cell_angle_alpha   111.17492108
_cell_angle_beta   110.49718037
_cell_angle_gamma   106.77549418
_symmetry_Int_Tables_number   1
_chemical_formula_structural   Y8Lu4InCo4Pt
_chemical_formula_sum   'Y8 Lu4 In1 Co4 Pt1'
_cell_volume   436.23476962
_cell_formula_units_Z   1
loop_
 _symmetry_equiv_pos_site_id
 _symmetry_equiv_pos_as_xyz
  1  'x, y, z'
loop_
 _atom_site_type_symbol
 _atom_site_label
 _atom_site_symmetry_multiplicity
 _atom_site_fract_x
 _atom_site_fract_y
 _atom_site_fract_z
 _atom_site_occupancy
  Y  Y0  1  0.418739  0.219596  0.199144  1
  Y  Y1  1  0.581261  0.780404  0.800856  1
  Y  Y2  1  0.020453  0.219596  0.800856  1
  Y  Y3  1  0.979547  0.780404  0.199144  1
  Y  Y4  1  0.186442  0.287808  0.474250  1
  Y  Y5  1  0.813558  0.712192  0.525750  1
  Y  Y6  1  0.186442  0.712192  0.898635  1
  Y  Y7  1  0.813558  0.287808  0.101365  1
  Lu  Lu8  1  0.316268  0.623309  0.307040  1
  Lu  Lu9  1  0.683732  0.376691  0.692960  1
  Lu  Lu10  1  0.316268  0.009228  0.692960  1
  Lu  Lu11  1  0.683732  0.990772  0.307040  1
  In  In12  1  0.500000  0.500000  0.000000  1
  Co  Co13  1  0.380702  0.000000  0.380702  1
  Co  Co14  1  0.619298  0.000000  0.619298  1
  Co  Co15  1  0.112514  0.612514  0.500000  1
  Co  Co16  1  0.887486  0.387486  0.500000  1
  Pt  Pt17  1  0.000000  0.000000  0.000000  1
