# generated using pymatgen
data_NdEuIO2
_symmetry_space_group_name_H-M   'P 1'
_cell_length_a   7.33944418
_cell_length_b   7.33944456
_cell_length_c   5.90316700
_cell_angle_alpha   90.00000000
_cell_angle_beta   90.00000000
_cell_angle_gamma   132.45041479
_symmetry_Int_Tables_number   1
_chemical_formula_structural   NdEuIO2
_chemical_formula_sum   'Nd2 Eu2 I2 O4'
_cell_volume   234.63155739
_cell_formula_units_Z   2
loop_
 _symmetry_equiv_pos_site_id
 _symmetry_equiv_pos_as_xyz
  1  'x, y, z'
loop_
 _atom_site_type_symbol
 _atom_site_label
 _atom_site_symmetry_multiplicity
 _atom_site_fract_x
 _atom_site_fract_y
 _atom_site_fract_z
 _atom_site_occupancy
  Nd  Nd0  1  0.422553  0.577447  0.250000  1
  Nd  Nd1  1  0.577447  0.422553  0.749999  1
  Eu  Eu2  1  0.083751  0.916250  0.250000  1
  Eu  Eu3  1  0.916250  0.083751  0.749999  1
  I  I4  1  0.753184  0.246817  0.250000  1
  I  I5  1  0.246817  0.753184  0.749999  1
  O  O6  1  0.258317  0.258317  0.000000  1
  O  O7  1  0.741683  0.741683  0.000000  1
  O  O8  1  0.258317  0.258317  0.500000  1
  O  O9  1  0.741683  0.741683  0.500000  1
