# generated using pymatgen
data_Y5Ho3Si12(IrRh)2
_symmetry_space_group_name_H-M   'P 1'
_cell_length_a   8.16926200
_cell_length_b   8.16927311
_cell_length_c   7.92390400
_cell_angle_alpha   90.00001354
_cell_angle_beta   89.99989328
_cell_angle_gamma   120.00042140
_symmetry_Int_Tables_number   1
_chemical_formula_structural   Y5Ho3Si12(IrRh)2
_chemical_formula_sum   'Y5 Ho3 Si12 Ir2 Rh2'
_cell_volume   457.96705053
_cell_formula_units_Z   1
loop_
 _symmetry_equiv_pos_site_id
 _symmetry_equiv_pos_as_xyz
  1  'x, y, z'
loop_
 _atom_site_type_symbol
 _atom_site_label
 _atom_site_symmetry_multiplicity
 _atom_site_fract_x
 _atom_site_fract_y
 _atom_site_fract_z
 _atom_site_occupancy
  Y  Y0  1  0.000002  0.000004  0.248905  1
  Y  Y1  1  0.999998  0.999998  0.751038  1
  Y  Y2  1  0.509097  0.490900  0.250202  1
  Y  Y3  1  0.509095  0.018196  0.250199  1
  Y  Y4  1  0.981805  0.490903  0.250198  1
  Ho  Ho5  1  0.490821  0.509181  0.749796  1
  Ho  Ho6  1  0.490820  0.981639  0.749792  1
  Ho  Ho7  1  0.018361  0.509179  0.749795  1
  Si  Si8  1  0.166881  0.833118  0.500342  1
  Si  Si9  1  0.166879  0.333763  0.500341  1
  Si  Si10  1  0.666240  0.833121  0.500338  1
  Si  Si11  1  0.832945  0.167056  0.501586  1
  Si  Si12  1  0.832944  0.665887  0.501590  1
  Si  Si13  1  0.334113  0.167056  0.501591  1
  Si  Si14  1  0.832830  0.167169  0.999096  1
  Si  Si15  1  0.832830  0.665660  0.999097  1
  Si  Si16  1  0.334339  0.167170  0.999095  1
  Si  Si17  1  0.167015  0.832983  0.999008  1
  Si  Si18  1  0.167015  0.334030  0.999009  1
  Si  Si19  1  0.665968  0.832984  0.999012  1
  Ir  Ir20  1  0.333337  0.666670  0.470896  1
  Ir  Ir21  1  0.666666  0.333335  0.534847  1
  Rh  Rh22  1  0.666665  0.333332  0.961611  1
  Rh  Rh23  1  0.333335  0.666666  0.032616  1
