# generated using pymatgen
data_Ti3V8Si10Tc
_symmetry_space_group_name_H-M   'P 1'
_cell_length_a   4.90191048
_cell_length_b   7.56307767
_cell_length_c   9.19493596
_cell_angle_alpha   65.97183318
_cell_angle_beta   74.53469281
_cell_angle_gamma   90.12700156
_symmetry_Int_Tables_number   1
_chemical_formula_structural   Ti3V8Si10Tc
_chemical_formula_sum   'Ti3 V8 Si10 Tc1'
_cell_volume   297.68951290
_cell_formula_units_Z   1
loop_
 _symmetry_equiv_pos_site_id
 _symmetry_equiv_pos_as_xyz
  1  'x, y, z'
loop_
 _atom_site_type_symbol
 _atom_site_label
 _atom_site_symmetry_multiplicity
 _atom_site_fract_x
 _atom_site_fract_y
 _atom_site_fract_z
 _atom_site_occupancy
  Ti  Ti0  1  0.860937  0.743557  0.282230  1
  Ti  Ti1  1  0.644150  0.029380  0.716687  1
  Ti  Ti2  1  0.356678  0.972895  0.282166  1
  V  V3  1  0.058929  0.310334  0.378626  1
  V  V4  1  0.561230  0.310154  0.379981  1
  V  V5  1  0.941552  0.693084  0.620117  1
  V  V6  1  0.435832  0.682515  0.129108  1
  V  V7  1  0.568042  0.316475  0.871129  1
  V  V8  1  0.937342  0.189151  0.128503  1
  V  V9  1  0.056402  0.810007  0.873393  1
  V  V10  1  0.138456  0.254728  0.716574  1
  Si  Si11  1  0.057908  0.474044  0.872573  1
  Si  Si12  1  0.937474  0.521733  0.126763  1
  Si  Si13  1  0.568276  0.647982  0.874913  1
  Si  Si14  1  0.436579  0.349526  0.127563  1
  Si  Si15  1  0.750689  0.001095  0.999602  1
  Si  Si16  1  0.250064  0.001125  0.997836  1
  Si  Si17  1  0.284719  0.579674  0.427982  1
  Si  Si18  1  0.712575  0.416147  0.573546  1
  Si  Si19  1  0.787746  0.991851  0.425095  1
  Si  Si20  1  0.213448  0.014070  0.575652  1
  Tc  Tc21  1  0.440975  0.690473  0.619961  1
