# generated using pymatgen
data_Hf5Pa2Co3
_symmetry_space_group_name_H-M   'P 1'
_cell_length_a   8.88744155
_cell_length_b   8.82159882
_cell_length_c   5.70215622
_cell_angle_alpha   89.84746681
_cell_angle_beta   90.30280736
_cell_angle_gamma   120.24720574
_symmetry_Int_Tables_number   1
_chemical_formula_structural   Hf5Pa2Co3
_chemical_formula_sum   'Hf10 Pa4 Co6'
_cell_volume   386.18954180
_cell_formula_units_Z   2
loop_
 _symmetry_equiv_pos_site_id
 _symmetry_equiv_pos_as_xyz
  1  'x, y, z'
loop_
 _atom_site_type_symbol
 _atom_site_label
 _atom_site_symmetry_multiplicity
 _atom_site_fract_x
 _atom_site_fract_y
 _atom_site_fract_z
 _atom_site_occupancy
  Hf  Hf0  1  0.861112  0.737591  0.745237  1
  Hf  Hf1  1  0.123519  0.262409  0.245237  1
  Hf  Hf2  1  0.743528  0.875675  0.246004  1
  Hf  Hf3  1  0.867855  0.124325  0.746004  1
  Hf  Hf4  1  0.543203  0.457213  0.039210  1
  Hf  Hf5  1  0.085989  0.542787  0.539210  1
  Hf  Hf6  1  0.463225  0.916358  0.536999  1
  Hf  Hf7  1  0.546869  0.083642  0.036999  1
  Hf  Hf8  1  0.915861  0.453721  0.035085  1
  Hf  Hf9  1  0.462139  0.546279  0.535085  1
  Pa  Pa10  1  0.339618  0.667233  0.045669  1
  Pa  Pa11  1  0.672386  0.332767  0.545669  1
  Pa  Pa12  1  0.120487  0.874444  0.244766  1
  Pa  Pa13  1  0.246045  0.125556  0.744766  1
  Co  Co14  1  0.808396  0.192217  0.318690  1
  Co  Co15  1  0.616180  0.807783  0.818690  1
  Co  Co16  1  0.195135  0.371099  0.804128  1
  Co  Co17  1  0.824035  0.628901  0.304128  1
  Co  Co18  1  0.371279  0.178141  0.314214  1
  Co  Co19  1  0.193138  0.821859  0.814214  1
