# generated using pymatgen
data_Y5Ge8P4Ir19
_symmetry_space_group_name_H-M   'P 1'
_cell_length_a   13.05098144
_cell_length_b   13.02784176
_cell_length_c   3.99374400
_cell_angle_alpha   90.00000000
_cell_angle_beta   90.00000000
_cell_angle_gamma   120.11373495
_symmetry_Int_Tables_number   1
_chemical_formula_structural   Y5Ge8P4Ir19
_chemical_formula_sum   'Y5 Ge8 P4 Ir19'
_cell_volume   587.39146081
_cell_formula_units_Z   1
loop_
 _symmetry_equiv_pos_site_id
 _symmetry_equiv_pos_as_xyz
  1  'x, y, z'
loop_
 _atom_site_type_symbol
 _atom_site_label
 _atom_site_symmetry_multiplicity
 _atom_site_fract_x
 _atom_site_fract_y
 _atom_site_fract_z
 _atom_site_occupancy
  Y  Y0  1  0.667352  0.333291  0.000000  1
  Y  Y1  1  0.331883  0.664981  0.000000  1
  Y  Y2  1  0.816964  0.816517  0.500000  1
  Y  Y3  1  0.183237  0.001060  0.500000  1
  Y  Y4  1  0.000043  0.181863  0.500000  1
  Ge  Ge5  1  0.682554  0.162913  0.500000  1
  Ge  Ge6  1  0.836628  0.518912  0.500000  1
  Ge  Ge7  1  0.482448  0.317980  0.500000  1
  Ge  Ge8  1  0.165820  0.684943  0.500000  1
  Ge  Ge9  1  0.516332  0.830025  0.500000  1
  Ge  Ge10  1  0.637180  0.637225  0.000000  1
  Ge  Ge11  1  0.362641  0.999925  0.000000  1
  Ge  Ge12  1  0.001313  0.362347  0.000000  1
  P  P13  1  0.307166  0.480998  0.500000  1
  P  P14  1  0.178206  0.179651  0.000000  1
  P  P15  1  0.821434  0.997101  0.000000  1
  P  P16  1  0.000551  0.824270  0.000000  1
  Ir  Ir17  1  0.809058  0.173555  0.000000  1
  Ir  Ir18  1  0.825733  0.633494  0.000000  1
  Ir  Ir19  1  0.364395  0.191482  0.000000  1
  Ir  Ir20  1  0.174966  0.807630  0.000000  1
  Ir  Ir21  1  0.627691  0.820614  0.000000  1
  Ir  Ir22  1  0.206778  0.381898  0.000000  1
  Ir  Ir23  1  0.451948  0.443772  0.000000  1
  Ir  Ir24  1  0.554179  0.001843  0.000000  1
  Ir  Ir25  1  0.000302  0.552180  0.000000  1
  Ir  Ir26  1  0.274452  0.280766  0.500000  1
  Ir  Ir27  1  0.727897  0.997254  0.500000  1
  Ir  Ir28  1  0.000661  0.730255  0.500000  1
  Ir  Ir29  1  0.872345  0.355004  0.500000  1
  Ir  Ir30  1  0.646032  0.518248  0.500000  1
  Ir  Ir31  1  0.483014  0.128811  0.500000  1
  Ir  Ir32  1  0.358196  0.873815  0.500000  1
  Ir  Ir33  1  0.499877  0.628924  0.500000  1
  Ir  Ir34  1  0.129454  0.484148  0.500000  1
  Ir  Ir35  1  0.001268  0.002303  0.000000  1
