# generated using pymatgen
data_Ho5VReO12
_symmetry_space_group_name_H-M   'P 1'
_cell_length_a   6.77037136
_cell_length_b   6.77037191
_cell_length_c   7.44082209
_cell_angle_alpha   73.90019872
_cell_angle_beta   73.90020112
_cell_angle_gamma   50.21745691
_symmetry_Int_Tables_number   1
_chemical_formula_structural   Ho5VReO12
_chemical_formula_sum   'Ho5 V1 Re1 O12'
_cell_volume   249.51244551
_cell_formula_units_Z   1
loop_
 _symmetry_equiv_pos_site_id
 _symmetry_equiv_pos_as_xyz
  1  'x, y, z'
loop_
 _atom_site_type_symbol
 _atom_site_label
 _atom_site_symmetry_multiplicity
 _atom_site_fract_x
 _atom_site_fract_y
 _atom_site_fract_z
 _atom_site_occupancy
  Ho  Ho0  1  0.819911  0.789619  0.359558  1
  Ho  Ho1  1  0.210381  0.180089  0.640442  1
  Ho  Ho2  1  0.187518  0.184413  0.176584  1
  Ho  Ho3  1  0.815587  0.812482  0.823416  1
  Ho  Ho4  1  0.508932  0.491068  0.500000  1
  V  V5  1  0.265850  0.734150  0.000000  1
  Re  Re6  1  0.716162  0.283838  0.000000  1
  O  O7  1  0.408458  0.929700  0.915935  1
  O  O8  1  0.070300  0.591542  0.084065  1
  O  O9  1  0.593375  0.089889  0.082997  1
  O  O10  1  0.910111  0.406625  0.917003  1
  O  O11  1  0.606534  0.090122  0.569854  1
  O  O12  1  0.909878  0.393466  0.430146  1
  O  O13  1  0.411942  0.901397  0.421488  1
  O  O14  1  0.987790  0.012555  0.818323  1
  O  O15  1  0.987445  0.012210  0.181677  1
  O  O16  1  0.493987  0.502761  0.802025  1
  O  O17  1  0.497239  0.506013  0.197975  1
  O  O18  1  0.098603  0.588058  0.578512  1
