# generated using pymatgen
data_Dy3Tm(TcB4)4
_symmetry_space_group_name_H-M   'P 1'
_cell_length_a   3.59834400
_cell_length_b   5.96401574
_cell_length_c   11.54099505
_cell_angle_alpha   89.95095488
_cell_angle_beta   90.00000000
_cell_angle_gamma   90.00000000
_symmetry_Int_Tables_number   1
_chemical_formula_structural   Dy3Tm(TcB4)4
_chemical_formula_sum   'Dy3 Tm1 Tc4 B16'
_cell_volume   247.67635984
_cell_formula_units_Z   1
loop_
 _symmetry_equiv_pos_site_id
 _symmetry_equiv_pos_as_xyz
  1  'x, y, z'
loop_
 _atom_site_type_symbol
 _atom_site_label
 _atom_site_symmetry_multiplicity
 _atom_site_fract_x
 _atom_site_fract_y
 _atom_site_fract_z
 _atom_site_occupancy
  Dy  Dy0  1  0.000000  0.627030  0.349977  1
  Dy  Dy1  1  0.000000  0.372984  0.650241  1
  Dy  Dy2  1  0.000000  0.127052  0.149851  1
  Tm  Tm3  1  0.000000  0.873059  0.850164  1
  Tc  Tc4  1  0.000000  0.633197  0.086904  1
  Tc  Tc5  1  0.000000  0.367040  0.912074  1
  Tc  Tc6  1  0.000000  0.132529  0.412642  1
  Tc  Tc7  1  0.000000  0.867289  0.588411  1
  B  B8  1  0.500000  0.786804  0.184590  1
  B  B9  1  0.500000  0.212012  0.815150  1
  B  B10  1  0.500000  0.286740  0.315050  1
  B  B11  1  0.500000  0.713327  0.685652  1
  B  B12  1  0.500000  0.864539  0.030694  1
  B  B13  1  0.500000  0.135499  0.968038  1
  B  B14  1  0.500000  0.364052  0.468811  1
  B  B15  1  0.500000  0.635930  0.531823  1
  B  B16  1  0.500000  0.886502  0.453056  1
  B  B17  1  0.500000  0.113021  0.547693  1
  B  B18  1  0.500000  0.386980  0.046694  1
  B  B19  1  0.500000  0.614562  0.952012  1
  B  B20  1  0.500000  0.976567  0.307704  1
  B  B21  1  0.500000  0.022589  0.693231  1
  B  B22  1  0.500000  0.476765  0.191973  1
  B  B23  1  0.500000  0.523932  0.807566  1
