# generated using pymatgen
data_Tb3DyTh6(Si3C)2
_symmetry_space_group_name_H-M   'P 1'
_cell_length_a   8.76738300
_cell_length_b   8.76738240
_cell_length_c   6.38419000
_cell_angle_alpha   90.00000000
_cell_angle_beta   90.00000000
_cell_angle_gamma   119.99999849
_symmetry_Int_Tables_number   1
_chemical_formula_structural   Tb3DyTh6(Si3C)2
_chemical_formula_sum   'Tb3 Dy1 Th6 Si6 C2'
_cell_volume   424.98770911
_cell_formula_units_Z   1
loop_
 _symmetry_equiv_pos_site_id
 _symmetry_equiv_pos_as_xyz
  1  'x, y, z'
loop_
 _atom_site_type_symbol
 _atom_site_label
 _atom_site_symmetry_multiplicity
 _atom_site_fract_x
 _atom_site_fract_y
 _atom_site_fract_z
 _atom_site_occupancy
  Tb  Tb0  1  0.666667  0.333333  0.000000  1
  Tb  Tb1  1  0.333333  0.666667  0.000000  1
  Tb  Tb2  1  0.333333  0.666667  0.500000  1
  Dy  Dy3  1  0.666667  0.333333  0.500000  1
  Th  Th4  1  0.767002  0.766973  0.749970  1
  Th  Th5  1  0.233027  0.000028  0.749970  1
  Th  Th6  1  0.999972  0.232998  0.749970  1
  Th  Th7  1  0.233027  0.232998  0.250030  1
  Th  Th8  1  0.767002  0.000028  0.250030  1
  Th  Th9  1  0.999972  0.766973  0.250030  1
  Si  Si10  1  0.401776  0.401694  0.749942  1
  Si  Si11  1  0.598306  0.000082  0.749942  1
  Si  Si12  1  0.999918  0.598224  0.749942  1
  Si  Si13  1  0.598306  0.598224  0.250058  1
  Si  Si14  1  0.401776  0.000082  0.250058  1
  Si  Si15  1  0.999918  0.401694  0.250058  1
  C  C16  1  0.000000  0.000000  0.000000  1
  C  C17  1  0.000000  0.000000  0.500000  1
