# generated using pymatgen
data_Pa4AlCr3B16
_symmetry_space_group_name_H-M   'P 1'
_cell_length_a   3.57256400
_cell_length_b   5.92143603
_cell_length_c   11.46252300
_cell_angle_alpha   90.00691197
_cell_angle_beta   90.00004103
_cell_angle_gamma   89.99997428
_symmetry_Int_Tables_number   1
_chemical_formula_structural   Pa4AlCr3B16
_chemical_formula_sum   'Pa4 Al1 Cr3 B16'
_cell_volume   242.48633878
_cell_formula_units_Z   1
loop_
 _symmetry_equiv_pos_site_id
 _symmetry_equiv_pos_as_xyz
  1  'x, y, z'
loop_
 _atom_site_type_symbol
 _atom_site_label
 _atom_site_symmetry_multiplicity
 _atom_site_fract_x
 _atom_site_fract_y
 _atom_site_fract_z
 _atom_site_occupancy
  Pa  Pa0  1  0.999999  0.625308  0.349895  1
  Pa  Pa1  1  0.000001  0.374268  0.650985  1
  Pa  Pa2  1  0.000001  0.126760  0.150585  1
  Pa  Pa3  1  0.999997  0.874730  0.848510  1
  Al  Al4  1  0.000000  0.633060  0.087521  1
  Cr  Cr5  1  0.999995  0.373224  0.913387  1
  Cr  Cr6  1  0.000001  0.129825  0.415930  1
  Cr  Cr7  1  0.000000  0.868821  0.587194  1
  B  B8  1  0.500000  0.788250  0.188491  1
  B  B9  1  0.500000  0.217219  0.814973  1
  B  B10  1  0.500001  0.282332  0.315342  1
  B  B11  1  0.500000  0.717358  0.684605  1
  B  B12  1  0.500000  0.867127  0.030336  1
  B  B13  1  0.500000  0.137404  0.965802  1
  B  B14  1  0.500001  0.362294  0.467557  1
  B  B15  1  0.500000  0.637158  0.532958  1
  B  B16  1  0.500000  0.887233  0.454487  1
  B  B17  1  0.500001  0.112318  0.546044  1
  B  B18  1  0.500000  0.382759  0.043081  1
  B  B19  1  0.500000  0.609818  0.950775  1
  B  B20  1  0.500001  0.974592  0.309673  1
  B  B21  1  0.500000  0.025537  0.690521  1
  B  B22  1  0.500001  0.468513  0.192847  1
  B  B23  1  0.500000  0.524094  0.808504  1
