# generated using pymatgen
data_Hf6Pa2Bi9
_symmetry_space_group_name_H-M   'P 1'
_cell_length_a   10.96302200
_cell_length_b   10.96302200
_cell_length_c   7.72741000
_cell_angle_alpha   90.00000000
_cell_angle_beta   90.00000000
_cell_angle_gamma   90.00000000
_symmetry_Int_Tables_number   1
_chemical_formula_structural   Hf6Pa2Bi9
_chemical_formula_sum   'Hf12 Pa4 Bi18'
_cell_volume   928.74080457
_cell_formula_units_Z   2
loop_
 _symmetry_equiv_pos_site_id
 _symmetry_equiv_pos_as_xyz
  1  'x, y, z'
loop_
 _atom_site_type_symbol
 _atom_site_label
 _atom_site_symmetry_multiplicity
 _atom_site_fract_x
 _atom_site_fract_y
 _atom_site_fract_z
 _atom_site_occupancy
  Hf  Hf0  1  0.000000  0.000000  0.000000  1
  Hf  Hf1  1  0.500000  0.000000  0.000000  1
  Hf  Hf2  1  0.000000  0.500000  0.000000  1
  Hf  Hf3  1  0.500000  0.500000  0.000000  1
  Hf  Hf4  1  0.750000  0.106664  0.156706  1
  Hf  Hf5  1  0.750000  0.393335  0.156706  1
  Hf  Hf6  1  0.106664  0.750000  0.156706  1
  Hf  Hf7  1  0.393335  0.750000  0.156706  1
  Hf  Hf8  1  0.606664  0.249999  0.843295  1
  Hf  Hf9  1  0.893337  0.250000  0.843295  1
  Hf  Hf10  1  0.249999  0.606664  0.843295  1
  Hf  Hf11  1  0.250000  0.893337  0.843295  1
  Pa  Pa12  1  0.750000  0.750000  0.079528  1
  Pa  Pa13  1  0.250000  0.250000  0.427859  1
  Pa  Pa14  1  0.750000  0.750000  0.572142  1
  Pa  Pa15  1  0.250000  0.250000  0.920473  1
  Bi  Bi16  1  0.250000  0.004621  0.194222  1
  Bi  Bi17  1  0.004621  0.250000  0.194222  1
  Bi  Bi18  1  0.495378  0.249999  0.194222  1
  Bi  Bi19  1  0.249999  0.495378  0.194222  1
  Bi  Bi20  1  0.578796  0.578796  0.347516  1
  Bi  Bi21  1  0.921204  0.578796  0.347516  1
  Bi  Bi22  1  0.921204  0.921204  0.347516  1
  Bi  Bi23  1  0.578796  0.921204  0.347516  1
  Bi  Bi24  1  0.750000  0.250000  0.500000  1
  Bi  Bi25  1  0.250000  0.750000  0.500000  1
  Bi  Bi26  1  0.421204  0.078796  0.652484  1
  Bi  Bi27  1  0.078796  0.078796  0.652484  1
  Bi  Bi28  1  0.078796  0.421204  0.652484  1
  Bi  Bi29  1  0.421204  0.421204  0.652484  1
  Bi  Bi30  1  0.750000  0.504621  0.805779  1
  Bi  Bi31  1  0.504621  0.750000  0.805779  1
  Bi  Bi32  1  0.995379  0.750000  0.805779  1
  Bi  Bi33  1  0.750000  0.995379  0.805779  1
