# generated using pymatgen
data_ErPa(Al3Rh)3
_symmetry_space_group_name_H-M   'P 1'
_cell_length_a   7.58184712
_cell_length_b   7.58463455
_cell_length_c   9.37586800
_cell_angle_alpha   90.00000000
_cell_angle_beta   90.00000000
_cell_angle_gamma   119.63766759
_symmetry_Int_Tables_number   1
_chemical_formula_structural   ErPa(Al3Rh)3
_chemical_formula_sum   'Er2 Pa2 Al18 Rh6'
_cell_volume   468.62548387
_cell_formula_units_Z   2
loop_
 _symmetry_equiv_pos_site_id
 _symmetry_equiv_pos_as_xyz
  1  'x, y, z'
loop_
 _atom_site_type_symbol
 _atom_site_label
 _atom_site_symmetry_multiplicity
 _atom_site_fract_x
 _atom_site_fract_y
 _atom_site_fract_z
 _atom_site_occupancy
  Er  Er0  1  0.669467  0.993933  0.750000  1
  Er  Er1  1  0.330533  0.006067  0.250000  1
  Pa  Pa2  1  0.996585  0.670505  0.750000  1
  Pa  Pa3  1  0.003415  0.329495  0.250000  1
  Al  Al4  1  0.128604  0.126474  0.750000  1
  Al  Al5  1  0.871396  0.873526  0.250000  1
  Al  Al6  1  0.999997  0.331850  0.577252  1
  Al  Al7  1  0.000003  0.668150  0.422748  1
  Al  Al8  1  0.000003  0.668150  0.077252  1
  Al  Al9  1  0.337610  0.002578  0.925232  1
  Al  Al10  1  0.999997  0.331850  0.922748  1
  Al  Al11  1  0.662390  0.997422  0.074768  1
  Al  Al12  1  0.662390  0.997422  0.425232  1
  Al  Al13  1  0.337610  0.002578  0.574768  1
  Al  Al14  1  0.335033  0.333006  0.053657  1
  Al  Al15  1  0.664967  0.666994  0.946343  1
  Al  Al16  1  0.664967  0.666994  0.553657  1
  Al  Al17  1  0.335033  0.333006  0.446343  1
  Al  Al18  1  0.339840  0.548861  0.750000  1
  Al  Al19  1  0.660160  0.451139  0.250000  1
  Al  Al20  1  0.548406  0.340120  0.750000  1
  Al  Al21  1  0.451594  0.659880  0.250000  1
  Rh  Rh22  1  0.674614  0.329161  0.500018  1
  Rh  Rh23  1  0.325386  0.670839  0.499982  1
  Rh  Rh24  1  0.325386  0.670839  0.000018  1
  Rh  Rh25  1  0.674614  0.329161  0.999982  1
  Rh  Rh26  1  0.000000  0.000000  0.500000  1
  Rh  Rh27  1  0.000000  0.000000  0.000000  1
