# generated using pymatgen
data_Ta3Nb9Ga4(CuN)4
_symmetry_space_group_name_H-M   'P 1'
_cell_length_a   6.98844465
_cell_length_b   6.98895297
_cell_length_c   6.98517003
_cell_angle_alpha   89.89847403
_cell_angle_beta   90.10707828
_cell_angle_gamma   90.11128560
_symmetry_Int_Tables_number   1
_chemical_formula_structural   Ta3Nb9Ga4(CuN)4
_chemical_formula_sum   'Ta3 Nb9 Ga4 Cu4 N4'
_cell_volume   341.16728048
_cell_formula_units_Z   1
loop_
 _symmetry_equiv_pos_site_id
 _symmetry_equiv_pos_as_xyz
  1  'x, y, z'
loop_
 _atom_site_type_symbol
 _atom_site_label
 _atom_site_symmetry_multiplicity
 _atom_site_fract_x
 _atom_site_fract_y
 _atom_site_fract_z
 _atom_site_occupancy
  Ta  Ta0  1  0.791366  0.957892  0.375581  1
  Ta  Ta1  1  0.708672  0.042286  0.874751  1
  Ta  Ta2  1  0.208240  0.457758  0.125068  1
  Nb  Nb3  1  0.291109  0.542417  0.624690  1
  Nb  Nb4  1  0.956911  0.374112  0.790669  1
  Nb  Nb5  1  0.043372  0.873280  0.709885  1
  Nb  Nb6  1  0.456676  0.125181  0.208838  1
  Nb  Nb7  1  0.542869  0.626298  0.290700  1
  Nb  Nb8  1  0.376717  0.791633  0.957771  1
  Nb  Nb9  1  0.875277  0.707938  0.042688  1
  Nb  Nb10  1  0.124140  0.207902  0.458213  1
  Nb  Nb11  1  0.623187  0.292253  0.541520  1
  Ga  Ga12  1  0.573473  0.427270  0.926812  1
  Ga  Ga13  1  0.426465  0.927032  0.572356  1
  Ga  Ga14  1  0.926258  0.572544  0.427121  1
  Ga  Ga15  1  0.073208  0.072973  0.072628  1
  Cu  Cu16  1  0.177532  0.820372  0.320838  1
  Cu  Cu17  1  0.321862  0.179662  0.821649  1
  Cu  Cu18  1  0.822496  0.319106  0.179108  1
  Cu  Cu19  1  0.679810  0.681927  0.678715  1
  N  N20  1  0.873673  0.120734  0.623820  1
  N  N21  1  0.626865  0.879743  0.123802  1
  N  N22  1  0.125292  0.621578  0.879028  1
  N  N23  1  0.374531  0.378107  0.373750  1
