# generated using pymatgen
data_Tm8Cd2IrPt
_symmetry_space_group_name_H-M   'P 1'
_cell_length_a   9.53429578
_cell_length_b   9.53429484
_cell_length_c   9.52604900
_cell_angle_alpha   60.02860874
_cell_angle_beta   60.02861197
_cell_angle_gamma   60.14009396
_symmetry_Int_Tables_number   1
_chemical_formula_structural   Tm8Cd2IrPt
_chemical_formula_sum   'Tm16 Cd4 Ir2 Pt2'
_cell_volume   613.22632279
_cell_formula_units_Z   2
loop_
 _symmetry_equiv_pos_site_id
 _symmetry_equiv_pos_as_xyz
  1  'x, y, z'
loop_
 _atom_site_type_symbol
 _atom_site_label
 _atom_site_symmetry_multiplicity
 _atom_site_fract_x
 _atom_site_fract_y
 _atom_site_fract_z
 _atom_site_occupancy
  Tm  Tm0  1  0.600806  0.600806  0.596671  1
  Tm  Tm1  1  0.600806  0.600806  0.201717  1
  Tm  Tm2  1  0.606623  0.193728  0.599825  1
  Tm  Tm3  1  0.193728  0.606623  0.599825  1
  Tm  Tm4  1  0.056790  0.439977  0.440631  1
  Tm  Tm5  1  0.439977  0.056790  0.062602  1
  Tm  Tm6  1  0.439977  0.056790  0.440631  1
  Tm  Tm7  1  0.056790  0.439977  0.062602  1
  Tm  Tm8  1  0.440876  0.440876  0.059124  1
  Tm  Tm9  1  0.061316  0.061316  0.438684  1
  Tm  Tm10  1  0.186934  0.815203  0.812173  1
  Tm  Tm11  1  0.815203  0.186934  0.185689  1
  Tm  Tm12  1  0.815203  0.186934  0.812173  1
  Tm  Tm13  1  0.186934  0.815203  0.185689  1
  Tm  Tm14  1  0.813921  0.813921  0.186079  1
  Tm  Tm15  1  0.186631  0.186631  0.813369  1
  Cd  Cd16  1  0.831396  0.831396  0.831782  1
  Cd  Cd17  1  0.831396  0.831396  0.505426  1
  Cd  Cd18  1  0.830961  0.505252  0.831893  1
  Cd  Cd19  1  0.505252  0.830961  0.831893  1
  Ir  Ir20  1  0.391155  0.823489  0.392678  1
  Ir  Ir21  1  0.823489  0.391155  0.392678  1
  Pt  Pt22  1  0.391918  0.391918  0.395068  1
  Pt  Pt23  1  0.391918  0.391918  0.821095  1
