# generated using pymatgen
data_CeNdHo2(AsPt)4
_symmetry_space_group_name_H-M   'P 1'
_cell_length_a   4.29627900
_cell_length_b   4.29627810
_cell_length_c   15.64162100
_cell_angle_alpha   90.00000000
_cell_angle_beta   90.00000000
_cell_angle_gamma   119.99999926
_symmetry_Int_Tables_number   1
_chemical_formula_structural   CeNdHo2(AsPt)4
_chemical_formula_sum   'Ce1 Nd1 Ho2 As4 Pt4'
_cell_volume   250.03295605
_cell_formula_units_Z   1
loop_
 _symmetry_equiv_pos_site_id
 _symmetry_equiv_pos_as_xyz
  1  'x, y, z'
loop_
 _atom_site_type_symbol
 _atom_site_label
 _atom_site_symmetry_multiplicity
 _atom_site_fract_x
 _atom_site_fract_y
 _atom_site_fract_z
 _atom_site_occupancy
  Ce  Ce0  1  0.000000  0.000000  0.000000  1
  Nd  Nd1  1  0.000000  0.000000  0.500000  1
  Ho  Ho2  1  0.000000  0.000000  0.250872  1
  Ho  Ho3  1  0.000000  0.000000  0.749128  1
  As  As4  1  0.333333  0.666667  0.885367  1
  As  As5  1  0.666667  0.333333  0.114633  1
  As  As6  1  0.666667  0.333333  0.382050  1
  As  As7  1  0.333333  0.666667  0.617950  1
  Pt  Pt8  1  0.333333  0.666667  0.354808  1
  Pt  Pt9  1  0.666667  0.333333  0.645192  1
  Pt  Pt10  1  0.666667  0.333333  0.857833  1
  Pt  Pt11  1  0.333333  0.666667  0.142167  1
