# generated using pymatgen
data_Nb12Al8CN3
_symmetry_space_group_name_H-M   'P 1'
_cell_length_a   7.08921651
_cell_length_b   7.08921651
_cell_length_c   7.08921651
_cell_angle_alpha   90.10098173
_cell_angle_beta   90.10098173
_cell_angle_gamma   90.10098173
_symmetry_Int_Tables_number   1
_chemical_formula_structural   Nb12Al8CN3
_chemical_formula_sum   'Nb12 Al8 C1 N3'
_cell_volume   356.28102639
_cell_formula_units_Z   1
loop_
 _symmetry_equiv_pos_site_id
 _symmetry_equiv_pos_as_xyz
  1  'x, y, z'
loop_
 _atom_site_type_symbol
 _atom_site_label
 _atom_site_symmetry_multiplicity
 _atom_site_fract_x
 _atom_site_fract_y
 _atom_site_fract_z
 _atom_site_occupancy
  Nb  Nb0  1  0.794622  0.955378  0.375000  1
  Nb  Nb1  1  0.705299  0.044701  0.875000  1
  Nb  Nb2  1  0.204272  0.455486  0.123745  1
  Nb  Nb3  1  0.294514  0.545728  0.626255  1
  Nb  Nb4  1  0.955378  0.375000  0.794622  1
  Nb  Nb5  1  0.044701  0.875000  0.705299  1
  Nb  Nb6  1  0.455486  0.123745  0.204272  1
  Nb  Nb7  1  0.545728  0.626255  0.294514  1
  Nb  Nb8  1  0.375000  0.794622  0.955378  1
  Nb  Nb9  1  0.875000  0.705299  0.044701  1
  Nb  Nb10  1  0.123745  0.204272  0.455486  1
  Nb  Nb11  1  0.626255  0.294514  0.545728  1
  Al  Al12  1  0.179237  0.820562  0.321498  1
  Al  Al13  1  0.321498  0.179237  0.820562  1
  Al  Al14  1  0.820562  0.321498  0.179237  1
  Al  Al15  1  0.678931  0.678931  0.678931  1
  Al  Al16  1  0.570763  0.428502  0.929438  1
  Al  Al17  1  0.428502  0.929438  0.570763  1
  Al  Al18  1  0.929438  0.570763  0.428502  1
  Al  Al19  1  0.071069  0.071069  0.071069  1
  C  C20  1  0.375000  0.375000  0.375000  1
  N  N21  1  0.875000  0.123133  0.626867  1
  N  N22  1  0.626867  0.875000  0.123133  1
  N  N23  1  0.123133  0.626867  0.875000  1
