# generated using pymatgen
data_Dy16Cd3Ni4Ag
_symmetry_space_group_name_H-M   'P 1'
_cell_length_a   9.53574439
_cell_length_b   9.53626294
_cell_length_c   9.53574500
_cell_angle_alpha   60.00180011
_cell_angle_beta   60.00000136
_cell_angle_gamma   60.00180166
_symmetry_Int_Tables_number   1
_chemical_formula_structural   Dy16Cd3Ni4Ag
_chemical_formula_sum   'Dy16 Cd3 Ni4 Ag1'
_cell_volume   613.17476747
_cell_formula_units_Z   1
loop_
 _symmetry_equiv_pos_site_id
 _symmetry_equiv_pos_as_xyz
  1  'x, y, z'
loop_
 _atom_site_type_symbol
 _atom_site_label
 _atom_site_symmetry_multiplicity
 _atom_site_fract_x
 _atom_site_fract_y
 _atom_site_fract_z
 _atom_site_occupancy
  Dy  Dy0  1  0.152411  0.542766  0.152411  1
  Dy  Dy1  1  0.688797  0.311048  0.688797  1
  Dy  Dy2  1  0.688797  0.311048  0.311358  1
  Dy  Dy3  1  0.935318  0.561575  0.567788  1
  Dy  Dy4  1  0.543674  0.152206  0.152059  1
  Dy  Dy5  1  0.152059  0.152206  0.543674  1
  Dy  Dy6  1  0.935352  0.933686  0.565481  1
  Dy  Dy7  1  0.311074  0.688884  0.311074  1
  Dy  Dy8  1  0.565481  0.933686  0.935352  1
  Dy  Dy9  1  0.565481  0.933686  0.565481  1
  Dy  Dy10  1  0.688967  0.688884  0.311074  1
  Dy  Dy11  1  0.567788  0.561575  0.935318  1
  Dy  Dy12  1  0.935318  0.561575  0.935318  1
  Dy  Dy13  1  0.311074  0.688884  0.688967  1
  Dy  Dy14  1  0.152059  0.152206  0.152059  1
  Dy  Dy15  1  0.311358  0.311048  0.688797  1
  Cd  Cd16  1  0.918195  0.921234  0.918195  1
  Cd  Cd17  1  0.918195  0.921234  0.242376  1
  Cd  Cd18  1  0.242376  0.921234  0.918195  1
  Ni  Ni19  1  0.357994  0.358320  0.925692  1
  Ni  Ni20  1  0.358360  0.924922  0.358360  1
  Ni  Ni21  1  0.925692  0.358320  0.357994  1
  Ni  Ni22  1  0.357994  0.358320  0.357994  1
  Ag  Ag23  1  0.916183  0.251450  0.916183  1
