# generated using pymatgen
data_Tb4Ho4Re3RuC8
_symmetry_space_group_name_H-M   'P 1'
_cell_length_a   5.12104100
_cell_length_b   6.56276004
_cell_length_c   9.83028820
_cell_angle_alpha   90.08878128
_cell_angle_beta   90.00000000
_cell_angle_gamma   90.00000000
_symmetry_Int_Tables_number   1
_chemical_formula_structural   Tb4Ho4Re3RuC8
_chemical_formula_sum   'Tb4 Ho4 Re3 Ru1 C8'
_cell_volume   330.37753349
_cell_formula_units_Z   1
loop_
 _symmetry_equiv_pos_site_id
 _symmetry_equiv_pos_as_xyz
  1  'x, y, z'
loop_
 _atom_site_type_symbol
 _atom_site_label
 _atom_site_symmetry_multiplicity
 _atom_site_fract_x
 _atom_site_fract_y
 _atom_site_fract_z
 _atom_site_occupancy
  Tb  Tb0  1  0.250000  0.467820  0.784925  1
  Tb  Tb1  1  0.750000  0.033136  0.284932  1
  Tb  Tb2  1  0.250000  0.968645  0.716464  1
  Tb  Tb3  1  0.750000  0.530991  0.213046  1
  Ho  Ho4  1  0.250000  0.825914  0.055300  1
  Ho  Ho5  1  0.750000  0.678487  0.556642  1
  Ho  Ho6  1  0.250000  0.320742  0.442910  1
  Ho  Ho7  1  0.750000  0.178521  0.942693  1
  Re  Re8  1  0.750000  0.220826  0.632883  1
  Re  Re9  1  0.250000  0.779813  0.365728  1
  Re  Re10  1  0.750000  0.721131  0.866638  1
  Ru  Ru11  1  0.250000  0.279089  0.134246  1
  C  C12  1  0.250000  0.172833  0.951169  1
  C  C13  1  0.750000  0.823593  0.051261  1
  C  C14  1  0.250000  0.674896  0.549703  1
  C  C15  1  0.750000  0.323823  0.448888  1
  C  C16  1  0.250000  0.044956  0.259884  1
  C  C17  1  0.750000  0.453916  0.759043  1
  C  C18  1  0.250000  0.547525  0.243117  1
  C  C19  1  0.750000  0.953340  0.740530  1
