# generated using pymatgen
data_Tb15NdCd4TcNi3
_symmetry_space_group_name_H-M   'P 1'
_cell_length_a   9.66489726
_cell_length_b   9.66489846
_cell_length_c   9.66428101
_cell_angle_alpha   59.45973390
_cell_angle_beta   59.45973225
_cell_angle_gamma   59.34964687
_symmetry_Int_Tables_number   1
_chemical_formula_structural   Tb15NdCd4TcNi3
_chemical_formula_sum   'Tb15 Nd1 Cd4 Tc1 Ni3'
_cell_volume   629.95412701
_cell_formula_units_Z   1
loop_
 _symmetry_equiv_pos_site_id
 _symmetry_equiv_pos_as_xyz
  1  'x, y, z'
loop_
 _atom_site_type_symbol
 _atom_site_label
 _atom_site_symmetry_multiplicity
 _atom_site_fract_x
 _atom_site_fract_y
 _atom_site_fract_z
 _atom_site_occupancy
  Tb  Tb0  1  0.597813  0.597813  0.598227  1
  Tb  Tb1  1  0.601325  0.601325  0.205349  1
  Tb  Tb2  1  0.602247  0.205683  0.599847  1
  Tb  Tb3  1  0.205683  0.602247  0.599847  1
  Tb  Tb4  1  0.060193  0.438516  0.436358  1
  Tb  Tb5  1  0.437929  0.060238  0.060947  1
  Tb  Tb6  1  0.438516  0.060193  0.436358  1
  Tb  Tb7  1  0.060238  0.437929  0.060947  1
  Tb  Tb8  1  0.437747  0.437747  0.060862  1
  Tb  Tb9  1  0.060364  0.060364  0.436434  1
  Tb  Tb10  1  0.185804  0.813296  0.815764  1
  Tb  Tb11  1  0.803519  0.189191  0.190513  1
  Tb  Tb12  1  0.813296  0.185804  0.815764  1
  Tb  Tb13  1  0.189191  0.803519  0.190513  1
  Tb  Tb14  1  0.815200  0.815200  0.186428  1
  Nd  Nd15  1  0.187843  0.187843  0.807145  1
  Cd  Cd16  1  0.830469  0.830469  0.830050  1
  Cd  Cd17  1  0.830279  0.830279  0.505144  1
  Cd  Cd18  1  0.827661  0.507891  0.830114  1
  Cd  Cd19  1  0.507891  0.827661  0.830114  1
  Tc  Tc20  1  0.394282  0.394282  0.390470  1
  Ni  Ni21  1  0.393725  0.393725  0.826153  1
  Ni  Ni22  1  0.393111  0.825672  0.393325  1
  Ni  Ni23  1  0.825672  0.393111  0.393325  1
