# generated using pymatgen
data_NaPr4Sm2CoI12
_symmetry_space_group_name_H-M   'P 1'
_cell_length_a   9.94892776
_cell_length_b   9.96274499
_cell_length_c   10.05138858
_cell_angle_alpha   106.62059937
_cell_angle_beta   107.18582554
_cell_angle_gamma   106.97614143
_symmetry_Int_Tables_number   1
_chemical_formula_structural   NaPr4Sm2CoI12
_chemical_formula_sum   'Na1 Pr4 Sm2 Co1 I12'
_cell_volume   831.33038575
_cell_formula_units_Z   1
loop_
 _symmetry_equiv_pos_site_id
 _symmetry_equiv_pos_as_xyz
  1  'x, y, z'
loop_
 _atom_site_type_symbol
 _atom_site_label
 _atom_site_symmetry_multiplicity
 _atom_site_fract_x
 _atom_site_fract_y
 _atom_site_fract_z
 _atom_site_occupancy
  Na  Na0  1  0.500000  0.500000  0.500000  1
  Pr  Pr1  1  0.099320  0.298307  0.027753  1
  Pr  Pr2  1  0.299698  0.028541  0.099593  1
  Pr  Pr3  1  0.900680  0.701693  0.972247  1
  Pr  Pr4  1  0.700302  0.971459  0.900407  1
  Sm  Sm5  1  0.970268  0.896651  0.689746  1
  Sm  Sm6  1  0.029732  0.103349  0.310254  1
  Co  Co7  1  0.000000  0.000000  0.000000  1
  I  I8  1  0.541520  0.621825  0.851217  1
  I  I9  1  0.458480  0.378175  0.148783  1
  I  I10  1  0.314515  0.924502  0.772613  1
  I  I11  1  0.372763  0.146911  0.454885  1
  I  I12  1  0.926307  0.777868  0.320714  1
  I  I13  1  0.685485  0.075498  0.227387  1
  I  I14  1  0.073693  0.222132  0.679286  1
  I  I15  1  0.771498  0.318841  0.924021  1
  I  I16  1  0.228502  0.681159  0.075979  1
  I  I17  1  0.854404  0.548386  0.624756  1
  I  I18  1  0.145596  0.451614  0.375244  1
  I  I19  1  0.627237  0.853089  0.545115  1
