# generated using pymatgen
data_Pr3Si6(Pd4Rh)4
_symmetry_space_group_name_H-M   'P 1'
_cell_length_a   8.76190340
_cell_length_b   8.79151880
_cell_length_c   8.79151912
_cell_angle_alpha   59.75925893
_cell_angle_beta   59.64647674
_cell_angle_gamma   59.64648004
_symmetry_Int_Tables_number   1
_chemical_formula_structural   Pr3Si6(Pd4Rh)4
_chemical_formula_sum   'Pr3 Si6 Pd16 Rh4'
_cell_volume   475.42498646
_cell_formula_units_Z   1
loop_
 _symmetry_equiv_pos_site_id
 _symmetry_equiv_pos_as_xyz
  1  'x, y, z'
loop_
 _atom_site_type_symbol
 _atom_site_label
 _atom_site_symmetry_multiplicity
 _atom_site_fract_x
 _atom_site_fract_y
 _atom_site_fract_z
 _atom_site_occupancy
  Pr  Pr0  1  0.255580  0.247856  0.247856  1
  Pr  Pr1  1  0.748070  0.748018  0.748018  1
  Pr  Pr2  1  0.000550  0.999508  0.999508  1
  Si  Si3  1  0.725257  0.271522  0.271522  1
  Si  Si4  1  0.279084  0.724041  0.724041  1
  Si  Si5  1  0.273988  0.726119  0.273790  1
  Si  Si6  1  0.723018  0.276633  0.729683  1
  Si  Si7  1  0.273988  0.273790  0.726119  1
  Si  Si8  1  0.723018  0.729683  0.276633  1
  Pd  Pd9  1  0.617737  0.614547  0.153893  1
  Pd  Pd10  1  0.617737  0.153893  0.614547  1
  Pd  Pd11  1  0.843957  0.384514  0.384514  1
  Pd  Pd12  1  0.153353  0.615825  0.615825  1
  Pd  Pd13  1  0.343180  0.001257  0.001257  1
  Pd  Pd14  1  0.655269  0.999882  0.999882  1
  Pd  Pd15  1  0.000013  0.344751  0.655386  1
  Pd  Pd16  1  0.000013  0.655386  0.344751  1
  Pd  Pd17  1  0.999707  0.344882  0.001172  1
  Pd  Pd18  1  0.655237  0.000359  0.344976  1
  Pd  Pd19  1  0.999148  0.655404  0.000727  1
  Pd  Pd20  1  0.343315  0.001139  0.655212  1
  Pd  Pd21  1  0.999707  0.001172  0.344882  1
  Pd  Pd22  1  0.999148  0.000727  0.655404  1
  Pd  Pd23  1  0.655237  0.344976  0.000359  1
  Pd  Pd24  1  0.343315  0.655212  0.001139  1
  Rh  Rh25  1  0.385103  0.385490  0.385490  1
  Rh  Rh26  1  0.618333  0.614678  0.614678  1
  Rh  Rh27  1  0.383969  0.384548  0.844189  1
  Rh  Rh28  1  0.383969  0.844189  0.384548  1
