# generated using pymatgen
data_LaSm(AuCl6)2
_symmetry_space_group_name_H-M   'P 1'
_cell_length_a   7.76322282
_cell_length_b   10.14983342
_cell_length_c   14.50721000
_cell_angle_alpha   103.58809260
_cell_angle_beta   96.47600931
_cell_angle_gamma   111.99773574
_symmetry_Int_Tables_number   1
_chemical_formula_structural   LaSm(AuCl6)2
_chemical_formula_sum   'La2 Sm2 Au4 Cl24'
_cell_volume   1004.32309044
_cell_formula_units_Z   2
loop_
 _symmetry_equiv_pos_site_id
 _symmetry_equiv_pos_as_xyz
  1  'x, y, z'
loop_
 _atom_site_type_symbol
 _atom_site_label
 _atom_site_symmetry_multiplicity
 _atom_site_fract_x
 _atom_site_fract_y
 _atom_site_fract_z
 _atom_site_occupancy
  La  La0  1  0.581085  0.926385  0.621935  1
  La  La1  1  0.027535  0.687000  0.128316  1
  Sm  Sm2  1  0.420464  0.075784  0.378042  1
  Sm  Sm3  1  0.973246  0.313381  0.871848  1
  Au  Au4  1  0.293005  0.632141  0.764342  1
  Au  Au5  1  0.499584  0.498748  0.499492  1
  Au  Au6  1  0.705224  0.366021  0.236822  1
  Au  Au7  1  0.999943  0.001111  0.999275  1
  Cl  Cl8  1  0.779393  0.098378  0.969335  1
  Cl  Cl9  1  0.720740  0.153721  0.262618  1
  Cl  Cl10  1  0.274396  0.844840  0.739626  1
  Cl  Cl11  1  0.769052  0.797187  0.026675  1
  Cl  Cl12  1  0.619721  0.196229  0.747519  1
  Cl  Cl13  1  0.306479  0.415858  0.785498  1
  Cl  Cl14  1  0.686555  0.581388  0.215887  1
  Cl  Cl15  1  0.298217  0.620144  0.497955  1
  Cl  Cl16  1  0.227436  0.205947  0.971981  1
  Cl  Cl17  1  0.757695  0.724396  0.522620  1
  Cl  Cl18  1  0.224787  0.906776  0.028241  1
  Cl  Cl19  1  0.726401  0.052032  0.480318  1
  Cl  Cl20  1  0.606893  0.725177  0.747756  1
  Cl  Cl21  1  0.956798  0.063604  0.734425  1
  Cl  Cl22  1  0.244727  0.272079  0.475485  1
  Cl  Cl23  1  0.389694  0.812983  0.258112  1
  Cl  Cl24  1  0.978594  0.538417  0.779117  1
  Cl  Cl25  1  0.761240  0.432165  0.976121  1
  Cl  Cl26  1  0.237556  0.559110  0.018635  1
  Cl  Cl27  1  0.020918  0.456298  0.222856  1
  Cl  Cl28  1  0.392861  0.270929  0.254584  1
  Cl  Cl29  1  0.271050  0.952270  0.513500  1
  Cl  Cl30  1  0.695668  0.373080  0.499283  1
  Cl  Cl31  1  0.053042  0.946424  0.271784  1
