# generated using pymatgen
data_LuNp(TcB4)2
_symmetry_space_group_name_H-M   'P 1'
_cell_length_a   3.56594500
_cell_length_b   5.92223316
_cell_length_c   11.42935526
_cell_angle_alpha   89.92817459
_cell_angle_beta   90.00000000
_cell_angle_gamma   90.00000000
_symmetry_Int_Tables_number   1
_chemical_formula_structural   LuNp(TcB4)2
_chemical_formula_sum   'Lu2 Np2 Tc4 B16'
_cell_volume   241.36902312
_cell_formula_units_Z   2
loop_
 _symmetry_equiv_pos_site_id
 _symmetry_equiv_pos_as_xyz
  1  'x, y, z'
loop_
 _atom_site_type_symbol
 _atom_site_label
 _atom_site_symmetry_multiplicity
 _atom_site_fract_x
 _atom_site_fract_y
 _atom_site_fract_z
 _atom_site_occupancy
  Lu  Lu0  1  0.500000  0.127369  0.648515  1
  Lu  Lu1  1  0.500000  0.872631  0.351485  1
  Np  Np2  1  0.500000  0.372686  0.151080  1
  Np  Np3  1  0.500000  0.627314  0.848920  1
  Tc  Tc4  1  0.500000  0.363414  0.408510  1
  Tc  Tc5  1  0.500000  0.636586  0.591490  1
  Tc  Tc6  1  0.500000  0.140677  0.909000  1
  Tc  Tc7  1  0.500000  0.859323  0.091000  1
  B  B8  1  0.000000  0.115505  0.047968  1
  B  B9  1  0.000000  0.884495  0.952032  1
  B  B10  1  0.000000  0.385596  0.547263  1
  B  B11  1  0.000000  0.614404  0.452737  1
  B  B12  1  0.000000  0.134899  0.469082  1
  B  B13  1  0.000000  0.865101  0.530918  1
  B  B14  1  0.000000  0.368813  0.968519  1
  B  B15  1  0.000000  0.631187  0.031481  1
  B  B16  1  0.000000  0.025443  0.193098  1
  B  B17  1  0.000000  0.974557  0.806902  1
  B  B18  1  0.000000  0.477767  0.693481  1
  B  B19  1  0.000000  0.522233  0.306519  1
  B  B20  1  0.000000  0.210343  0.312671  1
  B  B21  1  0.000000  0.789657  0.687329  1
  B  B22  1  0.000000  0.292660  0.813276  1
  B  B23  1  0.000000  0.707340  0.186724  1
