# generated using pymatgen
data_DyTm2Pa(ReB6)2
_symmetry_space_group_name_H-M   'P 1'
_cell_length_a   3.68259700
_cell_length_b   9.12797450
_cell_length_c   11.50327105
_cell_angle_alpha   90.30226194
_cell_angle_beta   90.00000000
_cell_angle_gamma   90.00000000
_symmetry_Int_Tables_number   1
_chemical_formula_structural   DyTm2Pa(ReB6)2
_chemical_formula_sum   'Dy2 Tm4 Pa2 Re4 B24'
_cell_volume   386.67306674
_cell_formula_units_Z   2
loop_
 _symmetry_equiv_pos_site_id
 _symmetry_equiv_pos_as_xyz
  1  'x, y, z'
loop_
 _atom_site_type_symbol
 _atom_site_label
 _atom_site_symmetry_multiplicity
 _atom_site_fract_x
 _atom_site_fract_y
 _atom_site_fract_z
 _atom_site_occupancy
  Dy  Dy0  1  0.000000  0.823404  0.085689  1
  Dy  Dy1  1  0.000000  0.176596  0.914311  1
  Tm  Tm2  1  0.000000  0.944817  0.372433  1
  Tm  Tm3  1  0.000000  0.055183  0.627567  1
  Tm  Tm4  1  0.000000  0.443814  0.126413  1
  Tm  Tm5  1  0.000000  0.556186  0.873587  1
  Pa  Pa6  1  0.000000  0.321003  0.413216  1
  Pa  Pa7  1  0.000000  0.678997  0.586784  1
  Re  Re8  1  0.000000  0.635624  0.324087  1
  Re  Re9  1  0.000000  0.364376  0.675913  1
  Re  Re10  1  0.000000  0.140721  0.181954  1
  Re  Re11  1  0.000000  0.859279  0.818046  1
  B  B12  1  0.500000  0.553769  0.432795  1
  B  B13  1  0.500000  0.446231  0.567205  1
  B  B14  1  0.500000  0.053550  0.067388  1
  B  B15  1  0.500000  0.946450  0.932612  1
  B  B16  1  0.500000  0.749337  0.419348  1
  B  B17  1  0.500000  0.250663  0.580652  1
  B  B18  1  0.500000  0.248742  0.080289  1
  B  B19  1  0.500000  0.751258  0.919711  1
  B  B20  1  0.500000  0.791910  0.265322  1
  B  B21  1  0.500000  0.208090  0.734678  1
  B  B22  1  0.500000  0.292340  0.233750  1
  B  B23  1  0.500000  0.707660  0.766250  1
  B  B24  1  0.500000  0.630870  0.184973  1
  B  B25  1  0.500000  0.369130  0.815027  1
  B  B26  1  0.500000  0.131370  0.314389  1
  B  B27  1  0.500000  0.868630  0.685611  1
  B  B28  1  0.500000  0.981856  0.212404  1
  B  B29  1  0.500000  0.018144  0.787596  1
  B  B30  1  0.500000  0.482589  0.286118  1
  B  B31  1  0.500000  0.517411  0.713882  1
  B  B32  1  0.500000  0.603118  0.028787  1
  B  B33  1  0.500000  0.396882  0.971213  1
  B  B34  1  0.500000  0.107516  0.470260  1
  B  B35  1  0.500000  0.892484  0.529740  1
