# generated using pymatgen
data_Y5Zr3(Ta3Ge4)4
_symmetry_space_group_name_H-M   'P 1'
_cell_length_a   7.12909044
_cell_length_b   7.13083067
_cell_length_c   13.16833100
_cell_angle_alpha   89.95022356
_cell_angle_beta   90.08814874
_cell_angle_gamma   90.08024108
_symmetry_Int_Tables_number   1
_chemical_formula_structural   Y5Zr3(Ta3Ge4)4
_chemical_formula_sum   'Y5 Zr3 Ta12 Ge16'
_cell_volume   669.42800894
_cell_formula_units_Z   1
loop_
 _symmetry_equiv_pos_site_id
 _symmetry_equiv_pos_as_xyz
  1  'x, y, z'
loop_
 _atom_site_type_symbol
 _atom_site_label
 _atom_site_symmetry_multiplicity
 _atom_site_fract_x
 _atom_site_fract_y
 _atom_site_fract_z
 _atom_site_occupancy
  Y  Y0  1  0.999627  0.659066  0.029090  1
  Y  Y1  1  0.001659  0.338349  0.528443  1
  Y  Y2  1  0.660991  0.000013  0.972276  1
  Y  Y3  1  0.162649  0.501058  0.776786  1
  Y  Y4  1  0.837981  0.499044  0.279036  1
  Zr  Zr5  1  0.493979  0.158803  0.223970  1
  Zr  Zr6  1  0.506632  0.842581  0.721688  1
  Zr  Zr7  1  0.342104  0.994355  0.472956  1
  Ta  Ta8  1  0.343913  0.509157  0.376266  1
  Ta  Ta9  1  0.840862  0.997521  0.372822  1
  Ta  Ta10  1  0.009339  0.158416  0.128005  1
  Ta  Ta11  1  0.992552  0.844111  0.625009  1
  Ta  Ta12  1  0.654696  0.492094  0.874765  1
  Ta  Ta13  1  0.503058  0.340966  0.621742  1
  Ta  Ta14  1  0.494025  0.658089  0.124337  1
  Ta  Ta15  1  0.159121  0.004228  0.871639  1
  Ta  Ta16  1  0.665623  0.672307  0.499796  1
  Ta  Ta17  1  0.829367  0.165171  0.748558  1
  Ta  Ta18  1  0.171117  0.835287  0.251458  1
  Ta  Ta19  1  0.331417  0.330022  0.999920  1
  Ge  Ge20  1  0.038561  0.708118  0.433676  1
  Ge  Ge21  1  0.962885  0.293596  0.933084  1
  Ge  Ge22  1  0.700474  0.037383  0.566194  1
  Ge  Ge23  1  0.206514  0.461707  0.184385  1
  Ge  Ge24  1  0.792745  0.537506  0.682712  1
  Ge  Ge25  1  0.462790  0.200591  0.815486  1
  Ge  Ge26  1  0.536871  0.800588  0.316732  1
  Ge  Ge27  1  0.296811  0.964083  0.067718  1
  Ge  Ge28  1  0.866264  0.798815  0.821598  1
  Ge  Ge29  1  0.137907  0.198813  0.326187  1
  Ge  Ge30  1  0.797732  0.872008  0.177279  1
  Ge  Ge31  1  0.302700  0.637619  0.575429  1
  Ge  Ge32  1  0.695940  0.365050  0.076155  1
  Ge  Ge33  1  0.626886  0.295677  0.424663  1
  Ge  Ge34  1  0.369026  0.700576  0.925670  1
  Ge  Ge35  1  0.205181  0.127231  0.674472  1
