# generated using pymatgen
data_Eu3C3Cl2
_symmetry_space_group_name_H-M   'P 1'
_cell_length_a   7.37501830
_cell_length_b   7.37501758
_cell_length_c   11.79329500
_cell_angle_alpha   90.00000000
_cell_angle_beta   90.00000000
_cell_angle_gamma   148.66371049
_symmetry_Int_Tables_number   1
_chemical_formula_structural   Eu3C3Cl2
_chemical_formula_sum   'Eu6 C6 Cl4'
_cell_volume   333.59147276
_cell_formula_units_Z   2
loop_
 _symmetry_equiv_pos_site_id
 _symmetry_equiv_pos_as_xyz
  1  'x, y, z'
loop_
 _atom_site_type_symbol
 _atom_site_label
 _atom_site_symmetry_multiplicity
 _atom_site_fract_x
 _atom_site_fract_y
 _atom_site_fract_z
 _atom_site_occupancy
  Eu  Eu0  1  0.656938  0.343062  0.560261  1
  Eu  Eu1  1  0.343062  0.656938  0.439739  1
  Eu  Eu2  1  0.343062  0.656938  0.060261  1
  Eu  Eu3  1  0.656938  0.343062  0.939739  1
  Eu  Eu4  1  0.123823  0.876177  0.250000  1
  Eu  Eu5  1  0.876177  0.123823  0.750000  1
  C  C6  1  0.267366  0.732634  0.636999  1
  C  C7  1  0.732634  0.267366  0.363001  1
  C  C8  1  0.732634  0.267366  0.136999  1
  C  C9  1  0.267366  0.732634  0.863001  1
  C  C10  1  0.743335  0.256665  0.250000  1
  C  C11  1  0.256665  0.743335  0.750000  1
  Cl  Cl12  1  0.527232  0.472768  0.750000  1
  Cl  Cl13  1  0.472768  0.527232  0.250000  1
  Cl  Cl14  1  0.000000  0.000000  0.000000  1
  Cl  Cl15  1  0.000000  0.000000  0.500000  1
