# generated using pymatgen
data_SrY(Si2Rh3)2
_symmetry_space_group_name_H-M   'P 1'
_cell_length_a   6.69824572
_cell_length_b   6.69824516
_cell_length_c   6.69824452
_cell_angle_alpha   130.13859970
_cell_angle_beta   115.46619200
_cell_angle_gamma   85.72077047
_symmetry_Int_Tables_number   1
_chemical_formula_structural   SrY(Si2Rh3)2
_chemical_formula_sum   'Sr1 Y1 Si4 Rh6'
_cell_volume   198.29220870
_cell_formula_units_Z   1
loop_
 _symmetry_equiv_pos_site_id
 _symmetry_equiv_pos_as_xyz
  1  'x, y, z'
loop_
 _atom_site_type_symbol
 _atom_site_label
 _atom_site_symmetry_multiplicity
 _atom_site_fract_x
 _atom_site_fract_y
 _atom_site_fract_z
 _atom_site_occupancy
  Sr  Sr0  1  0.250000  0.530392  0.280392  1
  Y  Y1  1  0.750000  0.451167  0.701167  1
  Si  Si2  1  0.080207  0.880609  0.800403  1
  Si  Si3  1  0.924111  0.119524  0.195413  1
  Si  Si4  1  0.575889  0.771302  0.195413  1
  Si  Si5  1  0.419793  0.220196  0.800403  1
  Rh  Rh6  1  0.719532  0.009280  0.721212  1
  Rh  Rh7  1  0.211932  0.501679  0.721212  1
  Rh  Rh8  1  0.288068  0.009280  0.289748  1
  Rh  Rh9  1  0.780468  0.501679  0.289748  1
  Rh  Rh10  1  0.991094  0.002446  0.493540  1
  Rh  Rh11  1  0.508906  0.002446  0.011353  1
