# generated using pymatgen
data_HoEr3Cu2(Si2Ru)2
_symmetry_space_group_name_H-M   'P 1'
_cell_length_a   4.20621500
_cell_length_b   6.91772723
_cell_length_c   7.34031319
_cell_angle_alpha   91.30409956
_cell_angle_beta   90.00000000
_cell_angle_gamma   90.00000000
_symmetry_Int_Tables_number   1
_chemical_formula_structural   HoEr3Cu2(Si2Ru)2
_chemical_formula_sum   'Ho1 Er3 Cu2 Si4 Ru2'
_cell_volume   213.52905972
_cell_formula_units_Z   1
loop_
 _symmetry_equiv_pos_site_id
 _symmetry_equiv_pos_as_xyz
  1  'x, y, z'
loop_
 _atom_site_type_symbol
 _atom_site_label
 _atom_site_symmetry_multiplicity
 _atom_site_fract_x
 _atom_site_fract_y
 _atom_site_fract_z
 _atom_site_occupancy
  Ho  Ho0  1  0.250000  0.993949  0.797277  1
  Er  Er1  1  0.750000  0.005783  0.202889  1
  Er  Er2  1  0.250000  0.493386  0.689221  1
  Er  Er3  1  0.750000  0.506638  0.310829  1
  Cu  Cu4  1  0.750000  0.829506  0.572576  1
  Cu  Cu5  1  0.250000  0.171861  0.426978  1
  Si  Si6  1  0.250000  0.297243  0.091607  1
  Si  Si7  1  0.750000  0.702093  0.909206  1
  Si  Si8  1  0.250000  0.795246  0.389798  1
  Si  Si9  1  0.750000  0.205046  0.609315  1
  Ru  Ru10  1  0.750000  0.346207  0.934653  1
  Ru  Ru11  1  0.250000  0.653040  0.065650  1
