# generated using pymatgen
data_Ho4Zn2(OsRu)3
_symmetry_space_group_name_H-M   'P 1'
_cell_length_a   5.34443333
_cell_length_b   5.26614210
_cell_length_c   8.87932900
_cell_angle_alpha   90.00000000
_cell_angle_beta   90.00000000
_cell_angle_gamma   119.72323179
_symmetry_Int_Tables_number   1
_chemical_formula_structural   Ho4Zn2(OsRu)3
_chemical_formula_sum   'Ho4 Zn2 Os3 Ru3'
_cell_volume   217.02485662
_cell_formula_units_Z   1
loop_
 _symmetry_equiv_pos_site_id
 _symmetry_equiv_pos_as_xyz
  1  'x, y, z'
loop_
 _atom_site_type_symbol
 _atom_site_label
 _atom_site_symmetry_multiplicity
 _atom_site_fract_x
 _atom_site_fract_y
 _atom_site_fract_z
 _atom_site_occupancy
  Ho  Ho0  1  0.673795  0.336621  0.568667  1
  Ho  Ho1  1  0.341139  0.669895  0.440816  1
  Ho  Ho2  1  0.341139  0.669895  0.059184  1
  Ho  Ho3  1  0.673795  0.336621  0.931333  1
  Zn  Zn4  1  0.815813  0.653313  0.250000  1
  Zn  Zn5  1  0.816660  0.163547  0.250000  1
  Os  Os6  1  0.167986  0.335181  0.750000  1
  Os  Os7  1  0.165112  0.833345  0.750000  1
  Os  Os8  1  0.646776  0.822682  0.750000  1
  Ru  Ru9  1  0.021116  0.010555  0.499212  1
  Ru  Ru10  1  0.021116  0.010555  0.000788  1
  Ru  Ru11  1  0.315554  0.157790  0.250000  1
