# generated using pymatgen
data_SrVFe(Sb6Pt)2
_symmetry_space_group_name_H-M   'P 1'
_cell_length_a   8.13534330
_cell_length_b   8.21061421
_cell_length_c   8.19688350
_cell_angle_alpha   109.52851593
_cell_angle_beta   109.08521365
_cell_angle_gamma   109.31646965
_symmetry_Int_Tables_number   1
_chemical_formula_structural   SrVFe(Sb6Pt)2
_chemical_formula_sum   'Sr1 V1 Fe1 Sb12 Pt2'
_cell_volume   423.97277162
_cell_formula_units_Z   1
loop_
 _symmetry_equiv_pos_site_id
 _symmetry_equiv_pos_as_xyz
  1  'x, y, z'
loop_
 _atom_site_type_symbol
 _atom_site_label
 _atom_site_symmetry_multiplicity
 _atom_site_fract_x
 _atom_site_fract_y
 _atom_site_fract_z
 _atom_site_occupancy
  Sr  Sr0  1  0.000000  0.000000  0.000000  1
  V  V1  1  0.500000  0.000000  0.000000  1
  Fe  Fe2  1  0.500000  0.500000  0.500000  1
  Sb  Sb3  1  0.346247  0.186351  0.847452  1
  Sb  Sb4  1  0.653753  0.813649  0.152548  1
  Sb  Sb5  1  0.648470  0.501611  0.829954  1
  Sb  Sb6  1  0.351530  0.498389  0.170046  1
  Sb  Sb7  1  0.196704  0.847102  0.347397  1
  Sb  Sb8  1  0.803296  0.152898  0.652603  1
  Sb  Sb9  1  0.504942  0.830071  0.660212  1
  Sb  Sb10  1  0.495058  0.169929  0.339788  1
  Sb  Sb11  1  0.840558  0.338880  0.186587  1
  Sb  Sb12  1  0.159442  0.661120  0.813413  1
  Sb  Sb13  1  0.832448  0.650678  0.502330  1
  Sb  Sb14  1  0.167552  0.349322  0.497670  1
  Pt  Pt15  1  0.000000  0.000000  0.500000  1
  Pt  Pt16  1  0.000000  0.500000  0.000000  1
