# generated using pymatgen
data_Eu2TaNbAl2O10
_symmetry_space_group_name_H-M   'P 1'
_cell_length_a   5.75636574
_cell_length_b   5.73369644
_cell_length_c   7.54820514
_cell_angle_alpha   75.33293028
_cell_angle_beta   75.17122603
_cell_angle_gamma   105.56075726
_symmetry_Int_Tables_number   1
_chemical_formula_structural   Eu2TaNbAl2O10
_chemical_formula_sum   'Eu2 Ta1 Nb1 Al2 O10'
_cell_volume   217.70874051
_cell_formula_units_Z   1
loop_
 _symmetry_equiv_pos_site_id
 _symmetry_equiv_pos_as_xyz
  1  'x, y, z'
loop_
 _atom_site_type_symbol
 _atom_site_label
 _atom_site_symmetry_multiplicity
 _atom_site_fract_x
 _atom_site_fract_y
 _atom_site_fract_z
 _atom_site_occupancy
  Eu  Eu0  1  0.327921  0.669059  0.260174  1
  Eu  Eu1  1  0.672079  0.330941  0.739826  1
  Ta  Ta2  1  0.000000  0.000000  0.000000  1
  Nb  Nb3  1  0.000000  0.000000  0.500000  1
  Al  Al4  1  0.685813  0.317959  0.249835  1
  Al  Al5  1  0.314187  0.682041  0.750165  1
  O  O6  1  0.069302  0.937805  0.246932  1
  O  O7  1  0.930698  0.062195  0.753068  1
  O  O8  1  0.296761  0.885672  0.893360  1
  O  O9  1  0.110584  0.691414  0.607490  1
  O  O10  1  0.703239  0.114328  0.106640  1
  O  O11  1  0.889416  0.308586  0.392510  1
  O  O12  1  0.753277  0.637779  0.097967  1
  O  O13  1  0.367995  0.244683  0.407497  1
  O  O14  1  0.246723  0.362221  0.902033  1
  O  O15  1  0.632005  0.755317  0.592503  1
