# generated using pymatgen
data_Ho2Er10Tc3Ru
_symmetry_space_group_name_H-M   'P 1'
_cell_length_a   6.23274902
_cell_length_b   7.34873303
_cell_length_c   9.06051400
_cell_angle_alpha   90.00000000
_cell_angle_beta   90.00000000
_cell_angle_gamma   90.00889491
_symmetry_Int_Tables_number   1
_chemical_formula_structural   Ho2Er10Tc3Ru
_chemical_formula_sum   'Ho2 Er10 Tc3 Ru1'
_cell_volume   414.99698297
_cell_formula_units_Z   1
loop_
 _symmetry_equiv_pos_site_id
 _symmetry_equiv_pos_as_xyz
  1  'x, y, z'
loop_
 _atom_site_type_symbol
 _atom_site_label
 _atom_site_symmetry_multiplicity
 _atom_site_fract_x
 _atom_site_fract_y
 _atom_site_fract_z
 _atom_site_occupancy
  Ho  Ho0  1  0.130284  0.458932  0.750000  1
  Ho  Ho1  1  0.373984  0.958048  0.750000  1
  Er  Er2  1  0.336311  0.676654  0.062848  1
  Er  Er3  1  0.161298  0.175906  0.437876  1
  Er  Er4  1  0.661354  0.324076  0.562293  1
  Er  Er5  1  0.837739  0.823737  0.937979  1
  Er  Er6  1  0.661354  0.324076  0.937707  1
  Er  Er7  1  0.837739  0.823737  0.562021  1
  Er  Er8  1  0.336311  0.676654  0.437152  1
  Er  Er9  1  0.161298  0.175906  0.062124  1
  Er  Er10  1  0.873336  0.540280  0.250000  1
  Er  Er11  1  0.626928  0.039383  0.250000  1
  Tc  Tc12  1  0.041112  0.884386  0.250000  1
  Tc  Tc13  1  0.460534  0.386382  0.250000  1
  Tc  Tc14  1  0.960331  0.115716  0.750000  1
  Ru  Ru15  1  0.540088  0.616127  0.750000  1
