# generated using pymatgen
data_Sr2Fe2RhN3
_symmetry_space_group_name_H-M   'P 1'
_cell_length_a   6.50931264
_cell_length_b   6.50931334
_cell_length_c   6.55091200
_cell_angle_alpha   88.89951727
_cell_angle_beta   88.89951715
_cell_angle_gamma   119.69714095
_symmetry_Int_Tables_number   1
_chemical_formula_structural   Sr2Fe2RhN3
_chemical_formula_sum   'Sr4 Fe4 Rh2 N6'
_cell_volume   240.93633667
_cell_formula_units_Z   2
loop_
 _symmetry_equiv_pos_site_id
 _symmetry_equiv_pos_as_xyz
  1  'x, y, z'
loop_
 _atom_site_type_symbol
 _atom_site_label
 _atom_site_symmetry_multiplicity
 _atom_site_fract_x
 _atom_site_fract_y
 _atom_site_fract_z
 _atom_site_occupancy
  Sr  Sr0  1  0.830799  0.677742  0.896690  1
  Sr  Sr1  1  0.322258  0.169201  0.603310  1
  Sr  Sr2  1  0.169201  0.322258  0.103310  1
  Sr  Sr3  1  0.677742  0.830799  0.396690  1
  Fe  Fe4  1  0.566378  0.164650  0.103938  1
  Fe  Fe5  1  0.433622  0.835350  0.896062  1
  Fe  Fe6  1  0.835350  0.433622  0.396062  1
  Fe  Fe7  1  0.164650  0.566378  0.603938  1
  Rh  Rh8  1  0.812206  0.187794  0.750000  1
  Rh  Rh9  1  0.187794  0.812206  0.250000  1
  N  N10  1  0.406243  0.593757  0.750000  1
  N  N11  1  0.593757  0.406243  0.250000  1
  N  N12  1  0.005957  0.723584  0.517916  1
  N  N13  1  0.723584  0.005957  0.017916  1
  N  N14  1  0.994043  0.276416  0.482084  1
  N  N15  1  0.276416  0.994043  0.982084  1
