# generated using pymatgen
data_CsLi(LaSe2)2
_symmetry_space_group_name_H-M   'P 1'
_cell_length_a   4.48819900
_cell_length_b   7.83951412
_cell_length_c   15.17507000
_cell_angle_alpha   90.00000000
_cell_angle_beta   90.00000000
_cell_angle_gamma   73.36612792
_symmetry_Int_Tables_number   1
_chemical_formula_structural   CsLi(LaSe2)2
_chemical_formula_sum   'Cs2 Li2 La4 Se8'
_cell_volume   511.59589487
_cell_formula_units_Z   2
loop_
 _symmetry_equiv_pos_site_id
 _symmetry_equiv_pos_as_xyz
  1  'x, y, z'
loop_
 _atom_site_type_symbol
 _atom_site_label
 _atom_site_symmetry_multiplicity
 _atom_site_fract_x
 _atom_site_fract_y
 _atom_site_fract_z
 _atom_site_occupancy
  Cs  Cs0  1  0.894070  0.211860  0.250000  1
  Cs  Cs1  1  0.105930  0.788140  0.750000  1
  Li  Li2  1  0.165799  0.668400  0.250000  1
  Li  Li3  1  0.834201  0.331599  0.750000  1
  La  La4  1  0.634052  0.731897  0.059043  1
  La  La5  1  0.634052  0.731897  0.440957  1
  La  La6  1  0.365947  0.268104  0.559043  1
  La  La7  1  0.365947  0.268104  0.940957  1
  Se  Se8  1  0.000000  0.000000  0.000000  1
  Se  Se9  1  0.257141  0.485717  0.106849  1
  Se  Se10  1  0.585525  0.828952  0.250000  1
  Se  Se11  1  0.257141  0.485717  0.393151  1
  Se  Se12  1  0.000000  0.000000  0.500000  1
  Se  Se13  1  0.742859  0.514282  0.606848  1
  Se  Se14  1  0.414475  0.171049  0.750000  1
  Se  Se15  1  0.742859  0.514282  0.893151  1
