# generated using pymatgen
data_Dy2ErCo7(P3Rh)2
_symmetry_space_group_name_H-M   'P 1'
_cell_length_a   3.72000700
_cell_length_b   10.67468000
_cell_length_c   12.35399100
_cell_angle_alpha   90.00000000
_cell_angle_beta   90.00000000
_cell_angle_gamma   90.00000000
_symmetry_Int_Tables_number   1
_chemical_formula_structural   Dy2ErCo7(P3Rh)2
_chemical_formula_sum   'Dy4 Er2 Co14 P12 Rh4'
_cell_volume   490.57555353
_cell_formula_units_Z   2
loop_
 _symmetry_equiv_pos_site_id
 _symmetry_equiv_pos_as_xyz
  1  'x, y, z'
loop_
 _atom_site_type_symbol
 _atom_site_label
 _atom_site_symmetry_multiplicity
 _atom_site_fract_x
 _atom_site_fract_y
 _atom_site_fract_z
 _atom_site_occupancy
  Dy  Dy0  1  0.000000  0.500000  0.520437  1
  Dy  Dy1  1  0.500000  0.000000  0.479239  1
  Dy  Dy2  1  0.000000  0.686014  0.794303  1
  Dy  Dy3  1  0.000000  0.313986  0.794303  1
  Er  Er4  1  0.500000  0.814088  0.205745  1
  Er  Er5  1  0.500000  0.185912  0.205745  1
  Co  Co6  1  0.000000  0.500000  0.988776  1
  Co  Co7  1  0.500000  0.000000  0.012543  1
  Co  Co8  1  0.500000  0.331836  0.994299  1
  Co  Co9  1  0.500000  0.668164  0.994299  1
  Co  Co10  1  0.000000  0.167565  0.006831  1
  Co  Co11  1  0.000000  0.832435  0.006831  1
  Co  Co12  1  0.500000  0.300079  0.428933  1
  Co  Co13  1  0.500000  0.699921  0.428933  1
  Co  Co14  1  0.000000  0.199669  0.569970  1
  Co  Co15  1  0.000000  0.800331  0.569970  1
  Co  Co16  1  0.500000  0.880477  0.709729  1
  Co  Co17  1  0.500000  0.119523  0.709729  1
  Co  Co18  1  0.000000  0.620068  0.289686  1
  Co  Co19  1  0.000000  0.379932  0.289686  1
  P  P20  1  0.500000  0.500000  0.890454  1
  P  P21  1  0.000000  0.000000  0.110631  1
  P  P22  1  0.500000  0.500000  0.349683  1
  P  P23  1  0.000000  0.000000  0.650125  1
  P  P24  1  0.500000  0.301993  0.612956  1
  P  P25  1  0.500000  0.698007  0.612956  1
  P  P26  1  0.000000  0.197663  0.385953  1
  P  P27  1  0.000000  0.802337  0.385953  1
  P  P28  1  0.500000  0.844907  0.894840  1
  P  P29  1  0.500000  0.155093  0.894840  1
  P  P30  1  0.000000  0.656030  0.105927  1
  P  P31  1  0.000000  0.343970  0.105927  1
  Rh  Rh32  1  0.500000  0.500000  0.160040  1
  Rh  Rh33  1  0.000000  0.000000  0.840239  1
  Rh  Rh34  1  0.500000  0.500000  0.703491  1
  Rh  Rh35  1  0.000000  0.000000  0.296000  1
