# generated using pymatgen
data_RbI3Br10
_symmetry_space_group_name_H-M   'P 1'
_cell_length_a   11.14193556
_cell_length_b   11.14193537
_cell_length_c   10.84768929
_cell_angle_alpha   81.13245167
_cell_angle_beta   81.13245133
_cell_angle_gamma   92.11368269
_symmetry_Int_Tables_number   1
_chemical_formula_structural   RbI3Br10
_chemical_formula_sum   'Rb2 I6 Br20'
_cell_volume   1312.12261044
_cell_formula_units_Z   2
loop_
 _symmetry_equiv_pos_site_id
 _symmetry_equiv_pos_as_xyz
  1  'x, y, z'
loop_
 _atom_site_type_symbol
 _atom_site_label
 _atom_site_symmetry_multiplicity
 _atom_site_fract_x
 _atom_site_fract_y
 _atom_site_fract_z
 _atom_site_occupancy
  Rb  Rb0  1  0.769380  0.230620  0.000000  1
  Rb  Rb1  1  0.230620  0.769380  0.000000  1
  I  I2  1  0.446655  0.172279  0.348634  1
  I  I3  1  0.827721  0.553345  0.651366  1
  I  I4  1  0.172279  0.446655  0.348634  1
  I  I5  1  0.553345  0.827721  0.651366  1
  I  I6  1  0.190140  0.190140  0.090025  1
  I  I7  1  0.809860  0.809860  0.909975  1
  Br  Br8  1  0.347846  0.628578  0.253969  1
  Br  Br9  1  0.996451  0.996451  0.740263  1
  Br  Br10  1  0.003549  0.003549  0.259737  1
  Br  Br11  1  0.099351  0.099351  0.888948  1
  Br  Br12  1  0.450574  0.979420  0.794812  1
  Br  Br13  1  0.994292  0.733419  0.553117  1
  Br  Br14  1  0.652154  0.371422  0.746031  1
  Br  Br15  1  0.337625  0.337625  0.499864  1
  Br  Br16  1  0.266581  0.005708  0.446883  1
  Br  Br17  1  0.549426  0.020580  0.205188  1
  Br  Br18  1  0.371422  0.652154  0.746031  1
  Br  Br19  1  0.628578  0.347846  0.253969  1
  Br  Br20  1  0.648759  0.648759  0.037140  1
  Br  Br21  1  0.979420  0.450574  0.794812  1
  Br  Br22  1  0.900649  0.900649  0.111052  1
  Br  Br23  1  0.733418  0.994292  0.553117  1
  Br  Br24  1  0.351241  0.351241  0.962860  1
  Br  Br25  1  0.020580  0.549426  0.205188  1
  Br  Br26  1  0.662375  0.662375  0.500136  1
  Br  Br27  1  0.005708  0.266582  0.446883  1
