# generated using pymatgen
data_Ho2Tm2MoOsC4
_symmetry_space_group_name_H-M   'P 1'
_cell_length_a   5.04868200
_cell_length_b   6.56182632
_cell_length_c   9.81369485
_cell_angle_alpha   89.18936715
_cell_angle_beta   90.00000000
_cell_angle_gamma   90.00000000
_symmetry_Int_Tables_number   1
_chemical_formula_structural   Ho2Tm2MoOsC4
_chemical_formula_sum   'Ho4 Tm4 Mo2 Os2 C8'
_cell_volume   325.08118151
_cell_formula_units_Z   2
loop_
 _symmetry_equiv_pos_site_id
 _symmetry_equiv_pos_as_xyz
  1  'x, y, z'
loop_
 _atom_site_type_symbol
 _atom_site_label
 _atom_site_symmetry_multiplicity
 _atom_site_fract_x
 _atom_site_fract_y
 _atom_site_fract_z
 _atom_site_occupancy
  Ho  Ho0  1  0.250000  0.538882  0.218295  1
  Ho  Ho1  1  0.750000  0.461118  0.781705  1
  Ho  Ho2  1  0.750000  0.968098  0.715966  1
  Ho  Ho3  1  0.250000  0.031902  0.284034  1
  Tm  Tm4  1  0.250000  0.676036  0.558629  1
  Tm  Tm5  1  0.750000  0.323964  0.441371  1
  Tm  Tm6  1  0.750000  0.826723  0.058921  1
  Tm  Tm7  1  0.250000  0.173277  0.941079  1
  Mo  Mo8  1  0.250000  0.716072  0.868611  1
  Mo  Mo9  1  0.750000  0.283928  0.131389  1
  Os  Os10  1  0.750000  0.780143  0.367864  1
  Os  Os11  1  0.250000  0.219857  0.632136  1
  C  C12  1  0.250000  0.448178  0.757717  1
  C  C13  1  0.750000  0.551822  0.242283  1
  C  C14  1  0.750000  0.047525  0.260954  1
  C  C15  1  0.250000  0.952475  0.739046  1
  C  C16  1  0.250000  0.827341  0.053687  1
  C  C17  1  0.750000  0.172659  0.946313  1
  C  C18  1  0.750000  0.673747  0.550807  1
  C  C19  1  0.250000  0.326253  0.449193  1
