# generated using pymatgen
data_Ho8Sc2Ir5Au
_symmetry_space_group_name_H-M   'P 1'
_cell_length_a   10.88649227
_cell_length_b   10.84024300
_cell_length_c   6.25584521
_cell_angle_alpha   90.00000000
_cell_angle_beta   89.97243369
_cell_angle_gamma   90.00000000
_symmetry_Int_Tables_number   1
_chemical_formula_structural   Ho8Sc2Ir5Au
_chemical_formula_sum   'Ho16 Sc4 Ir10 Au2'
_cell_volume   738.26610576
_cell_formula_units_Z   2
loop_
 _symmetry_equiv_pos_site_id
 _symmetry_equiv_pos_as_xyz
  1  'x, y, z'
loop_
 _atom_site_type_symbol
 _atom_site_label
 _atom_site_symmetry_multiplicity
 _atom_site_fract_x
 _atom_site_fract_y
 _atom_site_fract_z
 _atom_site_occupancy
  Ho  Ho0  1  0.289627  0.086532  0.375025  1
  Ho  Ho1  1  0.289627  0.913468  0.875025  1
  Ho  Ho2  1  0.701730  0.090699  0.868577  1
  Ho  Ho3  1  0.701730  0.909301  0.368577  1
  Ho  Ho4  1  0.578368  0.785707  0.878452  1
  Ho  Ho5  1  0.578368  0.214293  0.378452  1
  Ho  Ho6  1  0.411649  0.787165  0.378305  1
  Ho  Ho7  1  0.411649  0.212835  0.878305  1
  Ho  Ho8  1  0.213026  0.414053  0.620931  1
  Ho  Ho9  1  0.213026  0.585947  0.120931  1
  Ho  Ho10  1  0.786198  0.419738  0.121016  1
  Ho  Ho11  1  0.786198  0.580262  0.621016  1
  Ho  Ho12  1  0.917717  0.707710  0.135118  1
  Ho  Ho13  1  0.917717  0.292290  0.635118  1
  Ho  Ho14  1  0.093515  0.706356  0.621910  1
  Ho  Ho15  1  0.093515  0.293644  0.121910  1
  Sc  Sc16  1  0.010844  0.998480  0.500393  1
  Sc  Sc17  1  0.010844  0.001520  0.000393  1
  Sc  Sc18  1  0.499157  0.499322  0.000167  1
  Sc  Sc19  1  0.499157  0.500678  0.500167  1
  Ir  Ir20  1  0.147136  0.147557  0.749931  1
  Ir  Ir21  1  0.147136  0.852443  0.249931  1
  Ir  Ir22  1  0.648360  0.351389  0.750087  1
  Ir  Ir23  1  0.648360  0.648611  0.250087  1
  Ir  Ir24  1  0.351804  0.352279  0.250016  1
  Ir  Ir25  1  0.351804  0.647721  0.750016  1
  Ir  Ir26  1  0.500595  0.000039  0.121515  1
  Ir  Ir27  1  0.500595  0.999961  0.621515  1
  Ir  Ir28  1  0.999883  0.500907  0.878272  1
  Ir  Ir29  1  0.999883  0.499093  0.378272  1
  Au  Au30  1  0.850392  0.149063  0.250285  1
  Au  Au31  1  0.850392  0.850937  0.750285  1
