# generated using pymatgen
data_Y4Tm4Sc12Si15P
_symmetry_space_group_name_H-M   'P 1'
_cell_length_a   7.05966975
_cell_length_b   7.35234834
_cell_length_c   13.93373036
_cell_angle_alpha   89.99531219
_cell_angle_beta   90.11786609
_cell_angle_gamma   90.07870651
_symmetry_Int_Tables_number   1
_chemical_formula_structural   Y4Tm4Sc12Si15P
_chemical_formula_sum   'Y4 Tm4 Sc12 Si15 P1'
_cell_volume   723.23016626
_cell_formula_units_Z   1
loop_
 _symmetry_equiv_pos_site_id
 _symmetry_equiv_pos_as_xyz
  1  'x, y, z'
loop_
 _atom_site_type_symbol
 _atom_site_label
 _atom_site_symmetry_multiplicity
 _atom_site_fract_x
 _atom_site_fract_y
 _atom_site_fract_z
 _atom_site_occupancy
  Y  Y0  1  0.009810  0.175332  0.096434  1
  Y  Y1  1  0.990975  0.826646  0.900821  1
  Y  Y2  1  0.490589  0.674831  0.904876  1
  Y  Y3  1  0.990920  0.826427  0.598466  1
  Tm  Tm4  1  0.511120  0.323679  0.096803  1
  Tm  Tm5  1  0.010504  0.176380  0.403071  1
  Tm  Tm6  1  0.511076  0.323502  0.404004  1
  Tm  Tm7  1  0.489916  0.675976  0.595645  1
  Sc  Sc8  1  0.160118  0.501762  0.749682  1
  Sc  Sc9  1  0.838543  0.496958  0.250247  1
  Sc  Sc10  1  0.338847  0.003173  0.250298  1
  Sc  Sc11  1  0.662738  0.999033  0.749671  1
  Sc  Sc12  1  0.328005  0.173998  0.627025  1
  Sc  Sc13  1  0.667606  0.823054  0.375356  1
  Sc  Sc14  1  0.168360  0.676908  0.375100  1
  Sc  Sc15  1  0.667727  0.823111  0.125279  1
  Sc  Sc16  1  0.832692  0.322767  0.625967  1
  Sc  Sc17  1  0.328133  0.173896  0.872585  1
  Sc  Sc18  1  0.832466  0.323043  0.873407  1
  Sc  Sc19  1  0.168174  0.676981  0.125273  1
  Si  Si20  1  0.964907  0.884548  0.250477  1
  Si  Si21  1  0.466353  0.613350  0.250148  1
  Si  Si22  1  0.531750  0.383682  0.749511  1
  Si  Si23  1  0.297216  0.863118  0.749313  1
  Si  Si24  1  0.713023  0.128019  0.250712  1
  Si  Si25  1  0.215502  0.371977  0.250665  1
  Si  Si26  1  0.785773  0.628508  0.749342  1
  Si  Si27  1  0.159894  0.462803  0.539300  1
  Si  Si28  1  0.840637  0.533871  0.460656  1
  Si  Si29  1  0.339362  0.966108  0.460485  1
  Si  Si30  1  0.839808  0.535368  0.039113  1
  Si  Si31  1  0.658832  0.037001  0.539723  1
  Si  Si32  1  0.158538  0.462949  0.960383  1
  Si  Si33  1  0.659693  0.038465  0.960527  1
  Si  Si34  1  0.340765  0.966109  0.039773  1
  P  P35  1  0.029630  0.126666  0.749865  1
