# generated using pymatgen
data_Sr3SmSb3
_symmetry_space_group_name_H-M   'P 1'
_cell_length_a   8.51237736
_cell_length_b   8.51237755
_cell_length_c   9.85143419
_cell_angle_alpha   55.28238817
_cell_angle_beta   55.28238712
_cell_angle_gamma   70.94755338
_symmetry_Int_Tables_number   1
_chemical_formula_structural   Sr3SmSb3
_chemical_formula_sum   'Sr6 Sm2 Sb6'
_cell_volume   482.29200398
_cell_formula_units_Z   2
loop_
 _symmetry_equiv_pos_site_id
 _symmetry_equiv_pos_as_xyz
  1  'x, y, z'
loop_
 _atom_site_type_symbol
 _atom_site_label
 _atom_site_symmetry_multiplicity
 _atom_site_fract_x
 _atom_site_fract_y
 _atom_site_fract_z
 _atom_site_occupancy
  Sr  Sr0  1  0.001036  0.135497  0.112461  1
  Sr  Sr1  1  0.864503  0.998964  0.887539  1
  Sr  Sr2  1  0.499680  0.856101  0.751235  1
  Sr  Sr3  1  0.143899  0.500320  0.248765  1
  Sr  Sr4  1  0.998640  0.645423  0.604712  1
  Sr  Sr5  1  0.354577  0.001360  0.395288  1
  Sm  Sm6  1  0.633571  0.498530  0.250245  1
  Sm  Sm7  1  0.501470  0.366429  0.749755  1
  Sb  Sb8  1  0.858092  0.141908  0.500000  1
  Sb  Sb9  1  0.624337  0.375663  0.000000  1
  Sb  Sb10  1  0.268457  0.261598  0.617574  1
  Sb  Sb11  1  0.738402  0.731543  0.382426  1
  Sb  Sb12  1  0.125928  0.612591  0.879102  1
  Sb  Sb13  1  0.387409  0.874072  0.120898  1
