# generated using pymatgen
data_Dy2HoMg3Ag2Os
_symmetry_space_group_name_H-M   'P 1'
_cell_length_a   7.58688640
_cell_length_b   7.58210165
_cell_length_c   4.12448600
_cell_angle_alpha   90.00000000
_cell_angle_beta   90.00000000
_cell_angle_gamma   119.98366863
_symmetry_Int_Tables_number   1
_chemical_formula_structural   Dy2HoMg3Ag2Os
_chemical_formula_sum   'Dy2 Ho1 Mg3 Ag2 Os1'
_cell_volume   205.50627898
_cell_formula_units_Z   1
loop_
 _symmetry_equiv_pos_site_id
 _symmetry_equiv_pos_as_xyz
  1  'x, y, z'
loop_
 _atom_site_type_symbol
 _atom_site_label
 _atom_site_symmetry_multiplicity
 _atom_site_fract_x
 _atom_site_fract_y
 _atom_site_fract_z
 _atom_site_occupancy
  Dy  Dy0  1  0.567879  0.962966  0.000000  1
  Dy  Dy1  1  0.036943  0.604394  0.000000  1
  Ho  Ho2  1  0.394826  0.432666  0.000000  1
  Mg  Mg3  1  0.250575  0.998502  0.500000  1
  Mg  Mg4  1  0.002314  0.252314  0.500000  1
  Mg  Mg5  1  0.747391  0.749079  0.500000  1
  Ag  Ag6  1  0.666052  0.333389  0.500000  1
  Ag  Ag7  1  0.000542  0.000437  0.000000  1
  Os  Os8  1  0.333478  0.666252  0.500000  1
