# generated using pymatgen
data_Pr2Ga6Pd
_symmetry_space_group_name_H-M   'P 1'
_cell_length_a   6.37156202
_cell_length_b   6.37156187
_cell_length_c   6.37156100
_cell_angle_alpha   59.99998894
_cell_angle_beta   59.99998972
_cell_angle_gamma   59.99999537
_symmetry_Int_Tables_number   1
_chemical_formula_structural   Pr2Ga6Pd
_chemical_formula_sum   'Pr2 Ga6 Pd1'
_cell_volume   182.90373821
_cell_formula_units_Z   1
loop_
 _symmetry_equiv_pos_site_id
 _symmetry_equiv_pos_as_xyz
  1  'x, y, z'
loop_
 _atom_site_type_symbol
 _atom_site_label
 _atom_site_symmetry_multiplicity
 _atom_site_fract_x
 _atom_site_fract_y
 _atom_site_fract_z
 _atom_site_occupancy
  Pr  Pr0  1  0.250000  0.250000  0.250000  1
  Pr  Pr1  1  0.750000  0.750000  0.750000  1
  Ga  Ga2  1  0.784847  0.784847  0.215153  1
  Ga  Ga3  1  0.784847  0.215153  0.784847  1
  Ga  Ga4  1  0.784847  0.215153  0.215153  1
  Ga  Ga5  1  0.215153  0.784847  0.215153  1
  Ga  Ga6  1  0.215153  0.784847  0.784847  1
  Ga  Ga7  1  0.215153  0.215153  0.784847  1
  Pd  Pd8  1  0.500000  0.500000  0.500000  1
