# generated using pymatgen
data_Sc3Sn3PtRh2
_symmetry_space_group_name_H-M   'P 1'
_cell_length_a   7.57107400
_cell_length_b   7.57107414
_cell_length_c   6.99026000
_cell_angle_alpha   90.00000000
_cell_angle_beta   90.00000000
_cell_angle_gamma   120.00000814
_symmetry_Int_Tables_number   1
_chemical_formula_structural   Sc3Sn3PtRh2
_chemical_formula_sum   'Sc6 Sn6 Pt2 Rh4'
_cell_volume   347.00754319
_cell_formula_units_Z   2
loop_
 _symmetry_equiv_pos_site_id
 _symmetry_equiv_pos_as_xyz
  1  'x, y, z'
loop_
 _atom_site_type_symbol
 _atom_site_label
 _atom_site_symmetry_multiplicity
 _atom_site_fract_x
 _atom_site_fract_y
 _atom_site_fract_z
 _atom_site_occupancy
  Sc  Sc0  1  0.399272  0.006753  0.250120  1
  Sc  Sc1  1  0.607481  0.600728  0.250120  1
  Sc  Sc2  1  0.993247  0.392519  0.250120  1
  Sc  Sc3  1  0.392519  0.993247  0.750120  1
  Sc  Sc4  1  0.600728  0.607481  0.750120  1
  Sc  Sc5  1  0.006753  0.399272  0.750120  1
  Sn  Sn6  1  0.276249  0.271560  0.999537  1
  Sn  Sn7  1  0.995312  0.723751  0.999537  1
  Sn  Sn8  1  0.004688  0.728440  0.499537  1
  Sn  Sn9  1  0.723751  0.995312  0.499537  1
  Sn  Sn10  1  0.271560  0.276249  0.499537  1
  Sn  Sn11  1  0.728440  0.004688  0.999537  1
  Pt  Pt12  1  0.333333  0.666667  0.013687  1
  Pt  Pt13  1  0.666667  0.333333  0.513687  1
  Rh  Rh14  1  0.000000  0.000000  0.749400  1
  Rh  Rh15  1  0.000000  0.000000  0.249400  1
  Rh  Rh16  1  0.666667  0.333333  0.987943  1
  Rh  Rh17  1  0.333333  0.666667  0.487943  1
