# generated using pymatgen
data_Ba4Np3IF28
_symmetry_space_group_name_H-M   'P 1'
_cell_length_a   10.02723583
_cell_length_b   6.03342180
_cell_length_c   10.28558559
_cell_angle_alpha   87.43497547
_cell_angle_beta   89.92096355
_cell_angle_gamma   90.15602983
_symmetry_Int_Tables_number   1
_chemical_formula_structural   Ba4Np3IF28
_chemical_formula_sum   'Ba4 Np3 I1 F28'
_cell_volume   621.63647670
_cell_formula_units_Z   1
loop_
 _symmetry_equiv_pos_site_id
 _symmetry_equiv_pos_as_xyz
  1  'x, y, z'
loop_
 _atom_site_type_symbol
 _atom_site_label
 _atom_site_symmetry_multiplicity
 _atom_site_fract_x
 _atom_site_fract_y
 _atom_site_fract_z
 _atom_site_occupancy
  Ba  Ba0  1  0.313572  0.276109  0.510102  1
  Ba  Ba1  1  0.811511  0.727234  0.990591  1
  Ba  Ba2  1  0.688467  0.722496  0.483794  1
  Ba  Ba3  1  0.190388  0.274714  0.012767  1
  Np  Np4  1  0.388343  0.769498  0.784506  1
  Np  Np5  1  0.886038  0.230291  0.715257  1
  Np  Np6  1  0.113655  0.768591  0.284536  1
  I  I7  1  0.614552  0.232336  0.217994  1
  F  F8  1  0.394841  0.066126  0.885462  1
  F  F9  1  0.050813  0.348819  0.614777  1
  F  F10  1  0.721501  0.546799  0.233607  1
  F  F11  1  0.281790  0.452231  0.763319  1
  F  F12  1  0.493819  0.994522  0.645872  1
  F  F13  1  0.765552  0.296487  0.544974  1
  F  F14  1  0.770788  0.066954  0.297385  1
  F  F15  1  0.992532  0.002104  0.850806  1
  F  F16  1  0.456594  0.331670  0.113900  1
  F  F17  1  0.218439  0.451498  0.261584  1
  F  F18  1  0.105419  0.063865  0.387146  1
  F  F19  1  0.594216  0.956651  0.123510  1
  F  F20  1  0.272219  0.921695  0.188744  1
  F  F21  1  0.025226  0.580043  0.123343  1
  F  F22  1  0.511208  0.018510  0.350501  1
  F  F23  1  0.009319  0.994697  0.145701  1
  F  F24  1  0.230326  0.920353  0.687550  1
  F  F25  1  0.892556  0.934979  0.612560  1
  F  F26  1  0.520126  0.433231  0.371557  1
  F  F27  1  0.949638  0.651777  0.387139  1
  F  F28  1  0.969692  0.414193  0.881068  1
  F  F29  1  0.728452  0.079396  0.814751  1
  F  F30  1  0.477049  0.578204  0.625446  1
  F  F31  1  0.267569  0.701697  0.954597  1
  F  F32  1  0.234878  0.701542  0.453414  1
  F  F33  1  0.724934  0.284533  0.054881  1
  F  F34  1  0.552243  0.658767  0.889761  1
  F  F35  1  0.781732  0.547388  0.737100  1
