# generated using pymatgen
data_Er3Tm3Zn23P
_symmetry_space_group_name_H-M   'P 1'
_cell_length_a   8.99781767
_cell_length_b   8.99777043
_cell_length_c   8.99779000
_cell_angle_alpha   60.00016631
_cell_angle_beta   60.00020146
_cell_angle_gamma   60.00030088
_symmetry_Int_Tables_number   1
_chemical_formula_structural   Er3Tm3Zn23P
_chemical_formula_sum   'Er3 Tm3 Zn23 P1'
_cell_volume   515.10426568
_cell_formula_units_Z   1
loop_
 _symmetry_equiv_pos_site_id
 _symmetry_equiv_pos_as_xyz
  1  'x, y, z'
loop_
 _atom_site_type_symbol
 _atom_site_label
 _atom_site_symmetry_multiplicity
 _atom_site_fract_x
 _atom_site_fract_y
 _atom_site_fract_z
 _atom_site_occupancy
  Er  Er0  1  0.288792  0.711305  0.711307  1
  Er  Er1  1  0.288796  0.711312  0.288600  1
  Er  Er2  1  0.288791  0.288600  0.711310  1
  Tm  Tm3  1  0.711229  0.288867  0.288867  1
  Tm  Tm4  1  0.711230  0.288865  0.711037  1
  Tm  Tm5  1  0.711228  0.711038  0.288869  1
  Zn  Zn6  1  0.624504  0.125165  0.125164  1
  Zn  Zn7  1  0.124911  0.624274  0.125409  1
  Zn  Zn8  1  0.124910  0.125410  0.624272  1
  Zn  Zn9  1  0.124910  0.125409  0.125410  1
  Zn  Zn10  1  0.375844  0.874716  0.874720  1
  Zn  Zn11  1  0.874472  0.375607  0.874959  1
  Zn  Zn12  1  0.874473  0.874958  0.375609  1
  Zn  Zn13  1  0.874468  0.874962  0.874957  1
  Zn  Zn14  1  0.500241  0.999958  0.999956  1
  Zn  Zn15  1  0.500242  0.999955  0.499844  1
  Zn  Zn16  1  0.500243  0.499842  0.999958  1
  Zn  Zn17  1  0.999879  0.499957  0.499955  1
  Zn  Zn18  1  0.999878  0.499957  0.000208  1
  Zn  Zn19  1  0.999876  0.000211  0.499958  1
  Zn  Zn20  1  0.999973  0.000008  0.000008  1
  Zn  Zn21  1  0.009495  0.330167  0.330171  1
  Zn  Zn22  1  0.330160  0.009930  0.329954  1
  Zn  Zn23  1  0.330163  0.329953  0.009928  1
  Zn  Zn24  1  0.330160  0.329954  0.329954  1
  Zn  Zn25  1  0.989860  0.670046  0.670044  1
  Zn  Zn26  1  0.670044  0.990287  0.669834  1
  Zn  Zn27  1  0.670041  0.669833  0.990288  1
  Zn  Zn28  1  0.670042  0.669836  0.669835  1
  P  P29  1  0.501148  0.499618  0.499618  1
