# generated using pymatgen
data_TbCe(ZnSi)2
_symmetry_space_group_name_H-M   'P 1'
_cell_length_a   4.16514800
_cell_length_b   4.16514715
_cell_length_c   16.09768200
_cell_angle_alpha   90.00000000
_cell_angle_beta   90.00000000
_cell_angle_gamma   120.00000673
_symmetry_Int_Tables_number   1
_chemical_formula_structural   TbCe(ZnSi)2
_chemical_formula_sum   'Tb2 Ce2 Zn4 Si4'
_cell_volume   241.85481240
_cell_formula_units_Z   2
loop_
 _symmetry_equiv_pos_site_id
 _symmetry_equiv_pos_as_xyz
  1  'x, y, z'
loop_
 _atom_site_type_symbol
 _atom_site_label
 _atom_site_symmetry_multiplicity
 _atom_site_fract_x
 _atom_site_fract_y
 _atom_site_fract_z
 _atom_site_occupancy
  Tb  Tb0  1  0.000000  0.000000  0.250000  1
  Tb  Tb1  1  0.000000  0.000000  0.750000  1
  Ce  Ce2  1  0.000000  0.000000  0.000000  1
  Ce  Ce3  1  0.000000  0.000000  0.500000  1
  Zn  Zn4  1  0.666667  0.333334  0.141493  1
  Zn  Zn5  1  0.666667  0.333334  0.358506  1
  Zn  Zn6  1  0.333333  0.666665  0.641493  1
  Zn  Zn7  1  0.333333  0.666665  0.858507  1
  Si  Si8  1  0.333333  0.666665  0.119991  1
  Si  Si9  1  0.333333  0.666665  0.380008  1
  Si  Si10  1  0.666667  0.333334  0.619991  1
  Si  Si11  1  0.666667  0.333334  0.880009  1
