# generated using pymatgen
data_Yb7ErSb6
_symmetry_space_group_name_H-M   'P 1'
_cell_length_a   8.18025518
_cell_length_b   8.18025387
_cell_length_c   8.12508400
_cell_angle_alpha   109.33465604
_cell_angle_beta   109.33465282
_cell_angle_gamma   109.60743876
_symmetry_Int_Tables_number   1
_chemical_formula_structural   Yb7ErSb6
_chemical_formula_sum   'Yb7 Er1 Sb6'
_cell_volume   419.24588030
_cell_formula_units_Z   1
loop_
 _symmetry_equiv_pos_site_id
 _symmetry_equiv_pos_as_xyz
  1  'x, y, z'
loop_
 _atom_site_type_symbol
 _atom_site_label
 _atom_site_symmetry_multiplicity
 _atom_site_fract_x
 _atom_site_fract_y
 _atom_site_fract_z
 _atom_site_occupancy
  Yb  Yb0  1  0.649946  0.650881  0.651442  1
  Yb  Yb1  1  0.007658  0.360166  0.504168  1
  Yb  Yb2  1  0.352507  0.492342  0.996510  1
  Yb  Yb3  1  0.000935  0.850054  0.501496  1
  Yb  Yb4  1  0.849119  0.499065  0.000561  1
  Yb  Yb5  1  0.500000  0.000000  0.850888  1
  Yb  Yb6  1  0.139834  0.147493  0.144002  1
  Er  Er7  1  0.500000  0.000000  0.349594  1
  Sb  Sb8  1  0.868455  0.124703  0.741104  1
  Sb  Sb9  1  0.375297  0.243751  0.616400  1
  Sb  Sb10  1  0.131604  0.756061  0.886283  1
  Sb  Sb11  1  0.743939  0.875543  0.130222  1
  Sb  Sb12  1  0.256249  0.631545  0.372649  1
  Sb  Sb13  1  0.624457  0.368396  0.254679  1
