# generated using pymatgen
data_Y6Co13Ni3(P6W)2
_symmetry_space_group_name_H-M   'P 1'
_cell_length_a   3.74926000
_cell_length_b   10.56442023
_cell_length_c   12.25578426
_cell_angle_alpha   90.02378200
_cell_angle_beta   90.00000000
_cell_angle_gamma   90.00000000
_symmetry_Int_Tables_number   1
_chemical_formula_structural   Y6Co13Ni3(P6W)2
_chemical_formula_sum   'Y6 Co13 Ni3 P12 W2'
_cell_volume   485.43635343
_cell_formula_units_Z   1
loop_
 _symmetry_equiv_pos_site_id
 _symmetry_equiv_pos_as_xyz
  1  'x, y, z'
loop_
 _atom_site_type_symbol
 _atom_site_label
 _atom_site_symmetry_multiplicity
 _atom_site_fract_x
 _atom_site_fract_y
 _atom_site_fract_z
 _atom_site_occupancy
  Y  Y0  1  0.000000  0.500140  0.522993  1
  Y  Y1  1  0.500000  0.999927  0.477326  1
  Y  Y2  1  0.500000  0.818212  0.204132  1
  Y  Y3  1  0.500000  0.181483  0.204620  1
  Y  Y4  1  0.000000  0.682086  0.795773  1
  Y  Y5  1  0.000000  0.318357  0.794647  1
  Co  Co6  1  0.000000  0.499123  0.987911  1
  Co  Co7  1  0.500000  0.999490  0.012683  1
  Co  Co8  1  0.500000  0.667645  0.991274  1
  Co  Co9  1  0.000000  0.167835  0.010055  1
  Co  Co10  1  0.000000  0.833071  0.009258  1
  Co  Co11  1  0.500000  0.296952  0.431927  1
  Co  Co12  1  0.500000  0.703003  0.431638  1
  Co  Co13  1  0.000000  0.202546  0.568322  1
  Co  Co14  1  0.000000  0.797464  0.568281  1
  Co  Co15  1  0.500000  0.878440  0.708779  1
  Co  Co16  1  0.500000  0.121202  0.708108  1
  Co  Co17  1  0.000000  0.621607  0.291175  1
  Co  Co18  1  0.000000  0.379103  0.292963  1
  Ni  Ni19  1  0.500000  0.500453  0.700235  1
  Ni  Ni20  1  0.000000  0.999501  0.298822  1
  Ni  Ni21  1  0.500000  0.331521  0.988586  1
  P  P22  1  0.500000  0.502160  0.880610  1
  P  P23  1  0.000000  0.000163  0.117854  1
  P  P24  1  0.500000  0.500180  0.349537  1
  P  P25  1  0.000000  0.000008  0.650666  1
  P  P26  1  0.500000  0.310287  0.615263  1
  P  P27  1  0.500000  0.690202  0.615372  1
  P  P28  1  0.000000  0.189867  0.384711  1
  P  P29  1  0.000000  0.809734  0.384495  1
  P  P30  1  0.500000  0.844147  0.893756  1
  P  P31  1  0.500000  0.153337  0.892098  1
  P  P32  1  0.000000  0.655757  0.105959  1
  P  P33  1  0.000000  0.345234  0.109702  1
  W  W34  1  0.500000  0.499528  0.155687  1
  W  W35  1  0.000000  0.000237  0.844784  1
