# generated using pymatgen
data_Er10Ga3Bi2Os
_symmetry_space_group_name_H-M   'P 1'
_cell_length_a   8.66856004
_cell_length_b   8.75340306
_cell_length_c   7.92781264
_cell_angle_alpha   62.38732759
_cell_angle_beta   63.47939165
_cell_angle_gamma   54.13326572
_symmetry_Int_Tables_number   1
_chemical_formula_structural   Er10Ga3Bi2Os
_chemical_formula_sum   'Er10 Ga3 Bi2 Os1'
_cell_volume   418.94886592
_cell_formula_units_Z   1
loop_
 _symmetry_equiv_pos_site_id
 _symmetry_equiv_pos_as_xyz
  1  'x, y, z'
loop_
 _atom_site_type_symbol
 _atom_site_label
 _atom_site_symmetry_multiplicity
 _atom_site_fract_x
 _atom_site_fract_y
 _atom_site_fract_z
 _atom_site_occupancy
  Er  Er0  1  0.795969  0.482033  0.517967  1
  Er  Er1  1  0.458112  0.807912  0.192088  1
  Er  Er2  1  0.298583  0.982328  0.716674  1
  Er  Er3  1  0.997585  0.283326  0.017672  1
  Er  Er4  1  0.192088  0.541888  0.458112  1
  Er  Er5  1  0.517967  0.204031  0.795969  1
  Er  Er6  1  0.716674  0.002415  0.298583  1
  Er  Er7  1  0.017672  0.701417  0.997585  1
  Er  Er8  1  0.492838  0.507162  0.003400  1
  Er  Er9  1  0.003400  0.996600  0.492838  1
  Ga  Ga10  1  0.866170  0.133830  0.866170  1
  Ga  Ga11  1  0.641778  0.358222  0.363128  1
  Ga  Ga12  1  0.363128  0.636872  0.641778  1
  Bi  Bi13  1  0.755950  0.744050  0.755950  1
  Bi  Bi14  1  0.255950  0.244050  0.255950  1
  Os  Os15  1  0.126132  0.873868  0.126132  1
