# generated using pymatgen
data_TbHoPa2(CoB4)4
_symmetry_space_group_name_H-M   'P 1'
_cell_length_a   3.40163900
_cell_length_b   5.91439417
_cell_length_c   11.46943514
_cell_angle_alpha   89.94196108
_cell_angle_beta   90.00000000
_cell_angle_gamma   90.00000000
_symmetry_Int_Tables_number   1
_chemical_formula_structural   TbHoPa2(CoB4)4
_chemical_formula_sum   'Tb1 Ho1 Pa2 Co4 B16'
_cell_volume   230.74924788
_cell_formula_units_Z   1
loop_
 _symmetry_equiv_pos_site_id
 _symmetry_equiv_pos_as_xyz
  1  'x, y, z'
loop_
 _atom_site_type_symbol
 _atom_site_label
 _atom_site_symmetry_multiplicity
 _atom_site_fract_x
 _atom_site_fract_y
 _atom_site_fract_z
 _atom_site_occupancy
  Tb  Tb0  1  0.500000  0.872345  0.351861  1
  Ho  Ho1  1  0.500000  0.127707  0.648102  1
  Pa  Pa2  1  0.500000  0.372781  0.151528  1
  Pa  Pa3  1  0.500000  0.627201  0.848361  1
  Co  Co4  1  0.500000  0.366287  0.409717  1
  Co  Co5  1  0.500000  0.633730  0.590498  1
  Co  Co6  1  0.500000  0.134484  0.909939  1
  Co  Co7  1  0.500000  0.865509  0.089819  1
  B  B8  1  0.000000  0.111381  0.045950  1
  B  B9  1  0.000000  0.888658  0.954048  1
  B  B10  1  0.000000  0.386787  0.545307  1
  B  B11  1  0.000000  0.612416  0.455042  1
  B  B12  1  0.000000  0.138711  0.467256  1
  B  B13  1  0.000000  0.861758  0.533356  1
  B  B14  1  0.000000  0.361851  0.965673  1
  B  B15  1  0.000000  0.638147  0.034298  1
  B  B16  1  0.000000  0.021273  0.190396  1
  B  B17  1  0.000000  0.978973  0.809210  1
  B  B18  1  0.000000  0.475980  0.688815  1
  B  B19  1  0.000000  0.523350  0.311150  1
  B  B20  1  0.000000  0.217778  0.316079  1
  B  B21  1  0.000000  0.783025  0.683900  1
  B  B22  1  0.000000  0.281734  0.814425  1
  B  B23  1  0.000000  0.718133  0.185270  1
