# generated using pymatgen
data_Sc5Al2HgC4
_symmetry_space_group_name_H-M   'P 1'
_cell_length_a   10.37347584
_cell_length_b   10.37968222
_cell_length_c   3.31978000
_cell_angle_alpha   90.00000000
_cell_angle_beta   90.00000000
_cell_angle_gamma   89.96307423
_symmetry_Int_Tables_number   1
_chemical_formula_structural   Sc5Al2HgC4
_chemical_formula_sum   'Sc10 Al4 Hg2 C8'
_cell_volume   357.45186848
_cell_formula_units_Z   2
loop_
 _symmetry_equiv_pos_site_id
 _symmetry_equiv_pos_as_xyz
  1  'x, y, z'
loop_
 _atom_site_type_symbol
 _atom_site_label
 _atom_site_symmetry_multiplicity
 _atom_site_fract_x
 _atom_site_fract_y
 _atom_site_fract_z
 _atom_site_occupancy
  Sc  Sc0  1  0.761160  0.950810  0.500000  1
  Sc  Sc1  1  0.547308  0.740010  0.500000  1
  Sc  Sc2  1  0.452077  0.260948  0.500000  1
  Sc  Sc3  1  0.047118  0.759998  0.500000  1
  Sc  Sc4  1  0.951611  0.239201  0.500000  1
  Sc  Sc5  1  0.260265  0.549081  0.500000  1
  Sc  Sc6  1  0.739654  0.450951  0.500000  1
  Sc  Sc7  1  0.240646  0.048961  0.500000  1
  Sc  Sc8  1  0.501123  0.000492  0.000000  1
  Sc  Sc9  1  0.000126  0.499474  0.000000  1
  Al  Al10  1  0.702478  0.203486  0.000000  1
  Al  Al11  1  0.295344  0.799064  0.000000  1
  Al  Al12  1  0.202385  0.296572  0.000000  1
  Al  Al13  1  0.795158  0.700633  0.000000  1
  Hg  Hg14  1  0.500816  0.500087  0.000000  1
  Hg  Hg15  1  0.001951  0.000261  0.000000  1
  C  C16  1  0.625013  0.123995  0.500000  1
  C  C17  1  0.375415  0.875925  0.500000  1
  C  C18  1  0.124587  0.375679  0.500000  1
  C  C19  1  0.874869  0.623917  0.500000  1
  C  C20  1  0.157830  0.658513  0.000000  1
  C  C21  1  0.842018  0.341306  0.000000  1
  C  C22  1  0.658452  0.841653  0.000000  1
  C  C23  1  0.342597  0.158975  0.000000  1
