# generated using pymatgen
data_NdTh5Cd23Sb
_symmetry_space_group_name_H-M   'P 1'
_cell_length_a   10.12772692
_cell_length_b   10.13634966
_cell_length_c   10.13633666
_cell_angle_alpha   59.94421308
_cell_angle_beta   60.02859533
_cell_angle_gamma   60.02862929
_symmetry_Int_Tables_number   1
_chemical_formula_structural   NdTh5Cd23Sb
_chemical_formula_sum   'Nd1 Th5 Cd23 Sb1'
_cell_volume   735.80661165
_cell_formula_units_Z   1
loop_
 _symmetry_equiv_pos_site_id
 _symmetry_equiv_pos_as_xyz
  1  'x, y, z'
loop_
 _atom_site_type_symbol
 _atom_site_label
 _atom_site_symmetry_multiplicity
 _atom_site_fract_x
 _atom_site_fract_y
 _atom_site_fract_z
 _atom_site_occupancy
  Nd  Nd0  1  0.219569  0.780430  0.780432  1
  Th  Th1  1  0.780778  0.783653  0.219222  1
  Th  Th2  1  0.216346  0.783654  0.219222  1
  Th  Th3  1  0.784565  0.215435  0.215435  1
  Th  Th4  1  0.216346  0.219222  0.783654  1
  Th  Th5  1  0.780778  0.219222  0.783653  1
  Cd  Cd6  1  0.838730  0.838822  0.483718  1
  Cd  Cd7  1  0.838730  0.483719  0.838821  1
  Cd  Cd8  1  0.480932  0.839456  0.839457  1
  Cd  Cd9  1  0.840156  0.839456  0.839457  1
  Cd  Cd10  1  0.160543  0.159844  0.519069  1
  Cd  Cd11  1  0.160543  0.519069  0.159844  1
  Cd  Cd12  1  0.516283  0.161269  0.161269  1
  Cd  Cd13  1  0.161178  0.161269  0.161270  1
  Cd  Cd14  1  0.624116  0.624107  0.127661  1
  Cd  Cd15  1  0.624116  0.127661  0.624107  1
  Cd  Cd16  1  0.128891  0.624211  0.624211  1
  Cd  Cd17  1  0.622686  0.624211  0.624211  1
  Cd  Cd18  1  0.375789  0.377314  0.871109  1
  Cd  Cd19  1  0.375789  0.871109  0.377314  1
  Cd  Cd20  1  0.872339  0.375884  0.375884  1
  Cd  Cd21  1  0.375893  0.375885  0.375884  1
  Cd  Cd22  1  0.000237  0.999763  0.500092  1
  Cd  Cd23  1  0.499908  0.999764  0.500092  1
  Cd  Cd24  1  0.000135  0.499865  0.499865  1
  Cd  Cd25  1  0.499908  0.500092  0.999763  1
  Cd  Cd26  1  0.000236  0.500092  0.999763  1
  Cd  Cd27  1  0.500135  0.999865  0.999865  1
  Cd  Cd28  1  0.501115  0.498885  0.498884  1
  Sb  Sb29  1  0.003229  0.996771  0.996771  1
