# generated using pymatgen
data_Y3Mg3Hg2Ru
_symmetry_space_group_name_H-M   'P 1'
_cell_length_a   7.97435800
_cell_length_b   7.97435834
_cell_length_c   3.87401900
_cell_angle_alpha   90.00000000
_cell_angle_beta   90.00000000
_cell_angle_gamma   120.00000577
_symmetry_Int_Tables_number   1
_chemical_formula_structural   Y3Mg3Hg2Ru
_chemical_formula_sum   'Y3 Mg3 Hg2 Ru1'
_cell_volume   213.34566815
_cell_formula_units_Z   1
loop_
 _symmetry_equiv_pos_site_id
 _symmetry_equiv_pos_as_xyz
  1  'x, y, z'
loop_
 _atom_site_type_symbol
 _atom_site_label
 _atom_site_symmetry_multiplicity
 _atom_site_fract_x
 _atom_site_fract_y
 _atom_site_fract_z
 _atom_site_occupancy
  Y  Y0  1  0.429843  0.391121  0.500000  1
  Y  Y1  1  0.961278  0.570157  0.500000  1
  Y  Y2  1  0.608879  0.038722  0.500000  1
  Mg  Mg3  1  0.733285  0.734948  0.000000  1
  Mg  Mg4  1  0.265052  0.998337  0.000000  1
  Mg  Mg5  1  0.001663  0.266715  0.000000  1
  Hg  Hg6  1  0.333333  0.666667  0.000000  1
  Hg  Hg7  1  0.000000  0.000000  0.500000  1
  Ru  Ru8  1  0.666667  0.333333  0.000000  1
