# generated using pymatgen
data_PrY4(TcB3)2
_symmetry_space_group_name_H-M   'P 1'
_cell_length_a   5.54132763
_cell_length_b   5.54132676
_cell_length_c   8.68534860
_cell_angle_alpha   71.39727357
_cell_angle_beta   71.39727893
_cell_angle_gamma   59.99999508
_symmetry_Int_Tables_number   1
_chemical_formula_structural   PrY4(TcB3)2
_chemical_formula_sum   'Pr1 Y4 Tc2 B6'
_cell_volume   214.72443494
_cell_formula_units_Z   1
loop_
 _symmetry_equiv_pos_site_id
 _symmetry_equiv_pos_as_xyz
  1  'x, y, z'
loop_
 _atom_site_type_symbol
 _atom_site_label
 _atom_site_symmetry_multiplicity
 _atom_site_fract_x
 _atom_site_fract_y
 _atom_site_fract_z
 _atom_site_occupancy
  Pr  Pr0  1  0.000000  0.000000  0.000000  1
  Y  Y1  1  0.754006  0.754006  0.737982  1
  Y  Y2  1  0.245994  0.245994  0.262018  1
  Y  Y3  1  0.579514  0.579514  0.261459  1
  Y  Y4  1  0.420486  0.420486  0.738541  1
  Tc  Tc5  1  0.887625  0.887625  0.337123  1
  Tc  Tc6  1  0.112375  0.112375  0.662877  1
  B  B7  1  0.500000  0.169935  0.500000  1
  B  B8  1  0.830065  0.500000  0.500000  1
  B  B9  1  0.169935  0.830065  0.500000  1
  B  B10  1  0.169935  0.500000  0.500000  1
  B  B11  1  0.830065  0.169935  0.500000  1
  B  B12  1  0.500000  0.830065  0.500000  1
