# generated using pymatgen
data_Ce3Cd3Pd2Au
_symmetry_space_group_name_H-M   'P 1'
_cell_length_a   7.80914300
_cell_length_b   7.80914343
_cell_length_c   4.00049700
_cell_angle_alpha   90.00000000
_cell_angle_beta   90.00000000
_cell_angle_gamma   119.99999396
_symmetry_Int_Tables_number   1
_chemical_formula_structural   Ce3Cd3Pd2Au
_chemical_formula_sum   'Ce3 Cd3 Pd2 Au1'
_cell_volume   211.27659166
_cell_formula_units_Z   1
loop_
 _symmetry_equiv_pos_site_id
 _symmetry_equiv_pos_as_xyz
  1  'x, y, z'
loop_
 _atom_site_type_symbol
 _atom_site_label
 _atom_site_symmetry_multiplicity
 _atom_site_fract_x
 _atom_site_fract_y
 _atom_site_fract_z
 _atom_site_occupancy
  Ce  Ce0  1  0.411461  0.008326  0.500000  1
  Ce  Ce1  1  0.991674  0.403136  0.500000  1
  Ce  Ce2  1  0.596864  0.588539  0.500000  1
  Cd  Cd3  1  0.749915  0.002270  0.000000  1
  Cd  Cd4  1  0.997730  0.747645  0.000000  1
  Cd  Cd5  1  0.252355  0.250085  0.000000  1
  Pd  Pd6  1  0.666667  0.333333  0.000000  1
  Pd  Pd7  1  0.000000  0.000000  0.500000  1
  Au  Au8  1  0.333333  0.666667  0.000000  1
