# generated using pymatgen
data_BaMgTl4
_symmetry_space_group_name_H-M   'P 1'
_cell_length_a   9.89972090
_cell_length_b   9.89972180
_cell_length_c   7.88191200
_cell_angle_alpha   90.00000000
_cell_angle_beta   90.00000000
_cell_angle_gamma   150.62952238
_symmetry_Int_Tables_number   1
_chemical_formula_structural   BaMgTl4
_chemical_formula_sum   'Ba2 Mg2 Tl8'
_cell_volume   378.85803130
_cell_formula_units_Z   2
loop_
 _symmetry_equiv_pos_site_id
 _symmetry_equiv_pos_as_xyz
  1  'x, y, z'
loop_
 _atom_site_type_symbol
 _atom_site_label
 _atom_site_symmetry_multiplicity
 _atom_site_fract_x
 _atom_site_fract_y
 _atom_site_fract_z
 _atom_site_occupancy
  Ba  Ba0  1  0.121054  0.878948  0.249999  1
  Ba  Ba1  1  0.878948  0.121054  0.750000  1
  Mg  Mg2  1  0.776373  0.223628  0.249999  1
  Mg  Mg3  1  0.223628  0.776373  0.750000  1
  Tl  Tl4  1  0.500001  0.500001  0.000000  1
  Tl  Tl5  1  0.322887  0.677114  0.050475  1
  Tl  Tl6  1  0.932642  0.067359  0.249999  1
  Tl  Tl7  1  0.322887  0.677114  0.449524  1
  Tl  Tl8  1  0.500001  0.500001  0.500000  1
  Tl  Tl9  1  0.677114  0.322887  0.550476  1
  Tl  Tl10  1  0.067359  0.932642  0.750000  1
  Tl  Tl11  1  0.677114  0.322887  0.949524  1
