# generated using pymatgen
data_Li4Pr2NdSn4
_symmetry_space_group_name_H-M   'P 1'
_cell_length_a   8.89377283
_cell_length_b   8.89377168
_cell_length_c   8.89377080
_cell_angle_alpha   149.14641014
_cell_angle_beta   132.33760209
_cell_angle_gamma   57.86077159
_symmetry_Int_Tables_number   1
_chemical_formula_structural   Li4Pr2NdSn4
_chemical_formula_sum   'Li4 Pr2 Nd1 Sn4'
_cell_volume   264.69780140
_cell_formula_units_Z   1
loop_
 _symmetry_equiv_pos_site_id
 _symmetry_equiv_pos_as_xyz
  1  'x, y, z'
loop_
 _atom_site_type_symbol
 _atom_site_label
 _atom_site_symmetry_multiplicity
 _atom_site_fract_x
 _atom_site_fract_y
 _atom_site_fract_z
 _atom_site_occupancy
  Li  Li0  1  0.480884  0.671742  0.809143  1
  Li  Li1  1  0.862600  0.671742  0.190857  1
  Li  Li2  1  0.137400  0.328258  0.809143  1
  Li  Li3  1  0.519116  0.328258  0.190857  1
  Pr  Pr4  1  0.869502  0.869502  0.000000  1
  Pr  Pr5  1  0.130498  0.130498  0.000000  1
  Nd  Nd6  1  0.500000  0.000000  0.500000  1
  Sn  Sn7  1  0.287216  0.787216  0.500000  1
  Sn  Sn8  1  0.712784  0.212784  0.500000  1
  Sn  Sn9  1  0.801270  0.500000  0.301270  1
  Sn  Sn10  1  0.198730  0.500000  0.698730  1
