# generated using pymatgen
data_Tc5MoPd2
_symmetry_space_group_name_H-M   'P 1'
_cell_length_a   5.58012193
_cell_length_b   5.58012176
_cell_length_c   4.39741300
_cell_angle_alpha   90.00000000
_cell_angle_beta   90.00000000
_cell_angle_gamma   119.86396740
_symmetry_Int_Tables_number   1
_chemical_formula_structural   Tc5MoPd2
_chemical_formula_sum   'Tc5 Mo1 Pd2'
_cell_volume   118.74325027
_cell_formula_units_Z   1
loop_
 _symmetry_equiv_pos_site_id
 _symmetry_equiv_pos_as_xyz
  1  'x, y, z'
loop_
 _atom_site_type_symbol
 _atom_site_label
 _atom_site_symmetry_multiplicity
 _atom_site_fract_x
 _atom_site_fract_y
 _atom_site_fract_z
 _atom_site_occupancy
  Tc  Tc0  1  0.314409  0.157273  0.750000  1
  Tc  Tc1  1  0.842727  0.685591  0.750000  1
  Tc  Tc2  1  0.157063  0.842937  0.250000  1
  Tc  Tc3  1  0.686202  0.840347  0.250000  1
  Tc  Tc4  1  0.159653  0.313798  0.250000  1
  Mo  Mo5  1  0.841631  0.158369  0.750000  1
  Pd  Pd6  1  0.665377  0.334623  0.250000  1
  Pd  Pd7  1  0.332938  0.667062  0.750000  1
