# generated using pymatgen
data_Tb5Dy8Ho7Bi12
_symmetry_space_group_name_H-M   'P 1'
_cell_length_a   8.28127578
_cell_length_b   9.52837109
_cell_length_c   12.07300903
_cell_angle_alpha   89.99240724
_cell_angle_beta   90.03358039
_cell_angle_gamma   90.00243844
_symmetry_Int_Tables_number   1
_chemical_formula_structural   Tb5Dy8Ho7Bi12
_chemical_formula_sum   'Tb5 Dy8 Ho7 Bi12'
_cell_volume   952.64558069
_cell_formula_units_Z   1
loop_
 _symmetry_equiv_pos_site_id
 _symmetry_equiv_pos_as_xyz
  1  'x, y, z'
loop_
 _atom_site_type_symbol
 _atom_site_label
 _atom_site_symmetry_multiplicity
 _atom_site_fract_x
 _atom_site_fract_y
 _atom_site_fract_z
 _atom_site_occupancy
  Tb  Tb0  1  0.193115  0.563679  0.441237  1
  Tb  Tb1  1  0.312631  0.250043  0.218949  1
  Tb  Tb2  1  0.812741  0.249955  0.281015  1
  Tb  Tb3  1  0.687336  0.750060  0.781126  1
  Tb  Tb4  1  0.187345  0.750153  0.719080  1
  Dy  Dy5  1  0.353110  0.750289  0.215628  1
  Dy  Dy6  1  0.852554  0.750274  0.284077  1
  Dy  Dy7  1  0.647338  0.250009  0.784319  1
  Dy  Dy8  1  0.147348  0.250143  0.715722  1
  Dy  Dy9  1  0.693266  0.564311  0.058784  1
  Dy  Dy10  1  0.193135  0.935794  0.441155  1
  Dy  Dy11  1  0.306695  0.064322  0.941242  1
  Dy  Dy12  1  0.806988  0.435588  0.558720  1
  Ho  Ho13  1  0.306802  0.435542  0.941209  1
  Ho  Ho14  1  0.806653  0.064359  0.558825  1
  Ho  Ho15  1  0.693299  0.935634  0.058757  1
  Ho  Ho16  1  0.475084  0.250016  0.488064  1
  Ho  Ho17  1  0.974917  0.250171  0.011791  1
  Ho  Ho18  1  0.525461  0.750087  0.511967  1
  Ho  Ho19  1  0.025139  0.749937  0.988167  1
  Bi  Bi20  1  0.407436  0.749830  0.957729  1
  Bi  Bi21  1  0.907011  0.750533  0.542415  1
  Bi  Bi22  1  0.592546  0.249853  0.042219  1
  Bi  Bi23  1  0.092140  0.248948  0.457987  1
  Bi  Bi24  1  0.565206  0.995001  0.325527  1
  Bi  Bi25  1  0.065057  0.505143  0.174194  1
  Bi  Bi26  1  0.434779  0.494932  0.674606  1
  Bi  Bi27  1  0.934719  0.005218  0.825622  1
  Bi  Bi28  1  0.434874  0.005204  0.674421  1
  Bi  Bi29  1  0.934712  0.494917  0.825685  1
  Bi  Bi30  1  0.565453  0.505101  0.325432  1
  Bi  Bi31  1  0.065114  0.994954  0.174330  1
