# generated using pymatgen
data_Tm2LuCr(Co4P3)2
_symmetry_space_group_name_H-M   'P 1'
_cell_length_a   3.66290100
_cell_length_b   10.46867600
_cell_length_c   12.10533400
_cell_angle_alpha   90.00000000
_cell_angle_beta   90.00000000
_cell_angle_gamma   90.00000000
_symmetry_Int_Tables_number   1
_chemical_formula_structural   Tm2LuCr(Co4P3)2
_chemical_formula_sum   'Tm4 Lu2 Cr2 Co16 P12'
_cell_volume   464.18779394
_cell_formula_units_Z   2
loop_
 _symmetry_equiv_pos_site_id
 _symmetry_equiv_pos_as_xyz
  1  'x, y, z'
loop_
 _atom_site_type_symbol
 _atom_site_label
 _atom_site_symmetry_multiplicity
 _atom_site_fract_x
 _atom_site_fract_y
 _atom_site_fract_z
 _atom_site_occupancy
  Tm  Tm0  1  0.000000  0.500000  0.523393  1
  Tm  Tm1  1  0.500000  0.000000  0.476852  1
  Tm  Tm2  1  0.500000  0.818100  0.204522  1
  Tm  Tm3  1  0.500000  0.181900  0.204522  1
  Lu  Lu4  1  0.000000  0.681518  0.795494  1
  Lu  Lu5  1  0.000000  0.318482  0.795494  1
  Cr  Cr6  1  0.500000  0.500000  0.155924  1
  Cr  Cr7  1  0.000000  0.000000  0.843764  1
  Co  Co8  1  0.500000  0.500000  0.701969  1
  Co  Co9  1  0.000000  0.000000  0.298516  1
  Co  Co10  1  0.000000  0.500000  0.986281  1
  Co  Co11  1  0.500000  0.000000  0.012908  1
  Co  Co12  1  0.500000  0.332691  0.991261  1
  Co  Co13  1  0.500000  0.667309  0.991261  1
  Co  Co14  1  0.000000  0.167715  0.007813  1
  Co  Co15  1  0.000000  0.832285  0.007813  1
  Co  Co16  1  0.500000  0.296559  0.431249  1
  Co  Co17  1  0.500000  0.703441  0.431249  1
  Co  Co18  1  0.000000  0.203709  0.569468  1
  Co  Co19  1  0.000000  0.796291  0.569468  1
  Co  Co20  1  0.500000  0.878188  0.708417  1
  Co  Co21  1  0.500000  0.121812  0.708417  1
  Co  Co22  1  0.000000  0.621386  0.291896  1
  Co  Co23  1  0.000000  0.378614  0.291896  1
  P  P24  1  0.500000  0.500000  0.880251  1
  P  P25  1  0.000000  0.000000  0.119042  1
  P  P26  1  0.500000  0.500000  0.345080  1
  P  P27  1  0.000000  0.000000  0.654943  1
  P  P28  1  0.500000  0.312696  0.617233  1
  P  P29  1  0.500000  0.687304  0.617233  1
  P  P30  1  0.000000  0.187588  0.383617  1
  P  P31  1  0.000000  0.812412  0.383617  1
  P  P32  1  0.500000  0.846992  0.890893  1
  P  P33  1  0.500000  0.153008  0.890893  1
  P  P34  1  0.000000  0.652321  0.108677  1
  P  P35  1  0.000000  0.347679  0.108677  1
