# generated using pymatgen
data_Ho2Si7Rh12
_symmetry_space_group_name_H-M   'P 1'
_cell_length_a   9.74852600
_cell_length_b   9.74852636
_cell_length_c   3.85205900
_cell_angle_alpha   90.00000000
_cell_angle_beta   90.00000000
_cell_angle_gamma   120.00000558
_symmetry_Int_Tables_number   1
_chemical_formula_structural   Ho2Si7Rh12
_chemical_formula_sum   'Ho2 Si7 Rh12'
_cell_volume   317.03080408
_cell_formula_units_Z   1
loop_
 _symmetry_equiv_pos_site_id
 _symmetry_equiv_pos_as_xyz
  1  'x, y, z'
loop_
 _atom_site_type_symbol
 _atom_site_label
 _atom_site_symmetry_multiplicity
 _atom_site_fract_x
 _atom_site_fract_y
 _atom_site_fract_z
 _atom_site_occupancy
  Ho  Ho0  1  0.333333  0.666667  0.751008  1
  Ho  Ho1  1  0.666667  0.333333  0.251556  1
  Si  Si2  1  0.000000  0.000000  0.576210  1
  Si  Si3  1  0.887821  0.599262  0.752306  1
  Si  Si4  1  0.400738  0.288559  0.752306  1
  Si  Si5  1  0.711441  0.112179  0.752306  1
  Si  Si6  1  0.111080  0.401030  0.250354  1
  Si  Si7  1  0.598970  0.710050  0.250354  1
  Si  Si8  1  0.289950  0.888920  0.250354  1
  Rh  Rh9  1  0.620327  0.555798  0.752193  1
  Rh  Rh10  1  0.444202  0.064530  0.752193  1
  Rh  Rh11  1  0.935470  0.379673  0.752193  1
  Rh  Rh12  1  0.381796  0.443472  0.249547  1
  Rh  Rh13  1  0.556528  0.938324  0.249547  1
  Rh  Rh14  1  0.061676  0.618204  0.249547  1
  Rh  Rh15  1  0.120781  0.853218  0.747322  1
  Rh  Rh16  1  0.146782  0.267564  0.747322  1
  Rh  Rh17  1  0.732436  0.879219  0.747322  1
  Rh  Rh18  1  0.884535  0.140492  0.256778  1
  Rh  Rh19  1  0.859508  0.744043  0.256778  1
  Rh  Rh20  1  0.255957  0.115465  0.256778  1
