# generated using pymatgen
data_TbGa2CuNi2
_symmetry_space_group_name_H-M   'P 1'
_cell_length_a   4.11295700
_cell_length_b   8.82372071
_cell_length_c   8.82372013
_cell_angle_alpha   60.06165704
_cell_angle_beta   90.00000000
_cell_angle_gamma   90.00000000
_symmetry_Int_Tables_number   1
_chemical_formula_structural   TbGa2CuNi2
_chemical_formula_sum   'Tb3 Ga6 Cu3 Ni6'
_cell_volume   277.49666623
_cell_formula_units_Z   3
loop_
 _symmetry_equiv_pos_site_id
 _symmetry_equiv_pos_as_xyz
  1  'x, y, z'
loop_
 _atom_site_type_symbol
 _atom_site_label
 _atom_site_symmetry_multiplicity
 _atom_site_fract_x
 _atom_site_fract_y
 _atom_site_fract_z
 _atom_site_occupancy
  Tb  Tb0  1  0.500000  0.333362  0.333324  1
  Tb  Tb1  1  0.500000  0.666676  0.666638  1
  Tb  Tb2  1  0.000000  0.999676  0.000324  1
  Ga  Ga3  1  0.500000  0.720460  0.279540  1
  Ga  Ga4  1  0.500000  0.279341  0.000012  1
  Ga  Ga5  1  0.500000  0.999988  0.720659  1
  Ga  Ga6  1  0.000000  0.482206  0.517794  1
  Ga  Ga7  1  0.000000  0.518007  0.999875  1
  Ga  Ga8  1  0.000000  0.000125  0.481993  1
  Cu  Cu9  1  0.500000  0.293248  0.706752  1
  Cu  Cu10  1  0.500000  0.706737  0.000108  1
  Cu  Cu11  1  0.500000  0.999892  0.293263  1
  Ni  Ni12  1  0.000000  0.199994  0.173265  1
  Ni  Ni13  1  0.000000  0.173222  0.627176  1
  Ni  Ni14  1  0.000000  0.626915  0.199506  1
  Ni  Ni15  1  0.000000  0.826734  0.800006  1
  Ni  Ni16  1  0.000000  0.372824  0.826778  1
  Ni  Ni17  1  0.000000  0.800494  0.373085  1
