# generated using pymatgen
data_Ce3DySc4(ReB6)4
_symmetry_space_group_name_H-M   'P 1'
_cell_length_a   3.63158300
_cell_length_b   9.03222953
_cell_length_c   11.43138967
_cell_angle_alpha   89.96063482
_cell_angle_beta   90.00000000
_cell_angle_gamma   90.00000000
_symmetry_Int_Tables_number   1
_chemical_formula_structural   Ce3DySc4(ReB6)4
_chemical_formula_sum   'Ce3 Dy1 Sc4 Re4 B24'
_cell_volume   374.96425331
_cell_formula_units_Z   1
loop_
 _symmetry_equiv_pos_site_id
 _symmetry_equiv_pos_as_xyz
  1  'x, y, z'
loop_
 _atom_site_type_symbol
 _atom_site_label
 _atom_site_symmetry_multiplicity
 _atom_site_fract_x
 _atom_site_fract_y
 _atom_site_fract_z
 _atom_site_occupancy
  Ce  Ce0  1  0.000000  0.677748  0.585296  1
  Ce  Ce1  1  0.000000  0.820687  0.086003  1
  Ce  Ce2  1  0.000000  0.179554  0.914583  1
  Dy  Dy3  1  0.000000  0.320990  0.414017  1
  Sc  Sc4  1  0.000000  0.945287  0.372292  1
  Sc  Sc5  1  0.000000  0.055911  0.627140  1
  Sc  Sc6  1  0.000000  0.444721  0.127840  1
  Sc  Sc7  1  0.000000  0.554406  0.872794  1
  Re  Re8  1  0.000000  0.641773  0.318290  1
  Re  Re9  1  0.000000  0.358973  0.682019  1
  Re  Re10  1  0.000000  0.139951  0.181252  1
  Re  Re11  1  0.000000  0.859312  0.818379  1
  B  B12  1  0.500000  0.554746  0.431857  1
  B  B13  1  0.500000  0.444748  0.567795  1
  B  B14  1  0.500000  0.055452  0.068876  1
  B  B15  1  0.500000  0.944528  0.931181  1
  B  B16  1  0.500000  0.753229  0.417719  1
  B  B17  1  0.500000  0.246347  0.581473  1
  B  B18  1  0.500000  0.254126  0.082565  1
  B  B19  1  0.500000  0.746132  0.917812  1
  B  B20  1  0.500000  0.794208  0.265520  1
  B  B21  1  0.500000  0.205782  0.734263  1
  B  B22  1  0.500000  0.295059  0.235165  1
  B  B23  1  0.500000  0.705623  0.765283  1
  B  B24  1  0.500000  0.628828  0.183826  1
  B  B25  1  0.500000  0.370765  0.816281  1
  B  B26  1  0.500000  0.129751  0.317199  1
  B  B27  1  0.500000  0.870726  0.683404  1
  B  B28  1  0.500000  0.982465  0.214752  1
  B  B29  1  0.500000  0.017803  0.785461  1
  B  B30  1  0.500000  0.481367  0.285719  1
  B  B31  1  0.500000  0.517524  0.714045  1
  B  B32  1  0.500000  0.598104  0.026666  1
  B  B33  1  0.500000  0.402065  0.973592  1
  B  B34  1  0.500000  0.097939  0.473270  1
  B  B35  1  0.500000  0.903370  0.526369  1
