# generated using pymatgen
data_HgBi3(Ru2O7)2
_symmetry_space_group_name_H-M   'P 1'
_cell_length_a   7.26972036
_cell_length_b   7.26972003
_cell_length_c   7.26971983
_cell_angle_alpha   61.14067856
_cell_angle_beta   61.14068357
_cell_angle_gamma   61.14068818
_symmetry_Int_Tables_number   1
_chemical_formula_structural   HgBi3(Ru2O7)2
_chemical_formula_sum   'Hg1 Bi3 Ru4 O14'
_cell_volume   278.64122542
_cell_formula_units_Z   1
loop_
 _symmetry_equiv_pos_site_id
 _symmetry_equiv_pos_as_xyz
  1  'x, y, z'
loop_
 _atom_site_type_symbol
 _atom_site_label
 _atom_site_symmetry_multiplicity
 _atom_site_fract_x
 _atom_site_fract_y
 _atom_site_fract_z
 _atom_site_occupancy
  Hg  Hg0  1  0.500000  0.500000  0.500000  1
  Bi  Bi1  1  0.500000  0.000000  0.500000  1
  Bi  Bi2  1  0.000000  0.500000  0.500000  1
  Bi  Bi3  1  0.500000  0.500000  0.000000  1
  Ru  Ru4  1  0.000000  0.000000  0.000000  1
  Ru  Ru5  1  0.000000  0.500000  0.000000  1
  Ru  Ru6  1  0.500000  0.000000  0.000000  1
  Ru  Ru7  1  0.000000  0.000000  0.500000  1
  O  O8  1  0.619246  0.619246  0.619246  1
  O  O9  1  0.380754  0.380754  0.380754  1
  O  O10  1  0.919499  0.919499  0.327990  1
  O  O11  1  0.327990  0.919499  0.919499  1
  O  O12  1  0.919499  0.327990  0.919499  1
  O  O13  1  0.321300  0.321300  0.941437  1
  O  O14  1  0.941437  0.321300  0.321300  1
  O  O15  1  0.321300  0.941437  0.321300  1
  O  O16  1  0.080501  0.080501  0.672010  1
  O  O17  1  0.672010  0.080501  0.080501  1
  O  O18  1  0.080501  0.672010  0.080501  1
  O  O19  1  0.678700  0.678700  0.058563  1
  O  O20  1  0.058563  0.678700  0.678700  1
  O  O21  1  0.678700  0.058563  0.678700  1
