# generated using pymatgen
data_Tm12FeCo3SnIr
_symmetry_space_group_name_H-M   'P 1'
_cell_length_a   8.16527355
_cell_length_b   8.16527551
_cell_length_c   8.16535277
_cell_angle_alpha   111.67819001
_cell_angle_beta   110.90276436
_cell_angle_gamma   105.89153175
_symmetry_Int_Tables_number   1
_chemical_formula_structural   Tm12FeCo3SnIr
_chemical_formula_sum   'Tm12 Fe1 Co3 Sn1 Ir1'
_cell_volume   417.84254604
_cell_formula_units_Z   1
loop_
 _symmetry_equiv_pos_site_id
 _symmetry_equiv_pos_as_xyz
  1  'x, y, z'
loop_
 _atom_site_type_symbol
 _atom_site_label
 _atom_site_symmetry_multiplicity
 _atom_site_fract_x
 _atom_site_fract_y
 _atom_site_fract_z
 _atom_site_occupancy
  Tm  Tm0  1  0.412614  0.215254  0.197211  1
  Tm  Tm1  1  0.586823  0.783679  0.803152  1
  Tm  Tm2  1  0.019472  0.216329  0.803152  1
  Tm  Tm3  1  0.981957  0.784598  0.197211  1
  Tm  Tm4  1  0.184862  0.284182  0.469043  1
  Tm  Tm5  1  0.814132  0.714147  0.528282  1
  Tm  Tm6  1  0.184708  0.715571  0.900279  1
  Tm  Tm7  1  0.814229  0.285708  0.099939  1
  Tm  Tm8  1  0.311949  0.618874  0.303474  1
  Tm  Tm9  1  0.684616  0.381258  0.692992  1
  Tm  Tm10  1  0.311733  0.008376  0.692992  1
  Tm  Tm11  1  0.684600  0.991526  0.303474  1
  Fe  Fe12  1  0.386152  0.000425  0.386576  1
  Co  Co13  1  0.626655  0.999891  0.626547  1
  Co  Co14  1  0.110357  0.611809  0.498380  1
  Co  Co15  1  0.886571  0.388022  0.498380  1
  Sn  Sn16  1  0.499378  0.500245  0.999624  1
  Ir  Ir17  1  0.999191  0.000103  0.999294  1
