# generated using pymatgen
data_Y3AlCd2Pd3
_symmetry_space_group_name_H-M   'P 1'
_cell_length_a   7.57825300
_cell_length_b   7.62570856
_cell_length_c   3.86028200
_cell_angle_alpha   90.00000000
_cell_angle_beta   90.00000000
_cell_angle_gamma   119.79436707
_symmetry_Int_Tables_number   1
_chemical_formula_structural   Y3AlCd2Pd3
_chemical_formula_sum   'Y3 Al1 Cd2 Pd3'
_cell_volume   193.59544805
_cell_formula_units_Z   1
loop_
 _symmetry_equiv_pos_site_id
 _symmetry_equiv_pos_as_xyz
  1  'x, y, z'
loop_
 _atom_site_type_symbol
 _atom_site_label
 _atom_site_symmetry_multiplicity
 _atom_site_fract_x
 _atom_site_fract_y
 _atom_site_fract_z
 _atom_site_occupancy
  Y  Y0  1  0.407508  0.405235  0.500000  1
  Y  Y1  1  0.580842  0.000000  0.500000  1
  Y  Y2  1  0.002273  0.594765  0.500000  1
  Al  Al3  1  0.254781  0.000000  0.000000  1
  Cd  Cd4  1  0.995541  0.250848  0.000000  1
  Cd  Cd5  1  0.744693  0.749152  0.000000  1
  Pd  Pd6  1  0.650251  0.323047  0.000000  1
  Pd  Pd7  1  0.036907  0.000000  0.500000  1
  Pd  Pd8  1  0.327203  0.676953  0.000000  1
