# generated using pymatgen
data_Mn3V17Si11Ge
_symmetry_space_group_name_H-M   'P 1'
_cell_length_a   7.01206853
_cell_length_b   7.01396440
_cell_length_c   13.19691200
_cell_angle_alpha   90.00000000
_cell_angle_beta   90.00000000
_cell_angle_gamma   140.77256651
_symmetry_Int_Tables_number   1
_chemical_formula_structural   Mn3V17Si11Ge
_chemical_formula_sum   'Mn3 V17 Si11 Ge1'
_cell_volume   410.46306289
_cell_formula_units_Z   1
loop_
 _symmetry_equiv_pos_site_id
 _symmetry_equiv_pos_as_xyz
  1  'x, y, z'
loop_
 _atom_site_type_symbol
 _atom_site_label
 _atom_site_symmetry_multiplicity
 _atom_site_fract_x
 _atom_site_fract_y
 _atom_site_fract_z
 _atom_site_occupancy
  Mn  Mn0  1  0.500223  0.500332  0.000000  1
  Mn  Mn1  1  0.499665  0.493208  0.500000  1
  Mn  Mn2  1  0.002061  0.002294  0.000000  1
  V  V3  1  0.068913  0.422134  0.398432  1
  V  V4  1  0.575169  0.928279  0.902223  1
  V  V5  1  0.418878  0.071191  0.601459  1
  V  V6  1  0.928885  0.574613  0.097515  1
  V  V7  1  0.852047  0.654834  0.677186  1
  V  V8  1  0.347908  0.151964  0.176303  1
  V  V9  1  0.654949  0.851742  0.320109  1
  V  V10  1  0.151963  0.348094  0.824688  1
  V  V11  1  0.654949  0.851742  0.679891  1
  V  V12  1  0.151963  0.348094  0.175312  1
  V  V13  1  0.852047  0.654834  0.322814  1
  V  V14  1  0.347908  0.151964  0.823697  1
  V  V15  1  0.418878  0.071191  0.398541  1
  V  V16  1  0.928885  0.574613  0.902485  1
  V  V17  1  0.068913  0.422134  0.601568  1
  V  V18  1  0.575169  0.928279  0.097777  1
  V  V19  1  0.001785  0.996874  0.500000  1
  Si  Si20  1  0.250364  0.749335  0.751693  1
  Si  Si21  1  0.749256  0.250991  0.248362  1
  Si  Si22  1  0.749256  0.250991  0.751638  1
  Si  Si23  1  0.250364  0.749335  0.248307  1
  Si  Si24  1  0.254745  0.256938  0.663922  1
  Si  Si25  1  0.752775  0.751656  0.159448  1
  Si  Si26  1  0.254745  0.256938  0.336078  1
  Si  Si27  1  0.752775  0.751656  0.840552  1
  Si  Si28  1  0.090443  0.411651  0.000000  1
  Si  Si29  1  0.904827  0.575732  0.500000  1
  Si  Si30  1  0.411494  0.090530  0.000000  1
  Ge  Ge31  1  0.577796  0.905839  0.500000  1
