# generated using pymatgen
data_Gd2Y2HoIr2
_symmetry_space_group_name_H-M   'P 1'
_cell_length_a   6.37104138
_cell_length_b   7.29197419
_cell_length_c   8.54126500
_cell_angle_alpha   96.61991936
_cell_angle_beta   111.89807509
_cell_angle_gamma   89.99999197
_symmetry_Int_Tables_number   1
_chemical_formula_structural   Gd2Y2HoIr2
_chemical_formula_sum   'Gd4 Y4 Ho2 Ir4'
_cell_volume   365.32267800
_cell_formula_units_Z   2
loop_
 _symmetry_equiv_pos_site_id
 _symmetry_equiv_pos_as_xyz
  1  'x, y, z'
loop_
 _atom_site_type_symbol
 _atom_site_label
 _atom_site_symmetry_multiplicity
 _atom_site_fract_x
 _atom_site_fract_y
 _atom_site_fract_z
 _atom_site_occupancy
  Gd  Gd0  1  0.976738  0.916795  0.186286  1
  Gd  Gd1  1  0.790452  0.583205  0.813714  1
  Gd  Gd2  1  0.023262  0.083205  0.813714  1
  Gd  Gd3  1  0.209548  0.416795  0.186286  1
  Y  Y4  1  0.644779  0.814918  0.437233  1
  Y  Y5  1  0.207547  0.685082  0.562767  1
  Y  Y6  1  0.355221  0.185082  0.562767  1
  Y  Y7  1  0.792453  0.314918  0.437233  1
  Ho  Ho8  1  0.424697  0.750000  0.000000  1
  Ho  Ho9  1  0.575303  0.250000  0.000000  1
  Ir  Ir10  1  0.817723  0.575449  0.218472  1
  Ir  Ir11  1  0.599251  0.924551  0.781528  1
  Ir  Ir12  1  0.182277  0.424551  0.781528  1
  Ir  Ir13  1  0.400749  0.075449  0.218472  1
