# generated using pymatgen
data_Sm2Gd2SiSe3
_symmetry_space_group_name_H-M   'P 1'
_cell_length_a   7.23495989
_cell_length_b   7.23496005
_cell_length_c   7.23495978
_cell_angle_alpha   131.93027748
_cell_angle_beta   131.93027837
_cell_angle_gamma   70.33916583
_symmetry_Int_Tables_number   1
_chemical_formula_structural   Sm2Gd2SiSe3
_chemical_formula_sum   'Sm2 Gd2 Si1 Se3'
_cell_volume   205.41995211
_cell_formula_units_Z   1
loop_
 _symmetry_equiv_pos_site_id
 _symmetry_equiv_pos_as_xyz
  1  'x, y, z'
loop_
 _atom_site_type_symbol
 _atom_site_label
 _atom_site_symmetry_multiplicity
 _atom_site_fract_x
 _atom_site_fract_y
 _atom_site_fract_z
 _atom_site_occupancy
  Sm  Sm0  1  0.242192  0.242192  0.000000  1
  Sm  Sm1  1  0.757808  0.757808  0.000000  1
  Gd  Gd2  1  0.499999  0.000000  0.499999  1
  Gd  Gd3  1  0.000000  0.499999  0.499999  1
  Si  Si4  1  0.000000  0.000000  0.000000  1
  Se  Se5  1  0.500000  0.500000  0.000000  1
  Se  Se6  1  0.749999  0.250000  0.499999  1
  Se  Se7  1  0.250000  0.749999  0.499999  1
