# generated using pymatgen
data_Gd4VFe2Os5
_symmetry_space_group_name_H-M   'P 1'
_cell_length_a   5.21576100
_cell_length_b   5.18741702
_cell_length_c   8.82368000
_cell_angle_alpha   90.00000000
_cell_angle_beta   90.00000000
_cell_angle_gamma   117.63965667
_symmetry_Int_Tables_number   1
_chemical_formula_structural   Gd4VFe2Os5
_chemical_formula_sum   'Gd4 V1 Fe2 Os5'
_cell_volume   211.49242450
_cell_formula_units_Z   1
loop_
 _symmetry_equiv_pos_site_id
 _symmetry_equiv_pos_as_xyz
  1  'x, y, z'
loop_
 _atom_site_type_symbol
 _atom_site_label
 _atom_site_symmetry_multiplicity
 _atom_site_fract_x
 _atom_site_fract_y
 _atom_site_fract_z
 _atom_site_occupancy
  Gd  Gd0  1  0.327155  0.666216  0.441110  1
  Gd  Gd1  1  0.667259  0.332135  0.569590  1
  Gd  Gd2  1  0.667259  0.332135  0.930410  1
  Gd  Gd3  1  0.327155  0.666216  0.058890  1
  V  V4  1  0.834651  0.164295  0.250000  1
  Fe  Fe5  1  0.177662  0.838072  0.750000  1
  Fe  Fe6  1  0.179800  0.344219  0.750000  1
  Os  Os7  1  0.996670  0.000601  0.507880  1
  Os  Os8  1  0.996670  0.000601  0.992120  1
  Os  Os9  1  0.826625  0.656072  0.250000  1
  Os  Os10  1  0.346254  0.173559  0.250000  1
  Os  Os11  1  0.652842  0.825880  0.750000  1
