# generated using pymatgen
data_YHo2Lu3MnBi2
_symmetry_space_group_name_H-M   'P 1'
_cell_length_a   8.19597600
_cell_length_b   8.18017489
_cell_length_c   4.26926500
_cell_angle_alpha   90.00000000
_cell_angle_beta   90.00000000
_cell_angle_gamma   120.06391855
_symmetry_Int_Tables_number   1
_chemical_formula_structural   YHo2Lu3MnBi2
_chemical_formula_sum   'Y1 Ho2 Lu3 Mn1 Bi2'
_cell_volume   247.72334084
_cell_formula_units_Z   1
loop_
 _symmetry_equiv_pos_site_id
 _symmetry_equiv_pos_as_xyz
  1  'x, y, z'
loop_
 _atom_site_type_symbol
 _atom_site_label
 _atom_site_symmetry_multiplicity
 _atom_site_fract_x
 _atom_site_fract_y
 _atom_site_fract_z
 _atom_site_occupancy
  Y  Y0  1  0.609576  0.000000  0.000000  1
  Ho  Ho1  1  0.000424  0.612122  0.000000  1
  Ho  Ho2  1  0.388303  0.387878  0.000000  1
  Lu  Lu3  1  0.229315  0.000000  0.500000  1
  Lu  Lu4  1  0.000579  0.229921  0.500000  1
  Lu  Lu5  1  0.770658  0.770079  0.500000  1
  Mn  Mn6  1  0.001117  0.000000  0.000000  1
  Bi  Bi7  1  0.333090  0.666153  0.500000  1
  Bi  Bi8  1  0.666938  0.333847  0.500000  1
