# generated using pymatgen
data_Tb7YTlCdPd2
_symmetry_space_group_name_H-M   'P 1'
_cell_length_a   9.75403700
_cell_length_b   9.75403764
_cell_length_c   9.76587600
_cell_angle_alpha   59.95985019
_cell_angle_beta   59.95984800
_cell_angle_gamma   60.05970908
_symmetry_Int_Tables_number   1
_chemical_formula_structural   Tb7YTlCdPd2
_chemical_formula_sum   'Tb14 Y2 Tl2 Cd2 Pd4'
_cell_volume   656.89590764
_cell_formula_units_Z   2
loop_
 _symmetry_equiv_pos_site_id
 _symmetry_equiv_pos_as_xyz
  1  'x, y, z'
loop_
 _atom_site_type_symbol
 _atom_site_label
 _atom_site_symmetry_multiplicity
 _atom_site_fract_x
 _atom_site_fract_y
 _atom_site_fract_z
 _atom_site_occupancy
  Tb  Tb0  1  0.352458  0.352458  0.352781  1
  Tb  Tb1  1  0.352458  0.352458  0.942304  1
  Tb  Tb2  1  0.353909  0.939024  0.353534  1
  Tb  Tb3  1  0.939024  0.353909  0.353534  1
  Tb  Tb4  1  0.810334  0.189756  0.190083  1
  Tb  Tb5  1  0.189756  0.810334  0.809827  1
  Tb  Tb6  1  0.189756  0.810334  0.190083  1
  Tb  Tb7  1  0.810334  0.189756  0.809827  1
  Tb  Tb8  1  0.188830  0.188830  0.811170  1
  Tb  Tb9  1  0.809354  0.809354  0.190646  1
  Tb  Tb10  1  0.938090  0.565144  0.564515  1
  Tb  Tb11  1  0.565144  0.938090  0.932251  1
  Tb  Tb12  1  0.565144  0.938090  0.564515  1
  Tb  Tb13  1  0.938090  0.565144  0.932251  1
  Y  Y14  1  0.565254  0.565254  0.934746  1
  Y  Y15  1  0.936600  0.936600  0.563400  1
  Tl  Tl16  1  0.583401  0.583401  0.587007  1
  Tl  Tl17  1  0.583401  0.583401  0.246190  1
  Cd  Cd18  1  0.580819  0.250657  0.584262  1
  Cd  Cd19  1  0.250657  0.580819  0.584262  1
  Pd  Pd20  1  0.143464  0.143464  0.146618  1
  Pd  Pd21  1  0.143464  0.143464  0.566452  1
  Pd  Pd22  1  0.142927  0.567331  0.144871  1
  Pd  Pd23  1  0.567331  0.142927  0.144871  1
