# generated using pymatgen
data_Tb10Er2Tc3Ni
_symmetry_space_group_name_H-M   'P 1'
_cell_length_a   6.28751318
_cell_length_b   7.34107789
_cell_length_c   9.24931877
_cell_angle_alpha   89.97346535
_cell_angle_beta   89.75885250
_cell_angle_gamma   90.20750467
_symmetry_Int_Tables_number   1
_chemical_formula_structural   Tb10Er2Tc3Ni
_chemical_formula_sum   'Tb10 Er2 Tc3 Ni1'
_cell_volume   426.91532280
_cell_formula_units_Z   1
loop_
 _symmetry_equiv_pos_site_id
 _symmetry_equiv_pos_as_xyz
  1  'x, y, z'
loop_
 _atom_site_type_symbol
 _atom_site_label
 _atom_site_symmetry_multiplicity
 _atom_site_fract_x
 _atom_site_fract_y
 _atom_site_fract_z
 _atom_site_occupancy
  Tb  Tb0  1  0.667025  0.323339  0.562823  1
  Tb  Tb1  1  0.834405  0.823515  0.937847  1
  Tb  Tb2  1  0.667200  0.323644  0.937584  1
  Tb  Tb3  1  0.834795  0.823974  0.562076  1
  Tb  Tb4  1  0.327595  0.677674  0.431526  1
  Tb  Tb5  1  0.164275  0.177763  0.064076  1
  Tb  Tb6  1  0.870565  0.541496  0.249798  1
  Tb  Tb7  1  0.623896  0.040341  0.250461  1
  Tb  Tb8  1  0.142133  0.456767  0.750217  1
  Tb  Tb9  1  0.370843  0.956993  0.749737  1
  Er  Er10  1  0.328774  0.677135  0.067435  1
  Er  Er11  1  0.163266  0.176845  0.437176  1
  Tc  Tc12  1  0.039340  0.886698  0.248868  1
  Tc  Tc13  1  0.457639  0.388099  0.250509  1
  Tc  Tc14  1  0.960234  0.112322  0.747719  1
  Ni  Ni15  1  0.548016  0.613395  0.752147  1
