# generated using pymatgen
data_Al8FeIr4Rh3
_symmetry_space_group_name_H-M   'P 1'
_cell_length_a   5.99451100
_cell_length_b   4.23695300
_cell_length_c   8.47303700
_cell_angle_alpha   90.00024343
_cell_angle_beta   90.00019142
_cell_angle_gamma   90.00000092
_symmetry_Int_Tables_number   1
_chemical_formula_structural   Al8FeIr4Rh3
_chemical_formula_sum   'Al8 Fe1 Ir4 Rh3'
_cell_volume   215.20210289
_cell_formula_units_Z   1
loop_
 _symmetry_equiv_pos_site_id
 _symmetry_equiv_pos_as_xyz
  1  'x, y, z'
loop_
 _atom_site_type_symbol
 _atom_site_label
 _atom_site_symmetry_multiplicity
 _atom_site_fract_x
 _atom_site_fract_y
 _atom_site_fract_z
 _atom_site_occupancy
  Al  Al0  1  0.493113  0.749997  0.125003  1
  Al  Al1  1  0.006893  0.749997  0.125003  1
  Al  Al2  1  0.496518  0.249997  0.369327  1
  Al  Al3  1  0.003490  0.249997  0.369328  1
  Al  Al4  1  0.998824  0.749997  0.625003  1
  Al  Al5  1  0.501179  0.749998  0.625003  1
  Al  Al6  1  0.003487  0.249999  0.880672  1
  Al  Al7  1  0.496516  0.249999  0.880674  1
  Fe  Fe8  1  0.250005  0.249999  0.125004  1
  Ir  Ir9  1  0.750005  0.249999  0.125001  1
  Ir  Ir10  1  0.250004  0.749991  0.375057  1
  Ir  Ir11  1  0.750004  0.250000  0.625003  1
  Ir  Ir12  1  0.250000  0.749998  0.874947  1
  Rh  Rh13  1  0.750005  0.749991  0.375072  1
  Rh  Rh14  1  0.249952  0.250034  0.624979  1
  Rh  Rh15  1  0.750002  0.749997  0.874921  1
