# generated using pymatgen
data_Dy3Zn3Ag2Ru
_symmetry_space_group_name_H-M   'P 1'
_cell_length_a   7.49425800
_cell_length_b   7.49425780
_cell_length_c   3.83460200
_cell_angle_alpha   90.00000000
_cell_angle_beta   90.00000000
_cell_angle_gamma   120.00000972
_symmetry_Int_Tables_number   1
_chemical_formula_structural   Dy3Zn3Ag2Ru
_chemical_formula_sum   'Dy3 Zn3 Ag2 Ru1'
_cell_volume   186.51258972
_cell_formula_units_Z   1
loop_
 _symmetry_equiv_pos_site_id
 _symmetry_equiv_pos_as_xyz
  1  'x, y, z'
loop_
 _atom_site_type_symbol
 _atom_site_label
 _atom_site_symmetry_multiplicity
 _atom_site_fract_x
 _atom_site_fract_y
 _atom_site_fract_z
 _atom_site_occupancy
  Dy  Dy0  1  0.576220  0.972346  0.000000  1
  Dy  Dy1  1  0.027654  0.603874  0.000000  1
  Dy  Dy2  1  0.396126  0.423780  0.000000  1
  Zn  Zn3  1  0.259976  0.988751  0.500000  1
  Zn  Zn4  1  0.011249  0.271225  0.500000  1
  Zn  Zn5  1  0.728775  0.740024  0.500000  1
  Ag  Ag6  1  0.666667  0.333333  0.500000  1
  Ag  Ag7  1  0.000000  0.000000  0.000000  1
  Ru  Ru8  1  0.333333  0.666667  0.500000  1
