# generated using pymatgen
data_SrPb(S2O7)2
_symmetry_space_group_name_H-M   'P 1'
_cell_length_a   5.51582696
_cell_length_b   7.36036097
_cell_length_c   9.53127600
_cell_angle_alpha   93.00899140
_cell_angle_beta   96.30876322
_cell_angle_gamma   108.77268977
_symmetry_Int_Tables_number   1
_chemical_formula_structural   SrPb(S2O7)2
_chemical_formula_sum   'Sr1 Pb1 S4 O14'
_cell_volume   362.56129072
_cell_formula_units_Z   1
loop_
 _symmetry_equiv_pos_site_id
 _symmetry_equiv_pos_as_xyz
  1  'x, y, z'
loop_
 _atom_site_type_symbol
 _atom_site_label
 _atom_site_symmetry_multiplicity
 _atom_site_fract_x
 _atom_site_fract_y
 _atom_site_fract_z
 _atom_site_occupancy
  Sr  Sr0  1  0.500000  0.000000  0.500000  1
  Pb  Pb1  1  0.000000  0.500000  0.000000  1
  S  S2  1  0.517350  0.648825  0.770221  1
  S  S3  1  0.482650  0.351175  0.229779  1
  S  S4  1  0.155987  0.259906  0.689037  1
  S  S5  1  0.844013  0.740094  0.310963  1
  O  O6  1  0.711543  0.556465  0.802764  1
  O  O7  1  0.288457  0.443535  0.197236  1
  O  O8  1  0.399051  0.693365  0.891315  1
  O  O9  1  0.600949  0.306635  0.108685  1
  O  O10  1  0.599037  0.805267  0.681581  1
  O  O11  1  0.400963  0.194733  0.318419  1
  O  O12  1  0.282037  0.490215  0.660276  1
  O  O13  1  0.717963  0.509785  0.339724  1
  O  O14  1  0.956632  0.197597  0.567325  1
  O  O15  1  0.043368  0.802403  0.432675  1
  O  O16  1  0.361620  0.177154  0.686037  1
  O  O17  1  0.638380  0.822846  0.313963  1
  O  O18  1  0.062199  0.255580  0.826514  1
  O  O19  1  0.937801  0.744420  0.173486  1
