# generated using pymatgen
data_LiSc7(Si4Ru3)4
_symmetry_space_group_name_H-M   'P 1'
_cell_length_a   9.86370865
_cell_length_b   9.89412055
_cell_length_c   13.32404700
_cell_angle_alpha   54.08997508
_cell_angle_beta   54.10261796
_cell_angle_gamma   31.16451722
_symmetry_Int_Tables_number   1
_chemical_formula_structural   LiSc7(Si4Ru3)4
_chemical_formula_sum   'Li1 Sc7 Si16 Ru12'
_cell_volume   533.84072908
_cell_formula_units_Z   1
loop_
 _symmetry_equiv_pos_site_id
 _symmetry_equiv_pos_as_xyz
  1  'x, y, z'
loop_
 _atom_site_type_symbol
 _atom_site_label
 _atom_site_symmetry_multiplicity
 _atom_site_fract_x
 _atom_site_fract_y
 _atom_site_fract_z
 _atom_site_occupancy
  Li  Li0  1  0.287766  0.560026  0.655770  1
  Sc  Sc1  1  0.713322  0.960318  0.858707  1
  Sc  Sc2  1  0.291020  0.037370  0.139347  1
  Sc  Sc3  1  0.441645  0.706387  0.852215  1
  Sc  Sc4  1  0.041205  0.287605  0.639119  1
  Sc  Sc5  1  0.560149  0.296076  0.142864  1
  Sc  Sc6  1  0.966118  0.705795  0.360221  1
  Sc  Sc7  1  0.692350  0.445259  0.362316  1
  Si  Si8  1  0.025159  0.748083  0.106562  1
  Si  Si9  1  0.616904  0.859052  0.596844  1
  Si  Si10  1  0.973644  0.252670  0.894438  1
  Si  Si11  1  0.384140  0.617276  0.249343  1
  Si  Si12  1  0.386413  0.141424  0.398251  1
  Si  Si13  1  0.575537  0.079235  0.067569  1
  Si  Si14  1  0.143616  0.385672  0.899552  1
  Si  Si15  1  0.244137  0.985838  0.390681  1
  Si  Si16  1  0.085106  0.577196  0.568944  1
  Si  Si17  1  0.426209  0.920574  0.931563  1
  Si  Si18  1  0.132704  0.864296  0.749084  1
  Si  Si19  1  0.743372  0.031006  0.605842  1
  Si  Si20  1  0.871256  0.128147  0.250425  1
  Si  Si21  1  0.615309  0.381824  0.748178  1
  Si  Si22  1  0.918253  0.424919  0.433826  1
  Si  Si23  1  0.860177  0.609891  0.101133  1
  Ru  Ru24  1  0.143330  0.896623  0.085844  1
  Ru  Ru25  1  0.168263  0.353820  0.218263  1
  Ru  Ru26  1  0.351143  0.166111  0.717334  1
  Ru  Ru27  1  0.834447  0.644990  0.781374  1
  Ru  Ru28  1  0.503033  0.252136  0.431308  1
  Ru  Ru29  1  0.858515  0.103132  0.912958  1
  Ru  Ru30  1  0.647083  0.830407  0.282856  1
  Ru  Ru31  1  0.249102  0.506778  0.934682  1
  Ru  Ru32  1  0.753861  0.489258  0.066520  1
  Ru  Ru33  1  0.099449  0.863085  0.412241  1
  Ru  Ru34  1  0.901641  0.137068  0.586263  1
  Ru  Ru35  1  0.494622  0.750652  0.567568  1
