# generated using pymatgen
data_Lu(Zr5Os2)2
_symmetry_space_group_name_H-M   'P 1'
_cell_length_a   9.63691904
_cell_length_b   9.60296224
_cell_length_c   9.60296238
_cell_angle_alpha   59.78838098
_cell_angle_beta   59.88296067
_cell_angle_gamma   59.88296250
_symmetry_Int_Tables_number   1
_chemical_formula_structural   Lu(Zr5Os2)2
_chemical_formula_sum   'Lu2 Zr20 Os8'
_cell_volume   626.27659181
_cell_formula_units_Z   2
loop_
 _symmetry_equiv_pos_site_id
 _symmetry_equiv_pos_as_xyz
  1  'x, y, z'
loop_
 _atom_site_type_symbol
 _atom_site_label
 _atom_site_symmetry_multiplicity
 _atom_site_fract_x
 _atom_site_fract_y
 _atom_site_fract_z
 _atom_site_occupancy
  Lu  Lu0  1  0.801469  0.800073  0.199927  1
  Lu  Lu1  1  0.198531  0.800073  0.199927  1
  Zr  Zr2  1  0.799954  0.199150  0.200942  1
  Zr  Zr3  1  0.202934  0.203137  0.796863  1
  Zr  Zr4  1  0.797066  0.203137  0.796863  1
  Zr  Zr5  1  0.200046  0.799058  0.800850  1
  Zr  Zr6  1  0.617806  0.615422  0.148965  1
  Zr  Zr7  1  0.616935  0.148259  0.617869  1
  Zr  Zr8  1  0.150855  0.616220  0.619039  1
  Zr  Zr9  1  0.613884  0.616220  0.619039  1
  Zr  Zr10  1  0.383065  0.382131  0.851741  1
  Zr  Zr11  1  0.382194  0.851035  0.384578  1
  Zr  Zr12  1  0.849145  0.380961  0.383780  1
  Zr  Zr13  1  0.386116  0.380961  0.383780  1
  Zr  Zr14  1  0.834335  0.836135  0.495194  1
  Zr  Zr15  1  0.837967  0.486578  0.837487  1
  Zr  Zr16  1  0.490894  0.837050  0.834870  1
  Zr  Zr17  1  0.837184  0.837050  0.834870  1
  Zr  Zr18  1  0.162033  0.162513  0.513422  1
  Zr  Zr19  1  0.165665  0.504806  0.163865  1
  Zr  Zr20  1  0.509106  0.165130  0.162950  1
  Zr  Zr21  1  0.162816  0.165130  0.162950  1
  Os  Os22  1  0.000000  0.012430  0.987570  1
  Os  Os23  1  0.500000  0.500182  0.499818  1
  Os  Os24  1  0.001025  0.999591  0.499907  1
  Os  Os25  1  0.499477  0.999591  0.499907  1
  Os  Os26  1  0.000000  0.499326  0.500674  1
  Os  Os27  1  0.500523  0.500093  0.000409  1
  Os  Os28  1  0.998975  0.500093  0.000409  1
  Os  Os29  1  0.500000  0.998463  0.001537  1
