# generated using pymatgen
data_U4Re4(Ge2Rh)3
_symmetry_space_group_name_H-M   'P 1'
_cell_length_a   7.25082932
_cell_length_b   7.25696768
_cell_length_c   7.25696697
_cell_angle_alpha   108.82059012
_cell_angle_beta   109.81496891
_cell_angle_gamma   109.81497920
_symmetry_Int_Tables_number   1
_chemical_formula_structural   U4Re4(Ge2Rh)3
_chemical_formula_sum   'U4 Re4 Ge6 Rh3'
_cell_volume   293.79588633
_cell_formula_units_Z   1
loop_
 _symmetry_equiv_pos_site_id
 _symmetry_equiv_pos_as_xyz
  1  'x, y, z'
loop_
 _atom_site_type_symbol
 _atom_site_label
 _atom_site_symmetry_multiplicity
 _atom_site_fract_x
 _atom_site_fract_y
 _atom_site_fract_z
 _atom_site_occupancy
  U  U0  1  0.011538  0.005769  0.505769  1
  U  U1  1  0.011538  0.505769  0.005769  1
  U  U2  1  0.490334  0.984871  0.984871  1
  U  U3  1  0.490334  0.505463  0.505463  1
  Re  Re4  1  0.500655  0.250327  0.750327  1
  Re  Re5  1  0.248623  0.499117  0.749506  1
  Re  Re6  1  0.248623  0.749506  0.499117  1
  Re  Re7  1  0.500655  0.750327  0.250327  1
  Ge  Ge8  1  0.695331  0.692788  0.002543  1
  Ge  Ge9  1  0.311422  0.004076  0.307346  1
  Ge  Ge10  1  0.992764  0.304103  0.304103  1
  Ge  Ge11  1  0.311422  0.307346  0.004076  1
  Ge  Ge12  1  0.695331  0.002543  0.692788  1
  Ge  Ge13  1  0.992764  0.688661  0.688661  1
  Rh  Rh14  1  0.749517  0.249937  0.499580  1
  Rh  Rh15  1  0.749517  0.499580  0.249937  1
  Rh  Rh16  1  0.999630  0.999815  0.999815  1
