# generated using pymatgen
data_V12Si7Os5C4
_symmetry_space_group_name_H-M   'P 1'
_cell_length_a   7.83095542
_cell_length_b   7.83095564
_cell_length_c   7.83072127
_cell_angle_alpha   60.32782645
_cell_angle_beta   60.32782594
_cell_angle_gamma   60.32303682
_symmetry_Int_Tables_number   1
_chemical_formula_structural   V12Si7Os5C4
_chemical_formula_sum   'V12 Si7 Os5 C4'
_cell_volume   342.06612649
_cell_formula_units_Z   1
loop_
 _symmetry_equiv_pos_site_id
 _symmetry_equiv_pos_as_xyz
  1  'x, y, z'
loop_
 _atom_site_type_symbol
 _atom_site_label
 _atom_site_symmetry_multiplicity
 _atom_site_fract_x
 _atom_site_fract_y
 _atom_site_fract_z
 _atom_site_occupancy
  V  V0  1  0.813968  0.813968  0.189159  1
  V  V1  1  0.188066  0.188066  0.810910  1
  V  V2  1  0.813854  0.189340  0.813877  1
  V  V3  1  0.188213  0.810801  0.188146  1
  V  V4  1  0.189340  0.813854  0.813877  1
  V  V5  1  0.810801  0.188213  0.188146  1
  V  V6  1  0.435672  0.435672  0.061803  1
  V  V7  1  0.064720  0.064720  0.435165  1
  V  V8  1  0.435560  0.061942  0.435573  1
  V  V9  1  0.064885  0.435021  0.064844  1
  V  V10  1  0.061942  0.435560  0.435573  1
  V  V11  1  0.435021  0.064885  0.064844  1
  Si  Si12  1  0.769222  0.409156  0.409228  1
  Si  Si13  1  0.409156  0.769222  0.409228  1
  Si  Si14  1  0.409232  0.409232  0.769243  1
  Si  Si15  1  0.407671  0.407671  0.407577  1
  Si  Si16  1  0.480258  0.840609  0.840615  1
  Si  Si17  1  0.840609  0.480258  0.840615  1
  Si  Si18  1  0.840628  0.840628  0.480241  1
  Os  Os19  1  0.127175  0.621121  0.621355  1
  Os  Os20  1  0.621121  0.127175  0.621355  1
  Os  Os21  1  0.621315  0.621315  0.127173  1
  Os  Os22  1  0.624963  0.624963  0.624791  1
  Os  Os23  1  0.846118  0.846118  0.846123  1
  C  C24  1  0.623336  0.126346  0.126280  1
  C  C25  1  0.126346  0.623336  0.126280  1
  C  C26  1  0.126260  0.126260  0.623391  1
  C  C27  1  0.124544  0.124544  0.124587  1
