# generated using pymatgen
data_Er4Co3Si4Rh
_symmetry_space_group_name_H-M   'P 1'
_cell_length_a   4.16614000
_cell_length_b   6.81486540
_cell_length_c   7.08022936
_cell_angle_alpha   90.13560783
_cell_angle_beta   90.00000000
_cell_angle_gamma   90.00000000
_symmetry_Int_Tables_number   1
_chemical_formula_structural   Er4Co3Si4Rh
_chemical_formula_sum   'Er4 Co3 Si4 Rh1'
_cell_volume   201.01906691
_cell_formula_units_Z   1
loop_
 _symmetry_equiv_pos_site_id
 _symmetry_equiv_pos_as_xyz
  1  'x, y, z'
loop_
 _atom_site_type_symbol
 _atom_site_label
 _atom_site_symmetry_multiplicity
 _atom_site_fract_x
 _atom_site_fract_y
 _atom_site_fract_z
 _atom_site_occupancy
  Er  Er0  1  0.250000  0.484720  0.688583  1
  Er  Er1  1  0.750000  0.507560  0.313692  1
  Er  Er2  1  0.250000  0.992867  0.804562  1
  Er  Er3  1  0.750000  0.007758  0.192992  1
  Co  Co4  1  0.750000  0.851396  0.570643  1
  Co  Co5  1  0.250000  0.154195  0.433746  1
  Co  Co6  1  0.750000  0.350636  0.931580  1
  Si  Si7  1  0.250000  0.294202  0.101721  1
  Si  Si8  1  0.750000  0.697780  0.884837  1
  Si  Si9  1  0.250000  0.805625  0.406528  1
  Si  Si10  1  0.750000  0.197427  0.602192  1
  Rh  Rh11  1  0.250000  0.655835  0.068923  1
