# generated using pymatgen
data_Eu2CuPd3
_symmetry_space_group_name_H-M   'P 1'
_cell_length_a   5.36648424
_cell_length_b   5.36648409
_cell_length_c   5.36648346
_cell_angle_alpha   63.10529654
_cell_angle_beta   63.10529108
_cell_angle_gamma   63.10530811
_symmetry_Int_Tables_number   1
_chemical_formula_structural   Eu2CuPd3
_chemical_formula_sum   'Eu2 Cu1 Pd3'
_cell_volume   116.81123591
_cell_formula_units_Z   1
loop_
 _symmetry_equiv_pos_site_id
 _symmetry_equiv_pos_as_xyz
  1  'x, y, z'
loop_
 _atom_site_type_symbol
 _atom_site_label
 _atom_site_symmetry_multiplicity
 _atom_site_fract_x
 _atom_site_fract_y
 _atom_site_fract_z
 _atom_site_occupancy
  Eu  Eu0  1  0.873407  0.873407  0.873407  1
  Eu  Eu1  1  0.126593  0.126593  0.126593  1
  Cu  Cu2  1  0.500000  0.500000  0.500000  1
  Pd  Pd3  1  0.500000  0.500000  0.000000  1
  Pd  Pd4  1  0.000000  0.500000  0.500000  1
  Pd  Pd5  1  0.500000  0.000000  0.500000  1
