# generated using pymatgen
data_Ce2AlSnRh2
_symmetry_space_group_name_H-M   'P 1'
_cell_length_a   4.21127500
_cell_length_b   7.41367900
_cell_length_c   16.31865500
_cell_angle_alpha   90.00000000
_cell_angle_beta   90.00000000
_cell_angle_gamma   90.00000000
_symmetry_Int_Tables_number   1
_chemical_formula_structural   Ce2AlSnRh2
_chemical_formula_sum   'Ce8 Al4 Sn4 Rh8'
_cell_volume   509.48539732
_cell_formula_units_Z   4
loop_
 _symmetry_equiv_pos_site_id
 _symmetry_equiv_pos_as_xyz
  1  'x, y, z'
loop_
 _atom_site_type_symbol
 _atom_site_label
 _atom_site_symmetry_multiplicity
 _atom_site_fract_x
 _atom_site_fract_y
 _atom_site_fract_z
 _atom_site_occupancy
  Ce  Ce0  1  0.250000  0.167904  0.558931  1
  Ce  Ce1  1  0.750000  0.832096  0.441069  1
  Ce  Ce2  1  0.250000  0.667904  0.941069  1
  Ce  Ce3  1  0.750000  0.332096  0.058931  1
  Ce  Ce4  1  0.250000  0.042772  0.785334  1
  Ce  Ce5  1  0.750000  0.957228  0.214666  1
  Ce  Ce6  1  0.250000  0.542772  0.714666  1
  Ce  Ce7  1  0.750000  0.457228  0.285334  1
  Al  Al8  1  0.250000  0.003520  0.060777  1
  Al  Al9  1  0.750000  0.996480  0.939223  1
  Al  Al10  1  0.250000  0.503520  0.439223  1
  Al  Al11  1  0.750000  0.496480  0.560777  1
  Sn  Sn12  1  0.250000  0.123383  0.349290  1
  Sn  Sn13  1  0.750000  0.876617  0.650710  1
  Sn  Sn14  1  0.250000  0.623383  0.150710  1
  Sn  Sn15  1  0.750000  0.376617  0.849290  1
  Rh  Rh16  1  0.750000  0.287430  0.431833  1
  Rh  Rh17  1  0.250000  0.712570  0.568167  1
  Rh  Rh18  1  0.750000  0.787430  0.068167  1
  Rh  Rh19  1  0.250000  0.212570  0.931833  1
  Rh  Rh20  1  0.750000  0.760531  0.821092  1
  Rh  Rh21  1  0.250000  0.239469  0.178908  1
  Rh  Rh22  1  0.750000  0.260531  0.678908  1
  Rh  Rh23  1  0.250000  0.739469  0.321092  1
