# generated using pymatgen
data_Tm4AlGaTc6
_symmetry_space_group_name_H-M   'P 1'
_cell_length_a   5.31854000
_cell_length_b   5.31854022
_cell_length_c   8.93870300
_cell_angle_alpha   90.00000000
_cell_angle_beta   90.00000000
_cell_angle_gamma   119.99999866
_symmetry_Int_Tables_number   1
_chemical_formula_structural   Tm4AlGaTc6
_chemical_formula_sum   'Tm4 Al1 Ga1 Tc6'
_cell_volume   218.97272472
_cell_formula_units_Z   1
loop_
 _symmetry_equiv_pos_site_id
 _symmetry_equiv_pos_as_xyz
  1  'x, y, z'
loop_
 _atom_site_type_symbol
 _atom_site_label
 _atom_site_symmetry_multiplicity
 _atom_site_fract_x
 _atom_site_fract_y
 _atom_site_fract_z
 _atom_site_occupancy
  Tm  Tm0  1  0.333333  0.666667  0.431872  1
  Tm  Tm1  1  0.666667  0.333333  0.568128  1
  Tm  Tm2  1  0.666667  0.333333  0.932268  1
  Tm  Tm3  1  0.333333  0.666667  0.067732  1
  Al  Al4  1  0.000000  0.000000  0.500000  1
  Ga  Ga5  1  0.000000  0.000000  0.000000  1
  Tc  Tc6  1  0.829158  0.170842  0.250183  1
  Tc  Tc7  1  0.829158  0.658315  0.250183  1
  Tc  Tc8  1  0.341685  0.170842  0.250183  1
  Tc  Tc9  1  0.170842  0.829158  0.749817  1
  Tc  Tc10  1  0.170842  0.341685  0.749817  1
  Tc  Tc11  1  0.658315  0.829158  0.749817  1
