# generated using pymatgen
data_Sm10In5BiCl2
_symmetry_space_group_name_H-M   'P 1'
_cell_length_a   9.37883819
_cell_length_b   9.37883787
_cell_length_c   6.78223500
_cell_angle_alpha   90.00000000
_cell_angle_beta   90.00000000
_cell_angle_gamma   120.21987893
_symmetry_Int_Tables_number   1
_chemical_formula_structural   Sm10In5BiCl2
_chemical_formula_sum   'Sm10 In5 Bi1 Cl2'
_cell_volume   515.50754241
_cell_formula_units_Z   1
loop_
 _symmetry_equiv_pos_site_id
 _symmetry_equiv_pos_as_xyz
  1  'x, y, z'
loop_
 _atom_site_type_symbol
 _atom_site_label
 _atom_site_symmetry_multiplicity
 _atom_site_fract_x
 _atom_site_fract_y
 _atom_site_fract_z
 _atom_site_occupancy
  Sm  Sm0  1  0.259861  0.002208  0.750000  1
  Sm  Sm1  1  0.744022  0.005018  0.250000  1
  Sm  Sm2  1  0.002208  0.259861  0.750000  1
  Sm  Sm3  1  0.005018  0.744022  0.250000  1
  Sm  Sm4  1  0.743108  0.743108  0.750000  1
  Sm  Sm5  1  0.254276  0.254276  0.250000  1
  Sm  Sm6  1  0.329525  0.666812  0.501878  1
  Sm  Sm7  1  0.666812  0.329525  0.501878  1
  Sm  Sm8  1  0.666812  0.329525  0.998122  1
  Sm  Sm9  1  0.329525  0.666812  0.998122  1
  In  In10  1  0.607820  0.999292  0.750000  1
  In  In11  1  0.394517  0.000247  0.250000  1
  In  In12  1  0.999292  0.607820  0.750000  1
  In  In13  1  0.000247  0.394517  0.250000  1
  In  In14  1  0.391679  0.391679  0.750000  1
  Bi  Bi15  1  0.608748  0.608748  0.250000  1
  Cl  Cl16  1  0.998265  0.998265  0.498839  1
  Cl  Cl17  1  0.998265  0.998265  0.001161  1
