# generated using pymatgen
data_DyY5Al24(RuRh3)2
_symmetry_space_group_name_H-M   'P 1'
_cell_length_a   8.83522213
_cell_length_b   8.83786509
_cell_length_c   9.49996500
_cell_angle_alpha   90.00000000
_cell_angle_beta   90.00000000
_cell_angle_gamma   120.00989191
_symmetry_Int_Tables_number   1
_chemical_formula_structural   DyY5Al24(RuRh3)2
_chemical_formula_sum   'Dy1 Y5 Al24 Ru2 Rh6'
_cell_volume   642.35362549
_cell_formula_units_Z   1
loop_
 _symmetry_equiv_pos_site_id
 _symmetry_equiv_pos_as_xyz
  1  'x, y, z'
loop_
 _atom_site_type_symbol
 _atom_site_label
 _atom_site_symmetry_multiplicity
 _atom_site_fract_x
 _atom_site_fract_y
 _atom_site_fract_z
 _atom_site_occupancy
  Dy  Dy0  1  0.383489  0.191745  0.750000  1
  Y  Y1  1  0.191906  0.808019  0.250000  1
  Y  Y2  1  0.191906  0.383886  0.250000  1
  Y  Y3  1  0.615989  0.807994  0.250000  1
  Y  Y4  1  0.808172  0.191708  0.750000  1
  Y  Y5  1  0.808172  0.616464  0.750000  1
  Al  Al6  1  0.561707  0.438169  0.250000  1
  Al  Al7  1  0.561707  0.123537  0.250000  1
  Al  Al8  1  0.876540  0.438270  0.250000  1
  Al  Al9  1  0.438158  0.561761  0.750000  1
  Al  Al10  1  0.438158  0.876398  0.750000  1
  Al  Al11  1  0.123618  0.561810  0.750000  1
  Al  Al12  1  0.326164  0.163082  0.424206  1
  Al  Al13  1  0.836999  0.163139  0.424136  1
  Al  Al14  1  0.836999  0.673861  0.424136  1
  Al  Al15  1  0.673865  0.836932  0.576018  1
  Al  Al16  1  0.163077  0.836984  0.576048  1
  Al  Al17  1  0.163077  0.326092  0.576048  1
  Al  Al18  1  0.673865  0.836932  0.923982  1
  Al  Al19  1  0.163077  0.836984  0.923952  1
  Al  Al20  1  0.163077  0.326092  0.923952  1
  Al  Al21  1  0.326164  0.163082  0.075794  1
  Al  Al22  1  0.836999  0.163139  0.075864  1
  Al  Al23  1  0.836999  0.673861  0.075864  1
  Al  Al24  1  0.666573  0.333286  0.528739  1
  Al  Al25  1  0.333349  0.666675  0.471234  1
  Al  Al26  1  0.333349  0.666675  0.028766  1
  Al  Al27  1  0.666573  0.333286  0.971261  1
  Al  Al28  1  0.000081  0.000041  0.250000  1
  Al  Al29  1  0.000415  0.000208  0.750000  1
  Ru  Ru30  1  0.999943  0.999971  0.499651  1
  Ru  Ru31  1  0.999943  0.999971  0.000349  1
  Rh  Rh32  1  0.500012  0.499986  0.499964  1
  Rh  Rh33  1  0.500012  0.000027  0.499964  1
  Rh  Rh34  1  0.999921  0.499961  0.499956  1
  Rh  Rh35  1  0.500012  0.499986  0.000036  1
  Rh  Rh36  1  0.500012  0.000027  0.000036  1
  Rh  Rh37  1  0.999921  0.499961  0.000044  1
