# generated using pymatgen
data_Li3Tm12Th4MgCo4
_symmetry_space_group_name_H-M   'P 1'
_cell_length_a   9.47844478
_cell_length_b   9.48016695
_cell_length_c   9.48016600
_cell_angle_alpha   60.00000330
_cell_angle_beta   59.99399275
_cell_angle_gamma   59.99398959
_symmetry_Int_Tables_number   1
_chemical_formula_structural   Li3Tm12Th4MgCo4
_chemical_formula_sum   'Li3 Tm12 Th4 Mg1 Co4'
_cell_volume   602.30237324
_cell_formula_units_Z   1
loop_
 _symmetry_equiv_pos_site_id
 _symmetry_equiv_pos_as_xyz
  1  'x, y, z'
loop_
 _atom_site_type_symbol
 _atom_site_label
 _atom_site_symmetry_multiplicity
 _atom_site_fract_x
 _atom_site_fract_y
 _atom_site_fract_z
 _atom_site_occupancy
  Li  Li0  1  0.579747  0.579211  0.579211  1
  Li  Li1  1  0.579747  0.579211  0.261830  1
  Li  Li2  1  0.579747  0.261830  0.579211  1
  Tm  Tm3  1  0.815747  0.184413  0.184413  1
  Tm  Tm4  1  0.184478  0.814928  0.814928  1
  Tm  Tm5  1  0.184478  0.814928  0.185665  1
  Tm  Tm6  1  0.815747  0.184413  0.815426  1
  Tm  Tm7  1  0.184478  0.185665  0.814928  1
  Tm  Tm8  1  0.815747  0.815426  0.184413  1
  Tm  Tm9  1  0.932844  0.565999  0.565999  1
  Tm  Tm10  1  0.565774  0.934192  0.934192  1
  Tm  Tm11  1  0.565774  0.934192  0.565843  1
  Tm  Tm12  1  0.932844  0.565999  0.935159  1
  Tm  Tm13  1  0.565774  0.565843  0.934192  1
  Tm  Tm14  1  0.932844  0.935159  0.565999  1
  Th  Th15  1  0.346160  0.345350  0.345350  1
  Th  Th16  1  0.346160  0.345350  0.963141  1
  Th  Th17  1  0.346160  0.963141  0.345350  1
  Th  Th18  1  0.963359  0.345547  0.345547  1
  Mg  Mg19  1  0.261602  0.579466  0.579466  1
  Co  Co20  1  0.144547  0.144345  0.144345  1
  Co  Co21  1  0.144547  0.144345  0.566763  1
  Co  Co22  1  0.144547  0.566763  0.144345  1
  Co  Co23  1  0.567150  0.144284  0.144284  1
