# generated using pymatgen
data_KUCl6
_symmetry_space_group_name_H-M   'P 1'
_cell_length_a   7.65292799
_cell_length_b   7.65292937
_cell_length_c   7.65293111
_cell_angle_alpha   58.42147156
_cell_angle_beta   58.42146632
_cell_angle_gamma   58.42164346
_symmetry_Int_Tables_number   1
_chemical_formula_structural   KUCl6
_chemical_formula_sum   'K1 U1 Cl6'
_cell_volume   305.48434133
_cell_formula_units_Z   1
loop_
 _symmetry_equiv_pos_site_id
 _symmetry_equiv_pos_as_xyz
  1  'x, y, z'
loop_
 _atom_site_type_symbol
 _atom_site_label
 _atom_site_symmetry_multiplicity
 _atom_site_fract_x
 _atom_site_fract_y
 _atom_site_fract_z
 _atom_site_occupancy
  K  K0  1  0.713072  0.713072  0.713072  1
  U  U1  1  0.997920  0.997920  0.997920  1
  Cl  Cl2  1  0.238073  0.760674  0.760674  1
  Cl  Cl3  1  0.760674  0.760674  0.238073  1
  Cl  Cl4  1  0.760674  0.238073  0.760674  1
  Cl  Cl5  1  0.753494  0.235159  0.235159  1
  Cl  Cl6  1  0.235159  0.235159  0.753494  1
  Cl  Cl7  1  0.235159  0.753494  0.235159  1
