# generated using pymatgen
data_Nd2Zn(GaCu2)3
_symmetry_space_group_name_H-M   'P 1'
_cell_length_a   4.20955900
_cell_length_b   5.17123523
_cell_length_c   9.07337186
_cell_angle_alpha   89.94496243
_cell_angle_beta   90.00000000
_cell_angle_gamma   90.00000000
_symmetry_Int_Tables_number   1
_chemical_formula_structural   Nd2Zn(GaCu2)3
_chemical_formula_sum   'Nd2 Zn1 Ga3 Cu6'
_cell_volume   197.51469134
_cell_formula_units_Z   1
loop_
 _symmetry_equiv_pos_site_id
 _symmetry_equiv_pos_as_xyz
  1  'x, y, z'
loop_
 _atom_site_type_symbol
 _atom_site_label
 _atom_site_symmetry_multiplicity
 _atom_site_fract_x
 _atom_site_fract_y
 _atom_site_fract_z
 _atom_site_occupancy
  Nd  Nd0  1  0.000000  0.247392  0.751711  1
  Nd  Nd1  1  0.000000  0.752608  0.248289  1
  Zn  Zn2  1  0.500000  0.000000  0.500000  1
  Ga  Ga3  1  0.500000  0.728053  0.746437  1
  Ga  Ga4  1  0.500000  0.271947  0.253563  1
  Ga  Ga5  1  0.500000  0.000000  0.000000  1
  Cu  Cu6  1  0.000000  0.255800  0.080825  1
  Cu  Cu7  1  0.000000  0.746624  0.578696  1
  Cu  Cu8  1  0.000000  0.744200  0.919175  1
  Cu  Cu9  1  0.000000  0.253376  0.421304  1
  Cu  Cu10  1  0.500000  0.500000  0.500000  1
  Cu  Cu11  1  0.500000  0.500000  0.000000  1
