# generated using pymatgen
data_Co6Si2OsW3
_symmetry_space_group_name_H-M   'P 1'
_cell_length_a   4.74678900
_cell_length_b   4.74678837
_cell_length_c   7.38255300
_cell_angle_alpha   90.00000000
_cell_angle_beta   90.00000000
_cell_angle_gamma   119.99998348
_symmetry_Int_Tables_number   1
_chemical_formula_structural   Co6Si2OsW3
_chemical_formula_sum   'Co6 Si2 Os1 W3'
_cell_volume   144.05789831
_cell_formula_units_Z   1
loop_
 _symmetry_equiv_pos_site_id
 _symmetry_equiv_pos_as_xyz
  1  'x, y, z'
loop_
 _atom_site_type_symbol
 _atom_site_label
 _atom_site_symmetry_multiplicity
 _atom_site_fract_x
 _atom_site_fract_y
 _atom_site_fract_z
 _atom_site_occupancy
  Co  Co0  1  0.829809  0.170191  0.248017  1
  Co  Co1  1  0.829809  0.659618  0.248017  1
  Co  Co2  1  0.340382  0.170191  0.248017  1
  Co  Co3  1  0.171470  0.828530  0.750941  1
  Co  Co4  1  0.171470  0.342941  0.750941  1
  Co  Co5  1  0.657059  0.828530  0.750941  1
  Si  Si6  1  0.000000  0.000000  0.500072  1
  Si  Si7  1  0.000000  0.000000  0.997889  1
  Os  Os8  1  0.333333  0.666667  0.437525  1
  W  W9  1  0.666667  0.333333  0.564101  1
  W  W10  1  0.666667  0.333333  0.931166  1
  W  W11  1  0.333333  0.666667  0.072372  1
