# generated using pymatgen
data_YEr2In3Ir2Au
_symmetry_space_group_name_H-M   'P 1'
_cell_length_a   7.69254466
_cell_length_b   7.71083572
_cell_length_c   3.86866500
_cell_angle_alpha   90.00000000
_cell_angle_beta   90.00000000
_cell_angle_gamma   119.96899018
_symmetry_Int_Tables_number   1
_chemical_formula_structural   YEr2In3Ir2Au
_chemical_formula_sum   'Y1 Er2 In3 Ir2 Au1'
_cell_volume   198.79197777
_cell_formula_units_Z   1
loop_
 _symmetry_equiv_pos_site_id
 _symmetry_equiv_pos_as_xyz
  1  'x, y, z'
loop_
 _atom_site_type_symbol
 _atom_site_label
 _atom_site_symmetry_multiplicity
 _atom_site_fract_x
 _atom_site_fract_y
 _atom_site_fract_z
 _atom_site_occupancy
  Y  Y0  1  0.610386  0.022212  0.500000  1
  Er  Er1  1  0.411969  0.387889  0.500000  1
  Er  Er2  1  0.975870  0.588142  0.500000  1
  In  In3  1  0.999972  0.258284  0.000000  1
  In  In4  1  0.742249  0.741299  0.000000  1
  In  In5  1  0.258398  0.000722  0.000000  1
  Ir  Ir6  1  0.667413  0.336738  0.000000  1
  Ir  Ir7  1  0.001885  0.000072  0.500000  1
  Au  Au8  1  0.331856  0.664640  0.000000  1
