# generated using pymatgen
data_Dy2Si7(IrRh)6
_symmetry_space_group_name_H-M   'P 1'
_cell_length_a   9.73626800
_cell_length_b   9.73626813
_cell_length_c   3.87257800
_cell_angle_alpha   90.00000000
_cell_angle_beta   90.00000000
_cell_angle_gamma   120.00000635
_symmetry_Int_Tables_number   1
_chemical_formula_structural   Dy2Si7(IrRh)6
_chemical_formula_sum   'Dy2 Si7 Ir6 Rh6'
_cell_volume   317.91851646
_cell_formula_units_Z   1
loop_
 _symmetry_equiv_pos_site_id
 _symmetry_equiv_pos_as_xyz
  1  'x, y, z'
loop_
 _atom_site_type_symbol
 _atom_site_label
 _atom_site_symmetry_multiplicity
 _atom_site_fract_x
 _atom_site_fract_y
 _atom_site_fract_z
 _atom_site_occupancy
  Dy  Dy0  1  0.333333  0.666667  0.750447  1
  Dy  Dy1  1  0.666667  0.333333  0.249553  1
  Si  Si2  1  0.000000  0.000000  0.500000  1
  Si  Si3  1  0.402074  0.289532  0.751903  1
  Si  Si4  1  0.710468  0.112542  0.751903  1
  Si  Si5  1  0.887458  0.597926  0.751903  1
  Si  Si6  1  0.597926  0.710468  0.248097  1
  Si  Si7  1  0.289532  0.887458  0.248097  1
  Si  Si8  1  0.112542  0.402074  0.248097  1
  Ir  Ir9  1  0.443455  0.063065  0.751283  1
  Ir  Ir10  1  0.936935  0.380391  0.751283  1
  Ir  Ir11  1  0.619609  0.556545  0.751283  1
  Ir  Ir12  1  0.556545  0.936935  0.248717  1
  Ir  Ir13  1  0.063065  0.619609  0.248717  1
  Ir  Ir14  1  0.380391  0.443455  0.248717  1
  Rh  Rh15  1  0.143851  0.261046  0.744369  1
  Rh  Rh16  1  0.738954  0.882806  0.744369  1
  Rh  Rh17  1  0.117194  0.856149  0.744369  1
  Rh  Rh18  1  0.856149  0.738954  0.255631  1
  Rh  Rh19  1  0.261046  0.117194  0.255631  1
  Rh  Rh20  1  0.882806  0.143851  0.255631  1
