# generated using pymatgen
data_Li7Cd5(Sn3O8)4
_symmetry_space_group_name_H-M   'P 1'
_cell_length_a   8.94535002
_cell_length_b   8.90636869
_cell_length_c   8.92912500
_cell_angle_alpha   90.02191122
_cell_angle_beta   89.95294820
_cell_angle_gamma   90.04737221
_symmetry_Int_Tables_number   1
_chemical_formula_structural   Li7Cd5(Sn3O8)4
_chemical_formula_sum   'Li7 Cd5 Sn12 O32'
_cell_volume   711.38808041
_cell_formula_units_Z   1
loop_
 _symmetry_equiv_pos_site_id
 _symmetry_equiv_pos_as_xyz
  1  'x, y, z'
loop_
 _atom_site_type_symbol
 _atom_site_label
 _atom_site_symmetry_multiplicity
 _atom_site_fract_x
 _atom_site_fract_y
 _atom_site_fract_z
 _atom_site_occupancy
  Li  Li0  1  0.999162  0.998563  0.998205  1
  Li  Li1  1  0.124749  0.876937  0.375969  1
  Li  Li2  1  0.377214  0.123114  0.876756  1
  Li  Li3  1  0.501501  0.001742  0.499234  1
  Li  Li4  1  0.498204  0.500616  0.001585  1
  Li  Li5  1  0.623197  0.623867  0.624950  1
  Li  Li6  1  0.876420  0.374826  0.123278  1
  Cd  Cd7  1  0.253290  0.249865  0.252520  1
  Cd  Cd8  1  0.249581  0.747976  0.752950  1
  Cd  Cd9  1  0.752544  0.247379  0.749790  1
  Cd  Cd10  1  0.746386  0.753333  0.246211  1
  Cd  Cd11  1  0.000438  0.499810  0.500256  1
  Sn  Sn12  1  0.138827  0.112389  0.628422  1
  Sn  Sn13  1  0.128817  0.360783  0.887757  1
  Sn  Sn14  1  0.121043  0.631293  0.130604  1
  Sn  Sn15  1  0.387606  0.371297  0.639181  1
  Sn  Sn16  1  0.379164  0.640069  0.382682  1
  Sn  Sn17  1  0.363911  0.885478  0.127926  1
  Sn  Sn18  1  0.630276  0.379135  0.368865  1
  Sn  Sn19  1  0.628185  0.136255  0.114495  1
  Sn  Sn20  1  0.614583  0.871658  0.863774  1
  Sn  Sn21  1  0.882397  0.120856  0.359925  1
  Sn  Sn22  1  0.868515  0.869540  0.620914  1
  Sn  Sn23  1  0.860312  0.617389  0.879529  1
  O  O24  1  0.110750  0.114416  0.394351  1
  O  O25  1  0.103277  0.884476  0.615352  1
  O  O26  1  0.104439  0.605427  0.891451  1
  O  O27  1  0.115710  0.395745  0.115232  1
  O  O28  1  0.125328  0.131785  0.860898  1
  O  O29  1  0.143966  0.356617  0.643839  1
  O  O30  1  0.145417  0.638857  0.361678  1
  O  O31  1  0.134870  0.863522  0.123547  1
  O  O32  1  0.367144  0.138441  0.625119  1
  O  O33  1  0.360944  0.374521  0.867728  1
  O  O34  1  0.362249  0.641409  0.139616  1
  O  O35  1  0.377457  0.869211  0.360772  1
  O  O36  1  0.386043  0.605912  0.611414  1
  O  O37  1  0.391461  0.395398  0.394912  1
  O  O38  1  0.394379  0.113548  0.112664  1
  O  O39  1  0.387285  0.886714  0.893848  1
  O  O40  1  0.614686  0.384169  0.603897  1
  O  O41  1  0.609985  0.609771  0.386000  1
  O  O42  1  0.605423  0.894143  0.105507  1
  O  O43  1  0.612967  0.106333  0.886764  1
  O  O44  1  0.623615  0.365983  0.137089  1
  O  O45  1  0.639656  0.137305  0.358253  1
  O  O46  1  0.637136  0.876329  0.634478  1
  O  O47  1  0.631893  0.638482  0.877906  1
  O  O48  1  0.861107  0.355418  0.361251  1
  O  O49  1  0.860657  0.122467  0.131259  1
  O  O50  1  0.858130  0.860736  0.862406  1
  O  O51  1  0.861007  0.637918  0.645323  1
  O  O52  1  0.885715  0.889247  0.390642  1
  O  O53  1  0.894806  0.109047  0.604319  1
  O  O54  1  0.894976  0.388261  0.886276  1
  O  O55  1  0.891203  0.614341  0.110557  1
