# generated using pymatgen
data_Tm8Sc2Si5Sb
_symmetry_space_group_name_H-M   'P 1'
_cell_length_a   8.34846080
_cell_length_b   8.34846051
_cell_length_c   6.11999200
_cell_angle_alpha   89.99954612
_cell_angle_beta   89.99954309
_cell_angle_gamma   120.16641853
_symmetry_Int_Tables_number   1
_chemical_formula_structural   Tm8Sc2Si5Sb
_chemical_formula_sum   'Tm8 Sc2 Si5 Sb1'
_cell_volume   368.77677607
_cell_formula_units_Z   1
loop_
 _symmetry_equiv_pos_site_id
 _symmetry_equiv_pos_as_xyz
  1  'x, y, z'
loop_
 _atom_site_type_symbol
 _atom_site_label
 _atom_site_symmetry_multiplicity
 _atom_site_fract_x
 _atom_site_fract_y
 _atom_site_fract_z
 _atom_site_occupancy
  Tm  Tm0  1  0.331361  0.674624  0.995639  1
  Tm  Tm1  1  0.674624  0.331361  0.995639  1
  Tm  Tm2  1  0.765448  0.765448  0.252692  1
  Tm  Tm3  1  0.240859  0.987606  0.253489  1
  Tm  Tm4  1  0.987606  0.240859  0.253489  1
  Tm  Tm5  1  0.241132  0.241132  0.750057  1
  Tm  Tm6  1  0.754903  0.999280  0.746393  1
  Tm  Tm7  1  0.999280  0.754903  0.746393  1
  Sc  Sc8  1  0.673881  0.331618  0.503203  1
  Sc  Sc9  1  0.331618  0.673881  0.503203  1
  Si  Si10  1  0.601938  0.998764  0.262461  1
  Si  Si11  1  0.998764  0.601938  0.262461  1
  Si  Si12  1  0.605102  0.605102  0.740167  1
  Si  Si13  1  0.396009  0.002027  0.737265  1
  Si  Si14  1  0.002027  0.396009  0.737265  1
  Sb  Sb15  1  0.395448  0.395448  0.260185  1
