# generated using pymatgen
data_Cs6Li2Sn7Pb
_symmetry_space_group_name_H-M   'P 1'
_cell_length_a   9.23715647
_cell_length_b   9.23991471
_cell_length_c   10.77814300
_cell_angle_alpha   90.00000000
_cell_angle_beta   90.00000000
_cell_angle_gamma   132.81517886
_symmetry_Int_Tables_number   1
_chemical_formula_structural   Cs6Li2Sn7Pb
_chemical_formula_sum   'Cs6 Li2 Sn7 Pb1'
_cell_volume   674.80739152
_cell_formula_units_Z   1
loop_
 _symmetry_equiv_pos_site_id
 _symmetry_equiv_pos_as_xyz
  1  'x, y, z'
loop_
 _atom_site_type_symbol
 _atom_site_label
 _atom_site_symmetry_multiplicity
 _atom_site_fract_x
 _atom_site_fract_y
 _atom_site_fract_z
 _atom_site_occupancy
  Cs  Cs0  1  0.230560  0.770227  0.250000  1
  Cs  Cs1  1  0.768920  0.228890  0.750000  1
  Cs  Cs2  1  0.615932  0.386856  0.053211  1
  Cs  Cs3  1  0.387888  0.617377  0.952389  1
  Cs  Cs4  1  0.387888  0.617377  0.547611  1
  Cs  Cs5  1  0.615932  0.386856  0.446789  1
  Li  Li6  1  0.996658  0.995290  0.002472  1
  Li  Li7  1  0.996658  0.995290  0.497528  1
  Sn  Sn8  1  0.171043  0.243259  0.250000  1
  Sn  Sn9  1  0.825034  0.752130  0.750000  1
  Sn  Sn10  1  0.756732  0.829377  0.250000  1
  Sn  Sn11  1  0.839622  0.160698  0.112942  1
  Sn  Sn12  1  0.158211  0.836602  0.887128  1
  Sn  Sn13  1  0.158211  0.836602  0.612872  1
  Sn  Sn14  1  0.839622  0.160698  0.387058  1
  Pb  Pb15  1  0.251089  0.182470  0.750000  1
