# generated using pymatgen
data_Tm12Th4MgCo4Cu3
_symmetry_space_group_name_H-M   'P 1'
_cell_length_a   9.26256677
_cell_length_b   9.33566772
_cell_length_c   9.33566700
_cell_angle_alpha   60.00000611
_cell_angle_beta   59.73859293
_cell_angle_gamma   59.73858924
_symmetry_Int_Tables_number   1
_chemical_formula_structural   Tm12Th4MgCo4Cu3
_chemical_formula_sum   'Tm12 Th4 Mg1 Co4 Cu3'
_cell_volume   568.56455479
_cell_formula_units_Z   1
loop_
 _symmetry_equiv_pos_site_id
 _symmetry_equiv_pos_as_xyz
  1  'x, y, z'
loop_
 _atom_site_type_symbol
 _atom_site_label
 _atom_site_symmetry_multiplicity
 _atom_site_fract_x
 _atom_site_fract_y
 _atom_site_fract_z
 _atom_site_occupancy
  Tm  Tm0  1  0.808734  0.190514  0.190514  1
  Tm  Tm1  1  0.186335  0.813156  0.813156  1
  Tm  Tm2  1  0.186335  0.813156  0.187352  1
  Tm  Tm3  1  0.808734  0.190514  0.810238  1
  Tm  Tm4  1  0.186335  0.187352  0.813156  1
  Tm  Tm5  1  0.808734  0.810238  0.190514  1
  Tm  Tm6  1  0.928325  0.566664  0.566664  1
  Tm  Tm7  1  0.564340  0.934140  0.934140  1
  Tm  Tm8  1  0.564340  0.934140  0.567381  1
  Tm  Tm9  1  0.928325  0.566664  0.938347  1
  Tm  Tm10  1  0.564340  0.567381  0.934140  1
  Tm  Tm11  1  0.928325  0.938347  0.566664  1
  Th  Th12  1  0.348589  0.347704  0.347704  1
  Th  Th13  1  0.348589  0.347704  0.956005  1
  Th  Th14  1  0.348589  0.956005  0.347704  1
  Th  Th15  1  0.938471  0.353843  0.353843  1
  Mg  Mg16  1  0.300858  0.566380  0.566380  1
  Co  Co17  1  0.141212  0.144961  0.144961  1
  Co  Co18  1  0.141212  0.144961  0.568867  1
  Co  Co19  1  0.141212  0.568867  0.144961  1
  Co  Co20  1  0.568165  0.143945  0.143945  1
  Cu  Cu21  1  0.586634  0.588383  0.588383  1
  Cu  Cu22  1  0.586634  0.588383  0.236599  1
  Cu  Cu23  1  0.586634  0.236599  0.588383  1
