# generated using pymatgen
data_Zr2Sc7(In2Ir)7
_symmetry_space_group_name_H-M   'P 1'
_cell_length_a   9.69217236
_cell_length_b   9.69891044
_cell_length_c   9.69891007
_cell_angle_alpha   59.95426296
_cell_angle_beta   60.02297835
_cell_angle_gamma   60.02298275
_symmetry_Int_Tables_number   1
_chemical_formula_structural   Zr2Sc7(In2Ir)7
_chemical_formula_sum   'Zr2 Sc7 In14 Ir7'
_cell_volume   644.69207473
_cell_formula_units_Z   1
loop_
 _symmetry_equiv_pos_site_id
 _symmetry_equiv_pos_as_xyz
  1  'x, y, z'
loop_
 _atom_site_type_symbol
 _atom_site_label
 _atom_site_symmetry_multiplicity
 _atom_site_fract_x
 _atom_site_fract_y
 _atom_site_fract_z
 _atom_site_occupancy
  Zr  Zr0  1  0.877275  0.365238  0.880211  1
  Zr  Zr1  1  0.122725  0.119789  0.634762  1
  Sc  Sc2  1  0.119826  0.639255  0.121095  1
  Sc  Sc3  1  0.360443  0.878010  0.882596  1
  Sc  Sc4  1  0.878949  0.878010  0.882596  1
  Sc  Sc5  1  0.639557  0.117404  0.121990  1
  Sc  Sc6  1  0.500000  0.501634  0.498366  1
  Sc  Sc7  1  0.880174  0.878905  0.360745  1
  Sc  Sc8  1  0.121051  0.117404  0.121990  1
  In  In9  1  0.500000  0.844768  0.155232  1
  In  In10  1  0.501193  0.844703  0.500193  1
  In  In11  1  0.501869  0.154550  0.500460  1
  In  In12  1  0.498131  0.499540  0.845450  1
  In  In13  1  0.154672  0.500644  0.499356  1
  In  In14  1  0.843120  0.154550  0.500460  1
  In  In15  1  0.153910  0.844703  0.500193  1
  In  In16  1  0.500000  0.156399  0.843601  1
  In  In17  1  0.156880  0.499540  0.845450  1
  In  In18  1  0.498807  0.499807  0.155297  1
  In  In19  1  0.845328  0.500644  0.499356  1
  In  In20  1  0.846090  0.499807  0.155297  1
  In  In21  1  0.249817  0.251553  0.248811  1
  In  In22  1  0.750183  0.751189  0.748447  1
  Ir  Ir23  1  0.773888  0.773751  0.226249  1
  Ir  Ir24  1  0.000000  0.998685  0.001315  1
  Ir  Ir25  1  0.226112  0.773751  0.226249  1
  Ir  Ir26  1  0.223661  0.779230  0.773449  1
  Ir  Ir27  1  0.220361  0.224993  0.775007  1
  Ir  Ir28  1  0.779639  0.224993  0.775007  1
  Ir  Ir29  1  0.776339  0.226551  0.220770  1
