# generated using pymatgen
data_Ba8Fe3Co(RuO6)4
_symmetry_space_group_name_H-M   'P 1'
_cell_length_a   5.82464604
_cell_length_b   10.07206982
_cell_length_c   10.08375800
_cell_angle_alpha   109.48378555
_cell_angle_beta   90.00662016
_cell_angle_gamma   89.99688174
_symmetry_Int_Tables_number   1
_chemical_formula_structural   Ba8Fe3Co(RuO6)4
_chemical_formula_sum   'Ba8 Fe3 Co1 Ru4 O24'
_cell_volume   557.70011281
_cell_formula_units_Z   1
loop_
 _symmetry_equiv_pos_site_id
 _symmetry_equiv_pos_as_xyz
  1  'x, y, z'
loop_
 _atom_site_type_symbol
 _atom_site_label
 _atom_site_symmetry_multiplicity
 _atom_site_fract_x
 _atom_site_fract_y
 _atom_site_fract_z
 _atom_site_occupancy
  Ba  Ba0  1  0.499264  0.214603  0.141634  1
  Ba  Ba1  1  0.001032  0.712132  0.138310  1
  Ba  Ba2  1  0.498454  0.785214  0.860216  1
  Ba  Ba3  1  0.000330  0.288881  0.861846  1
  Ba  Ba4  1  0.499897  0.373964  0.613473  1
  Ba  Ba5  1  0.999852  0.867892  0.612334  1
  Ba  Ba6  1  0.500214  0.626568  0.385569  1
  Ba  Ba7  1  0.000373  0.130705  0.385580  1
  Fe  Fe8  1  0.498083  0.000702  0.500595  1
  Fe  Fe9  1  0.499918  0.499025  0.999422  1
  Fe  Fe10  1  0.998257  0.000629  0.998180  1
  Co  Co11  1  0.000158  0.499920  0.499930  1
  Ru  Ru12  1  0.998984  0.589194  0.767279  1
  Ru  Ru13  1  0.500510  0.091405  0.774508  1
  Ru  Ru14  1  0.999794  0.410687  0.232322  1
  Ru  Ru15  1  0.502302  0.908277  0.225872  1
  O  O16  1  0.751546  0.456328  0.121229  1
  O  O17  1  0.253570  0.955721  0.118642  1
  O  O18  1  0.248314  0.456101  0.121530  1
  O  O19  1  0.749546  0.956860  0.118631  1
  O  O20  1  0.000265  0.208316  0.121098  1
  O  O21  1  0.500234  0.706420  0.118531  1
  O  O22  1  0.248005  0.543629  0.878548  1
  O  O23  1  0.748226  0.043779  0.881201  1
  O  O24  1  0.751222  0.543270  0.878185  1
  O  O25  1  0.252265  0.043946  0.881432  1
  O  O26  1  0.999976  0.791698  0.878601  1
  O  O27  1  0.499635  0.292996  0.881389  1
  O  O28  1  0.775411  0.617647  0.628270  1
  O  O29  1  0.270431  0.122596  0.637860  1
  O  O30  1  0.224225  0.617176  0.627923  1
  O  O31  1  0.729578  0.122699  0.638226  1
  O  O32  1  0.000323  0.393218  0.627737  1
  O  O33  1  0.500050  0.892017  0.638188  1
  O  O34  1  0.224028  0.382615  0.371749  1
  O  O35  1  0.731188  0.876951  0.362706  1
  O  O36  1  0.775358  0.382537  0.371660  1
  O  O37  1  0.270041  0.878293  0.363778  1
  O  O38  1  0.999868  0.606597  0.372238  1
  O  O39  1  0.499270  0.108791  0.363577  1
