# generated using pymatgen
data_NdZr(Re2Si)4
_symmetry_space_group_name_H-M   'P 1'
_cell_length_a   7.41834469
_cell_length_b   7.41834530
_cell_length_c   4.12549000
_cell_angle_alpha   90.00000000
_cell_angle_beta   90.00000000
_cell_angle_gamma   91.59523084
_symmetry_Int_Tables_number   1
_chemical_formula_structural   NdZr(Re2Si)4
_chemical_formula_sum   'Nd1 Zr1 Re8 Si4'
_cell_volume   226.94532582
_cell_formula_units_Z   1
loop_
 _symmetry_equiv_pos_site_id
 _symmetry_equiv_pos_as_xyz
  1  'x, y, z'
loop_
 _atom_site_type_symbol
 _atom_site_label
 _atom_site_symmetry_multiplicity
 _atom_site_fract_x
 _atom_site_fract_y
 _atom_site_fract_z
 _atom_site_occupancy
  Nd  Nd0  1  0.000000  0.000000  0.500000  1
  Zr  Zr1  1  0.500000  0.500000  0.000000  1
  Re  Re2  1  0.651619  0.899325  0.000000  1
  Re  Re3  1  0.160604  0.584497  0.500000  1
  Re  Re4  1  0.100675  0.348381  0.000000  1
  Re  Re5  1  0.899325  0.651619  0.000000  1
  Re  Re6  1  0.415503  0.839396  0.500000  1
  Re  Re7  1  0.584497  0.160604  0.500000  1
  Re  Re8  1  0.348381  0.100675  0.000000  1
  Re  Re9  1  0.839396  0.415503  0.500000  1
  Si  Si10  1  0.214907  0.785093  0.000000  1
  Si  Si11  1  0.785093  0.214907  0.000000  1
  Si  Si12  1  0.701081  0.701081  0.500000  1
  Si  Si13  1  0.298919  0.298919  0.500000  1
