# generated using pymatgen
data_Zr6Nb2Co16SiP11
_symmetry_space_group_name_H-M   'P 1'
_cell_length_a   12.07520412
_cell_length_b   12.08176469
_cell_length_c   3.66333500
_cell_angle_alpha   90.00000000
_cell_angle_beta   90.00000000
_cell_angle_gamma   120.08389406
_symmetry_Int_Tables_number   1
_chemical_formula_structural   Zr6Nb2Co16SiP11
_chemical_formula_sum   'Zr6 Nb2 Co16 Si1 P11'
_cell_volume   462.44954797
_cell_formula_units_Z   1
loop_
 _symmetry_equiv_pos_site_id
 _symmetry_equiv_pos_as_xyz
  1  'x, y, z'
loop_
 _atom_site_type_symbol
 _atom_site_label
 _atom_site_symmetry_multiplicity
 _atom_site_fract_x
 _atom_site_fract_y
 _atom_site_fract_z
 _atom_site_occupancy
  Zr  Zr0  1  0.000545  0.555607  0.000000  1
  Zr  Zr1  1  0.665274  0.333396  0.000000  1
  Zr  Zr2  1  0.334827  0.667446  0.000000  1
  Zr  Zr3  1  0.823087  0.822777  0.500000  1
  Zr  Zr4  1  0.179648  0.000008  0.500000  1
  Zr  Zr5  1  0.000223  0.176845  0.500000  1
  Nb  Nb6  1  0.441755  0.441809  0.000000  1
  Nb  Nb7  1  0.553443  0.001164  0.000000  1
  Co  Co8  1  0.194407  0.372255  0.000000  1
  Co  Co9  1  0.180408  0.808761  0.000000  1
  Co  Co10  1  0.822707  0.627175  0.000000  1
  Co  Co11  1  0.805082  0.175928  0.000000  1
  Co  Co12  1  0.373037  0.194254  0.000000  1
  Co  Co13  1  0.127709  0.480488  0.500000  1
  Co  Co14  1  0.356632  0.873742  0.500000  1
  Co  Co15  1  0.516119  0.645413  0.500000  1
  Co  Co16  1  0.642992  0.517005  0.500000  1
  Co  Co17  1  0.871822  0.351565  0.500000  1
  Co  Co18  1  0.483590  0.128750  0.500000  1
  Co  Co19  1  0.000456  0.000518  0.000000  1
  Co  Co20  1  0.721979  0.000900  0.500000  1
  Co  Co21  1  0.001174  0.723103  0.500000  1
  Co  Co22  1  0.626281  0.825756  0.000000  1
  Co  Co23  1  0.277415  0.277736  0.500000  1
  Si  Si24  1  0.648069  0.650258  0.000000  1
  P  P25  1  0.353452  0.001954  0.000000  1
  P  P26  1  0.999558  0.345219  0.000000  1
  P  P27  1  0.480170  0.310252  0.500000  1
  P  P28  1  0.688102  0.169480  0.500000  1
  P  P29  1  0.825452  0.517845  0.500000  1
  P  P30  1  0.519139  0.830708  0.500000  1
  P  P31  1  0.174634  0.692286  0.500000  1
  P  P32  1  0.823677  0.998929  0.000000  1
  P  P33  1  0.000038  0.824494  0.000000  1
  P  P34  1  0.310348  0.480504  0.500000  1
  P  P35  1  0.176746  0.175669  0.000000  1
