# generated using pymatgen
data_Pm4Mo3(WO8)3
_symmetry_space_group_name_H-M   'P 1'
_cell_length_a   7.00232770
_cell_length_b   7.00027066
_cell_length_c   11.85075200
_cell_angle_alpha   78.12016712
_cell_angle_beta   77.75580739
_cell_angle_gamma   110.99586523
_symmetry_Int_Tables_number   1
_chemical_formula_structural   Pm4Mo3(WO8)3
_chemical_formula_sum   'Pm4 Mo3 W3 O24'
_cell_volume   504.07449789
_cell_formula_units_Z   1
loop_
 _symmetry_equiv_pos_site_id
 _symmetry_equiv_pos_as_xyz
  1  'x, y, z'
loop_
 _atom_site_type_symbol
 _atom_site_label
 _atom_site_symmetry_multiplicity
 _atom_site_fract_x
 _atom_site_fract_y
 _atom_site_fract_z
 _atom_site_occupancy
  Pm  Pm0  1  0.191662  0.445863  0.592120  1
  Pm  Pm1  1  0.805974  0.550804  0.408196  1
  Pm  Pm2  1  0.555536  0.809193  0.906948  1
  Pm  Pm3  1  0.447644  0.194503  0.091484  1
  Mo  Mo4  1  0.298398  0.007273  0.450803  1
  Mo  Mo5  1  0.607165  0.389319  0.750184  1
  Mo  Mo6  1  0.392177  0.615285  0.249629  1
  W  W7  1  0.010762  0.302900  0.951458  1
  W  W8  1  0.991228  0.701798  0.048967  1
  W  W9  1  0.696740  0.986822  0.547838  1
  O  O10  1  0.546379  0.468715  0.608533  1
  O  O11  1  0.450105  0.526403  0.390698  1
  O  O12  1  0.527061  0.452605  0.891647  1
  O  O13  1  0.473581  0.549387  0.109641  1
  O  O14  1  0.505881  0.105875  0.787554  1
  O  O15  1  0.496502  0.898869  0.213286  1
  O  O16  1  0.890615  0.489161  0.713448  1
  O  O17  1  0.108516  0.514663  0.284940  1
  O  O18  1  0.728703  0.131604  0.959385  1
  O  O19  1  0.273546  0.872293  0.040892  1
  O  O20  1  0.871799  0.269748  0.538800  1
  O  O21  1  0.130066  0.726692  0.460243  1
  O  O22  1  0.395574  0.817984  0.575527  1
  O  O23  1  0.601597  0.172907  0.426698  1
  O  O24  1  0.178212  0.606123  0.925353  1
  O  O25  1  0.823754  0.398575  0.074494  1
  O  O26  1  0.157711  0.313550  0.801137  1
  O  O27  1  0.843483  0.690320  0.199172  1
  O  O28  1  0.687932  0.842926  0.698494  1
  O  O29  1  0.310144  0.152486  0.303214  1
  O  O30  1  0.898575  0.836011  0.942548  1
  O  O31  1  0.103646  0.168638  0.057716  1
  O  O32  1  0.167301  0.097902  0.557307  1
  O  O33  1  0.832031  0.892802  0.441647  1
