# generated using pymatgen
data_Au2I3Cl7
_symmetry_space_group_name_H-M   'P 1'
_cell_length_a   7.31962606
_cell_length_b   8.33833988
_cell_length_c   8.56793289
_cell_angle_alpha   86.70905109
_cell_angle_beta   97.17660334
_cell_angle_gamma   104.91233699
_symmetry_Int_Tables_number   1
_chemical_formula_structural   Au2I3Cl7
_chemical_formula_sum   'Au2 I3 Cl7'
_cell_volume   501.18645144
_cell_formula_units_Z   1
loop_
 _symmetry_equiv_pos_site_id
 _symmetry_equiv_pos_as_xyz
  1  'x, y, z'
loop_
 _atom_site_type_symbol
 _atom_site_label
 _atom_site_symmetry_multiplicity
 _atom_site_fract_x
 _atom_site_fract_y
 _atom_site_fract_z
 _atom_site_occupancy
  Au  Au0  1  0.531128  0.183218  0.396269  1
  Au  Au1  1  0.976113  0.507514  0.584496  1
  I  I2  1  0.041685  0.964587  0.016102  1
  I  I3  1  0.681861  0.733216  0.893153  1
  I  I4  1  0.396145  0.210554  0.094738  1
  Cl  Cl5  1  0.317011  0.932758  0.424322  1
  Cl  Cl6  1  0.515835  0.745812  0.115248  1
  Cl  Cl7  1  0.640982  0.174028  0.662421  1
  Cl  Cl8  1  0.833113  0.725538  0.615781  1
  Cl  Cl9  1  0.132864  0.313543  0.534566  1
  Cl  Cl10  1  0.760301  0.437068  0.349524  1
  Cl  Cl11  1  0.172962  0.572162  0.813380  1
