# generated using pymatgen
data_Gd2ErTm(B6Os)2
_symmetry_space_group_name_H-M   'P 1'
_cell_length_a   3.64919900
_cell_length_b   9.14320508
_cell_length_c   11.53951510
_cell_angle_alpha   90.01513059
_cell_angle_beta   90.00000000
_cell_angle_gamma   90.00000000
_symmetry_Int_Tables_number   1
_chemical_formula_structural   Gd2ErTm(B6Os)2
_chemical_formula_sum   'Gd4 Er2 Tm2 B24 Os4'
_cell_volume   385.02023330
_cell_formula_units_Z   2
loop_
 _symmetry_equiv_pos_site_id
 _symmetry_equiv_pos_as_xyz
  1  'x, y, z'
loop_
 _atom_site_type_symbol
 _atom_site_label
 _atom_site_symmetry_multiplicity
 _atom_site_fract_x
 _atom_site_fract_y
 _atom_site_fract_z
 _atom_site_occupancy
  Gd  Gd0  1  0.000000  0.322208  0.413977  1
  Gd  Gd1  1  0.000000  0.677792  0.586023  1
  Gd  Gd2  1  0.000000  0.821902  0.085916  1
  Gd  Gd3  1  0.000000  0.178098  0.914084  1
  Er  Er4  1  0.000000  0.944124  0.372793  1
  Er  Er5  1  0.000000  0.055876  0.627208  1
  Tm  Tm6  1  0.000000  0.444174  0.126933  1
  Tm  Tm7  1  0.000000  0.555826  0.873066  1
  B  B8  1  0.500000  0.554470  0.432300  1
  B  B9  1  0.500000  0.445530  0.567700  1
  B  B10  1  0.500000  0.054742  0.067546  1
  B  B11  1  0.500000  0.945258  0.932454  1
  B  B12  1  0.500000  0.748554  0.419071  1
  B  B13  1  0.500000  0.251446  0.580929  1
  B  B14  1  0.500000  0.249184  0.080800  1
  B  B15  1  0.500000  0.750816  0.919200  1
  B  B16  1  0.500000  0.791090  0.266194  1
  B  B17  1  0.500000  0.208910  0.733806  1
  B  B18  1  0.500000  0.291727  0.233538  1
  B  B19  1  0.500000  0.708272  0.766462  1
  B  B20  1  0.500000  0.630968  0.184806  1
  B  B21  1  0.500000  0.369032  0.815194  1
  B  B22  1  0.500000  0.131544  0.314841  1
  B  B23  1  0.500000  0.868456  0.685159  1
  B  B24  1  0.500000  0.983738  0.213349  1
  B  B25  1  0.500000  0.016262  0.786651  1
  B  B26  1  0.500000  0.483323  0.286248  1
  B  B27  1  0.500000  0.516677  0.713752  1
  B  B28  1  0.500000  0.604654  0.028831  1
  B  B29  1  0.500000  0.395346  0.971169  1
  B  B30  1  0.500000  0.105709  0.470922  1
  B  B31  1  0.500000  0.894291  0.529078  1
  Os  Os32  1  0.000000  0.637929  0.320185  1
  Os  Os33  1  0.000000  0.362071  0.679815  1
  Os  Os34  1  0.000000  0.138653  0.179435  1
  Os  Os35  1  0.000000  0.861347  0.820565  1
