# generated using pymatgen
data_HfNbSnB2Ru5
_symmetry_space_group_name_H-M   'P 1'
_cell_length_a   9.48585837
_cell_length_b   9.48585877
_cell_length_c   3.08111000
_cell_angle_alpha   90.00000000
_cell_angle_beta   90.00000000
_cell_angle_gamma   90.40528124
_symmetry_Int_Tables_number   1
_chemical_formula_structural   HfNbSnB2Ru5
_chemical_formula_sum   'Hf2 Nb2 Sn2 B4 Ru10'
_cell_volume   277.23600330
_cell_formula_units_Z   2
loop_
 _symmetry_equiv_pos_site_id
 _symmetry_equiv_pos_as_xyz
  1  'x, y, z'
loop_
 _atom_site_type_symbol
 _atom_site_label
 _atom_site_symmetry_multiplicity
 _atom_site_fract_x
 _atom_site_fract_y
 _atom_site_fract_z
 _atom_site_occupancy
  Hf  Hf0  1  0.824388  0.675612  0.000000  1
  Hf  Hf1  1  0.175612  0.324388  0.000000  1
  Nb  Nb2  1  0.324861  0.824861  0.000000  1
  Nb  Nb3  1  0.675139  0.175139  0.000000  1
  Sn  Sn4  1  0.500000  0.500000  0.000000  1
  Sn  Sn5  1  0.000000  0.000000  0.000000  1
  B  B6  1  0.621714  0.878286  0.000000  1
  B  B7  1  0.378286  0.121714  0.000000  1
  B  B8  1  0.121917  0.621917  0.000000  1
  B  B9  1  0.878083  0.378083  0.000000  1
  Ru  Ru10  1  0.565889  0.723387  0.500000  1
  Ru  Ru11  1  0.434111  0.276613  0.500000  1
  Ru  Ru12  1  0.075272  0.780255  0.500000  1
  Ru  Ru13  1  0.924728  0.219745  0.500000  1
  Ru  Ru14  1  0.280255  0.575272  0.500000  1
  Ru  Ru15  1  0.719745  0.424728  0.500000  1
  Ru  Ru16  1  0.223387  0.065889  0.500000  1
  Ru  Ru17  1  0.776613  0.934111  0.500000  1
  Ru  Ru18  1  0.500000  0.000000  0.500000  1
  Ru  Ru19  1  0.000000  0.500000  0.500000  1
