# generated using pymatgen
data_Er7ScNb12Si15Sn
_symmetry_space_group_name_H-M   'P 1'
_cell_length_a   6.86975240
_cell_length_b   7.06106027
_cell_length_c   13.46412327
_cell_angle_alpha   89.90841021
_cell_angle_beta   90.26548130
_cell_angle_gamma   89.99255008
_symmetry_Int_Tables_number   1
_chemical_formula_structural   Er7ScNb12Si15Sn
_chemical_formula_sum   'Er7 Sc1 Nb12 Si15 Sn1'
_cell_volume   653.10628179
_cell_formula_units_Z   1
loop_
 _symmetry_equiv_pos_site_id
 _symmetry_equiv_pos_as_xyz
  1  'x, y, z'
loop_
 _atom_site_type_symbol
 _atom_site_label
 _atom_site_symmetry_multiplicity
 _atom_site_fract_x
 _atom_site_fract_y
 _atom_site_fract_z
 _atom_site_occupancy
  Er  Er0  1  0.497089  0.667200  0.599605  1
  Er  Er1  1  0.002565  0.828739  0.904218  1
  Er  Er2  1  0.496666  0.328018  0.093712  1
  Er  Er3  1  0.010280  0.180499  0.401806  1
  Er  Er4  1  0.495818  0.334084  0.403775  1
  Er  Er5  1  0.996231  0.171641  0.094310  1
  Er  Er6  1  0.502912  0.673817  0.903861  1
  Sc  Sc7  1  0.007722  0.820996  0.602646  1
  Nb  Nb8  1  0.657430  0.185546  0.630743  1
  Nb  Nb9  1  0.159509  0.323961  0.874902  1
  Nb  Nb10  1  0.336581  0.824253  0.123820  1
  Nb  Nb11  1  0.848770  0.660620  0.369696  1
  Nb  Nb12  1  0.330572  0.822304  0.372531  1
  Nb  Nb13  1  0.836654  0.673903  0.124134  1
  Nb  Nb14  1  0.664481  0.174750  0.874967  1
  Nb  Nb15  1  0.162529  0.327268  0.627016  1
  Nb  Nb16  1  0.835787  0.493511  0.750590  1
  Nb  Nb17  1  0.335116  0.007291  0.750224  1
  Nb  Nb18  1  0.163578  0.507484  0.248718  1
  Nb  Nb19  1  0.663687  0.990833  0.244297  1
  Si  Si20  1  0.162660  0.535710  0.039761  1
  Si  Si21  1  0.337117  0.036199  0.958613  1
  Si  Si22  1  0.837576  0.467078  0.540806  1
  Si  Si23  1  0.321359  0.034185  0.542964  1
  Si  Si24  1  0.834751  0.464256  0.959430  1
  Si  Si25  1  0.662879  0.963433  0.039200  1
  Si  Si26  1  0.165905  0.541692  0.463988  1
  Si  Si27  1  0.454322  0.378805  0.753970  1
  Si  Si28  1  0.958454  0.120745  0.749004  1
  Si  Si29  1  0.542396  0.623712  0.249072  1
  Si  Si30  1  0.040574  0.879442  0.247919  1
  Si  Si31  1  0.706307  0.872986  0.749415  1
  Si  Si32  1  0.201198  0.629411  0.750936  1
  Si  Si33  1  0.297912  0.127671  0.248603  1
  Si  Si34  1  0.793774  0.367544  0.247671  1
  Sn  Sn35  1  0.678835  0.960413  0.463078  1
