# generated using pymatgen
data_NdMg2Si(PPd4)5
_symmetry_space_group_name_H-M   'P 1'
_cell_length_a   8.63642300
_cell_length_b   8.63536277
_cell_length_c   8.63536312
_cell_angle_alpha   60.01348526
_cell_angle_beta   59.99594356
_cell_angle_gamma   59.99593923
_symmetry_Int_Tables_number   1
_chemical_formula_structural   NdMg2Si(PPd4)5
_chemical_formula_sum   'Nd1 Mg2 Si1 P5 Pd20'
_cell_volume   455.40489017
_cell_formula_units_Z   1
loop_
 _symmetry_equiv_pos_site_id
 _symmetry_equiv_pos_as_xyz
  1  'x, y, z'
loop_
 _atom_site_type_symbol
 _atom_site_label
 _atom_site_symmetry_multiplicity
 _atom_site_fract_x
 _atom_site_fract_y
 _atom_site_fract_z
 _atom_site_occupancy
  Nd  Nd0  1  0.750260  0.749740  0.749740  1
  Mg  Mg1  1  0.250152  0.249848  0.249848  1
  Mg  Mg2  1  0.999269  0.000731  0.000731  1
  Si  Si3  1  0.735205  0.264795  0.264795  1
  P  P4  1  0.263702  0.736298  0.736298  1
  P  P5  1  0.265030  0.734811  0.263674  1
  P  P6  1  0.736485  0.263674  0.734811  1
  P  P7  1  0.265030  0.263674  0.734811  1
  P  P8  1  0.736485  0.734811  0.263674  1
  Pd  Pd9  1  0.379545  0.380616  0.380616  1
  Pd  Pd10  1  0.611535  0.611299  0.611299  1
  Pd  Pd11  1  0.380388  0.380715  0.858509  1
  Pd  Pd12  1  0.380388  0.858509  0.380715  1
  Pd  Pd13  1  0.610946  0.613568  0.164539  1
  Pd  Pd14  1  0.610946  0.164539  0.613568  1
  Pd  Pd15  1  0.859224  0.380616  0.380616  1
  Pd  Pd16  1  0.165865  0.611299  0.611299  1
  Pd  Pd17  1  0.342269  0.000535  0.000535  1
  Pd  Pd18  1  0.656660  0.000535  0.000535  1
  Pd  Pd19  1  0.999480  0.343445  0.657594  1
  Pd  Pd20  1  0.999480  0.657594  0.343445  1
  Pd  Pd21  1  0.001637  0.344012  0.998346  1
  Pd  Pd22  1  0.656004  0.998346  0.344012  1
  Pd  Pd23  1  0.999918  0.656567  0.000248  1
  Pd  Pd24  1  0.343266  0.000248  0.656567  1
  Pd  Pd25  1  0.001637  0.998346  0.344012  1
  Pd  Pd26  1  0.999918  0.000248  0.656567  1
  Pd  Pd27  1  0.656004  0.344012  0.998346  1
  Pd  Pd28  1  0.343266  0.656567  0.000248  1
