# generated using pymatgen
data_NpCdO4
_symmetry_space_group_name_H-M   'P 1'
_cell_length_a   5.00992856
_cell_length_b   5.00992856
_cell_length_c   3.49867800
_cell_angle_alpha   90.00000000
_cell_angle_beta   90.00000000
_cell_angle_gamma   87.79370456
_symmetry_Int_Tables_number   1
_chemical_formula_structural   NpCdO4
_chemical_formula_sum   'Np1 Cd1 O4'
_cell_volume   87.74956558
_cell_formula_units_Z   1
loop_
 _symmetry_equiv_pos_site_id
 _symmetry_equiv_pos_as_xyz
  1  'x, y, z'
loop_
 _atom_site_type_symbol
 _atom_site_label
 _atom_site_symmetry_multiplicity
 _atom_site_fract_x
 _atom_site_fract_y
 _atom_site_fract_z
 _atom_site_occupancy
  Np  Np0  1  0.500000  0.500000  0.500000  1
  Cd  Cd1  1  0.000000  0.000000  0.000000  1
  O  O2  1  0.323188  0.323188  0.000000  1
  O  O3  1  0.676811  0.676811  0.000000  1
  O  O4  1  0.780966  0.219033  0.500000  1
  O  O5  1  0.219033  0.780966  0.500000  1
