# generated using pymatgen
data_SbP3SeO12
_symmetry_space_group_name_H-M   'P 1'
_cell_length_a   8.46319966
_cell_length_b   8.43637544
_cell_length_c   8.87117800
_cell_angle_alpha   89.85218928
_cell_angle_beta   118.48290836
_cell_angle_gamma   119.80460128
_symmetry_Int_Tables_number   1
_chemical_formula_structural   SbP3SeO12
_chemical_formula_sum   'Sb2 P6 Se2 O24'
_cell_volume   459.69237340
_cell_formula_units_Z   2
loop_
 _symmetry_equiv_pos_site_id
 _symmetry_equiv_pos_as_xyz
  1  'x, y, z'
loop_
 _atom_site_type_symbol
 _atom_site_label
 _atom_site_symmetry_multiplicity
 _atom_site_fract_x
 _atom_site_fract_y
 _atom_site_fract_z
 _atom_site_occupancy
  Sb  Sb0  1  0.215536  0.859071  0.074414  1
  Sb  Sb1  1  0.201583  0.351323  0.552956  1
  P  P2  1  0.004878  0.967606  0.249600  1
  P  P3  1  0.004841  0.040858  0.750993  1
  P  P4  1  0.712781  0.242673  0.253806  1
  P  P5  1  0.285706  0.746953  0.745286  1
  P  P6  1  0.277540  0.533291  0.248992  1
  P  P7  1  0.711014  0.465306  0.747159  1
  Se  Se8  1  0.803891  0.647512  0.452185  1
  Se  Se9  1  0.789306  0.144561  0.928004  1
  O  O10  1  0.147921  0.026976  0.936467  1
  O  O11  1  0.217867  0.517726  0.393859  1
  O  O12  1  0.889013  0.993599  0.064443  1
  O  O13  1  0.496430  0.105396  0.242790  1
  O  O14  1  0.888368  0.127665  0.763678  1
  O  O15  1  0.778676  0.450112  0.292081  1
  O  O16  1  0.187568  0.167799  0.399131  1
  O  O17  1  0.770969  0.482738  0.603819  1
  O  O18  1  0.680353  0.179377  0.073798  1
  O  O19  1  0.217259  0.534083  0.710086  1
  O  O20  1  0.114461  0.772426  0.589545  1
  O  O21  1  0.349639  0.739656  0.235010  1
  O  O22  1  0.454064  0.500650  0.298520  1
  O  O23  1  0.175613  0.180860  0.707806  1
  O  O24  1  0.132360  0.886861  0.241814  1
  O  O25  1  0.639472  0.265492  0.766220  1
  O  O26  1  0.499242  0.876920  0.759199  1
  O  O27  1  0.069856  0.391938  0.062312  1
  O  O28  1  0.879235  0.212628  0.409998  1
  O  O29  1  0.300014  0.792099  0.922439  1
  O  O30  1  0.830443  0.840078  0.608935  1
  O  O31  1  0.839141  0.832240  0.291154  1
  O  O32  1  0.909140  0.627783  0.927634  1
  O  O33  1  0.525821  0.495741  0.695871  1
