# generated using pymatgen
data_YbHfPa2Ge6Os7
_symmetry_space_group_name_H-M   'P 1'
_cell_length_a   7.18431971
_cell_length_b   7.24111293
_cell_length_c   7.22319820
_cell_angle_alpha   109.68647051
_cell_angle_beta   109.44719088
_cell_angle_gamma   109.54847631
_symmetry_Int_Tables_number   1
_chemical_formula_structural   YbHfPa2Ge6Os7
_chemical_formula_sum   'Yb1 Hf1 Pa2 Ge6 Os7'
_cell_volume   288.30343979
_cell_formula_units_Z   1
loop_
 _symmetry_equiv_pos_site_id
 _symmetry_equiv_pos_as_xyz
  1  'x, y, z'
loop_
 _atom_site_type_symbol
 _atom_site_label
 _atom_site_symmetry_multiplicity
 _atom_site_fract_x
 _atom_site_fract_y
 _atom_site_fract_z
 _atom_site_occupancy
  Yb  Yb0  1  0.000000  0.000000  0.500000  1
  Hf  Hf1  1  0.000000  0.500000  0.000000  1
  Pa  Pa2  1  0.500000  0.000000  0.000000  1
  Pa  Pa3  1  0.500000  0.500000  0.500000  1
  Ge  Ge4  1  0.698813  0.693163  0.009790  1
  Ge  Ge5  1  0.301187  0.994351  0.310978  1
  Ge  Ge6  1  0.000000  0.307200  0.311452  1
  Ge  Ge7  1  0.301187  0.306837  0.990210  1
  Ge  Ge8  1  0.698813  0.005649  0.689022  1
  Ge  Ge9  1  0.000000  0.692800  0.688548  1
  Os  Os10  1  0.748983  0.255059  0.503813  1
  Os  Os11  1  0.748983  0.493923  0.245170  1
  Os  Os12  1  0.509579  0.254789  0.754789  1
  Os  Os13  1  0.251017  0.506077  0.754830  1
  Os  Os14  1  0.251017  0.744941  0.496187  1
  Os  Os15  1  0.490421  0.745211  0.245211  1
  Os  Os16  1  0.000000  0.000000  0.000000  1
