# generated using pymatgen
data_Sr3Ga4Si2PbO14
_symmetry_space_group_name_H-M   'P 1'
_cell_length_a   5.40845691
_cell_length_b   8.06926178
_cell_length_c   8.09393783
_cell_angle_alpha   90.09516088
_cell_angle_beta   89.98758508
_cell_angle_gamma   90.04436199
_symmetry_Int_Tables_number   1
_chemical_formula_structural   Sr3Ga4Si2PbO14
_chemical_formula_sum   'Sr3 Ga4 Si2 Pb1 O14'
_cell_volume   353.23709440
_cell_formula_units_Z   1
loop_
 _symmetry_equiv_pos_site_id
 _symmetry_equiv_pos_as_xyz
  1  'x, y, z'
loop_
 _atom_site_type_symbol
 _atom_site_label
 _atom_site_symmetry_multiplicity
 _atom_site_fract_x
 _atom_site_fract_y
 _atom_site_fract_z
 _atom_site_occupancy
  Sr  Sr0  1  0.516318  0.832551  0.344953  1
  Sr  Sr1  1  0.488510  0.669322  0.839919  1
  Sr  Sr2  1  0.507282  0.153544  0.667211  1
  Ga  Ga3  1  0.999190  0.499334  0.500658  1
  Ga  Ga4  1  0.998132  0.001483  0.999613  1
  Ga  Ga5  1  0.970041  0.641242  0.140940  1
  Ga  Ga6  1  0.030542  0.858564  0.643047  1
  Si  Si7  1  0.956490  0.358065  0.854692  1
  Si  Si8  1  0.042381  0.140120  0.361480  1
  Pb  Pb9  1  0.484994  0.356474  0.168907  1
  O  O10  1  0.175808  0.007705  0.490165  1
  O  O11  1  0.833331  0.494249  0.984336  1
  O  O12  1  0.179156  0.320089  0.411573  1
  O  O13  1  0.824477  0.178228  0.903228  1
  O  O14  1  0.201868  0.665571  0.578966  1
  O  O15  1  0.798800  0.833751  0.080120  1
  O  O16  1  0.796712  0.575542  0.332328  1
  O  O17  1  0.205092  0.923180  0.834740  1
  O  O18  1  0.819816  0.406095  0.676007  1
  O  O19  1  0.168355  0.092627  0.179845  1
  O  O20  1  0.305223  0.634162  0.143214  1
  O  O21  1  0.697641  0.860641  0.641563  1
  O  O22  1  0.255645  0.358380  0.851763  1
  O  O23  1  0.744195  0.139083  0.370733  1
