# generated using pymatgen
data_Dy2YSc3FeSb2
_symmetry_space_group_name_H-M   'P 1'
_cell_length_a   7.85778100
_cell_length_b   7.83500374
_cell_length_c   4.14203200
_cell_angle_alpha   90.00000000
_cell_angle_beta   90.00000000
_cell_angle_gamma   120.09621753
_symmetry_Int_Tables_number   1
_chemical_formula_structural   Dy2YSc3FeSb2
_chemical_formula_sum   'Dy2 Y1 Sc3 Fe1 Sb2'
_cell_volume   220.62835258
_cell_formula_units_Z   1
loop_
 _symmetry_equiv_pos_site_id
 _symmetry_equiv_pos_as_xyz
  1  'x, y, z'
loop_
 _atom_site_type_symbol
 _atom_site_label
 _atom_site_symmetry_multiplicity
 _atom_site_fract_x
 _atom_site_fract_y
 _atom_site_fract_z
 _atom_site_occupancy
  Dy  Dy0  1  0.393267  0.393063  0.500000  1
  Dy  Dy1  1  0.000204  0.606937  0.500000  1
  Y  Y2  1  0.605537  0.000000  0.500000  1
  Sc  Sc3  1  0.225575  0.000000  0.000000  1
  Sc  Sc4  1  0.774281  0.773740  0.000000  1
  Sc  Sc5  1  0.000541  0.226260  0.000000  1
  Fe  Fe6  1  0.000843  0.000000  0.500000  1
  Sb  Sb7  1  0.333155  0.666558  0.000000  1
  Sb  Sb8  1  0.666598  0.333442  0.000000  1
