# generated using pymatgen
data_Dy5Er11(InRh)4
_symmetry_space_group_name_H-M   'P 1'
_cell_length_a   9.60888064
_cell_length_b   9.60750385
_cell_length_c   9.60750301
_cell_angle_alpha   60.02807166
_cell_angle_beta   59.97536375
_cell_angle_gamma   59.97536567
_symmetry_Int_Tables_number   1
_chemical_formula_structural   Dy5Er11(InRh)4
_chemical_formula_sum   'Dy5 Er11 In4 Rh4'
_cell_volume   627.05995144
_cell_formula_units_Z   1
loop_
 _symmetry_equiv_pos_site_id
 _symmetry_equiv_pos_as_xyz
  1  'x, y, z'
loop_
 _atom_site_type_symbol
 _atom_site_label
 _atom_site_symmetry_multiplicity
 _atom_site_fract_x
 _atom_site_fract_y
 _atom_site_fract_z
 _atom_site_occupancy
  Dy  Dy0  1  0.062058  0.062397  0.437752  1
  Dy  Dy1  1  0.438027  0.061962  0.438045  1
  Dy  Dy2  1  0.062058  0.437752  0.062397  1
  Dy  Dy3  1  0.049633  0.650123  0.650123  1
  Dy  Dy4  1  0.438027  0.438045  0.061962  1
  Er  Er5  1  0.650354  0.049017  0.650316  1
  Er  Er6  1  0.188463  0.811717  0.188103  1
  Er  Er7  1  0.188463  0.188103  0.811717  1
  Er  Er8  1  0.811343  0.811481  0.188573  1
  Er  Er9  1  0.439119  0.060892  0.060892  1
  Er  Er10  1  0.811491  0.188413  0.188413  1
  Er  Er11  1  0.061000  0.438839  0.438839  1
  Er  Er12  1  0.811343  0.188573  0.811481  1
  Er  Er13  1  0.188312  0.811859  0.811859  1
  Er  Er14  1  0.650354  0.650316  0.049017  1
  Er  Er15  1  0.650367  0.650306  0.650306  1
  In  In16  1  0.416986  0.417234  0.417234  1
  In  In17  1  0.748636  0.417494  0.417494  1
  In  In18  1  0.417955  0.748663  0.416205  1
  In  In19  1  0.417955  0.416205  0.748663  1
  Rh  Rh20  1  0.857046  0.857515  0.427002  1
  Rh  Rh21  1  0.856155  0.858411  0.858411  1
  Rh  Rh22  1  0.427809  0.857675  0.857675  1
  Rh  Rh23  1  0.857046  0.427002  0.857515  1
