# generated using pymatgen
data_Ta23TiSi7P
_symmetry_space_group_name_H-M   'P 1'
_cell_length_a   10.22706338
_cell_length_b   10.17500117
_cell_length_c   5.19357426
_cell_angle_alpha   89.96681699
_cell_angle_beta   89.97176378
_cell_angle_gamma   90.04185974
_symmetry_Int_Tables_number   1
_chemical_formula_structural   Ta23TiSi7P
_chemical_formula_sum   'Ta23 Ti1 Si7 P1'
_cell_volume   540.44502064
_cell_formula_units_Z   1
loop_
 _symmetry_equiv_pos_site_id
 _symmetry_equiv_pos_as_xyz
  1  'x, y, z'
loop_
 _atom_site_type_symbol
 _atom_site_label
 _atom_site_symmetry_multiplicity
 _atom_site_fract_x
 _atom_site_fract_y
 _atom_site_fract_z
 _atom_site_occupancy
  Ta  Ta0  1  0.399570  0.086320  0.030276  1
  Ta  Ta1  1  0.712218  0.811683  0.510113  1
  Ta  Ta2  1  0.899116  0.587123  0.470047  1
  Ta  Ta3  1  0.854555  0.014082  0.772799  1
  Ta  Ta4  1  0.017884  0.145775  0.226621  1
  Ta  Ta5  1  0.787768  0.689464  0.983532  1
  Ta  Ta6  1  0.286591  0.187237  0.514026  1
  Ta  Ta7  1  0.688302  0.213719  0.013225  1
  Ta  Ta8  1  0.414207  0.898133  0.528943  1
  Ta  Ta9  1  0.812998  0.286824  0.486220  1
  Ta  Ta10  1  0.353744  0.519641  0.726562  1
  Ta  Ta11  1  0.647027  0.481432  0.724688  1
  Ta  Ta12  1  0.143995  0.977938  0.772568  1
  Ta  Ta13  1  0.213291  0.313235  0.986709  1
  Ta  Ta14  1  0.914448  0.400165  0.970360  1
  Ta  Ta15  1  0.314189  0.786021  0.014591  1
  Ta  Ta16  1  0.599069  0.913002  0.032895  1
  Ta  Ta17  1  0.086109  0.602053  0.970005  1
  Ta  Ta18  1  0.099865  0.414499  0.469512  1
  Ta  Ta19  1  0.981831  0.853764  0.226908  1
  Ta  Ta20  1  0.185094  0.714349  0.487876  1
  Ta  Ta21  1  0.482593  0.355314  0.275128  1
  Ta  Ta22  1  0.585755  0.100387  0.529593  1
  Ti  Ti23  1  0.518521  0.646250  0.274299  1
  Si  Si24  1  0.205126  0.970573  0.277983  1
  Si  Si25  1  0.794719  0.029391  0.278813  1
  Si  Si26  1  0.470405  0.295767  0.780610  1
  Si  Si27  1  0.296551  0.531904  0.221182  1
  Si  Si28  1  0.029562  0.204039  0.721302  1
  Si  Si29  1  0.704595  0.472915  0.219828  1
  Si  Si30  1  0.530628  0.703567  0.782730  1
  P  P31  1  0.969675  0.793432  0.720061  1
