# generated using pymatgen
data_Nd5Fe3P12IrRu15
_symmetry_space_group_name_H-M   'P 1'
_cell_length_a   12.64698362
_cell_length_b   12.61503606
_cell_length_c   3.93927800
_cell_angle_alpha   90.00000000
_cell_angle_beta   90.00000000
_cell_angle_gamma   120.14165167
_symmetry_Int_Tables_number   1
_chemical_formula_structural   Nd5Fe3P12IrRu15
_chemical_formula_sum   'Nd5 Fe3 P12 Ir1 Ru15'
_cell_volume   543.50186866
_cell_formula_units_Z   1
loop_
 _symmetry_equiv_pos_site_id
 _symmetry_equiv_pos_as_xyz
  1  'x, y, z'
loop_
 _atom_site_type_symbol
 _atom_site_label
 _atom_site_symmetry_multiplicity
 _atom_site_fract_x
 _atom_site_fract_y
 _atom_site_fract_z
 _atom_site_occupancy
  Nd  Nd0  1  0.000657  0.182949  0.500000  1
  Nd  Nd1  1  0.817638  0.817920  0.500000  1
  Nd  Nd2  1  0.182633  0.000079  0.500000  1
  Nd  Nd3  1  0.664879  0.332657  0.000000  1
  Nd  Nd4  1  0.334021  0.666690  0.000000  1
  Fe  Fe5  1  0.000159  0.714071  0.500000  1
  Fe  Fe6  1  0.285197  0.285242  0.500000  1
  Fe  Fe7  1  0.715721  0.001235  0.500000  1
  P  P8  1  0.000681  0.809931  0.000000  1
  P  P9  1  0.189894  0.189417  0.000000  1
  P  P10  1  0.810593  0.001392  0.000000  1
  P  P11  1  0.688228  0.159902  0.500000  1
  P  P12  1  0.835365  0.529776  0.500000  1
  P  P13  1  0.470644  0.309094  0.500000  1
  P  P14  1  0.162030  0.690440  0.500000  1
  P  P15  1  0.529018  0.838022  0.500000  1
  P  P16  1  0.309531  0.471787  0.500000  1
  P  P17  1  0.004909  0.375304  0.000000  1
  P  P18  1  0.625086  0.625319  0.000000  1
  P  P19  1  0.374989  0.999634  0.000000  1
  Ir  Ir20  1  0.871388  0.364296  0.500000  1
  Ru  Ru21  1  0.999017  0.555372  0.000000  1
  Ru  Ru22  1  0.442853  0.442043  0.000000  1
  Ru  Ru23  1  0.558188  0.001037  0.000000  1
  Ru  Ru24  1  0.806704  0.183905  0.000000  1
  Ru  Ru25  1  0.819085  0.623534  0.000000  1
  Ru  Ru26  1  0.375989  0.194572  0.000000  1
  Ru  Ru27  1  0.181410  0.803953  0.000000  1
  Ru  Ru28  1  0.624214  0.819571  0.000000  1
  Ru  Ru29  1  0.196765  0.376922  0.000000  1
  Ru  Ru30  1  0.635515  0.511307  0.500000  1
  Ru  Ru31  1  0.488373  0.124319  0.500000  1
  Ru  Ru32  1  0.364242  0.874943  0.500000  1
  Ru  Ru33  1  0.511479  0.636147  0.500000  1
  Ru  Ru34  1  0.123540  0.487987  0.500000  1
  Ru  Ru35  1  0.999366  0.999233  0.000000  1
