# generated using pymatgen
data_TmTh(MgIr4)2
_symmetry_space_group_name_H-M   'P 1'
_cell_length_a   5.32543700
_cell_length_b   5.32543612
_cell_length_c   8.63070100
_cell_angle_alpha   90.00000000
_cell_angle_beta   90.00000000
_cell_angle_gamma   119.99999926
_symmetry_Int_Tables_number   1
_chemical_formula_structural   TmTh(MgIr4)2
_chemical_formula_sum   'Tm1 Th1 Mg2 Ir8'
_cell_volume   211.97621688
_cell_formula_units_Z   1
loop_
 _symmetry_equiv_pos_site_id
 _symmetry_equiv_pos_as_xyz
  1  'x, y, z'
loop_
 _atom_site_type_symbol
 _atom_site_label
 _atom_site_symmetry_multiplicity
 _atom_site_fract_x
 _atom_site_fract_y
 _atom_site_fract_z
 _atom_site_occupancy
  Tm  Tm0  1  0.666667  0.333333  0.568310  1
  Th  Th1  1  0.333333  0.666667  0.070427  1
  Mg  Mg2  1  0.666667  0.333333  0.929189  1
  Mg  Mg3  1  0.333333  0.666667  0.445410  1
  Ir  Ir4  1  0.000000  0.000000  0.994482  1
  Ir  Ir5  1  0.000000  0.000000  0.496878  1
  Ir  Ir6  1  0.829416  0.658831  0.251923  1
  Ir  Ir7  1  0.170011  0.829989  0.746512  1
  Ir  Ir8  1  0.659979  0.829989  0.746512  1
  Ir  Ir9  1  0.341169  0.170584  0.251923  1
  Ir  Ir10  1  0.829416  0.170584  0.251923  1
  Ir  Ir11  1  0.170011  0.340021  0.746512  1
