# generated using pymatgen
data_Tb10Y6MgZn3Co4
_symmetry_space_group_name_H-M   'P 1'
_cell_length_a   9.44223841
_cell_length_b   9.41754648
_cell_length_c   9.41754600
_cell_angle_alpha   60.00000170
_cell_angle_beta   60.08646922
_cell_angle_gamma   60.08647388
_symmetry_Int_Tables_number   1
_chemical_formula_structural   Tb10Y6MgZn3Co4
_chemical_formula_sum   'Tb10 Y6 Mg1 Zn3 Co4'
_cell_volume   592.92790192
_cell_formula_units_Z   1
loop_
 _symmetry_equiv_pos_site_id
 _symmetry_equiv_pos_as_xyz
  1  'x, y, z'
loop_
 _atom_site_type_symbol
 _atom_site_label
 _atom_site_symmetry_multiplicity
 _atom_site_fract_x
 _atom_site_fract_y
 _atom_site_fract_z
 _atom_site_occupancy
  Tb  Tb0  1  0.349523  0.346911  0.346911  1
  Tb  Tb1  1  0.349523  0.346911  0.956655  1
  Tb  Tb2  1  0.349523  0.956655  0.346911  1
  Tb  Tb3  1  0.947515  0.350828  0.350828  1
  Tb  Tb4  1  0.808846  0.190497  0.190497  1
  Tb  Tb5  1  0.187020  0.812598  0.812598  1
  Tb  Tb6  1  0.187020  0.812598  0.187786  1
  Tb  Tb7  1  0.808846  0.190497  0.810159  1
  Tb  Tb8  1  0.187020  0.187786  0.812598  1
  Tb  Tb9  1  0.808846  0.810159  0.190497  1
  Y  Y10  1  0.932468  0.563319  0.563319  1
  Y  Y11  1  0.561701  0.937119  0.937119  1
  Y  Y12  1  0.561701  0.937119  0.564061  1
  Y  Y13  1  0.932468  0.563319  0.940894  1
  Y  Y14  1  0.561701  0.564061  0.937119  1
  Y  Y15  1  0.932468  0.940894  0.563319  1
  Mg  Mg16  1  0.288331  0.570557  0.570557  1
  Zn  Zn17  1  0.584010  0.577329  0.577329  1
  Zn  Zn18  1  0.584010  0.577329  0.261332  1
  Zn  Zn19  1  0.584010  0.261332  0.577329  1
  Co  Co20  1  0.139281  0.142606  0.142606  1
  Co  Co21  1  0.139281  0.142606  0.575506  1
  Co  Co22  1  0.139281  0.575506  0.142606  1
  Co  Co23  1  0.575608  0.141464  0.141464  1
