# generated using pymatgen
data_Li(Si3Ni8)3
_symmetry_space_group_name_H-M   'P 1'
_cell_length_a   6.68374700
_cell_length_b   6.68374788
_cell_length_c   9.58781200
_cell_angle_alpha   90.00000000
_cell_angle_beta   90.00000000
_cell_angle_gamma   119.99999069
_symmetry_Int_Tables_number   1
_chemical_formula_structural   Li(Si3Ni8)3
_chemical_formula_sum   'Li1 Si9 Ni24'
_cell_volume   370.92853452
_cell_formula_units_Z   1
loop_
 _symmetry_equiv_pos_site_id
 _symmetry_equiv_pos_as_xyz
  1  'x, y, z'
loop_
 _atom_site_type_symbol
 _atom_site_label
 _atom_site_symmetry_multiplicity
 _atom_site_fract_x
 _atom_site_fract_y
 _atom_site_fract_z
 _atom_site_occupancy
  Li  Li0  1  0.000000  0.000000  0.500000  1
  Si  Si1  1  0.990528  0.329014  0.677094  1
  Si  Si2  1  0.009472  0.670986  0.322906  1
  Si  Si3  1  0.338486  0.009472  0.677094  1
  Si  Si4  1  0.661514  0.990528  0.322906  1
  Si  Si5  1  0.670986  0.661514  0.677094  1
  Si  Si6  1  0.329014  0.338486  0.322906  1
  Si  Si7  1  0.666667  0.333333  0.977657  1
  Si  Si8  1  0.333333  0.666667  0.022343  1
  Si  Si9  1  0.000000  0.000000  0.000000  1
  Ni  Ni10  1  0.658388  0.707597  0.923586  1
  Ni  Ni11  1  0.341612  0.292403  0.076414  1
  Ni  Ni12  1  0.049210  0.341612  0.923586  1
  Ni  Ni13  1  0.950790  0.658388  0.076414  1
  Ni  Ni14  1  0.292403  0.950790  0.923586  1
  Ni  Ni15  1  0.707597  0.049210  0.076414  1
  Ni  Ni16  1  0.666667  0.333333  0.607027  1
  Ni  Ni17  1  0.333333  0.666667  0.392973  1
  Ni  Ni18  1  0.000000  0.000000  0.754353  1
  Ni  Ni19  1  0.000000  0.000000  0.245647  1
  Ni  Ni20  1  0.666667  0.333333  0.239758  1
  Ni  Ni21  1  0.333333  0.666667  0.760242  1
  Ni  Ni22  1  0.670813  0.076196  0.812755  1
  Ni  Ni23  1  0.329187  0.923804  0.187245  1
  Ni  Ni24  1  0.405382  0.329187  0.812755  1
  Ni  Ni25  1  0.594618  0.670813  0.187245  1
  Ni  Ni26  1  0.923804  0.594618  0.812755  1
  Ni  Ni27  1  0.076196  0.405382  0.187245  1
  Ni  Ni28  1  0.623615  0.935628  0.568090  1
  Ni  Ni29  1  0.376385  0.064372  0.431910  1
  Ni  Ni30  1  0.312013  0.376385  0.568090  1
  Ni  Ni31  1  0.687987  0.623615  0.431910  1
  Ni  Ni32  1  0.064372  0.687987  0.568090  1
  Ni  Ni33  1  0.935628  0.312013  0.431910  1
