# generated using pymatgen
data_Tb20TcBi8Ir3
_symmetry_space_group_name_H-M   'P 1'
_cell_length_a   8.03432186
_cell_length_b   9.06822400
_cell_length_c   12.53267033
_cell_angle_alpha   90.00000000
_cell_angle_beta   89.94708444
_cell_angle_gamma   90.00000000
_symmetry_Int_Tables_number   1
_chemical_formula_structural   Tb20TcBi8Ir3
_chemical_formula_sum   'Tb20 Tc1 Bi8 Ir3'
_cell_volume   913.09275281
_cell_formula_units_Z   1
loop_
 _symmetry_equiv_pos_site_id
 _symmetry_equiv_pos_as_xyz
  1  'x, y, z'
loop_
 _atom_site_type_symbol
 _atom_site_label
 _atom_site_symmetry_multiplicity
 _atom_site_fract_x
 _atom_site_fract_y
 _atom_site_fract_z
 _atom_site_occupancy
  Tb  Tb0  1  0.844705  0.750000  0.792586  1
  Tb  Tb1  1  0.156922  0.250000  0.207526  1
  Tb  Tb2  1  0.342989  0.250000  0.706531  1
  Tb  Tb3  1  0.658758  0.750000  0.291638  1
  Tb  Tb4  1  0.376311  0.750000  0.693485  1
  Tb  Tb5  1  0.624681  0.250000  0.306406  1
  Tb  Tb6  1  0.875914  0.250000  0.805581  1
  Tb  Tb7  1  0.122153  0.750000  0.193648  1
  Tb  Tb8  1  0.947485  0.750000  0.503702  1
  Tb  Tb9  1  0.050627  0.250000  0.496655  1
  Tb  Tb10  1  0.446173  0.250000  0.996277  1
  Tb  Tb11  1  0.552440  0.750000  0.003560  1
  Tb  Tb12  1  0.677802  0.043483  0.565981  1
  Tb  Tb13  1  0.322615  0.957788  0.434176  1
  Tb  Tb14  1  0.176636  0.957729  0.935500  1
  Tb  Tb15  1  0.322615  0.542212  0.434176  1
  Tb  Tb16  1  0.823823  0.040743  0.064597  1
  Tb  Tb17  1  0.677802  0.456517  0.565981  1
  Tb  Tb18  1  0.823823  0.459257  0.064597  1
  Tb  Tb19  1  0.176636  0.542271  0.935500  1
  Tc  Tc20  1  0.922053  0.750000  0.012378  1
  Bi  Bi21  1  0.571045  0.492760  0.827740  1
  Bi  Bi22  1  0.429212  0.507104  0.172705  1
  Bi  Bi23  1  0.070935  0.507130  0.672563  1
  Bi  Bi24  1  0.429212  0.992896  0.172705  1
  Bi  Bi25  1  0.929541  0.492953  0.327523  1
  Bi  Bi26  1  0.571045  0.007240  0.827740  1
  Bi  Bi27  1  0.929541  0.007047  0.327523  1
  Bi  Bi28  1  0.070935  0.992870  0.672563  1
  Ir  Ir29  1  0.572390  0.750000  0.509666  1
  Ir  Ir30  1  0.427823  0.250000  0.489597  1
  Ir  Ir31  1  0.075362  0.250000  0.989197  1
