# generated using pymatgen
data_Dy3TaIn2Ir3
_symmetry_space_group_name_H-M   'P 1'
_cell_length_a   7.33578216
_cell_length_b   7.09409600
_cell_length_c   4.25661700
_cell_angle_alpha   90.00000000
_cell_angle_beta   90.00000000
_cell_angle_gamma   118.91599491
_symmetry_Int_Tables_number   1
_chemical_formula_structural   Dy3TaIn2Ir3
_chemical_formula_sum   'Dy3 Ta1 In2 Ir3'
_cell_volume   193.90082925
_cell_formula_units_Z   1
loop_
 _symmetry_equiv_pos_site_id
 _symmetry_equiv_pos_as_xyz
  1  'x, y, z'
loop_
 _atom_site_type_symbol
 _atom_site_label
 _atom_site_symmetry_multiplicity
 _atom_site_fract_x
 _atom_site_fract_y
 _atom_site_fract_z
 _atom_site_occupancy
  Dy  Dy0  1  0.589007  0.586630  0.000000  1
  Dy  Dy1  1  0.410993  0.997622  0.000000  1
  Dy  Dy2  1  0.000000  0.402050  0.000000  1
  Ta  Ta3  1  0.000000  0.753352  0.500000  1
  In  In4  1  0.250413  0.251727  0.500000  1
  In  In5  1  0.749587  0.001314  0.500000  1
  Ir  Ir6  1  0.000000  0.961377  0.000000  1
  Ir  Ir7  1  0.689371  0.367648  0.500000  1
  Ir  Ir8  1  0.310629  0.678280  0.500000  1
