# generated using pymatgen
data_Tb2CeZn3Ir2Pd
_symmetry_space_group_name_H-M   'P 1'
_cell_length_a   7.38948800
_cell_length_b   7.21313382
_cell_length_c   3.86771000
_cell_angle_alpha   90.00000000
_cell_angle_beta   90.00000000
_cell_angle_gamma   120.81210850
_symmetry_Int_Tables_number   1
_chemical_formula_structural   Tb2CeZn3Ir2Pd
_chemical_formula_sum   'Tb2 Ce1 Zn3 Ir2 Pd1'
_cell_volume   177.05590010
_cell_formula_units_Z   1
loop_
 _symmetry_equiv_pos_site_id
 _symmetry_equiv_pos_as_xyz
  1  'x, y, z'
loop_
 _atom_site_type_symbol
 _atom_site_label
 _atom_site_symmetry_multiplicity
 _atom_site_fract_x
 _atom_site_fract_y
 _atom_site_fract_z
 _atom_site_occupancy
  Tb  Tb0  1  0.998206  0.410636  0.000000  1
  Tb  Tb1  1  0.587570  0.589364  0.000000  1
  Ce  Ce2  1  0.424038  0.000000  0.000000  1
  Zn  Zn3  1  0.996322  0.745298  0.500000  1
  Zn  Zn4  1  0.251024  0.254702  0.500000  1
  Zn  Zn5  1  0.757993  0.000000  0.500000  1
  Ir  Ir6  1  0.651592  0.319083  0.500000  1
  Ir  Ir7  1  0.332509  0.680917  0.500000  1
  Pd  Pd8  1  0.000746  0.000000  0.000000  1
