# generated using pymatgen
data_LiTm6Ni17As12
_symmetry_space_group_name_H-M   'P 1'
_cell_length_a   3.86691500
_cell_length_b   10.88035700
_cell_length_c   12.67406500
_cell_angle_alpha   90.00000000
_cell_angle_beta   90.00000000
_cell_angle_gamma   90.00000000
_symmetry_Int_Tables_number   1
_chemical_formula_structural   LiTm6Ni17As12
_chemical_formula_sum   'Li1 Tm6 Ni17 As12'
_cell_volume   533.24120521
_cell_formula_units_Z   1
loop_
 _symmetry_equiv_pos_site_id
 _symmetry_equiv_pos_as_xyz
  1  'x, y, z'
loop_
 _atom_site_type_symbol
 _atom_site_label
 _atom_site_symmetry_multiplicity
 _atom_site_fract_x
 _atom_site_fract_y
 _atom_site_fract_z
 _atom_site_occupancy
  Li  Li0  1  0.500000  0.500000  0.150187  1
  Tm  Tm1  1  0.000000  0.500000  0.525808  1
  Tm  Tm2  1  0.500000  0.000000  0.475229  1
  Tm  Tm3  1  0.500000  0.818653  0.207996  1
  Tm  Tm4  1  0.500000  0.181347  0.207996  1
  Tm  Tm5  1  0.000000  0.680762  0.795049  1
  Tm  Tm6  1  0.000000  0.319238  0.795049  1
  Ni  Ni7  1  0.000000  0.000000  0.841035  1
  Ni  Ni8  1  0.500000  0.500000  0.701608  1
  Ni  Ni9  1  0.000000  0.000000  0.301424  1
  Ni  Ni10  1  0.000000  0.500000  0.985441  1
  Ni  Ni11  1  0.500000  0.000000  0.016549  1
  Ni  Ni12  1  0.500000  0.326593  0.996672  1
  Ni  Ni13  1  0.500000  0.673407  0.996672  1
  Ni  Ni14  1  0.000000  0.163192  0.000599  1
  Ni  Ni15  1  0.000000  0.836808  0.000599  1
  Ni  Ni16  1  0.500000  0.303340  0.428099  1
  Ni  Ni17  1  0.500000  0.696660  0.428099  1
  Ni  Ni18  1  0.000000  0.196751  0.572869  1
  Ni  Ni19  1  0.000000  0.803249  0.572869  1
  Ni  Ni20  1  0.500000  0.879302  0.705482  1
  Ni  Ni21  1  0.500000  0.120698  0.705482  1
  Ni  Ni22  1  0.000000  0.621305  0.294332  1
  Ni  Ni23  1  0.000000  0.378695  0.294332  1
  As  As24  1  0.500000  0.500000  0.879917  1
  As  As25  1  0.000000  0.000000  0.124461  1
  As  As26  1  0.500000  0.500000  0.350345  1
  As  As27  1  0.000000  0.000000  0.651605  1
  As  As28  1  0.500000  0.315852  0.615093  1
  As  As29  1  0.500000  0.684148  0.615093  1
  As  As30  1  0.000000  0.184743  0.386799  1
  As  As31  1  0.000000  0.815257  0.386799  1
  As  As32  1  0.500000  0.848174  0.886838  1
  As  As33  1  0.500000  0.151826  0.886838  1
  As  As34  1  0.000000  0.658917  0.108367  1
  As  As35  1  0.000000  0.341083  0.108367  1
