# generated using pymatgen
data_Pr2Dy3Ho11(CdPt)4
_symmetry_space_group_name_H-M   'P 1'
_cell_length_a   9.69464000
_cell_length_b   9.70204947
_cell_length_c   9.67949599
_cell_angle_alpha   60.16414331
_cell_angle_beta   60.10228921
_cell_angle_gamma   59.87144089
_symmetry_Int_Tables_number   1
_chemical_formula_structural   Pr2Dy3Ho11(CdPt)4
_chemical_formula_sum   'Pr2 Dy3 Ho11 Cd4 Pt4'
_cell_volume   644.43452260
_cell_formula_units_Z   1
loop_
 _symmetry_equiv_pos_site_id
 _symmetry_equiv_pos_as_xyz
  1  'x, y, z'
loop_
 _atom_site_type_symbol
 _atom_site_label
 _atom_site_symmetry_multiplicity
 _atom_site_fract_x
 _atom_site_fract_y
 _atom_site_fract_z
 _atom_site_occupancy
  Pr  Pr0  1  0.568589  0.568028  0.931729  1
  Pr  Pr1  1  0.931653  0.931729  0.568028  1
  Dy  Dy2  1  0.560668  0.939332  0.939332  1
  Dy  Dy3  1  0.560925  0.939159  0.560744  1
  Dy  Dy4  1  0.939173  0.560744  0.939159  1
  Ho  Ho5  1  0.351230  0.351837  0.350937  1
  Ho  Ho6  1  0.351769  0.352351  0.945062  1
  Ho  Ho7  1  0.350818  0.945062  0.352351  1
  Ho  Ho8  1  0.945996  0.350937  0.351837  1
  Ho  Ho9  1  0.810685  0.189315  0.189315  1
  Ho  Ho10  1  0.189142  0.810858  0.810858  1
  Ho  Ho11  1  0.189139  0.810825  0.189302  1
  Ho  Ho12  1  0.810734  0.189302  0.810825  1
  Ho  Ho13  1  0.189447  0.189132  0.810853  1
  Ho  Ho14  1  0.810568  0.810853  0.189132  1
  Ho  Ho15  1  0.939313  0.560687  0.560687  1
  Cd  Cd16  1  0.583042  0.582847  0.577340  1
  Cd  Cd17  1  0.582798  0.582880  0.256830  1
  Cd  Cd18  1  0.577490  0.256830  0.582880  1
  Cd  Cd19  1  0.256769  0.577340  0.582847  1
  Pt  Pt20  1  0.144891  0.144558  0.139949  1
  Pt  Pt21  1  0.144719  0.144517  0.570926  1
  Pt  Pt22  1  0.139839  0.570926  0.144517  1
  Pt  Pt23  1  0.570603  0.139949  0.144558  1
