# generated using pymatgen
data_YbDyHo6(B6Ru)4
_symmetry_space_group_name_H-M   'P 1'
_cell_length_a   3.65272000
_cell_length_b   9.12628657
_cell_length_c   11.50771222
_cell_angle_alpha   89.91886278
_cell_angle_beta   90.00000000
_cell_angle_gamma   90.00000000
_symmetry_Int_Tables_number   1
_chemical_formula_structural   YbDyHo6(B6Ru)4
_chemical_formula_sum   'Yb1 Dy1 Ho6 B24 Ru4'
_cell_volume   383.61805716
_cell_formula_units_Z   1
loop_
 _symmetry_equiv_pos_site_id
 _symmetry_equiv_pos_as_xyz
  1  'x, y, z'
loop_
 _atom_site_type_symbol
 _atom_site_label
 _atom_site_symmetry_multiplicity
 _atom_site_fract_x
 _atom_site_fract_y
 _atom_site_fract_z
 _atom_site_occupancy
  Yb  Yb0  1  0.000000  0.676904  0.586064  1
  Dy  Dy1  1  0.000000  0.323880  0.415316  1
  Ho  Ho2  1  0.000000  0.821777  0.085014  1
  Ho  Ho3  1  0.000000  0.177658  0.913966  1
  Ho  Ho4  1  0.000000  0.941696  0.371673  1
  Ho  Ho5  1  0.000000  0.056176  0.629185  1
  Ho  Ho6  1  0.000000  0.443547  0.128096  1
  Ho  Ho7  1  0.000000  0.557369  0.870242  1
  B  B8  1  0.500000  0.554525  0.432636  1
  B  B9  1  0.500000  0.446055  0.567661  1
  B  B10  1  0.500000  0.054033  0.067164  1
  B  B11  1  0.500000  0.946597  0.933459  1
  B  B12  1  0.500000  0.747962  0.418812  1
  B  B13  1  0.500000  0.251716  0.581237  1
  B  B14  1  0.500000  0.248268  0.080473  1
  B  B15  1  0.500000  0.752315  0.919282  1
  B  B16  1  0.500000  0.790172  0.265321  1
  B  B17  1  0.500000  0.208856  0.734516  1
  B  B18  1  0.500000  0.290260  0.233983  1
  B  B19  1  0.500000  0.710402  0.766000  1
  B  B20  1  0.500000  0.631153  0.184530  1
  B  B21  1  0.500000  0.368528  0.814530  1
  B  B22  1  0.500000  0.130911  0.314886  1
  B  B23  1  0.500000  0.869036  0.685782  1
  B  B24  1  0.500000  0.982981  0.212328  1
  B  B25  1  0.500000  0.016848  0.788375  1
  B  B26  1  0.500000  0.483534  0.287436  1
  B  B27  1  0.500000  0.516427  0.712163  1
  B  B28  1  0.500000  0.607018  0.029125  1
  B  B29  1  0.500000  0.392932  0.970246  1
  B  B30  1  0.500000  0.104767  0.471138  1
  B  B31  1  0.500000  0.896199  0.528755  1
  Ru  Ru32  1  0.000000  0.637916  0.319761  1
  Ru  Ru33  1  0.000000  0.360756  0.679709  1
  Ru  Ru34  1  0.000000  0.137322  0.178799  1
  Ru  Ru35  1  0.000000  0.863505  0.822335  1
