# generated using pymatgen
data_Nd2LuCuSe5
_symmetry_space_group_name_H-M   'P 1'
_cell_length_a   12.09454700
_cell_length_b   4.06223700
_cell_length_c   17.67603200
_cell_angle_alpha   90.00000000
_cell_angle_beta   90.00000000
_cell_angle_gamma   90.00000000
_symmetry_Int_Tables_number   1
_chemical_formula_structural   Nd2LuCuSe5
_chemical_formula_sum   'Nd8 Lu4 Cu4 Se20'
_cell_volume   868.43964909
_cell_formula_units_Z   4
loop_
 _symmetry_equiv_pos_site_id
 _symmetry_equiv_pos_as_xyz
  1  'x, y, z'
loop_
 _atom_site_type_symbol
 _atom_site_label
 _atom_site_symmetry_multiplicity
 _atom_site_fract_x
 _atom_site_fract_y
 _atom_site_fract_z
 _atom_site_occupancy
  Nd  Nd0  1  0.361504  0.250000  0.103351  1
  Nd  Nd1  1  0.011883  0.250000  0.175608  1
  Nd  Nd2  1  0.511883  0.250000  0.324393  1
  Nd  Nd3  1  0.861503  0.250000  0.396649  1
  Nd  Nd4  1  0.138497  0.749999  0.603351  1
  Nd  Nd5  1  0.488117  0.749999  0.675608  1
  Nd  Nd6  1  0.988117  0.749999  0.824393  1
  Nd  Nd7  1  0.638496  0.749999  0.896649  1
  Lu  Lu8  1  0.699223  0.749999  0.135319  1
  Lu  Lu9  1  0.199223  0.749999  0.364682  1
  Lu  Lu10  1  0.800777  0.250000  0.635319  1
  Lu  Lu11  1  0.300777  0.250000  0.864682  1
  Cu  Cu12  1  0.825051  0.250000  0.020054  1
  Cu  Cu13  1  0.325050  0.250000  0.479946  1
  Cu  Cu14  1  0.674950  0.749999  0.520054  1
  Cu  Cu15  1  0.174950  0.749999  0.979946  1
  Se  Se16  1  0.614648  0.250000  0.032775  1
  Se  Se17  1  0.907064  0.749999  0.071536  1
  Se  Se18  1  0.182085  0.749999  0.115449  1
  Se  Se19  1  0.486701  0.749999  0.197550  1
  Se  Se20  1  0.759602  0.250000  0.231191  1
  Se  Se21  1  0.259601  0.250000  0.268809  1
  Se  Se22  1  0.986700  0.749999  0.302450  1
  Se  Se23  1  0.682085  0.749999  0.384551  1
  Se  Se24  1  0.407064  0.749999  0.428464  1
  Se  Se25  1  0.114648  0.250000  0.467224  1
  Se  Se26  1  0.885352  0.749999  0.532775  1
  Se  Se27  1  0.592936  0.250000  0.571536  1
  Se  Se28  1  0.317916  0.250000  0.615449  1
  Se  Se29  1  0.013300  0.250000  0.697551  1
  Se  Se30  1  0.740399  0.749999  0.731191  1
  Se  Se31  1  0.240398  0.749999  0.768809  1
  Se  Se32  1  0.513299  0.250000  0.802450  1
  Se  Se33  1  0.817915  0.250000  0.884551  1
  Se  Se34  1  0.092936  0.250000  0.928464  1
  Se  Se35  1  0.385352  0.749999  0.967224  1
