# generated using pymatgen
data_Er2Si14Ir5Os
_symmetry_space_group_name_H-M   'P 1'
_cell_length_a   8.01605689
_cell_length_b   8.01605800
_cell_length_c   8.03901108
_cell_angle_alpha   56.72593028
_cell_angle_beta   56.72592715
_cell_angle_gamma   56.79462172
_symmetry_Int_Tables_number   1
_chemical_formula_structural   Er2Si14Ir5Os
_chemical_formula_sum   'Er2 Si14 Ir5 Os1'
_cell_volume   337.84996214
_cell_formula_units_Z   1
loop_
 _symmetry_equiv_pos_site_id
 _symmetry_equiv_pos_as_xyz
  1  'x, y, z'
loop_
 _atom_site_type_symbol
 _atom_site_label
 _atom_site_symmetry_multiplicity
 _atom_site_fract_x
 _atom_site_fract_y
 _atom_site_fract_z
 _atom_site_occupancy
  Er  Er0  1  0.000861  0.002798  0.997344  1
  Er  Er1  1  0.497202  0.499139  0.502656  1
  Si  Si2  1  0.752600  0.747400  0.750000  1
  Si  Si3  1  0.249332  0.250668  0.250000  1
  Si  Si4  1  0.850506  0.064749  0.672329  1
  Si  Si5  1  0.672160  0.851600  0.064228  1
  Si  Si6  1  0.065119  0.669947  0.850861  1
  Si  Si7  1  0.648400  0.827840  0.435772  1
  Si  Si8  1  0.435251  0.649494  0.827671  1
  Si  Si9  1  0.830053  0.434881  0.649139  1
  Si  Si10  1  0.170815  0.564576  0.354363  1
  Si  Si11  1  0.564750  0.351341  0.171938  1
  Si  Si12  1  0.350313  0.173207  0.564662  1
  Si  Si13  1  0.935424  0.329185  0.145637  1
  Si  Si14  1  0.326793  0.149687  0.935338  1
  Si  Si15  1  0.148659  0.935250  0.328062  1
  Ir  Ir16  1  0.250374  0.927925  0.571256  1
  Ir  Ir17  1  0.572075  0.249626  0.928744  1
  Ir  Ir18  1  0.927192  0.572808  0.250000  1
  Ir  Ir19  1  0.428129  0.750397  0.071646  1
  Ir  Ir20  1  0.749603  0.071871  0.428354  1
  Os  Os21  1  0.074389  0.425611  0.750000  1
