# generated using pymatgen
data_Nd20In2Si9Pb
_symmetry_space_group_name_H-M   'P 1'
_cell_length_a   7.86131900
_cell_length_b   7.86131900
_cell_length_c   14.72589700
_cell_angle_alpha   90.00000000
_cell_angle_beta   90.00000000
_cell_angle_gamma   90.00000000
_symmetry_Int_Tables_number   1
_chemical_formula_structural   Nd20In2Si9Pb
_chemical_formula_sum   'Nd20 In2 Si9 Pb1'
_cell_volume   910.06538868
_cell_formula_units_Z   1
loop_
 _symmetry_equiv_pos_site_id
 _symmetry_equiv_pos_as_xyz
  1  'x, y, z'
loop_
 _atom_site_type_symbol
 _atom_site_label
 _atom_site_symmetry_multiplicity
 _atom_site_fract_x
 _atom_site_fract_y
 _atom_site_fract_z
 _atom_site_occupancy
  Nd  Nd0  1  0.834350  0.810292  0.608297  1
  Nd  Nd1  1  0.183251  0.828421  0.115046  1
  Nd  Nd2  1  0.165227  0.809699  0.391565  1
  Nd  Nd3  1  0.000000  0.500000  0.767515  1
  Nd  Nd4  1  0.834773  0.190301  0.391565  1
  Nd  Nd5  1  0.690301  0.665227  0.391565  1
  Nd  Nd6  1  0.689708  0.334350  0.608297  1
  Nd  Nd7  1  0.310292  0.665650  0.608297  1
  Nd  Nd8  1  0.000000  0.500000  0.231315  1
  Nd  Nd9  1  0.671579  0.683251  0.115046  1
  Nd  Nd10  1  0.673573  0.319042  0.884875  1
  Nd  Nd11  1  0.819042  0.826427  0.884875  1
  Nd  Nd12  1  0.309699  0.334773  0.391565  1
  Nd  Nd13  1  0.165650  0.189708  0.608297  1
  Nd  Nd14  1  0.816749  0.171579  0.115046  1
  Nd  Nd15  1  0.326427  0.680958  0.884875  1
  Nd  Nd16  1  0.328421  0.316749  0.115046  1
  Nd  Nd17  1  0.500000  0.000000  0.267878  1
  Nd  Nd18  1  0.180958  0.173573  0.884875  1
  Nd  Nd19  1  0.500000  0.000000  0.736639  1
  In  In20  1  0.500000  0.000000  0.997730  1
  In  In21  1  0.000000  0.500000  0.000579  1
  Si  Si22  1  0.614099  0.384498  0.253866  1
  Si  Si23  1  0.115782  0.886121  0.745863  1
  Si  Si24  1  0.386121  0.384218  0.745863  1
  Si  Si25  1  0.385901  0.615502  0.253866  1
  Si  Si26  1  0.884498  0.885901  0.253866  1
  Si  Si27  1  0.613879  0.615782  0.745863  1
  Si  Si28  1  0.000000  0.500000  0.499283  1
  Si  Si29  1  0.884218  0.113879  0.745863  1
  Si  Si30  1  0.115502  0.114099  0.253866  1
  Pb  Pb31  1  0.500000  0.000000  0.501005  1
