# generated using pymatgen
data_Li28MgAlSi8
_symmetry_space_group_name_H-M   'P 1'
_cell_length_a   9.13705568
_cell_length_b   9.13705458
_cell_length_c   9.13705485
_cell_angle_alpha   109.22687392
_cell_angle_beta   109.22686657
_cell_angle_gamma   109.96103285
_symmetry_Int_Tables_number   1
_chemical_formula_structural   Li28MgAlSi8
_chemical_formula_sum   'Li28 Mg1 Al1 Si8'
_cell_volume   587.18237587
_cell_formula_units_Z   1
loop_
 _symmetry_equiv_pos_site_id
 _symmetry_equiv_pos_as_xyz
  1  'x, y, z'
loop_
 _atom_site_type_symbol
 _atom_site_label
 _atom_site_symmetry_multiplicity
 _atom_site_fract_x
 _atom_site_fract_y
 _atom_site_fract_z
 _atom_site_occupancy
  Li  Li0  1  0.065845  0.539481  0.276844  1
  Li  Li1  1  0.262637  0.789001  0.723156  1
  Li  Li2  1  0.184099  0.962028  0.975211  1
  Li  Li3  1  0.986817  0.208887  0.024789  1
  Li  Li4  1  0.037972  0.013183  0.222070  1
  Li  Li5  1  0.791113  0.815901  0.777930  1
  Li  Li6  1  0.460519  0.737363  0.526364  1
  Li  Li7  1  0.210999  0.934155  0.473636  1
  Li  Li8  1  0.716519  0.348236  0.060558  1
  Li  Li9  1  0.963912  0.402809  0.870040  1
  Li  Li10  1  0.287678  0.655960  0.939442  1
  Li  Li11  1  0.532769  0.093872  0.129960  1
  Li  Li12  1  0.689258  0.856905  0.091093  1
  Li  Li13  1  0.481671  0.892643  0.333103  1
  Li  Li14  1  0.559540  0.148568  0.666897  1
  Li  Li15  1  0.765811  0.598164  0.908907  1
  Li  Li16  1  0.851432  0.518329  0.410973  1
  Li  Li17  1  0.401836  0.310742  0.167647  1
  Li  Li18  1  0.143095  0.234189  0.832353  1
  Li  Li19  1  0.107357  0.440460  0.589027  1
  Li  Li20  1  0.906128  0.036088  0.438897  1
  Li  Li21  1  0.344040  0.283481  0.631718  1
  Li  Li22  1  0.597191  0.467231  0.561103  1
  Li  Li23  1  0.651764  0.712322  0.368282  1
  Li  Li24  1  0.998460  0.874977  0.625705  1
  Li  Li25  1  0.249271  0.372755  0.374295  1
  Li  Li26  1  0.125023  0.750729  0.123484  1
  Li  Li27  1  0.627245  0.001540  0.876516  1
  Mg  Mg28  1  0.750000  0.250000  0.500000  1
  Al  Al29  1  0.500000  0.500000  0.000000  1
  Si  Si30  1  0.296207  0.534509  0.157464  1
  Si  Si31  1  0.377044  0.138743  0.842536  1
  Si  Si32  1  0.961133  0.623872  0.746332  1
  Si  Si33  1  0.877540  0.214801  0.253668  1
  Si  Si34  1  0.376128  0.122460  0.337261  1
  Si  Si35  1  0.785199  0.038867  0.662739  1
  Si  Si36  1  0.465491  0.622956  0.761699  1
  Si  Si37  1  0.861257  0.703793  0.238301  1
