# generated using pymatgen
data_Yb6Ho3TmGe8
_symmetry_space_group_name_H-M   'P 1'
_cell_length_a   7.39114900
_cell_length_b   7.86839022
_cell_length_c   15.13525341
_cell_angle_alpha   90.02684690
_cell_angle_beta   90.00000000
_cell_angle_gamma   90.00000000
_symmetry_Int_Tables_number   1
_chemical_formula_structural   Yb6Ho3TmGe8
_chemical_formula_sum   'Yb12 Ho6 Tm2 Ge16'
_cell_volume   880.21242826
_cell_formula_units_Z   2
loop_
 _symmetry_equiv_pos_site_id
 _symmetry_equiv_pos_as_xyz
  1  'x, y, z'
loop_
 _atom_site_type_symbol
 _atom_site_label
 _atom_site_symmetry_multiplicity
 _atom_site_fract_x
 _atom_site_fract_y
 _atom_site_fract_z
 _atom_site_occupancy
  Yb  Yb0  1  0.981812  0.813065  0.405930  1
  Yb  Yb1  1  0.481812  0.686935  0.094070  1
  Yb  Yb2  1  0.518121  0.313381  0.594472  1
  Yb  Yb3  1  0.018121  0.186619  0.905528  1
  Yb  Yb4  1  0.018606  0.186939  0.594504  1
  Yb  Yb5  1  0.518606  0.313061  0.905496  1
  Yb  Yb6  1  0.481214  0.686889  0.405806  1
  Yb  Yb7  1  0.981214  0.813111  0.094194  1
  Yb  Yb8  1  0.343995  0.020043  0.749939  1
  Yb  Yb9  1  0.843995  0.479957  0.750061  1
  Yb  Yb10  1  0.156059  0.520649  0.250077  1
  Yb  Yb11  1  0.656059  0.979351  0.249923  1
  Ho  Ho12  1  0.318703  0.171327  0.120952  1
  Ho  Ho13  1  0.818703  0.328673  0.379048  1
  Ho  Ho14  1  0.181475  0.671850  0.878520  1
  Ho  Ho15  1  0.681475  0.828150  0.621480  1
  Ho  Ho16  1  0.318423  0.171466  0.379037  1
  Ho  Ho17  1  0.818423  0.328534  0.120963  1
  Tm  Tm18  1  0.181681  0.671115  0.621497  1
  Tm  Tm19  1  0.681681  0.828885  0.878503  1
  Ge  Ge20  1  0.845810  0.534321  0.540524  1
  Ge  Ge21  1  0.345810  0.965679  0.959476  1
  Ge  Ge22  1  0.655251  0.033555  0.460099  1
  Ge  Ge23  1  0.155251  0.466445  0.039901  1
  Ge  Ge24  1  0.156367  0.466895  0.460698  1
  Ge  Ge25  1  0.656367  0.033105  0.039302  1
  Ge  Ge26  1  0.342850  0.965217  0.540440  1
  Ge  Ge27  1  0.842850  0.534783  0.959560  1
  Ge  Ge28  1  0.977079  0.876422  0.750331  1
  Ge  Ge29  1  0.477079  0.623578  0.749669  1
  Ge  Ge30  1  0.522830  0.377787  0.249995  1
  Ge  Ge31  1  0.022830  0.122213  0.250005  1
  Ge  Ge32  1  0.237384  0.386655  0.749488  1
  Ge  Ge33  1  0.737384  0.113345  0.750512  1
  Ge  Ge34  1  0.262341  0.885837  0.249987  1
  Ge  Ge35  1  0.762341  0.614163  0.250013  1
