# generated using pymatgen
data_TbY2Cd(Ir2O7)2
_symmetry_space_group_name_H-M   'P 1'
_cell_length_a   7.20704208
_cell_length_b   7.21463586
_cell_length_c   7.20704315
_cell_angle_alpha   61.01484506
_cell_angle_beta   60.95535633
_cell_angle_gamma   61.01484438
_symmetry_Int_Tables_number   1
_chemical_formula_structural   TbY2Cd(Ir2O7)2
_chemical_formula_sum   'Tb1 Y2 Cd1 Ir4 O14'
_cell_volume   270.91921419
_cell_formula_units_Z   1
loop_
 _symmetry_equiv_pos_site_id
 _symmetry_equiv_pos_as_xyz
  1  'x, y, z'
loop_
 _atom_site_type_symbol
 _atom_site_label
 _atom_site_symmetry_multiplicity
 _atom_site_fract_x
 _atom_site_fract_y
 _atom_site_fract_z
 _atom_site_occupancy
  Tb  Tb0  1  0.125000  0.625000  0.125000  1
  Y  Y1  1  0.625000  0.125000  0.125000  1
  Y  Y2  1  0.125000  0.125000  0.625000  1
  Cd  Cd3  1  0.125000  0.125000  0.125000  1
  Ir  Ir4  1  0.125000  0.625000  0.625000  1
  Ir  Ir5  1  0.625000  0.125000  0.625000  1
  Ir  Ir6  1  0.625000  0.625000  0.125000  1
  Ir  Ir7  1  0.625000  0.625000  0.625000  1
  O  O8  1  0.711065  0.711299  0.290595  1
  O  O9  1  0.295639  0.295773  0.698533  1
  O  O10  1  0.711157  0.290720  0.711157  1
  O  O11  1  0.295757  0.698668  0.295757  1
  O  O12  1  0.290595  0.711299  0.711065  1
  O  O13  1  0.698533  0.295773  0.295639  1
  O  O14  1  0.538935  0.538701  0.959405  1
  O  O15  1  0.954361  0.954227  0.551467  1
  O  O16  1  0.538843  0.959280  0.538843  1
  O  O17  1  0.954243  0.551332  0.954243  1
  O  O18  1  0.959405  0.538701  0.538935  1
  O  O19  1  0.551467  0.954227  0.954361  1
  O  O20  1  0.251837  0.250460  0.251837  1
  O  O21  1  0.998163  0.999540  0.998163  1
