# generated using pymatgen
data_La6InSn7Hg2
_symmetry_space_group_name_H-M   'P 1'
_cell_length_a   6.71740974
_cell_length_b   6.71740865
_cell_length_c   10.59197614
_cell_angle_alpha   90.04806300
_cell_angle_beta   90.04805825
_cell_angle_gamma   102.43252744
_symmetry_Int_Tables_number   1
_chemical_formula_structural   La6InSn7Hg2
_chemical_formula_sum   'La6 In1 Sn7 Hg2'
_cell_volume   466.73975410
_cell_formula_units_Z   1
loop_
 _symmetry_equiv_pos_site_id
 _symmetry_equiv_pos_as_xyz
  1  'x, y, z'
loop_
 _atom_site_type_symbol
 _atom_site_label
 _atom_site_symmetry_multiplicity
 _atom_site_fract_x
 _atom_site_fract_y
 _atom_site_fract_z
 _atom_site_occupancy
  La  La0  1  0.631367  0.631367  0.251840  1
  La  La1  1  0.370131  0.370131  0.743674  1
  La  La2  1  0.204436  0.798556  0.500032  1
  La  La3  1  0.203599  0.794258  0.999505  1
  La  La4  1  0.798556  0.204436  0.500032  1
  La  La5  1  0.794258  0.203599  0.999505  1
  In  In6  1  0.306146  0.306146  0.045364  1
  Sn  Sn7  1  0.020487  0.020487  0.245999  1
  Sn  Sn8  1  0.979782  0.979782  0.751619  1
  Sn  Sn9  1  0.692917  0.692917  0.549333  1
  Sn  Sn10  1  0.491567  0.074183  0.248080  1
  Sn  Sn11  1  0.927782  0.509375  0.751972  1
  Sn  Sn12  1  0.509375  0.927782  0.751972  1
  Sn  Sn13  1  0.074183  0.491567  0.248080  1
  Hg  Hg14  1  0.690088  0.690088  0.958858  1
  Hg  Hg15  1  0.305326  0.305326  0.454138  1
