# generated using pymatgen
data_Tm3In3IrPtAu
_symmetry_space_group_name_H-M   'P 1'
_cell_length_a   7.74625900
_cell_length_b   7.74625968
_cell_length_c   3.75784000
_cell_angle_alpha   90.00000000
_cell_angle_beta   90.00000000
_cell_angle_gamma   120.00000990
_symmetry_Int_Tables_number   1
_chemical_formula_structural   Tm3In3IrPtAu
_chemical_formula_sum   'Tm3 In3 Ir1 Pt1 Au1'
_cell_volume   195.27782939
_cell_formula_units_Z   1
loop_
 _symmetry_equiv_pos_site_id
 _symmetry_equiv_pos_as_xyz
  1  'x, y, z'
loop_
 _atom_site_type_symbol
 _atom_site_label
 _atom_site_symmetry_multiplicity
 _atom_site_fract_x
 _atom_site_fract_y
 _atom_site_fract_z
 _atom_site_occupancy
  Tm  Tm0  1  0.415755  0.391403  0.500000  1
  Tm  Tm1  1  0.608597  0.024351  0.500000  1
  Tm  Tm2  1  0.975649  0.584245  0.500000  1
  In  In3  1  0.734830  0.736477  0.000000  1
  In  In4  1  0.263523  0.998355  0.000000  1
  In  In5  1  0.001645  0.265170  0.000000  1
  Ir  Ir6  1  0.666667  0.333333  0.000000  1
  Pt  Pt7  1  0.000000  0.000000  0.500000  1
  Au  Au8  1  0.333333  0.666667  0.000000  1
