# generated using pymatgen
data_Y5Er3GePd24
_symmetry_space_group_name_H-M   'P 1'
_cell_length_a   8.35474755
_cell_length_b   8.35474755
_cell_length_c   8.35411811
_cell_angle_alpha   89.98711820
_cell_angle_beta   90.01288180
_cell_angle_gamma   90.03972151
_symmetry_Int_Tables_number   1
_chemical_formula_structural   Y5Er3GePd24
_chemical_formula_sum   'Y5 Er3 Ge1 Pd24'
_cell_volume   583.13236758
_cell_formula_units_Z   1
loop_
 _symmetry_equiv_pos_site_id
 _symmetry_equiv_pos_as_xyz
  1  'x, y, z'
loop_
 _atom_site_type_symbol
 _atom_site_label
 _atom_site_symmetry_multiplicity
 _atom_site_fract_x
 _atom_site_fract_y
 _atom_site_fract_z
 _atom_site_occupancy
  Y  Y0  1  0.253200  0.253174  0.253162  1
  Y  Y1  1  0.746846  0.746854  0.746882  1
  Y  Y2  1  0.746826  0.746800  0.253162  1
  Y  Y3  1  0.746871  0.253129  0.746837  1
  Y  Y4  1  0.253146  0.253154  0.746882  1
  Er  Er5  1  0.253342  0.746658  0.253365  1
  Er  Er6  1  0.253343  0.746657  0.746656  1
  Er  Er7  1  0.746689  0.253311  0.253332  1
  Ge  Ge8  1  0.999863  0.000137  0.999877  1
  Pd  Pd9  1  0.259827  0.501242  0.000061  1
  Pd  Pd10  1  0.740208  0.499437  0.000773  1
  Pd  Pd11  1  0.999344  0.259792  0.499337  1
  Pd  Pd12  1  0.500563  0.259792  0.000773  1
  Pd  Pd13  1  0.001467  0.740177  0.499949  1
  Pd  Pd14  1  0.498758  0.740173  0.000061  1
  Pd  Pd15  1  0.499957  0.999945  0.259823  1
  Pd  Pd16  1  0.259823  0.998533  0.499949  1
  Pd  Pd17  1  0.499348  0.999234  0.740208  1
  Pd  Pd18  1  0.740208  0.000656  0.499337  1
  Pd  Pd19  1  0.000055  0.500043  0.259823  1
  Pd  Pd20  1  0.000766  0.500652  0.740208  1
  Pd  Pd21  1  0.253190  0.501486  0.499941  1
  Pd  Pd22  1  0.746830  0.499335  0.499219  1
  Pd  Pd23  1  0.500665  0.253170  0.499219  1
  Pd  Pd24  1  0.498514  0.746810  0.499941  1
  Pd  Pd25  1  0.499947  0.500053  0.253185  1
  Pd  Pd26  1  0.499224  0.500776  0.746828  1
  Pd  Pd27  1  0.289244  0.998676  0.000044  1
  Pd  Pd28  1  0.710490  0.000605  0.000688  1
  Pd  Pd29  1  0.999395  0.289510  0.000688  1
  Pd  Pd30  1  0.001324  0.710756  0.000044  1
  Pd  Pd31  1  0.000040  0.999960  0.289260  1
  Pd  Pd32  1  0.000683  0.999317  0.710488  1
