# generated using pymatgen
data_Nd2CdAgPd
_symmetry_space_group_name_H-M   'P 1'
_cell_length_a   8.00382911
_cell_length_b   8.00382911
_cell_length_c   3.93028800
_cell_angle_alpha   90.00000000
_cell_angle_beta   90.00000000
_cell_angle_gamma   89.24632852
_symmetry_Int_Tables_number   1
_chemical_formula_structural   Nd2CdAgPd
_chemical_formula_sum   'Nd4 Cd2 Ag2 Pd2'
_cell_volume   251.75749954
_cell_formula_units_Z   2
loop_
 _symmetry_equiv_pos_site_id
 _symmetry_equiv_pos_as_xyz
  1  'x, y, z'
loop_
 _atom_site_type_symbol
 _atom_site_label
 _atom_site_symmetry_multiplicity
 _atom_site_fract_x
 _atom_site_fract_y
 _atom_site_fract_z
 _atom_site_occupancy
  Nd  Nd0  1  0.664493  0.164493  0.500000  1
  Nd  Nd1  1  0.335507  0.835507  0.500000  1
  Nd  Nd2  1  0.183500  0.316500  0.500000  1
  Nd  Nd3  1  0.816500  0.683500  0.500000  1
  Cd  Cd4  1  0.000000  0.000000  0.000000  1
  Cd  Cd5  1  0.500000  0.500000  0.000000  1
  Ag  Ag6  1  0.126013  0.626013  0.000000  1
  Ag  Ag7  1  0.873987  0.373987  0.000000  1
  Pd  Pd8  1  0.625848  0.874152  0.000000  1
  Pd  Pd9  1  0.374152  0.125848  0.000000  1
