# generated using pymatgen
data_Ta6Si3Ni3C
_symmetry_space_group_name_H-M   'P 1'
_cell_length_a   8.00472909
_cell_length_b   8.00476124
_cell_length_c   7.95036100
_cell_angle_alpha   60.20559146
_cell_angle_beta   60.20558342
_cell_angle_gamma   60.12873420
_symmetry_Int_Tables_number   1
_chemical_formula_structural   Ta6Si3Ni3C
_chemical_formula_sum   'Ta12 Si6 Ni6 C2'
_cell_volume   361.68692935
_cell_formula_units_Z   2
loop_
 _symmetry_equiv_pos_site_id
 _symmetry_equiv_pos_as_xyz
  1  'x, y, z'
loop_
 _atom_site_type_symbol
 _atom_site_label
 _atom_site_symmetry_multiplicity
 _atom_site_fract_x
 _atom_site_fract_y
 _atom_site_fract_z
 _atom_site_occupancy
  Ta  Ta0  1  0.303512  0.695890  0.696876  1
  Ta  Ta1  1  0.305625  0.305618  0.695883  1
  Ta  Ta2  1  0.554908  0.943721  0.557250  1
  Ta  Ta3  1  0.943725  0.554904  0.557249  1
  Ta  Ta4  1  0.554122  0.946481  0.946229  1
  Ta  Ta5  1  0.695121  0.306302  0.305887  1
  Ta  Ta6  1  0.946487  0.554123  0.946228  1
  Ta  Ta7  1  0.306308  0.695112  0.305887  1
  Ta  Ta8  1  0.553696  0.553693  0.945377  1
  Ta  Ta9  1  0.695888  0.303517  0.696873  1
  Ta  Ta10  1  0.696345  0.696341  0.302748  1
  Ta  Ta11  1  0.944381  0.944374  0.557114  1
  Si  Si12  1  0.914109  0.245285  0.912655  1
  Si  Si13  1  0.335935  0.004700  0.322026  1
  Si  Si14  1  0.337376  0.337372  0.325840  1
  Si  Si15  1  0.004709  0.335929  0.322025  1
  Si  Si16  1  0.912680  0.912672  0.250502  1
  Si  Si17  1  0.245288  0.914103  0.912654  1
  Ni  Ni18  1  0.327927  0.327876  0.010982  1
  Ni  Ni19  1  0.134539  0.134571  0.606575  1
  Ni  Ni20  1  0.921896  0.922016  0.916894  1
  Ni  Ni21  1  0.125102  0.624895  0.137937  1
  Ni  Ni22  1  0.115387  0.115384  0.125943  1
  Ni  Ni23  1  0.624894  0.125099  0.137973  1
  C  C24  1  0.749148  0.749138  0.753055  1
  C  C25  1  0.500887  0.500885  0.501339  1
