# generated using pymatgen
data_NaAg3I20
_symmetry_space_group_name_H-M   'P 1'
_cell_length_a   9.49874093
_cell_length_b   10.98873925
_cell_length_c   13.41422798
_cell_angle_alpha   101.74647591
_cell_angle_beta   88.26321230
_cell_angle_gamma   90.19477301
_symmetry_Int_Tables_number   1
_chemical_formula_structural   NaAg3I20
_chemical_formula_sum   'Na1 Ag3 I20'
_cell_volume   1370.20867893
_cell_formula_units_Z   1
loop_
 _symmetry_equiv_pos_site_id
 _symmetry_equiv_pos_as_xyz
  1  'x, y, z'
loop_
 _atom_site_type_symbol
 _atom_site_label
 _atom_site_symmetry_multiplicity
 _atom_site_fract_x
 _atom_site_fract_y
 _atom_site_fract_z
 _atom_site_occupancy
  Na  Na0  1  0.070801  0.839582  0.463148  1
  Ag  Ag1  1  0.422975  0.827523  0.964909  1
  Ag  Ag2  1  0.590608  0.167969  0.032852  1
  Ag  Ag3  1  0.915925  0.220778  0.580338  1
  I  I4  1  0.243744  0.523015  0.588722  1
  I  I5  1  0.784867  0.481035  0.401691  1
  I  I6  1  0.712744  0.485657  0.890166  1
  I  I7  1  0.291323  0.506330  0.101779  1
  I  I8  1  0.142574  0.327865  0.686552  1
  I  I9  1  0.893424  0.662967  0.301408  1
  I  I10  1  0.599420  0.687004  0.813944  1
  I  I11  1  0.400740  0.303737  0.178125  1
  I  I12  1  0.357220  0.913762  0.700989  1
  I  I13  1  0.650630  0.087068  0.302335  1
  I  I14  1  0.829680  0.067083  0.759952  1
  I  I15  1  0.138123  0.926559  0.229306  1
  I  I16  1  0.170530  0.732587  0.029864  1
  I  I17  1  0.839168  0.262685  0.961492  1
  I  I18  1  0.660624  0.266016  0.504560  1
  I  I19  1  0.364473  0.731321  0.498452  1
  I  I20  1  0.793526  0.873802  0.586723  1
  I  I21  1  0.125398  0.106483  0.420262  1
  I  I22  1  0.349864  0.064155  0.905124  1
  I  I23  1  0.651622  0.935015  0.097305  1
