# generated using pymatgen
data_Lu2(CuP)3
_symmetry_space_group_name_H-M   'P 1'
_cell_length_a   3.79535000
_cell_length_b   10.56331400
_cell_length_c   12.77125100
_cell_angle_alpha   90.00000000
_cell_angle_beta   90.00000000
_cell_angle_gamma   90.00000000
_symmetry_Int_Tables_number   1
_chemical_formula_structural   Lu2(CuP)3
_chemical_formula_sum   'Lu8 Cu12 P12'
_cell_volume   512.01827473
_cell_formula_units_Z   4
loop_
 _symmetry_equiv_pos_site_id
 _symmetry_equiv_pos_as_xyz
  1  'x, y, z'
loop_
 _atom_site_type_symbol
 _atom_site_label
 _atom_site_symmetry_multiplicity
 _atom_site_fract_x
 _atom_site_fract_y
 _atom_site_fract_z
 _atom_site_occupancy
  Lu  Lu0  1  0.250000  0.928624  0.794558  1
  Lu  Lu1  1  0.750000  0.428624  0.705442  1
  Lu  Lu2  1  0.250000  0.571376  0.294558  1
  Lu  Lu3  1  0.750000  0.071376  0.205442  1
  Lu  Lu4  1  0.250000  0.843178  0.503715  1
  Lu  Lu5  1  0.750000  0.343178  0.996285  1
  Lu  Lu6  1  0.250000  0.656822  0.003715  1
  Lu  Lu7  1  0.750000  0.156822  0.496285  1
  Cu  Cu8  1  0.250000  0.395677  0.514752  1
  Cu  Cu9  1  0.750000  0.895677  0.985248  1
  Cu  Cu10  1  0.250000  0.104323  0.014752  1
  Cu  Cu11  1  0.750000  0.604323  0.485248  1
  Cu  Cu12  1  0.250000  0.274913  0.333527  1
  Cu  Cu13  1  0.750000  0.774913  0.166473  1
  Cu  Cu14  1  0.250000  0.225087  0.833527  1
  Cu  Cu15  1  0.750000  0.725087  0.666473  1
  Cu  Cu16  1  0.250000  0.860022  0.277728  1
  Cu  Cu17  1  0.750000  0.360022  0.222272  1
  Cu  Cu18  1  0.250000  0.639978  0.777728  1
  Cu  Cu19  1  0.750000  0.139978  0.722272  1
  P  P20  1  0.250000  0.237926  0.642632  1
  P  P21  1  0.750000  0.737926  0.857368  1
  P  P22  1  0.250000  0.262074  0.142632  1
  P  P23  1  0.750000  0.762074  0.357368  1
  P  P24  1  0.250000  0.603002  0.598382  1
  P  P25  1  0.750000  0.103002  0.901618  1
  P  P26  1  0.250000  0.896998  0.098382  1
  P  P27  1  0.750000  0.396998  0.401618  1
  P  P28  1  0.250000  0.057326  0.367890  1
  P  P29  1  0.750000  0.557326  0.132110  1
  P  P30  1  0.250000  0.442674  0.867890  1
  P  P31  1  0.750000  0.942674  0.632110  1
