# generated using pymatgen
data_Ba6HoTm(NiO6)2
_symmetry_space_group_name_H-M   'P 1'
_cell_length_a   7.11653589
_cell_length_b   7.11653586
_cell_length_c   7.11653653
_cell_angle_alpha   93.72124390
_cell_angle_beta   93.72125687
_cell_angle_gamma   93.72124721
_symmetry_Int_Tables_number   1
_chemical_formula_structural   Ba6HoTm(NiO6)2
_chemical_formula_sum   'Ba6 Ho1 Tm1 Ni2 O12'
_cell_volume   358.03387258
_cell_formula_units_Z   1
loop_
 _symmetry_equiv_pos_site_id
 _symmetry_equiv_pos_as_xyz
  1  'x, y, z'
loop_
 _atom_site_type_symbol
 _atom_site_label
 _atom_site_symmetry_multiplicity
 _atom_site_fract_x
 _atom_site_fract_y
 _atom_site_fract_z
 _atom_site_occupancy
  Ba  Ba0  1  0.380633  0.119366  0.750000  1
  Ba  Ba1  1  0.750000  0.380634  0.119367  1
  Ba  Ba2  1  0.249999  0.619634  0.880367  1
  Ba  Ba3  1  0.619633  0.880366  0.250001  1
  Ba  Ba4  1  0.119367  0.750000  0.380634  1
  Ba  Ba5  1  0.880366  0.250000  0.619634  1
  Ho  Ho6  1  0.250001  0.250000  0.250000  1
  Tm  Tm7  1  0.750000  0.750001  0.750000  1
  Ni  Ni8  1  0.500784  0.500784  0.500784  1
  Ni  Ni9  1  0.999216  0.999216  0.999216  1
  O  O10  1  0.782891  0.595130  0.468981  1
  O  O11  1  0.595131  0.468980  0.782891  1
  O  O12  1  0.468980  0.782891  0.595131  1
  O  O13  1  0.031019  0.904870  0.717110  1
  O  O14  1  0.904869  0.717109  0.031019  1
  O  O15  1  0.717110  0.031019  0.904869  1
  O  O16  1  0.217744  0.406678  0.533461  1
  O  O17  1  0.406678  0.533460  0.217744  1
  O  O18  1  0.533460  0.217744  0.406677  1
  O  O19  1  0.966540  0.093322  0.282257  1
  O  O20  1  0.282257  0.966539  0.093321  1
  O  O21  1  0.093321  0.282256  0.966539  1
