# generated using pymatgen
data_Zr12Pa8Si15Au
_symmetry_space_group_name_H-M   'P 1'
_cell_length_a   7.35661064
_cell_length_b   7.40094820
_cell_length_c   13.57437300
_cell_angle_alpha   89.86647911
_cell_angle_beta   89.90254446
_cell_angle_gamma   89.93940334
_symmetry_Int_Tables_number   1
_chemical_formula_structural   Zr12Pa8Si15Au
_chemical_formula_sum   'Zr12 Pa8 Si15 Au1'
_cell_volume   739.06539163
_cell_formula_units_Z   1
loop_
 _symmetry_equiv_pos_site_id
 _symmetry_equiv_pos_as_xyz
  1  'x, y, z'
loop_
 _atom_site_type_symbol
 _atom_site_label
 _atom_site_symmetry_multiplicity
 _atom_site_fract_x
 _atom_site_fract_y
 _atom_site_fract_z
 _atom_site_occupancy
  Zr  Zr0  1  0.172808  0.173556  0.998632  1
  Zr  Zr1  1  0.825988  0.826478  0.500863  1
  Zr  Zr2  1  0.328461  0.682070  0.247745  1
  Zr  Zr3  1  0.673556  0.326081  0.750333  1
  Zr  Zr4  1  0.146493  0.994025  0.377287  1
  Zr  Zr5  1  0.850625  0.999386  0.874777  1
  Zr  Zr6  1  0.499325  0.649704  0.625857  1
  Zr  Zr7  1  0.349902  0.500273  0.874421  1
  Zr  Zr8  1  0.500763  0.352198  0.120945  1
  Zr  Zr9  1  0.654925  0.506215  0.377317  1
  Zr  Zr10  1  0.000512  0.149028  0.625177  1
  Zr  Zr11  1  0.999636  0.850080  0.122842  1
  Pa  Pa12  1  0.994924  0.346326  0.213072  1
  Pa  Pa13  1  0.003263  0.653383  0.714691  1
  Pa  Pa14  1  0.153145  0.501143  0.467419  1
  Pa  Pa15  1  0.503138  0.844605  0.034185  1
  Pa  Pa16  1  0.844832  0.503310  0.963698  1
  Pa  Pa17  1  0.497780  0.151782  0.539595  1
  Pa  Pa18  1  0.345267  0.997037  0.785028  1
  Pa  Pa19  1  0.656524  0.000690  0.283275  1
  Si  Si20  1  0.638769  0.705532  0.817738  1
  Si  Si21  1  0.205018  0.861414  0.568823  1
  Si  Si22  1  0.138872  0.794636  0.931258  1
  Si  Si23  1  0.794355  0.138409  0.067549  1
  Si  Si24  1  0.859495  0.204572  0.433066  1
  Si  Si25  1  0.294107  0.361685  0.682556  1
  Si  Si26  1  0.704843  0.638796  0.182267  1
  Si  Si27  1  0.294740  0.047204  0.183790  1
  Si  Si28  1  0.706282  0.949177  0.686961  1
  Si  Si29  1  0.452192  0.797239  0.436422  1
  Si  Si30  1  0.204091  0.548447  0.063833  1
  Si  Si31  1  0.547675  0.204256  0.934671  1
  Si  Si32  1  0.794637  0.450526  0.565267  1
  Si  Si33  1  0.048160  0.295306  0.813823  1
  Si  Si34  1  0.953747  0.703590  0.312950  1
  Au  Au35  1  0.361149  0.291843  0.321863  1
