# generated using pymatgen
data_MnPtBr6
_symmetry_space_group_name_H-M   'P 1'
_cell_length_a   6.66092595
_cell_length_b   6.66092601
_cell_length_c   6.95888352
_cell_angle_alpha   80.76841536
_cell_angle_beta   80.76841162
_cell_angle_gamma   119.91893502
_symmetry_Int_Tables_number   1
_chemical_formula_structural   MnPtBr6
_chemical_formula_sum   'Mn1 Pt1 Br6'
_cell_volume   253.49186123
_cell_formula_units_Z   1
loop_
 _symmetry_equiv_pos_site_id
 _symmetry_equiv_pos_as_xyz
  1  'x, y, z'
loop_
 _atom_site_type_symbol
 _atom_site_label
 _atom_site_symmetry_multiplicity
 _atom_site_fract_x
 _atom_site_fract_y
 _atom_site_fract_z
 _atom_site_occupancy
  Mn  Mn0  1  0.832936  0.167064  0.000000  1
  Pt  Pt1  1  0.166552  0.833448  0.000000  1
  Br  Br2  1  0.405677  0.057061  0.222250  1
  Br  Br3  1  0.554267  0.922345  0.778234  1
  Br  Br4  1  0.942939  0.594323  0.777750  1
  Br  Br5  1  0.077655  0.445733  0.221766  1
  Br  Br6  1  0.794013  0.774039  0.222522  1
  Br  Br7  1  0.225961  0.205987  0.777478  1
