# generated using pymatgen
data_Li3Nd3Pd2Ru
_symmetry_space_group_name_H-M   'P 1'
_cell_length_a   7.34792200
_cell_length_b   7.34792276
_cell_length_c   4.09673300
_cell_angle_alpha   90.00000000
_cell_angle_beta   90.00000000
_cell_angle_gamma   119.99998876
_symmetry_Int_Tables_number   1
_chemical_formula_structural   Li3Nd3Pd2Ru
_chemical_formula_sum   'Li3 Nd3 Pd2 Ru1'
_cell_volume   191.55675055
_cell_formula_units_Z   1
loop_
 _symmetry_equiv_pos_site_id
 _symmetry_equiv_pos_as_xyz
  1  'x, y, z'
loop_
 _atom_site_type_symbol
 _atom_site_label
 _atom_site_symmetry_multiplicity
 _atom_site_fract_x
 _atom_site_fract_y
 _atom_site_fract_z
 _atom_site_occupancy
  Li  Li0  1  0.767113  0.767463  0.500000  1
  Li  Li1  1  0.232537  0.999650  0.500000  1
  Li  Li2  1  0.000350  0.232887  0.500000  1
  Nd  Nd3  1  0.423191  0.409434  0.000000  1
  Nd  Nd4  1  0.590566  0.013757  0.000000  1
  Nd  Nd5  1  0.986243  0.576809  0.000000  1
  Pd  Pd6  1  0.000000  0.000000  0.000000  1
  Pd  Pd7  1  0.333333  0.666667  0.500000  1
  Ru  Ru8  1  0.666667  0.333333  0.500000  1
