# generated using pymatgen
data_CaPdCl6
_symmetry_space_group_name_H-M   'P 1'
_cell_length_a   7.28587339
_cell_length_b   7.28587419
_cell_length_c   7.28587625
_cell_angle_alpha   54.90701225
_cell_angle_beta   54.90700387
_cell_angle_gamma   54.90699613
_symmetry_Int_Tables_number   1
_chemical_formula_structural   CaPdCl6
_chemical_formula_sum   'Ca1 Pd1 Cl6'
_cell_volume   241.06320284
_cell_formula_units_Z   1
loop_
 _symmetry_equiv_pos_site_id
 _symmetry_equiv_pos_as_xyz
  1  'x, y, z'
loop_
 _atom_site_type_symbol
 _atom_site_label
 _atom_site_symmetry_multiplicity
 _atom_site_fract_x
 _atom_site_fract_y
 _atom_site_fract_z
 _atom_site_occupancy
  Ca  Ca0  1  0.333882  0.333882  0.333882  1
  Pd  Pd1  1  0.666642  0.666642  0.666642  1
  Cl  Cl2  1  0.027348  0.459104  0.738178  1
  Cl  Cl3  1  0.310326  0.878746  0.585771  1
  Cl  Cl4  1  0.459104  0.738178  0.027348  1
  Cl  Cl5  1  0.585771  0.310326  0.878746  1
  Cl  Cl6  1  0.738178  0.027348  0.459104  1
  Cl  Cl7  1  0.878746  0.585771  0.310326  1
