# generated using pymatgen
data_Na2CaTa12O24
_symmetry_space_group_name_H-M   'P 1'
_cell_length_a   7.09718783
_cell_length_b   7.09718612
_cell_length_c   9.74105800
_cell_angle_alpha   86.72060899
_cell_angle_beta   93.27937405
_cell_angle_gamma   86.67834374
_symmetry_Int_Tables_number   1
_chemical_formula_structural   Na2CaTa12O24
_chemical_formula_sum   'Na2 Ca1 Ta12 O24'
_cell_volume   488.12891601
_cell_formula_units_Z   1
loop_
 _symmetry_equiv_pos_site_id
 _symmetry_equiv_pos_as_xyz
  1  'x, y, z'
loop_
 _atom_site_type_symbol
 _atom_site_label
 _atom_site_symmetry_multiplicity
 _atom_site_fract_x
 _atom_site_fract_y
 _atom_site_fract_z
 _atom_site_occupancy
  Na  Na0  1  0.623591  0.376409  0.122127  1
  Na  Na1  1  0.899901  0.100099  0.398484  1
  Ca  Ca2  1  0.376088  0.623912  0.878530  1
  Ta  Ta3  1  0.098889  0.901111  0.099842  1
  Ta  Ta4  1  0.600022  0.399978  0.599332  1
  Ta  Ta5  1  0.398444  0.601556  0.398942  1
  Ta  Ta6  1  0.898810  0.101190  0.898268  1
  Ta  Ta7  1  0.602926  0.835911  0.612875  1
  Ta  Ta8  1  0.104465  0.332148  0.115973  1
  Ta  Ta9  1  0.667852  0.895535  0.115973  1
  Ta  Ta10  1  0.164090  0.397074  0.612875  1
  Ta  Ta11  1  0.331037  0.106002  0.883759  1
  Ta  Ta12  1  0.835688  0.602688  0.386406  1
  Ta  Ta13  1  0.397312  0.164312  0.386406  1
  Ta  Ta14  1  0.893998  0.668963  0.883759  1
  O  O15  1  0.587161  0.081791  0.250345  1
  O  O16  1  0.084112  0.580380  0.754156  1
  O  O17  1  0.419620  0.915888  0.754156  1
  O  O18  1  0.918209  0.412839  0.250345  1
  O  O19  1  0.822976  0.821290  0.500225  1
  O  O20  1  0.328899  0.331616  0.999076  1
  O  O21  1  0.178710  0.177024  0.500225  1
  O  O22  1  0.668384  0.671101  0.999076  1
  O  O23  1  0.180643  0.092302  0.234226  1
  O  O24  1  0.670304  0.594811  0.736875  1
  O  O25  1  0.129232  0.593734  0.453956  1
  O  O26  1  0.629200  0.099617  0.960148  1
  O  O27  1  0.093298  0.184051  0.767596  1
  O  O28  1  0.595804  0.675164  0.265062  1
  O  O29  1  0.598933  0.129531  0.544125  1
  O  O30  1  0.103463  0.630347  0.038683  1
  O  O31  1  0.815949  0.906702  0.767596  1
  O  O32  1  0.324836  0.404196  0.265062  1
  O  O33  1  0.870469  0.401067  0.544125  1
  O  O34  1  0.369653  0.896537  0.038683  1
  O  O35  1  0.907698  0.819357  0.234226  1
  O  O36  1  0.405189  0.329696  0.736875  1
  O  O37  1  0.406266  0.870768  0.453956  1
  O  O38  1  0.900383  0.370800  0.960148  1
