# generated using pymatgen
data_Dy3Y5(CuP)12
_symmetry_space_group_name_H-M   'P 1'
_cell_length_a   3.85975800
_cell_length_b   10.69078906
_cell_length_c   12.98409500
_cell_angle_alpha   89.99393856
_cell_angle_beta   90.00000000
_cell_angle_gamma   90.00000000
_symmetry_Int_Tables_number   1
_chemical_formula_structural   Dy3Y5(CuP)12
_chemical_formula_sum   'Dy3 Y5 Cu12 P12'
_cell_volume   535.77385713
_cell_formula_units_Z   1
loop_
 _symmetry_equiv_pos_site_id
 _symmetry_equiv_pos_as_xyz
  1  'x, y, z'
loop_
 _atom_site_type_symbol
 _atom_site_label
 _atom_site_symmetry_multiplicity
 _atom_site_fract_x
 _atom_site_fract_y
 _atom_site_fract_z
 _atom_site_occupancy
  Dy  Dy0  1  0.750000  0.341219  0.997098  1
  Dy  Dy1  1  0.250000  0.658781  0.002891  1
  Dy  Dy2  1  0.750000  0.158837  0.497107  1
  Y  Y3  1  0.250000  0.930263  0.792943  1
  Y  Y4  1  0.750000  0.430218  0.707154  1
  Y  Y5  1  0.250000  0.569730  0.292820  1
  Y  Y6  1  0.750000  0.069772  0.207123  1
  Y  Y7  1  0.250000  0.841359  0.502958  1
  Cu  Cu8  1  0.250000  0.402741  0.513786  1
  Cu  Cu9  1  0.750000  0.902764  0.986209  1
  Cu  Cu10  1  0.250000  0.097240  0.013796  1
  Cu  Cu11  1  0.750000  0.597123  0.486205  1
  Cu  Cu12  1  0.250000  0.272943  0.332260  1
  Cu  Cu13  1  0.750000  0.772888  0.167683  1
  Cu  Cu14  1  0.250000  0.227105  0.832286  1
  Cu  Cu15  1  0.750000  0.727046  0.667848  1
  Cu  Cu16  1  0.250000  0.860566  0.279726  1
  Cu  Cu17  1  0.750000  0.360533  0.220077  1
  Cu  Cu18  1  0.250000  0.639469  0.779944  1
  Cu  Cu19  1  0.750000  0.139526  0.720113  1
  P  P20  1  0.250000  0.240512  0.643490  1
  P  P21  1  0.750000  0.740506  0.856531  1
  P  P22  1  0.250000  0.259490  0.143478  1
  P  P23  1  0.750000  0.759272  0.356180  1
  P  P24  1  0.250000  0.603927  0.600801  1
  P  P25  1  0.750000  0.104249  0.899339  1
  P  P26  1  0.250000  0.895778  0.100651  1
  P  P27  1  0.750000  0.395782  0.399311  1
  P  P28  1  0.250000  0.057385  0.368891  1
  P  P29  1  0.750000  0.557187  0.130964  1
  P  P30  1  0.250000  0.442795  0.869022  1
  P  P31  1  0.750000  0.942993  0.631314  1
