# generated using pymatgen
data_TbY2P2S
_symmetry_space_group_name_H-M   'P 1'
_cell_length_a   6.91128892
_cell_length_b   6.91128802
_cell_length_c   6.91128724
_cell_angle_alpha   146.50750967
_cell_angle_beta   131.83047680
_cell_angle_gamma   59.94129790
_symmetry_Int_Tables_number   1
_chemical_formula_structural   TbY2P2S
_chemical_formula_sum   'Tb1 Y2 P2 S1'
_cell_volume   134.50648551
_cell_formula_units_Z   1
loop_
 _symmetry_equiv_pos_site_id
 _symmetry_equiv_pos_as_xyz
  1  'x, y, z'
loop_
 _atom_site_type_symbol
 _atom_site_label
 _atom_site_symmetry_multiplicity
 _atom_site_fract_x
 _atom_site_fract_y
 _atom_site_fract_z
 _atom_site_occupancy
  Tb  Tb0  1  0.828819  0.328819  0.500000  1
  Y  Y1  1  0.499982  0.999982  0.500000  1
  Y  Y2  1  0.171210  0.671210  0.500000  1
  P  P3  1  0.665449  0.665449  0.000000  1
  P  P4  1  0.334419  0.334419  0.000000  1
  S  S5  1  0.000121  0.000121  0.000000  1
