# generated using pymatgen
data_Tm4IrPdPb5
_symmetry_space_group_name_H-M   'P 1'
_cell_length_a   8.16197655
_cell_length_b   3.51697100
_cell_length_c   9.86388600
_cell_angle_alpha   90.00000000
_cell_angle_beta   93.80499494
_cell_angle_gamma   90.00000000
_symmetry_Int_Tables_number   1
_chemical_formula_structural   Tm4IrPdPb5
_chemical_formula_sum   'Tm4 Ir1 Pd1 Pb5'
_cell_volume   282.52299185
_cell_formula_units_Z   1
loop_
 _symmetry_equiv_pos_site_id
 _symmetry_equiv_pos_as_xyz
  1  'x, y, z'
loop_
 _atom_site_type_symbol
 _atom_site_label
 _atom_site_symmetry_multiplicity
 _atom_site_fract_x
 _atom_site_fract_y
 _atom_site_fract_z
 _atom_site_occupancy
  Tm  Tm0  1  0.305251  0.500000  0.161333  1
  Tm  Tm1  1  0.692664  0.500000  0.425257  1
  Tm  Tm2  1  0.297599  0.500000  0.562357  1
  Tm  Tm3  1  0.699830  0.500000  0.847341  1
  Ir  Ir4  1  0.420687  0.000000  0.368454  1
  Pd  Pd5  1  0.584178  0.000000  0.638002  1
  Pb  Pb6  1  0.002319  0.000000  0.000282  1
  Pb  Pb7  1  0.643832  0.000000  0.134177  1
  Pb  Pb8  1  0.035612  0.000000  0.334886  1
  Pb  Pb9  1  0.962517  0.000000  0.664303  1
  Pb  Pb10  1  0.355512  0.000000  0.863609  1
