# generated using pymatgen
data_Lu4Nb2Sn5
_symmetry_space_group_name_H-M   'P 1'
_cell_length_a   11.06451183
_cell_length_b   11.06451224
_cell_length_c   11.06451242
_cell_angle_alpha   148.98818144
_cell_angle_beta   131.13727267
_cell_angle_gamma   59.00746968
_symmetry_Int_Tables_number   1
_chemical_formula_structural   Lu4Nb2Sn5
_chemical_formula_sum   'Lu8 Nb4 Sn10'
_cell_volume   521.41247164
_cell_formula_units_Z   2
loop_
 _symmetry_equiv_pos_site_id
 _symmetry_equiv_pos_as_xyz
  1  'x, y, z'
loop_
 _atom_site_type_symbol
 _atom_site_label
 _atom_site_symmetry_multiplicity
 _atom_site_fract_x
 _atom_site_fract_y
 _atom_site_fract_z
 _atom_site_occupancy
  Lu  Lu0  1  0.672462  0.439098  0.233365  1
  Lu  Lu1  1  0.327538  0.560902  0.766635  1
  Lu  Lu2  1  0.205732  0.939098  0.266635  1
  Lu  Lu3  1  0.794268  0.060902  0.733365  1
  Lu  Lu4  1  0.257517  0.147025  0.110493  1
  Lu  Lu5  1  0.742483  0.852975  0.889507  1
  Lu  Lu6  1  0.036531  0.647025  0.389507  1
  Lu  Lu7  1  0.963469  0.352975  0.610493  1
  Nb  Nb8  1  0.304020  0.554020  0.250000  1
  Nb  Nb9  1  0.695980  0.445980  0.750000  1
  Nb  Nb10  1  0.695980  0.945980  0.250000  1
  Nb  Nb11  1  0.304020  0.054020  0.750000  1
  Sn  Sn12  1  0.583741  0.287965  0.295776  1
  Sn  Sn13  1  0.416259  0.712035  0.704224  1
  Sn  Sn14  1  0.992188  0.787965  0.204224  1
  Sn  Sn15  1  0.007812  0.212035  0.795776  1
  Sn  Sn16  1  0.000000  0.250000  0.250000  1
  Sn  Sn17  1  0.000000  0.750000  0.750000  1
  Sn  Sn18  1  0.478540  0.077693  0.400845  1
  Sn  Sn19  1  0.521460  0.922307  0.599155  1
  Sn  Sn20  1  0.676849  0.577693  0.099155  1
  Sn  Sn21  1  0.323151  0.422307  0.900845  1
