# generated using pymatgen
data_NdTm2Ga2Co7(NiB2)2
_symmetry_space_group_name_H-M   'P 1'
_cell_length_a   5.15673600
_cell_length_b   5.15673567
_cell_length_c   9.57545900
_cell_angle_alpha   90.00000000
_cell_angle_beta   90.00000000
_cell_angle_gamma   120.00000209
_symmetry_Int_Tables_number   1
_chemical_formula_structural   NdTm2Ga2Co7(NiB2)2
_chemical_formula_sum   'Nd1 Tm2 Ga2 Co7 Ni2 B4'
_cell_volume   220.51594233
_cell_formula_units_Z   1
loop_
 _symmetry_equiv_pos_site_id
 _symmetry_equiv_pos_as_xyz
  1  'x, y, z'
loop_
 _atom_site_type_symbol
 _atom_site_label
 _atom_site_symmetry_multiplicity
 _atom_site_fract_x
 _atom_site_fract_y
 _atom_site_fract_z
 _atom_site_occupancy
  Nd  Nd0  1  0.000000  0.000000  0.000000  1
  Tm  Tm1  1  0.000000  0.000000  0.657846  1
  Tm  Tm2  1  0.000000  0.000000  0.342154  1
  Ga  Ga3  1  0.669938  0.330062  0.000000  1
  Ga  Ga4  1  0.330062  0.669938  0.000000  1
  Co  Co5  1  0.500000  0.500000  0.500000  1
  Co  Co6  1  0.500000  0.000000  0.500000  1
  Co  Co7  1  0.000000  0.500000  0.500000  1
  Co  Co8  1  0.500000  0.000000  0.788709  1
  Co  Co9  1  0.000000  0.500000  0.788709  1
  Co  Co10  1  0.500000  0.000000  0.211291  1
  Co  Co11  1  0.000000  0.500000  0.211291  1
  Ni  Ni12  1  0.500000  0.500000  0.791291  1
  Ni  Ni13  1  0.500000  0.500000  0.208709  1
  B  B14  1  0.669724  0.330276  0.648407  1
  B  B15  1  0.330276  0.669724  0.648407  1
  B  B16  1  0.330276  0.669724  0.351593  1
  B  B17  1  0.669724  0.330276  0.351593  1
