# generated using pymatgen
data_Lu3AlCo3
_symmetry_space_group_name_H-M   'P 1'
_cell_length_a   5.31128783
_cell_length_b   5.31128886
_cell_length_c   12.80256600
_cell_angle_alpha   90.00000000
_cell_angle_beta   90.00000000
_cell_angle_gamma   136.01680252
_symmetry_Int_Tables_number   1
_chemical_formula_structural   Lu3AlCo3
_chemical_formula_sum   'Lu6 Al2 Co6'
_cell_volume   250.80496544
_cell_formula_units_Z   2
loop_
 _symmetry_equiv_pos_site_id
 _symmetry_equiv_pos_as_xyz
  1  'x, y, z'
loop_
 _atom_site_type_symbol
 _atom_site_label
 _atom_site_symmetry_multiplicity
 _atom_site_fract_x
 _atom_site_fract_y
 _atom_site_fract_z
 _atom_site_occupancy
  Lu  Lu0  1  0.294569  0.705432  0.104480  1
  Lu  Lu1  1  0.007771  0.992230  0.250000  1
  Lu  Lu2  1  0.294569  0.705432  0.395520  1
  Lu  Lu3  1  0.705432  0.294569  0.604480  1
  Lu  Lu4  1  0.992230  0.007771  0.750000  1
  Lu  Lu5  1  0.705432  0.294569  0.895520  1
  Al  Al6  1  0.000000  0.000000  0.000000  1
  Al  Al7  1  0.000000  0.000000  0.500000  1
  Co  Co8  1  0.585008  0.414993  0.094425  1
  Co  Co9  1  0.709265  0.290736  0.250000  1
  Co  Co10  1  0.585008  0.414993  0.405576  1
  Co  Co11  1  0.414993  0.585008  0.594425  1
  Co  Co12  1  0.290736  0.709265  0.750000  1
  Co  Co13  1  0.414993  0.585008  0.905575  1
