# generated using pymatgen
data_DyHoLu8(CoSb2)2
_symmetry_space_group_name_H-M   'P 1'
_cell_length_a   7.69641400
_cell_length_b   8.70670300
_cell_length_c   11.95726700
_cell_angle_alpha   90.00000000
_cell_angle_beta   90.00000000
_cell_angle_gamma   90.00000000
_symmetry_Int_Tables_number   1
_chemical_formula_structural   DyHoLu8(CoSb2)2
_chemical_formula_sum   'Dy2 Ho2 Lu16 Co4 Sb8'
_cell_volume   801.26113532
_cell_formula_units_Z   2
loop_
 _symmetry_equiv_pos_site_id
 _symmetry_equiv_pos_as_xyz
  1  'x, y, z'
loop_
 _atom_site_type_symbol
 _atom_site_label
 _atom_site_symmetry_multiplicity
 _atom_site_fract_x
 _atom_site_fract_y
 _atom_site_fract_z
 _atom_site_occupancy
  Dy  Dy0  1  0.378014  0.250000  0.692188  1
  Dy  Dy1  1  0.121986  0.250000  0.192188  1
  Ho  Ho2  1  0.621729  0.750000  0.308076  1
  Ho  Ho3  1  0.878271  0.750000  0.808076  1
  Lu  Lu4  1  0.155543  0.750000  0.203927  1
  Lu  Lu5  1  0.344457  0.750000  0.703927  1
  Lu  Lu6  1  0.844620  0.250000  0.796113  1
  Lu  Lu7  1  0.655380  0.250000  0.296113  1
  Lu  Lu8  1  0.446801  0.750000  0.997816  1
  Lu  Lu9  1  0.053199  0.750000  0.497816  1
  Lu  Lu10  1  0.553391  0.250000  0.002207  1
  Lu  Lu11  1  0.946609  0.250000  0.502207  1
  Lu  Lu12  1  0.824055  0.537592  0.065152  1
  Lu  Lu13  1  0.675945  0.962408  0.565152  1
  Lu  Lu14  1  0.175754  0.037082  0.934640  1
  Lu  Lu15  1  0.324246  0.462918  0.434640  1
  Lu  Lu16  1  0.175754  0.462918  0.934640  1
  Lu  Lu17  1  0.324246  0.037082  0.434640  1
  Lu  Lu18  1  0.824055  0.962408  0.065152  1
  Lu  Lu19  1  0.675945  0.537592  0.565152  1
  Co  Co20  1  0.432034  0.750000  0.491703  1
  Co  Co21  1  0.067966  0.750000  0.991703  1
  Co  Co22  1  0.568136  0.250000  0.508117  1
  Co  Co23  1  0.931864  0.250000  0.008117  1
  Sb  Sb24  1  0.930724  0.508731  0.328976  1
  Sb  Sb25  1  0.569276  0.991269  0.828976  1
  Sb  Sb26  1  0.068646  0.008315  0.671158  1
  Sb  Sb27  1  0.431354  0.491685  0.171158  1
  Sb  Sb28  1  0.068646  0.491685  0.671158  1
  Sb  Sb29  1  0.431354  0.008315  0.171158  1
  Sb  Sb30  1  0.930724  0.991269  0.328976  1
  Sb  Sb31  1  0.569276  0.508731  0.828976  1
