# generated using pymatgen
data_Er3Pa3(Sb4Pt3)2
_symmetry_space_group_name_H-M   'P 1'
_cell_length_a   8.43839092
_cell_length_b   8.42425048
_cell_length_c   8.42425084
_cell_angle_alpha   109.49248570
_cell_angle_beta   108.94255228
_cell_angle_gamma   109.91222700
_symmetry_Int_Tables_number   1
_chemical_formula_structural   Er3Pa3(Sb4Pt3)2
_chemical_formula_sum   'Er3 Pa3 Sb8 Pt6'
_cell_volume   461.35179647
_cell_formula_units_Z   1
loop_
 _symmetry_equiv_pos_site_id
 _symmetry_equiv_pos_as_xyz
  1  'x, y, z'
loop_
 _atom_site_type_symbol
 _atom_site_label
 _atom_site_symmetry_multiplicity
 _atom_site_fract_x
 _atom_site_fract_y
 _atom_site_fract_z
 _atom_site_occupancy
  Er  Er0  1  0.875249  0.249979  0.125611  1
  Er  Er1  1  0.624751  0.750363  0.374731  1
  Er  Er2  1  0.250000  0.125360  0.875360  1
  Pa  Pa3  1  0.750000  0.374006  0.624006  1
  Pa  Pa4  1  0.123728  0.874654  0.250345  1
  Pa  Pa5  1  0.376272  0.626617  0.750926  1
  Sb  Sb6  1  0.672499  0.498450  0.001408  1
  Sb  Sb7  1  0.499257  0.996800  0.675681  1
  Sb  Sb8  1  0.000743  0.676424  0.497543  1
  Sb  Sb9  1  0.827501  0.828909  0.825951  1
  Sb  Sb10  1  0.499161  0.001356  0.172358  1
  Sb  Sb11  1  0.177536  0.499244  0.001215  1
  Sb  Sb12  1  0.000839  0.173196  0.502195  1
  Sb  Sb13  1  0.322464  0.323679  0.321708  1
  Pt  Pt14  1  0.379681  0.251572  0.622237  1
  Pt  Pt15  1  0.120319  0.742556  0.871891  1
  Pt  Pt16  1  0.250000  0.625212  0.375212  1
  Pt  Pt17  1  0.750000  0.873962  0.123962  1
  Pt  Pt18  1  0.629351  0.378125  0.258888  1
  Pt  Pt19  1  0.870649  0.129536  0.748773  1
