# generated using pymatgen
data_YEr2Th(Ga3Rh)6
_symmetry_space_group_name_H-M   'P 1'
_cell_length_a   7.59756371
_cell_length_b   7.60122016
_cell_length_c   9.52820600
_cell_angle_alpha   90.00000000
_cell_angle_beta   90.00000000
_cell_angle_gamma   119.72472668
_symmetry_Int_Tables_number   1
_chemical_formula_structural   YEr2Th(Ga3Rh)6
_chemical_formula_sum   'Y1 Er2 Th1 Ga18 Rh6'
_cell_volume   477.85641755
_cell_formula_units_Z   1
loop_
 _symmetry_equiv_pos_site_id
 _symmetry_equiv_pos_as_xyz
  1  'x, y, z'
loop_
 _atom_site_type_symbol
 _atom_site_label
 _atom_site_symmetry_multiplicity
 _atom_site_fract_x
 _atom_site_fract_y
 _atom_site_fract_z
 _atom_site_occupancy
  Y  Y0  1  0.669264  0.996874  0.250000  1
  Er  Er1  1  0.003559  0.331489  0.750000  1
  Er  Er2  1  0.331016  0.002945  0.750000  1
  Th  Th3  1  0.996626  0.668502  0.250000  1
  Ga  Ga4  1  0.128418  0.130486  0.250000  1
  Ga  Ga5  1  0.874688  0.875968  0.750000  1
  Ga  Ga6  1  0.999616  0.329096  0.076260  1
  Ga  Ga7  1  0.000386  0.665378  0.915300  1
  Ga  Ga8  1  0.000386  0.665378  0.584700  1
  Ga  Ga9  1  0.339678  0.004868  0.423548  1
  Ga  Ga10  1  0.999616  0.329096  0.423740  1
  Ga  Ga11  1  0.665628  0.001061  0.580287  1
  Ga  Ga12  1  0.665628  0.001061  0.919713  1
  Ga  Ga13  1  0.339678  0.004868  0.076452  1
  Ga  Ga14  1  0.331996  0.331962  0.566513  1
  Ga  Ga15  1  0.662759  0.667532  0.438829  1
  Ga  Ga16  1  0.662759  0.667532  0.061171  1
  Ga  Ga17  1  0.331996  0.331962  0.933487  1
  Ga  Ga18  1  0.341242  0.546090  0.250000  1
  Ga  Ga19  1  0.660635  0.451110  0.750000  1
  Ga  Ga20  1  0.542356  0.335836  0.250000  1
  Ga  Ga21  1  0.451784  0.661445  0.750000  1
  Rh  Rh22  1  0.672949  0.330463  0.000288  1
  Rh  Rh23  1  0.326469  0.670814  0.000429  1
  Rh  Rh24  1  0.326469  0.670814  0.499571  1
  Rh  Rh25  1  0.672949  0.330463  0.499712  1
  Rh  Rh26  1  0.000723  0.998452  0.000322  1
  Rh  Rh27  1  0.000723  0.998452  0.499678  1
