# generated using pymatgen
data_Mn3ZnP6N13
_symmetry_space_group_name_H-M   'P 1'
_cell_length_a   7.03982506
_cell_length_b   7.03982576
_cell_length_c   7.03982622
_cell_angle_alpha   109.45693567
_cell_angle_beta   109.45693762
_cell_angle_gamma   109.45695840
_symmetry_Int_Tables_number   1
_chemical_formula_structural   Mn3ZnP6N13
_chemical_formula_sum   'Mn3 Zn1 P6 N13'
_cell_volume   268.71578163
_cell_formula_units_Z   1
loop_
 _symmetry_equiv_pos_site_id
 _symmetry_equiv_pos_as_xyz
  1  'x, y, z'
loop_
 _atom_site_type_symbol
 _atom_site_label
 _atom_site_symmetry_multiplicity
 _atom_site_fract_x
 _atom_site_fract_y
 _atom_site_fract_z
 _atom_site_occupancy
  Mn  Mn0  1  0.997183  0.712081  0.997183  1
  Mn  Mn1  1  0.712081  0.997183  0.997183  1
  Mn  Mn2  1  0.997183  0.997183  0.712081  1
  Zn  Zn3  1  0.291150  0.291150  0.291150  1
  P  P4  1  0.499404  0.249874  0.749257  1
  P  P5  1  0.499404  0.749257  0.249874  1
  P  P6  1  0.749257  0.499404  0.249874  1
  P  P7  1  0.249874  0.749257  0.499404  1
  P  P8  1  0.749257  0.249874  0.499404  1
  P  P9  1  0.249874  0.499404  0.749257  1
  N  N10  1  0.999723  0.733904  0.456557  1
  N  N11  1  0.278228  0.543172  0.543172  1
  N  N12  1  0.733904  0.456557  0.999723  1
  N  N13  1  0.265933  0.724265  0.265933  1
  N  N14  1  0.456557  0.999723  0.733904  1
  N  N15  1  0.724265  0.265933  0.265933  1
  N  N16  1  0.543172  0.278228  0.543172  1
  N  N17  1  0.733904  0.999723  0.456557  1
  N  N18  1  0.265933  0.265933  0.724265  1
  N  N19  1  0.456557  0.733904  0.999723  1
  N  N20  1  0.543172  0.543172  0.278228  1
  N  N21  1  0.999723  0.456557  0.733904  1
  N  N22  1  0.004264  0.004264  0.004264  1
