# generated using pymatgen
data_Sc4Ga2B4(IrRu)5
_symmetry_space_group_name_H-M   'P 1'
_cell_length_a   9.44322336
_cell_length_b   9.43513136
_cell_length_c   3.02486400
_cell_angle_alpha   90.00000000
_cell_angle_beta   90.00000000
_cell_angle_gamma   89.88985379
_symmetry_Int_Tables_number   1
_chemical_formula_structural   Sc4Ga2B4(IrRu)5
_chemical_formula_sum   'Sc4 Ga2 B4 Ir5 Ru5'
_cell_volume   269.50899460
_cell_formula_units_Z   1
loop_
 _symmetry_equiv_pos_site_id
 _symmetry_equiv_pos_as_xyz
  1  'x, y, z'
loop_
 _atom_site_type_symbol
 _atom_site_label
 _atom_site_symmetry_multiplicity
 _atom_site_fract_x
 _atom_site_fract_y
 _atom_site_fract_z
 _atom_site_occupancy
  Sc  Sc0  1  0.670281  0.172878  0.000000  1
  Sc  Sc1  1  0.327672  0.824446  0.000000  1
  Sc  Sc2  1  0.176119  0.328294  0.000000  1
  Sc  Sc3  1  0.825441  0.674380  0.000000  1
  Ga  Ga4  1  0.000389  0.999637  0.000000  1
  Ga  Ga5  1  0.497653  0.500535  0.000000  1
  B  B6  1  0.125456  0.622378  0.000000  1
  B  B7  1  0.878009  0.377667  0.000000  1
  B  B8  1  0.622054  0.874130  0.000000  1
  B  B9  1  0.378033  0.125593  0.000000  1
  Ir  Ir10  1  0.216459  0.072055  0.500000  1
  Ir  Ir11  1  0.784118  0.928854  0.500000  1
  Ir  Ir12  1  0.071078  0.783898  0.500000  1
  Ir  Ir13  1  0.714564  0.428694  0.500000  1
  Ir  Ir14  1  0.928481  0.215866  0.500000  1
  Ru  Ru15  1  0.284641  0.571833  0.500000  1
  Ru  Ru16  1  0.571677  0.714602  0.500000  1
  Ru  Ru17  1  0.429200  0.285308  0.500000  1
  Ru  Ru18  1  0.499213  0.998635  0.500000  1
  Ru  Ru19  1  0.999460  0.500316  0.500000  1
