# generated using pymatgen
data_SmTh(Si2Tc)2
_symmetry_space_group_name_H-M   'P 1'
_cell_length_a   3.96497200
_cell_length_b   4.59936962
_cell_length_c   8.43665192
_cell_angle_alpha   79.08470181
_cell_angle_beta   90.00000000
_cell_angle_gamma   90.00000000
_symmetry_Int_Tables_number   1
_chemical_formula_structural   SmTh(Si2Tc)2
_chemical_formula_sum   'Sm1 Th1 Si4 Tc2'
_cell_volume   151.07042462
_cell_formula_units_Z   1
loop_
 _symmetry_equiv_pos_site_id
 _symmetry_equiv_pos_as_xyz
  1  'x, y, z'
loop_
 _atom_site_type_symbol
 _atom_site_label
 _atom_site_symmetry_multiplicity
 _atom_site_fract_x
 _atom_site_fract_y
 _atom_site_fract_z
 _atom_site_occupancy
  Sm  Sm0  1  0.750000  0.428077  0.198089  1
  Th  Th1  1  0.250000  0.578095  0.799786  1
  Si  Si2  1  0.250000  0.965347  0.091881  1
  Si  Si3  1  0.750000  0.037828  0.912207  1
  Si  Si4  1  0.250000  0.343891  0.480066  1
  Si  Si5  1  0.750000  0.652312  0.515144  1
  Tc  Tc6  1  0.250000  0.885270  0.386008  1
  Tc  Tc7  1  0.750000  0.109182  0.616818  1
