# generated using pymatgen
data_Al3ZnCu5Ni3Pt4
_symmetry_space_group_name_H-M   'P 1'
_cell_length_a   3.63049800
_cell_length_b   3.80883100
_cell_length_c   15.02929000
_cell_angle_alpha   90.00000000
_cell_angle_beta   90.00000000
_cell_angle_gamma   90.00000000
_symmetry_Int_Tables_number   1
_chemical_formula_structural   Al3ZnCu5Ni3Pt4
_chemical_formula_sum   'Al3 Zn1 Cu5 Ni3 Pt4'
_cell_volume   207.82432067
_cell_formula_units_Z   1
loop_
 _symmetry_equiv_pos_site_id
 _symmetry_equiv_pos_as_xyz
  1  'x, y, z'
loop_
 _atom_site_type_symbol
 _atom_site_label
 _atom_site_symmetry_multiplicity
 _atom_site_fract_x
 _atom_site_fract_y
 _atom_site_fract_z
 _atom_site_occupancy
  Al  Al0  1  0.000000  0.000000  0.250296  1
  Al  Al1  1  0.000000  0.000000  0.500000  1
  Al  Al2  1  0.000000  0.000000  0.749704  1
  Zn  Zn3  1  0.000000  0.000000  0.000000  1
  Cu  Cu4  1  0.500000  0.500000  0.000000  1
  Cu  Cu5  1  0.000000  0.500000  0.126457  1
  Cu  Cu6  1  0.000000  0.500000  0.375262  1
  Cu  Cu7  1  0.000000  0.500000  0.624738  1
  Cu  Cu8  1  0.000000  0.500000  0.873543  1
  Ni  Ni9  1  0.500000  0.500000  0.251036  1
  Ni  Ni10  1  0.500000  0.500000  0.500000  1
  Ni  Ni11  1  0.500000  0.500000  0.748964  1
  Pt  Pt12  1  0.500000  0.000000  0.127983  1
  Pt  Pt13  1  0.500000  0.000000  0.375248  1
  Pt  Pt14  1  0.500000  0.000000  0.624752  1
  Pt  Pt15  1  0.500000  0.000000  0.872017  1
