# generated using pymatgen
data_Pr4GaSi6Rh
_symmetry_space_group_name_H-M   'P 1'
_cell_length_a   8.25816700
_cell_length_b   8.25816639
_cell_length_c   4.32231400
_cell_angle_alpha   90.00000000
_cell_angle_beta   90.00000000
_cell_angle_gamma   119.99999842
_symmetry_Int_Tables_number   1
_chemical_formula_structural   Pr4GaSi6Rh
_chemical_formula_sum   'Pr4 Ga1 Si6 Rh1'
_cell_volume   255.27850190
_cell_formula_units_Z   1
loop_
 _symmetry_equiv_pos_site_id
 _symmetry_equiv_pos_as_xyz
  1  'x, y, z'
loop_
 _atom_site_type_symbol
 _atom_site_label
 _atom_site_symmetry_multiplicity
 _atom_site_fract_x
 _atom_site_fract_y
 _atom_site_fract_z
 _atom_site_occupancy
  Pr  Pr0  1  0.000000  0.000000  0.500000  1
  Pr  Pr1  1  0.003088  0.501544  0.500000  1
  Pr  Pr2  1  0.498456  0.501544  0.500000  1
  Pr  Pr3  1  0.498456  0.996912  0.500000  1
  Ga  Ga4  1  0.666667  0.333333  0.000000  1
  Si  Si5  1  0.322282  0.161142  0.000000  1
  Si  Si6  1  0.838858  0.161142  0.000000  1
  Si  Si7  1  0.838858  0.677718  0.000000  1
  Si  Si8  1  0.170839  0.341680  0.000000  1
  Si  Si9  1  0.170839  0.829161  0.000000  1
  Si  Si10  1  0.658320  0.829161  0.000000  1
  Rh  Rh11  1  0.333333  0.666667  0.000000  1
