# generated using pymatgen
data_ZrNb2B2Os5
_symmetry_space_group_name_H-M   'P 1'
_cell_length_a   9.57399195
_cell_length_b   9.57399279
_cell_length_c   3.07773900
_cell_angle_alpha   90.00000000
_cell_angle_beta   90.00000000
_cell_angle_gamma   90.24672428
_symmetry_Int_Tables_number   1
_chemical_formula_structural   ZrNb2B2Os5
_chemical_formula_sum   'Zr2 Nb4 B4 Os10'
_cell_volume   282.10703429
_cell_formula_units_Z   2
loop_
 _symmetry_equiv_pos_site_id
 _symmetry_equiv_pos_as_xyz
  1  'x, y, z'
loop_
 _atom_site_type_symbol
 _atom_site_label
 _atom_site_symmetry_multiplicity
 _atom_site_fract_x
 _atom_site_fract_y
 _atom_site_fract_z
 _atom_site_occupancy
  Zr  Zr0  1  0.822255  0.677745  0.000000  1
  Zr  Zr1  1  0.177745  0.322255  0.000000  1
  Nb  Nb2  1  0.322876  0.822876  0.000000  1
  Nb  Nb3  1  0.677124  0.177124  0.000000  1
  Nb  Nb4  1  0.500000  0.500000  0.000000  1
  Nb  Nb5  1  0.000000  0.000000  0.000000  1
  B  B6  1  0.621059  0.878941  0.000000  1
  B  B7  1  0.378941  0.121059  0.000000  1
  B  B8  1  0.120661  0.620661  0.000000  1
  B  B9  1  0.879339  0.379339  0.000000  1
  Os  Os10  1  0.566334  0.720850  0.500000  1
  Os  Os11  1  0.433666  0.279150  0.500000  1
  Os  Os12  1  0.074802  0.782264  0.500000  1
  Os  Os13  1  0.925198  0.217736  0.500000  1
  Os  Os14  1  0.282264  0.574802  0.500000  1
  Os  Os15  1  0.717736  0.425198  0.500000  1
  Os  Os16  1  0.220850  0.066334  0.500000  1
  Os  Os17  1  0.779150  0.933666  0.500000  1
  Os  Os18  1  0.500000  0.000000  0.500000  1
  Os  Os19  1  0.000000  0.500000  0.500000  1
