# generated using pymatgen
data_Sm4Mn4AlCu3O20
_symmetry_space_group_name_H-M   'P 1'
_cell_length_a   5.68649400
_cell_length_b   7.60557723
_cell_length_c   8.55746077
_cell_angle_alpha   89.17724922
_cell_angle_beta   90.00000000
_cell_angle_gamma   90.00000000
_symmetry_Int_Tables_number   1
_chemical_formula_structural   Sm4Mn4AlCu3O20
_chemical_formula_sum   'Sm4 Mn4 Al1 Cu3 O20'
_cell_volume   370.06405643
_cell_formula_units_Z   1
loop_
 _symmetry_equiv_pos_site_id
 _symmetry_equiv_pos_as_xyz
  1  'x, y, z'
loop_
 _atom_site_type_symbol
 _atom_site_label
 _atom_site_symmetry_multiplicity
 _atom_site_fract_x
 _atom_site_fract_y
 _atom_site_fract_z
 _atom_site_occupancy
  Sm  Sm0  1  0.000000  0.359680  0.676256  1
  Sm  Sm1  1  0.000000  0.642242  0.326111  1
  Sm  Sm2  1  0.000000  0.849725  0.827041  1
  Sm  Sm3  1  0.000000  0.153605  0.170621  1
  Mn  Mn4  1  0.261557  0.498907  0.003537  1
  Mn  Mn5  1  0.742576  0.004120  0.497695  1
  Mn  Mn6  1  0.738443  0.498907  0.003537  1
  Mn  Mn7  1  0.257424  0.004120  0.497695  1
  Al  Al8  1  0.500000  0.392232  0.359552  1
  Cu  Cu9  1  0.500000  0.068606  0.845864  1
  Cu  Cu10  1  0.500000  0.931226  0.149831  1
  Cu  Cu11  1  0.500000  0.569179  0.650348  1
  O  O12  1  0.244846  0.910497  0.287146  1
  O  O13  1  0.246192  0.095443  0.709061  1
  O  O14  1  0.747865  0.403380  0.217318  1
  O  O15  1  0.753566  0.595286  0.789388  1
  O  O16  1  0.753808  0.095443  0.709061  1
  O  O17  1  0.755154  0.910497  0.287146  1
  O  O18  1  0.246434  0.595286  0.789388  1
  O  O19  1  0.252135  0.403380  0.217318  1
  O  O20  1  0.500000  0.346992  0.943760  1
  O  O21  1  0.500000  0.651296  0.062531  1
  O  O22  1  0.500000  0.854130  0.556783  1
  O  O23  1  0.500000  0.164138  0.431125  1
  O  O24  1  0.277746  0.998844  0.997339  1
  O  O25  1  0.718316  0.496822  0.499267  1
  O  O26  1  0.722254  0.998844  0.997339  1
  O  O27  1  0.281684  0.496822  0.499267  1
  O  O28  1  0.000000  0.166074  0.448492  1
  O  O29  1  0.000000  0.844292  0.548083  1
  O  O30  1  0.000000  0.660223  0.052677  1
  O  O31  1  0.000000  0.339762  0.949428  1
