# generated using pymatgen
data_Tb2Y4Pd7Rh
_symmetry_space_group_name_H-M   'P 1'
_cell_length_a   7.87109935
_cell_length_b   7.87514931
_cell_length_c   7.87754284
_cell_angle_alpha   114.22886010
_cell_angle_beta   114.20774020
_cell_angle_gamma   114.16823834
_symmetry_Int_Tables_number   1
_chemical_formula_structural   Tb2Y4Pd7Rh
_chemical_formula_sum   'Tb2 Y4 Pd7 Rh1'
_cell_volume   292.17843437
_cell_formula_units_Z   1
loop_
 _symmetry_equiv_pos_site_id
 _symmetry_equiv_pos_as_xyz
  1  'x, y, z'
loop_
 _atom_site_type_symbol
 _atom_site_label
 _atom_site_symmetry_multiplicity
 _atom_site_fract_x
 _atom_site_fract_y
 _atom_site_fract_z
 _atom_site_occupancy
  Tb  Tb0  1  0.398772  0.024329  0.272569  1
  Tb  Tb1  1  0.024321  0.272441  0.398633  1
  Y  Y2  1  0.272684  0.398710  0.024187  1
  Y  Y3  1  0.601146  0.975719  0.727338  1
  Y  Y4  1  0.975632  0.727697  0.601048  1
  Y  Y5  1  0.727467  0.601023  0.975859  1
  Pd  Pd6  1  0.499777  0.499718  0.499816  1
  Pd  Pd7  1  0.229509  0.063636  0.551099  1
  Pd  Pd8  1  0.063482  0.551038  0.229452  1
  Pd  Pd9  1  0.550972  0.229205  0.063528  1
  Pd  Pd10  1  0.770579  0.936558  0.448708  1
  Pd  Pd11  1  0.936221  0.448874  0.770463  1
  Pd  Pd12  1  0.448914  0.770722  0.936570  1
  Rh  Rh13  1  0.000522  0.000328  0.000732  1
