# generated using pymatgen
data_Ho4Er2B14OsW
_symmetry_space_group_name_H-M   'P 1'
_cell_length_a   8.06629426
_cell_length_b   8.06629375
_cell_length_c   9.36076632
_cell_angle_alpha   89.97091009
_cell_angle_beta   90.02908929
_cell_angle_gamma   155.05482438
_symmetry_Int_Tables_number   1
_chemical_formula_structural   Ho4Er2B14OsW
_chemical_formula_sum   'Ho4 Er2 B14 Os1 W1'
_cell_volume   256.87119718
_cell_formula_units_Z   1
loop_
 _symmetry_equiv_pos_site_id
 _symmetry_equiv_pos_as_xyz
  1  'x, y, z'
loop_
 _atom_site_type_symbol
 _atom_site_label
 _atom_site_symmetry_multiplicity
 _atom_site_fract_x
 _atom_site_fract_y
 _atom_site_fract_z
 _atom_site_occupancy
  Ho  Ho0  1  0.893809  0.106191  0.437824  1
  Ho  Ho1  1  0.107296  0.892704  0.558331  1
  Ho  Ho2  1  0.893792  0.106208  0.062150  1
  Ho  Ho3  1  0.754651  0.245349  0.750049  1
  Er  Er4  1  0.107152  0.892848  0.941965  1
  Er  Er5  1  0.243316  0.756684  0.249939  1
  B  B6  1  0.726739  0.273261  0.464504  1
  B  B7  1  0.271708  0.728292  0.531846  1
  B  B8  1  0.726599  0.273401  0.035404  1
  B  B9  1  0.271534  0.728466  0.968087  1
  B  B10  1  0.631973  0.368027  0.150865  1
  B  B11  1  0.365171  0.634829  0.852821  1
  B  B12  1  0.631987  0.368013  0.348876  1
  B  B13  1  0.365183  0.634817  0.647186  1
  B  B14  1  0.520851  0.479149  0.096294  1
  B  B15  1  0.480937  0.519063  0.909349  1
  B  B16  1  0.520804  0.479196  0.403530  1
  B  B17  1  0.480830  0.519170  0.590821  1
  B  B18  1  0.456898  0.543102  0.249955  1
  B  B19  1  0.546963  0.453037  0.750266  1
  Os  Os20  1  0.053989  0.946011  0.249832  1
  W  W21  1  0.947820  0.052180  0.750106  1
