# generated using pymatgen
data_Tb7Dy3Th6(HgRu)4
_symmetry_space_group_name_H-M   'P 1'
_cell_length_a   9.66529258
_cell_length_b   9.77683602
_cell_length_c   9.77472703
_cell_angle_alpha   59.26138715
_cell_angle_beta   60.38746388
_cell_angle_gamma   60.41184030
_symmetry_Int_Tables_number   1
_chemical_formula_structural   Tb7Dy3Th6(HgRu)4
_chemical_formula_sum   'Tb7 Dy3 Th6 Hg4 Ru4'
_cell_volume   653.26398037
_cell_formula_units_Z   1
loop_
 _symmetry_equiv_pos_site_id
 _symmetry_equiv_pos_as_xyz
  1  'x, y, z'
loop_
 _atom_site_type_symbol
 _atom_site_label
 _atom_site_symmetry_multiplicity
 _atom_site_fract_x
 _atom_site_fract_y
 _atom_site_fract_z
 _atom_site_occupancy
  Tb  Tb0  1  0.059279  0.059277  0.440731  1
  Tb  Tb1  1  0.185391  0.814994  0.816303  1
  Tb  Tb2  1  0.815002  0.185396  0.183307  1
  Tb  Tb3  1  0.810861  0.190002  0.812280  1
  Tb  Tb4  1  0.190015  0.810868  0.186848  1
  Tb  Tb5  1  0.811474  0.811480  0.188524  1
  Tb  Tb6  1  0.188252  0.188250  0.811750  1
  Dy  Dy7  1  0.440359  0.059120  0.441548  1
  Dy  Dy8  1  0.059133  0.440374  0.058953  1
  Dy  Dy9  1  0.440890  0.440896  0.059104  1
  Th  Th10  1  0.592909  0.602126  0.600817  1
  Th  Th11  1  0.602134  0.592894  0.204156  1
  Th  Th12  1  0.602459  0.202439  0.593371  1
  Th  Th13  1  0.202426  0.602458  0.601726  1
  Th  Th14  1  0.065542  0.434969  0.434566  1
  Th  Th15  1  0.434965  0.065542  0.064925  1
  Hg  Hg16  1  0.838138  0.834100  0.835080  1
  Hg  Hg17  1  0.834109  0.838139  0.492665  1
  Hg  Hg18  1  0.834315  0.491756  0.838905  1
  Hg  Hg19  1  0.491782  0.834290  0.835023  1
  Ru  Ru20  1  0.378975  0.398167  0.399084  1
  Ru  Ru21  1  0.398152  0.379081  0.823727  1
  Ru  Ru22  1  0.399369  0.824025  0.377105  1
  Ru  Ru23  1  0.824072  0.399359  0.399504  1
