# generated using pymatgen
data_EuHoCr2F14
_symmetry_space_group_name_H-M   'P 1'
_cell_length_a   5.54157300
_cell_length_b   8.83987195
_cell_length_c   11.77512000
_cell_angle_alpha   62.88437889
_cell_angle_beta   90.00000000
_cell_angle_gamma   90.00000000
_symmetry_Int_Tables_number   1
_chemical_formula_structural   EuHoCr2F14
_chemical_formula_sum   'Eu2 Ho2 Cr4 F28'
_cell_volume   513.42569479
_cell_formula_units_Z   2
loop_
 _symmetry_equiv_pos_site_id
 _symmetry_equiv_pos_as_xyz
  1  'x, y, z'
loop_
 _atom_site_type_symbol
 _atom_site_label
 _atom_site_symmetry_multiplicity
 _atom_site_fract_x
 _atom_site_fract_y
 _atom_site_fract_z
 _atom_site_occupancy
  Eu  Eu0  1  0.762674  0.808376  0.765212  1
  Eu  Eu1  1  0.262674  0.191624  0.734788  1
  Ho  Ho2  1  0.237132  0.189262  0.233508  1
  Ho  Ho3  1  0.737132  0.810738  0.266492  1
  Cr  Cr4  1  0.755251  0.272541  0.960673  1
  Cr  Cr5  1  0.255251  0.727459  0.539327  1
  Cr  Cr6  1  0.242350  0.723232  0.048424  1
  Cr  Cr7  1  0.742350  0.276768  0.451576  1
  F  F8  1  0.442469  0.705273  0.928577  1
  F  F9  1  0.942469  0.294727  0.571423  1
  F  F10  1  0.561522  0.292596  0.079495  1
  F  F11  1  0.061522  0.707404  0.420505  1
  F  F12  1  0.466802  0.287423  0.538882  1
  F  F13  1  0.966802  0.712577  0.961118  1
  F  F14  1  0.539722  0.717097  0.451413  1
  F  F15  1  0.039722  0.282903  0.048587  1
  F  F16  1  0.767074  0.504887  0.865709  1
  F  F17  1  0.267074  0.495113  0.634291  1
  F  F18  1  0.236643  0.489367  0.142767  1
  F  F19  1  0.736643  0.510633  0.357233  1
  F  F20  1  0.755118  0.040226  0.049479  1
  F  F21  1  0.255118  0.959774  0.450521  1
  F  F22  1  0.237713  0.955714  0.956939  1
  F  F23  1  0.737713  0.044286  0.543061  1
  F  F24  1  0.977985  0.730079  0.631900  1
  F  F25  1  0.477985  0.269921  0.868100  1
  F  F26  1  0.011577  0.266887  0.359165  1
  F  F27  1  0.511577  0.733113  0.140835  1
  F  F28  1  0.040922  0.744406  0.169837  1
  F  F29  1  0.540922  0.255594  0.330163  1
  F  F30  1  0.944972  0.255151  0.837286  1
  F  F31  1  0.444972  0.744849  0.662714  1
  F  F32  1  0.422614  0.977636  0.228670  1
  F  F33  1  0.922614  0.022364  0.271330  1
  F  F34  1  0.597463  0.032003  0.772411  1
  F  F35  1  0.097463  0.967997  0.727589  1
