# generated using pymatgen
data_TbZr4Pb3
_symmetry_space_group_name_H-M   'P 1'
_cell_length_a   8.75545200
_cell_length_b   8.83308840
_cell_length_c   5.96857500
_cell_angle_alpha   90.00000000
_cell_angle_beta   90.00000000
_cell_angle_gamma   120.44938450
_symmetry_Int_Tables_number   1
_chemical_formula_structural   TbZr4Pb3
_chemical_formula_sum   'Tb2 Zr8 Pb6'
_cell_volume   397.93116769
_cell_formula_units_Z   2
loop_
 _symmetry_equiv_pos_site_id
 _symmetry_equiv_pos_as_xyz
  1  'x, y, z'
loop_
 _atom_site_type_symbol
 _atom_site_label
 _atom_site_symmetry_multiplicity
 _atom_site_fract_x
 _atom_site_fract_y
 _atom_site_fract_z
 _atom_site_occupancy
  Tb  Tb0  1  0.762711  0.999816  0.750000  1
  Tb  Tb1  1  0.766417  0.766046  0.250000  1
  Zr  Zr2  1  0.003512  0.252973  0.250000  1
  Zr  Zr3  1  0.331204  0.665359  0.499641  1
  Zr  Zr4  1  0.244288  0.001937  0.250000  1
  Zr  Zr5  1  0.663986  0.332012  0.500086  1
  Zr  Zr6  1  0.001679  0.750370  0.750000  1
  Zr  Zr7  1  0.331204  0.665359  0.000359  1
  Zr  Zr8  1  0.240395  0.239167  0.750000  1
  Zr  Zr9  1  0.663986  0.332012  0.999914  1
  Pb  Pb10  1  0.604215  0.600474  0.750000  1
  Pb  Pb11  1  0.387687  0.999075  0.750000  1
  Pb  Pb12  1  0.606025  0.003872  0.250000  1
  Pb  Pb13  1  0.001449  0.394094  0.750000  1
  Pb  Pb14  1  0.389561  0.390116  0.250000  1
  Pb  Pb15  1  0.001684  0.607319  0.250000  1
