# generated using pymatgen
data_Tb7YSc12Si15P
_symmetry_space_group_name_H-M   'P 1'
_cell_length_a   7.10375706
_cell_length_b   7.38254425
_cell_length_c   13.99024220
_cell_angle_alpha   89.98233810
_cell_angle_beta   89.99214527
_cell_angle_gamma   90.14721139
_symmetry_Int_Tables_number   1
_chemical_formula_structural   Tb7YSc12Si15P
_chemical_formula_sum   'Tb7 Y1 Sc12 Si15 P1'
_cell_volume   733.69901249
_cell_formula_units_Z   1
loop_
 _symmetry_equiv_pos_site_id
 _symmetry_equiv_pos_as_xyz
  1  'x, y, z'
loop_
 _atom_site_type_symbol
 _atom_site_label
 _atom_site_symmetry_multiplicity
 _atom_site_fract_x
 _atom_site_fract_y
 _atom_site_fract_z
 _atom_site_occupancy
  Tb  Tb0  1  0.990777  0.827322  0.900339  1
  Tb  Tb1  1  0.489602  0.674562  0.903713  1
  Tb  Tb2  1  0.990704  0.827470  0.599670  1
  Tb  Tb3  1  0.511637  0.324935  0.096509  1
  Tb  Tb4  1  0.010600  0.174672  0.403290  1
  Tb  Tb5  1  0.511595  0.324977  0.403478  1
  Tb  Tb6  1  0.489659  0.674661  0.596369  1
  Y  Y7  1  0.010476  0.174758  0.096744  1
  Sc  Sc8  1  0.159863  0.501768  0.749902  1
  Sc  Sc9  1  0.838908  0.497730  0.250183  1
  Sc  Sc10  1  0.339492  0.002164  0.250153  1
  Sc  Sc11  1  0.662373  0.999421  0.749878  1
  Sc  Sc12  1  0.326685  0.172894  0.627300  1
  Sc  Sc13  1  0.668706  0.823787  0.375382  1
  Sc  Sc14  1  0.168532  0.677019  0.375286  1
  Sc  Sc15  1  0.668696  0.823838  0.124585  1
  Sc  Sc16  1  0.832355  0.322805  0.626384  1
  Sc  Sc17  1  0.326542  0.172937  0.872660  1
  Sc  Sc18  1  0.832416  0.322715  0.873502  1
  Sc  Sc19  1  0.168389  0.677021  0.124651  1
  Si  Si20  1  0.965290  0.882351  0.249942  1
  Si  Si21  1  0.465974  0.616997  0.249981  1
  Si  Si22  1  0.531576  0.381098  0.750042  1
  Si  Si23  1  0.296205  0.864849  0.750025  1
  Si  Si24  1  0.714319  0.125047  0.249857  1
  Si  Si25  1  0.214498  0.374878  0.249969  1
  Si  Si26  1  0.787102  0.626916  0.749989  1
  Si  Si27  1  0.156670  0.463560  0.540126  1
  Si  Si28  1  0.843018  0.536103  0.461482  1
  Si  Si29  1  0.341441  0.965023  0.460832  1
  Si  Si30  1  0.843066  0.535989  0.038616  1
  Si  Si31  1  0.658200  0.036737  0.540458  1
  Si  Si32  1  0.156571  0.463393  0.959891  1
  Si  Si33  1  0.658288  0.036728  0.959554  1
  Si  Si34  1  0.341204  0.965057  0.039222  1
  P  P35  1  0.028575  0.127814  0.750034  1
