# generated using pymatgen
data_Tm3LuPdPt3O14
_symmetry_space_group_name_H-M   'P 1'
_cell_length_a   7.19562678
_cell_length_b   7.19078041
_cell_length_c   7.19078000
_cell_angle_alpha   60.00000190
_cell_angle_beta   60.02227911
_cell_angle_gamma   60.02227499
_symmetry_Int_Tables_number   1
_chemical_formula_structural   Tm3LuPdPt3O14
_chemical_formula_sum   'Tm3 Lu1 Pd1 Pt3 O14'
_cell_volume   263.17935538
_cell_formula_units_Z   1
loop_
 _symmetry_equiv_pos_site_id
 _symmetry_equiv_pos_as_xyz
  1  'x, y, z'
loop_
 _atom_site_type_symbol
 _atom_site_label
 _atom_site_symmetry_multiplicity
 _atom_site_fract_x
 _atom_site_fract_y
 _atom_site_fract_z
 _atom_site_occupancy
  Tm  Tm0  1  0.625000  0.625000  0.125000  1
  Tm  Tm1  1  0.625000  0.625000  0.625000  1
  Tm  Tm2  1  0.625000  0.125000  0.625000  1
  Lu  Lu3  1  0.125000  0.625000  0.625000  1
  Pd  Pd4  1  0.625000  0.125000  0.125000  1
  Pt  Pt5  1  0.125000  0.125000  0.125000  1
  Pt  Pt6  1  0.125000  0.125000  0.625000  1
  Pt  Pt7  1  0.125000  0.625000  0.125000  1
  O  O8  1  0.031726  0.469208  0.469208  1
  O  O9  1  0.782669  0.780361  0.218485  1
  O  O10  1  0.782669  0.218485  0.218485  1
  O  O11  1  0.467331  0.031515  0.469639  1
  O  O12  1  0.752379  0.749207  0.749207  1
  O  O13  1  0.031726  0.469208  0.029856  1
  O  O14  1  0.031726  0.029856  0.469208  1
  O  O15  1  0.218274  0.780792  0.220144  1
  O  O16  1  0.218274  0.220144  0.780792  1
  O  O17  1  0.782669  0.218485  0.780361  1
  O  O18  1  0.497621  0.500793  0.500793  1
  O  O19  1  0.467331  0.031515  0.031515  1
  O  O20  1  0.467331  0.469639  0.031515  1
  O  O21  1  0.218274  0.780792  0.780792  1
