# generated using pymatgen
data_CaNd5DyOsBr12
_symmetry_space_group_name_H-M   'P 1'
_cell_length_a   9.59454871
_cell_length_b   9.53666042
_cell_length_c   9.50698336
_cell_angle_alpha   107.19307351
_cell_angle_beta   107.22405243
_cell_angle_gamma   106.60933761
_symmetry_Int_Tables_number   1
_chemical_formula_structural   CaNd5DyOsBr12
_chemical_formula_sum   'Ca1 Nd5 Dy1 Os1 Br12'
_cell_volume   724.25666018
_cell_formula_units_Z   1
loop_
 _symmetry_equiv_pos_site_id
 _symmetry_equiv_pos_as_xyz
  1  'x, y, z'
loop_
 _atom_site_type_symbol
 _atom_site_label
 _atom_site_symmetry_multiplicity
 _atom_site_fract_x
 _atom_site_fract_y
 _atom_site_fract_z
 _atom_site_occupancy
  Ca  Ca0  1  0.500512  0.499661  0.499260  1
  Nd  Nd1  1  0.025446  0.311446  0.104368  1
  Nd  Nd2  1  0.106657  0.027435  0.313789  1
  Nd  Nd3  1  0.897249  0.973650  0.687680  1
  Nd  Nd4  1  0.974687  0.689130  0.895716  1
  Nd  Nd5  1  0.677377  0.892529  0.973097  1
  Dy  Dy6  1  0.314095  0.105736  0.027441  1
  Os  Os7  1  0.000311  0.000501  0.001024  1
  Br  Br8  1  0.675881  0.218072  0.068187  1
  Br  Br9  1  0.379824  0.447452  0.159495  1
  Br  Br10  1  0.069841  0.683417  0.221547  1
  Br  Br11  1  0.781323  0.931314  0.318039  1
  Br  Br12  1  0.457230  0.163648  0.371114  1
  Br  Br13  1  0.167341  0.381701  0.459528  1
  Br  Br14  1  0.833574  0.618606  0.540831  1
  Br  Br15  1  0.542671  0.834651  0.618691  1
  Br  Br16  1  0.226126  0.071212  0.693178  1
  Br  Br17  1  0.930445  0.316636  0.778570  1
  Br  Br18  1  0.620608  0.541829  0.834562  1
  Br  Br19  1  0.318807  0.791378  0.933887  1
