# generated using pymatgen
data_Pr2Nd2Cd2PdAu3
_symmetry_space_group_name_H-M   'P 1'
_cell_length_a   3.92539100
_cell_length_b   8.08374685
_cell_length_c   8.08374769
_cell_angle_alpha   90.53461328
_cell_angle_beta   90.00000000
_cell_angle_gamma   90.00000000
_symmetry_Int_Tables_number   1
_chemical_formula_structural   Pr2Nd2Cd2PdAu3
_chemical_formula_sum   'Pr2 Nd2 Cd2 Pd1 Au3'
_cell_volume   256.50124127
_cell_formula_units_Z   1
loop_
 _symmetry_equiv_pos_site_id
 _symmetry_equiv_pos_as_xyz
  1  'x, y, z'
loop_
 _atom_site_type_symbol
 _atom_site_label
 _atom_site_symmetry_multiplicity
 _atom_site_fract_x
 _atom_site_fract_y
 _atom_site_fract_z
 _atom_site_occupancy
  Pr  Pr0  1  0.500000  0.171651  0.671651  1
  Pr  Pr1  1  0.500000  0.820885  0.320885  1
  Nd  Nd2  1  0.500000  0.336150  0.175580  1
  Nd  Nd3  1  0.500000  0.675580  0.836150  1
  Cd  Cd4  1  0.000000  0.996744  0.001263  1
  Cd  Cd5  1  0.000000  0.501263  0.496744  1
  Pd  Pd6  1  0.000000  0.625897  0.125897  1
  Au  Au7  1  0.000000  0.375356  0.875356  1
  Au  Au8  1  0.000000  0.870549  0.625924  1
  Au  Au9  1  0.000000  0.125924  0.370549  1
