# generated using pymatgen
data_Hf6Zn21Ni2As
_symmetry_space_group_name_H-M   'P 1'
_cell_length_a   8.72105442
_cell_length_b   8.67187517
_cell_length_c   8.67186700
_cell_angle_alpha   59.94150178
_cell_angle_beta   59.81065169
_cell_angle_gamma   59.81063485
_symmetry_Int_Tables_number   1
_chemical_formula_structural   Hf6Zn21Ni2As
_chemical_formula_sum   'Hf6 Zn21 Ni2 As1'
_cell_volume   462.21007588
_cell_formula_units_Z   1
loop_
 _symmetry_equiv_pos_site_id
 _symmetry_equiv_pos_as_xyz
  1  'x, y, z'
loop_
 _atom_site_type_symbol
 _atom_site_label
 _atom_site_symmetry_multiplicity
 _atom_site_fract_x
 _atom_site_fract_y
 _atom_site_fract_z
 _atom_site_occupancy
  Hf  Hf0  1  0.713230  0.286767  0.286767  1
  Hf  Hf1  1  0.286770  0.713233  0.713233  1
  Hf  Hf2  1  0.288639  0.708382  0.291595  1
  Hf  Hf3  1  0.711361  0.291618  0.708405  1
  Hf  Hf4  1  0.288639  0.291595  0.708382  1
  Hf  Hf5  1  0.711361  0.708405  0.291618  1
  Zn  Zn6  1  0.119184  0.117933  0.117933  1
  Zn  Zn7  1  0.880816  0.882067  0.882067  1
  Zn  Zn8  1  0.115292  0.128935  0.640457  1
  Zn  Zn9  1  0.115292  0.640457  0.128935  1
  Zn  Zn10  1  0.884708  0.871065  0.359543  1
  Zn  Zn11  1  0.884708  0.359543  0.871065  1
  Zn  Zn12  1  0.644925  0.117933  0.117933  1
  Zn  Zn13  1  0.355075  0.882067  0.882067  1
  Zn  Zn14  1  0.500000  0.000000  0.000000  1
  Zn  Zn15  1  0.000000  0.500000  0.000000  1
  Zn  Zn16  1  0.500000  0.000000  0.500000  1
  Zn  Zn17  1  0.000000  0.000000  0.500000  1
  Zn  Zn18  1  0.500000  0.500000  0.000000  1
  Zn  Zn19  1  0.328102  0.338247  0.338247  1
  Zn  Zn20  1  0.671898  0.661753  0.661753  1
  Zn  Zn21  1  0.334541  0.336281  0.994647  1
  Zn  Zn22  1  0.334541  0.994647  0.336281  1
  Zn  Zn23  1  0.665459  0.663719  0.005353  1
  Zn  Zn24  1  0.665459  0.005353  0.663719  1
  Zn  Zn25  1  0.995387  0.338250  0.338250  1
  Zn  Zn26  1  0.004613  0.661750  0.661750  1
  Ni  Ni27  1  0.000000  0.500000  0.500000  1
  Ni  Ni28  1  0.000000  0.000000  0.000000  1
  As  As29  1  0.500000  0.500000  0.500000  1
