# generated using pymatgen
data_SrTb2Er4FeBr12
_symmetry_space_group_name_H-M   'P 1'
_cell_length_a   9.16530711
_cell_length_b   9.26592206
_cell_length_c   9.18195010
_cell_angle_alpha   106.11180996
_cell_angle_beta   105.74608923
_cell_angle_gamma   105.81477774
_symmetry_Int_Tables_number   1
_chemical_formula_structural   SrTb2Er4FeBr12
_chemical_formula_sum   'Sr1 Tb2 Er4 Fe1 Br12'
_cell_volume   668.07509866
_cell_formula_units_Z   1
loop_
 _symmetry_equiv_pos_site_id
 _symmetry_equiv_pos_as_xyz
  1  'x, y, z'
loop_
 _atom_site_type_symbol
 _atom_site_label
 _atom_site_symmetry_multiplicity
 _atom_site_fract_x
 _atom_site_fract_y
 _atom_site_fract_z
 _atom_site_occupancy
  Sr  Sr0  1  0.499734  0.499135  0.500488  1
  Tb  Tb1  1  0.704302  0.982517  0.907005  1
  Tb  Tb2  1  0.982157  0.906131  0.703298  1
  Er  Er3  1  0.098181  0.306054  0.017228  1
  Er  Er4  1  0.292216  0.018385  0.093531  1
  Er  Er5  1  0.903057  0.694679  0.982301  1
  Er  Er6  1  0.017586  0.093148  0.292886  1
  Fe  Fe7  1  0.998433  0.999986  0.997852  1
  Br  Br8  1  0.074739  0.221766  0.678470  1
  Br  Br9  1  0.359503  0.135729  0.439028  1
  Br  Br10  1  0.635624  0.860498  0.556643  1
  Br  Br11  1  0.220059  0.680017  0.074865  1
  Br  Br12  1  0.783617  0.325425  0.927807  1
  Br  Br13  1  0.681999  0.075235  0.224018  1
  Br  Br14  1  0.559071  0.636403  0.865334  1
  Br  Br15  1  0.863229  0.556738  0.639482  1
  Br  Br16  1  0.927216  0.782279  0.320198  1
  Br  Br17  1  0.322513  0.926876  0.783805  1
  Br  Br18  1  0.441537  0.359755  0.135286  1
  Br  Br19  1  0.135227  0.439244  0.360476  1
