# generated using pymatgen
data_TbDy2Sc2Bi3
_symmetry_space_group_name_H-M   'P 1'
_cell_length_a   9.02424422
_cell_length_b   9.02424463
_cell_length_c   6.20435200
_cell_angle_alpha   90.00000000
_cell_angle_beta   90.00000000
_cell_angle_gamma   119.97459614
_symmetry_Int_Tables_number   1
_chemical_formula_structural   TbDy2Sc2Bi3
_chemical_formula_sum   'Tb2 Dy4 Sc4 Bi6'
_cell_volume   437.68320033
_cell_formula_units_Z   2
loop_
 _symmetry_equiv_pos_site_id
 _symmetry_equiv_pos_as_xyz
  1  'x, y, z'
loop_
 _atom_site_type_symbol
 _atom_site_label
 _atom_site_symmetry_multiplicity
 _atom_site_fract_x
 _atom_site_fract_y
 _atom_site_fract_z
 _atom_site_occupancy
  Tb  Tb0  1  0.755938  0.999992  0.250000  1
  Tb  Tb1  1  0.999992  0.755938  0.250000  1
  Dy  Dy2  1  0.755890  0.755890  0.750000  1
  Dy  Dy3  1  0.244042  0.000105  0.750000  1
  Dy  Dy4  1  0.000105  0.244042  0.750000  1
  Dy  Dy5  1  0.244178  0.244178  0.250000  1
  Sc  Sc6  1  0.666661  0.333313  0.000047  1
  Sc  Sc7  1  0.333313  0.666661  0.000047  1
  Sc  Sc8  1  0.333313  0.666661  0.499953  1
  Sc  Sc9  1  0.666661  0.333313  0.499953  1
  Bi  Bi10  1  0.394691  0.394691  0.750000  1
  Bi  Bi11  1  0.605259  0.000001  0.750000  1
  Bi  Bi12  1  0.000001  0.605259  0.750000  1
  Bi  Bi13  1  0.604968  0.604968  0.250000  1
  Bi  Bi14  1  0.394729  0.000260  0.250000  1
  Bi  Bi15  1  0.000260  0.394729  0.250000  1
