# generated using pymatgen
data_Al4TcIrPd2
_symmetry_space_group_name_H-M   'P 1'
_cell_length_a   5.98206300
_cell_length_b   5.98206200
_cell_length_c   6.29570100
_cell_angle_alpha   90.00000000
_cell_angle_beta   90.00000000
_cell_angle_gamma   90.00000000
_symmetry_Int_Tables_number   1
_chemical_formula_structural   Al4TcIrPd2
_chemical_formula_sum   'Al8 Tc2 Ir2 Pd4'
_cell_volume   225.29211203
_cell_formula_units_Z   2
loop_
 _symmetry_equiv_pos_site_id
 _symmetry_equiv_pos_as_xyz
  1  'x, y, z'
loop_
 _atom_site_type_symbol
 _atom_site_label
 _atom_site_symmetry_multiplicity
 _atom_site_fract_x
 _atom_site_fract_y
 _atom_site_fract_z
 _atom_site_occupancy
  Al  Al0  1  0.000000  0.000000  0.246596  1
  Al  Al1  1  0.000000  0.499999  0.246596  1
  Al  Al2  1  0.500002  0.000000  0.246611  1
  Al  Al3  1  0.500002  0.500001  0.246611  1
  Al  Al4  1  0.499997  0.000000  0.753389  1
  Al  Al5  1  0.499997  0.499999  0.753389  1
  Al  Al6  1  0.000000  0.000000  0.753404  1
  Al  Al7  1  0.000000  0.500001  0.753404  1
  Tc  Tc8  1  0.249993  0.250000  0.000000  1
  Tc  Tc9  1  0.750008  0.750001  0.000000  1
  Ir  Ir10  1  0.750003  0.750001  0.499999  1
  Ir  Ir11  1  0.249996  0.250000  0.500001  1
  Pd  Pd12  1  0.749989  0.250000  0.000000  1
  Pd  Pd13  1  0.250012  0.750001  0.000000  1
  Pd  Pd14  1  0.249992  0.750001  0.499999  1
  Pd  Pd15  1  0.750008  0.250000  0.500001  1
