# generated using pymatgen
data_Tb5SiSb2
_symmetry_space_group_name_H-M   'P 1'
_cell_length_a   7.99321000
_cell_length_b   9.04412400
_cell_length_c   12.07504300
_cell_angle_alpha   90.00000000
_cell_angle_beta   90.00000000
_cell_angle_gamma   90.00000000
_symmetry_Int_Tables_number   1
_chemical_formula_structural   Tb5SiSb2
_chemical_formula_sum   'Tb20 Si4 Sb8'
_cell_volume   872.92396599
_cell_formula_units_Z   4
loop_
 _symmetry_equiv_pos_site_id
 _symmetry_equiv_pos_as_xyz
  1  'x, y, z'
loop_
 _atom_site_type_symbol
 _atom_site_label
 _atom_site_symmetry_multiplicity
 _atom_site_fract_x
 _atom_site_fract_y
 _atom_site_fract_z
 _atom_site_occupancy
  Tb  Tb0  1  0.159358  0.750000  0.213806  1
  Tb  Tb1  1  0.659358  0.250000  0.286194  1
  Tb  Tb2  1  0.840642  0.250000  0.786194  1
  Tb  Tb3  1  0.340642  0.750000  0.713806  1
  Tb  Tb4  1  0.458743  0.750000  0.000896  1
  Tb  Tb5  1  0.958743  0.250000  0.499104  1
  Tb  Tb6  1  0.541257  0.250000  0.999104  1
  Tb  Tb7  1  0.041257  0.750000  0.500896  1
  Tb  Tb8  1  0.634547  0.750000  0.295099  1
  Tb  Tb9  1  0.134547  0.250000  0.204901  1
  Tb  Tb10  1  0.365453  0.250000  0.704901  1
  Tb  Tb11  1  0.865453  0.750000  0.795099  1
  Tb  Tb12  1  0.813760  0.952511  0.067199  1
  Tb  Tb13  1  0.313760  0.047489  0.432801  1
  Tb  Tb14  1  0.186240  0.452511  0.932801  1
  Tb  Tb15  1  0.686240  0.547489  0.567199  1
  Tb  Tb16  1  0.186240  0.047489  0.932801  1
  Tb  Tb17  1  0.686240  0.952511  0.567199  1
  Tb  Tb18  1  0.813760  0.547489  0.067199  1
  Tb  Tb19  1  0.313760  0.452511  0.432801  1
  Si  Si20  1  0.423202  0.750000  0.483473  1
  Si  Si21  1  0.923202  0.250000  0.016527  1
  Si  Si22  1  0.576798  0.250000  0.516527  1
  Si  Si23  1  0.076798  0.750000  0.983473  1
  Sb  Sb24  1  0.927529  0.989892  0.327682  1
  Sb  Sb25  1  0.427529  0.010108  0.172318  1
  Sb  Sb26  1  0.072471  0.489892  0.672318  1
  Sb  Sb27  1  0.572471  0.510108  0.827682  1
  Sb  Sb28  1  0.072471  0.010108  0.672318  1
  Sb  Sb29  1  0.572471  0.989892  0.827682  1
  Sb  Sb30  1  0.927529  0.510108  0.327682  1
  Sb  Sb31  1  0.427529  0.489892  0.172318  1
