# generated using pymatgen
data_Nd4Ga4SiRh9
_symmetry_space_group_name_H-M   'P 1'
_cell_length_a   12.13162787
_cell_length_b   12.13162761
_cell_length_c   12.13162926
_cell_angle_alpha   26.93070847
_cell_angle_beta   26.93070996
_cell_angle_gamma   26.93070930
_symmetry_Int_Tables_number   1
_chemical_formula_structural   Nd4Ga4SiRh9
_chemical_formula_sum   'Nd4 Ga4 Si1 Rh9'
_cell_volume   323.02219112
_cell_formula_units_Z   1
loop_
 _symmetry_equiv_pos_site_id
 _symmetry_equiv_pos_as_xyz
  1  'x, y, z'
loop_
 _atom_site_type_symbol
 _atom_site_label
 _atom_site_symmetry_multiplicity
 _atom_site_fract_x
 _atom_site_fract_y
 _atom_site_fract_z
 _atom_site_occupancy
  Nd  Nd0  1  0.949141  0.949141  0.949141  1
  Nd  Nd1  1  0.853288  0.853288  0.853288  1
  Nd  Nd2  1  0.146704  0.146704  0.146704  1
  Nd  Nd3  1  0.049138  0.049138  0.049138  1
  Ga  Ga4  1  0.278518  0.278518  0.278518  1
  Ga  Ga5  1  0.500682  0.500682  0.500682  1
  Ga  Ga6  1  0.387945  0.387945  0.387945  1
  Ga  Ga7  1  0.721287  0.721287  0.721287  1
  Si  Si8  1  0.611518  0.611518  0.611518  1
  Rh  Rh9  1  0.611419  0.611419  0.106981  1
  Rh  Rh10  1  0.890992  0.393341  0.393341  1
  Rh  Rh11  1  0.500272  0.993743  0.500272  1
  Rh  Rh12  1  0.393341  0.890992  0.393341  1
  Rh  Rh13  1  0.500272  0.500272  0.993743  1
  Rh  Rh14  1  0.106981  0.611419  0.611419  1
  Rh  Rh15  1  0.993743  0.500272  0.500272  1
  Rh  Rh16  1  0.393341  0.393341  0.890992  1
  Rh  Rh17  1  0.611419  0.106981  0.611419  1
