# generated using pymatgen
data_ErLu2Nb3(B2Ru5)2
_symmetry_space_group_name_H-M   'P 1'
_cell_length_a   9.56281400
_cell_length_b   9.56267768
_cell_length_c   3.11160100
_cell_angle_alpha   90.00000000
_cell_angle_beta   90.00000000
_cell_angle_gamma   89.71748939
_symmetry_Int_Tables_number   1
_chemical_formula_structural   ErLu2Nb3(B2Ru5)2
_chemical_formula_sum   'Er1 Lu2 Nb3 B4 Ru10'
_cell_volume   284.54034223
_cell_formula_units_Z   1
loop_
 _symmetry_equiv_pos_site_id
 _symmetry_equiv_pos_as_xyz
  1  'x, y, z'
loop_
 _atom_site_type_symbol
 _atom_site_label
 _atom_site_symmetry_multiplicity
 _atom_site_fract_x
 _atom_site_fract_y
 _atom_site_fract_z
 _atom_site_occupancy
  Er  Er0  1  0.325208  0.324339  0.000000  1
  Lu  Lu1  1  0.174334  0.825571  0.000000  1
  Lu  Lu2  1  0.675997  0.675211  0.000000  1
  Nb  Nb3  1  0.496430  0.997708  0.000000  1
  Nb  Nb4  1  0.001400  0.503885  0.000000  1
  Nb  Nb5  1  0.824863  0.175147  0.000000  1
  B  B6  1  0.623410  0.376989  0.000000  1
  B  B7  1  0.381160  0.619311  0.000000  1
  B  B8  1  0.119051  0.122967  0.000000  1
  B  B9  1  0.876480  0.880373  0.000000  1
  Ru  Ru10  1  0.504687  0.497381  0.500000  1
  Ru  Ru11  1  0.991852  0.007724  0.500000  1
  Ru  Ru12  1  0.583471  0.213587  0.500000  1
  Ru  Ru13  1  0.430396  0.780344  0.500000  1
  Ru  Ru14  1  0.059822  0.280471  0.500000  1
  Ru  Ru15  1  0.928616  0.721794  0.500000  1
  Ru  Ru16  1  0.277741  0.070094  0.500000  1
  Ru  Ru17  1  0.719277  0.939176  0.500000  1
  Ru  Ru18  1  0.219539  0.570676  0.500000  1
  Ru  Ru19  1  0.786265  0.417251  0.500000  1
