# generated using pymatgen
data_HoPuB10Ir
_symmetry_space_group_name_H-M   'P 1'
_cell_length_a   4.17852400
_cell_length_b   5.69402457
_cell_length_c   11.35611519
_cell_angle_alpha   89.82564965
_cell_angle_beta   90.00000000
_cell_angle_gamma   90.00000000
_symmetry_Int_Tables_number   1
_chemical_formula_structural   HoPuB10Ir
_chemical_formula_sum   'Ho2 Pu2 B20 Ir2'
_cell_volume   270.19046328
_cell_formula_units_Z   2
loop_
 _symmetry_equiv_pos_site_id
 _symmetry_equiv_pos_as_xyz
  1  'x, y, z'
loop_
 _atom_site_type_symbol
 _atom_site_label
 _atom_site_symmetry_multiplicity
 _atom_site_fract_x
 _atom_site_fract_y
 _atom_site_fract_z
 _atom_site_occupancy
  Ho  Ho0  1  0.500000  0.293589  0.866590  1
  Ho  Ho1  1  0.500000  0.706411  0.133410  1
  Pu  Pu2  1  0.500000  0.201550  0.363134  1
  Pu  Pu3  1  0.500000  0.798450  0.636866  1
  B  B4  1  0.000000  0.381566  0.042382  1
  B  B5  1  0.000000  0.618434  0.957618  1
  B  B6  1  0.000000  0.118795  0.542596  1
  B  B7  1  0.000000  0.881205  0.457404  1
  B  B8  1  0.000000  0.362519  0.197176  1
  B  B9  1  0.000000  0.637481  0.802824  1
  B  B10  1  0.000000  0.136671  0.697181  1
  B  B11  1  0.000000  0.863329  0.302819  1
  B  B12  1  0.000000  0.055482  0.192888  1
  B  B13  1  0.000000  0.944518  0.807112  1
  B  B14  1  0.000000  0.445637  0.693479  1
  B  B15  1  0.000000  0.554363  0.306521  1
  B  B16  1  0.301949  0.221077  0.118075  1
  B  B17  1  0.698051  0.778923  0.881925  1
  B  B18  1  0.301949  0.778923  0.881925  1
  B  B19  1  0.697879  0.282178  0.619334  1
  B  B20  1  0.698051  0.221077  0.118075  1
  B  B21  1  0.302121  0.717822  0.380666  1
  B  B22  1  0.697879  0.717822  0.380666  1
  B  B23  1  0.302121  0.282178  0.619334  1
  Ir  Ir24  1  0.000000  0.000000  0.000000  1
  Ir  Ir25  1  0.000000  0.500000  0.500000  1
