# generated using pymatgen
data_Pr4DyUSe10
_symmetry_space_group_name_H-M   'P 1'
_cell_length_a   7.93494900
_cell_length_b   8.42660300
_cell_length_c   12.59168100
_cell_angle_alpha   90.00000000
_cell_angle_beta   90.00000000
_cell_angle_gamma   90.00000000
_symmetry_Int_Tables_number   1
_chemical_formula_structural   Pr4DyUSe10
_chemical_formula_sum   'Pr8 Dy2 U2 Se20'
_cell_volume   841.93853246
_cell_formula_units_Z   2
loop_
 _symmetry_equiv_pos_site_id
 _symmetry_equiv_pos_as_xyz
  1  'x, y, z'
loop_
 _atom_site_type_symbol
 _atom_site_label
 _atom_site_symmetry_multiplicity
 _atom_site_fract_x
 _atom_site_fract_y
 _atom_site_fract_z
 _atom_site_occupancy
  Pr  Pr0  1  0.528654  0.501166  0.322177  1
  Pr  Pr1  1  0.971346  0.998834  0.822177  1
  Pr  Pr2  1  0.476352  0.996779  0.677692  1
  Pr  Pr3  1  0.023648  0.503221  0.177692  1
  Pr  Pr4  1  0.476352  0.503221  0.677692  1
  Pr  Pr5  1  0.023648  0.996779  0.177692  1
  Pr  Pr6  1  0.528654  0.998834  0.322177  1
  Pr  Pr7  1  0.971346  0.501166  0.822177  1
  Dy  Dy8  1  0.073231  0.750000  0.494601  1
  Dy  Dy9  1  0.426769  0.750000  0.994601  1
  U  U10  1  0.942477  0.250000  0.505860  1
  U  U11  1  0.557523  0.250000  0.005860  1
  Se  Se12  1  0.834882  0.966484  0.595313  1
  Se  Se13  1  0.665118  0.533516  0.095313  1
  Se  Se14  1  0.164691  0.454994  0.405338  1
  Se  Se15  1  0.335309  0.045006  0.905338  1
  Se  Se16  1  0.164691  0.045006  0.405338  1
  Se  Se17  1  0.335309  0.454994  0.905338  1
  Se  Se18  1  0.834882  0.533516  0.595313  1
  Se  Se19  1  0.665118  0.966484  0.095313  1
  Se  Se20  1  0.831140  0.750000  0.314446  1
  Se  Se21  1  0.668860  0.750000  0.814446  1
  Se  Se22  1  0.167954  0.250000  0.683535  1
  Se  Se23  1  0.332046  0.250000  0.183535  1
  Se  Se24  1  0.453786  0.750000  0.497240  1
  Se  Se25  1  0.046214  0.750000  0.997240  1
  Se  Se26  1  0.551319  0.250000  0.499735  1
  Se  Se27  1  0.948681  0.250000  0.999735  1
  Se  Se28  1  0.191622  0.750000  0.712703  1
  Se  Se29  1  0.308378  0.750000  0.212703  1
  Se  Se30  1  0.810721  0.250000  0.290839  1
  Se  Se31  1  0.689279  0.250000  0.790839  1
