# generated using pymatgen
data_NaAcCoH6
_symmetry_space_group_name_H-M   'P 1'
_cell_length_a   5.17912404
_cell_length_b   5.17912388
_cell_length_c   5.17912400
_cell_angle_alpha   59.99999921
_cell_angle_beta   60.00000026
_cell_angle_gamma   60.00000282
_symmetry_Int_Tables_number   1
_chemical_formula_structural   NaAcCoH6
_chemical_formula_sum   'Na1 Ac1 Co1 H6'
_cell_volume   98.23221348
_cell_formula_units_Z   1
loop_
 _symmetry_equiv_pos_site_id
 _symmetry_equiv_pos_as_xyz
  1  'x, y, z'
loop_
 _atom_site_type_symbol
 _atom_site_label
 _atom_site_symmetry_multiplicity
 _atom_site_fract_x
 _atom_site_fract_y
 _atom_site_fract_z
 _atom_site_occupancy
  Na  Na0  1  0.250000  0.250000  0.250000  1
  Ac  Ac1  1  0.750000  0.750000  0.750000  1
  Co  Co2  1  0.000000  0.000000  0.000000  1
  H  H3  1  0.781807  0.218193  0.218193  1
  H  H4  1  0.218193  0.781807  0.218193  1
  H  H5  1  0.781807  0.781807  0.218193  1
  H  H6  1  0.218193  0.781807  0.781807  1
  H  H7  1  0.781807  0.218193  0.781807  1
  H  H8  1  0.218193  0.218193  0.781807  1
