# generated using pymatgen
data_Pr2Y2P7Ir8
_symmetry_space_group_name_H-M   'P 1'
_cell_length_a   3.96116100
_cell_length_b   12.82617849
_cell_length_c   13.21231550
_cell_angle_alpha   80.97704221
_cell_angle_beta   90.00000000
_cell_angle_gamma   90.00000000
_symmetry_Int_Tables_number   1
_chemical_formula_structural   Pr2Y2P7Ir8
_chemical_formula_sum   'Pr4 Y4 P14 Ir16'
_cell_volume   662.96566907
_cell_formula_units_Z   2
loop_
 _symmetry_equiv_pos_site_id
 _symmetry_equiv_pos_as_xyz
  1  'x, y, z'
loop_
 _atom_site_type_symbol
 _atom_site_label
 _atom_site_symmetry_multiplicity
 _atom_site_fract_x
 _atom_site_fract_y
 _atom_site_fract_z
 _atom_site_occupancy
  Pr  Pr0  1  0.250000  0.105590  0.788071  1
  Pr  Pr1  1  0.750000  0.894410  0.211929  1
  Pr  Pr2  1  0.250000  0.279637  0.102293  1
  Pr  Pr3  1  0.750000  0.720363  0.897707  1
  Y  Y4  1  0.250000  0.520381  0.294338  1
  Y  Y5  1  0.750000  0.479619  0.705662  1
  Y  Y6  1  0.250000  0.208541  0.439292  1
  Y  Y7  1  0.750000  0.791459  0.560708  1
  P  P8  1  0.250000  0.051335  0.100042  1
  P  P9  1  0.750000  0.948665  0.899958  1
  P  P10  1  0.250000  0.316179  0.686560  1
  P  P11  1  0.750000  0.683821  0.313440  1
  P  P12  1  0.250000  0.607814  0.565743  1
  P  P13  1  0.750000  0.392186  0.434257  1
  P  P14  1  0.250000  0.842174  0.716105  1
  P  P15  1  0.750000  0.157826  0.283895  1
  P  P16  1  0.750000  0.258586  0.917575  1
  P  P17  1  0.250000  0.741414  0.082425  1
  P  P18  1  0.750000  0.092599  0.588006  1
  P  P19  1  0.250000  0.907401  0.411994  1
  P  P20  1  0.750000  0.472678  0.129490  1
  P  P21  1  0.250000  0.527322  0.870510  1
  Ir  Ir22  1  0.250000  0.990117  0.575873  1
  Ir  Ir23  1  0.750000  0.009883  0.424127  1
  Ir  Ir24  1  0.250000  0.661123  0.728089  1
  Ir  Ir25  1  0.750000  0.338877  0.271911  1
  Ir  Ir26  1  0.250000  0.551350  0.048331  1
  Ir  Ir27  1  0.750000  0.448650  0.951669  1
  Ir  Ir28  1  0.250000  0.063383  0.273573  1
  Ir  Ir29  1  0.750000  0.936617  0.726427  1
  Ir  Ir30  1  0.250000  0.422535  0.522935  1
  Ir  Ir31  1  0.750000  0.577465  0.477065  1
  Ir  Ir32  1  0.250000  0.914376  0.997924  1
  Ir  Ir33  1  0.750000  0.085624  0.002076  1
  Ir  Ir34  1  0.250000  0.728352  0.397108  1
  Ir  Ir35  1  0.750000  0.271648  0.602892  1
  Ir  Ir36  1  0.250000  0.343998  0.855692  1
  Ir  Ir37  1  0.750000  0.656002  0.144308  1
