# generated using pymatgen
data_ZrSc(SiTc)2
_symmetry_space_group_name_H-M   'P 1'
_cell_length_a   3.43283800
_cell_length_b   6.97536585
_cell_length_c   12.11993964
_cell_angle_alpha   90.05974890
_cell_angle_beta   90.00000000
_cell_angle_gamma   90.00000000
_symmetry_Int_Tables_number   1
_chemical_formula_structural   ZrSc(SiTc)2
_chemical_formula_sum   'Zr3 Sc3 Si6 Tc6'
_cell_volume   290.21544418
_cell_formula_units_Z   3
loop_
 _symmetry_equiv_pos_site_id
 _symmetry_equiv_pos_as_xyz
  1  'x, y, z'
loop_
 _atom_site_type_symbol
 _atom_site_label
 _atom_site_symmetry_multiplicity
 _atom_site_fract_x
 _atom_site_fract_y
 _atom_site_fract_z
 _atom_site_occupancy
  Zr  Zr0  1  0.500000  0.299450  0.299694  1
  Zr  Zr1  1  0.500000  0.300281  0.699765  1
  Zr  Zr2  1  0.500000  0.800463  0.199062  1
  Sc  Sc3  1  0.500000  0.397508  0.000410  1
  Sc  Sc4  1  0.500000  0.897608  0.500201  1
  Sc  Sc5  1  0.500000  0.803017  0.801612  1
  Si  Si6  1  0.000000  0.995802  0.666431  1
  Si  Si7  1  0.000000  0.498756  0.164276  1
  Si  Si8  1  0.000000  0.503133  0.835139  1
  Si  Si9  1  0.000000  0.998089  0.335930  1
  Si  Si10  1  0.500000  0.001478  0.997848  1
  Si  Si11  1  0.500000  0.502370  0.500543  1
  Tc  Tc12  1  0.000000  0.745582  0.000091  1
  Tc  Tc13  1  0.000000  0.245599  0.500246  1
  Tc  Tc14  1  0.000000  0.627050  0.629092  1
  Tc  Tc15  1  0.000000  0.126546  0.128072  1
  Tc  Tc16  1  0.000000  0.131396  0.870409  1
  Tc  Tc17  1  0.000000  0.626070  0.371180  1
