# generated using pymatgen
data_Ho3ErNiAg
_symmetry_space_group_name_H-M   'P 1'
_cell_length_a   9.40641660
_cell_length_b   9.40663949
_cell_length_c   9.40681801
_cell_angle_alpha   59.99593746
_cell_angle_beta   60.00155647
_cell_angle_gamma   60.00091237
_symmetry_Int_Tables_number   1
_chemical_formula_structural   Ho3ErNiAg
_chemical_formula_sum   'Ho12 Er4 Ni4 Ag4'
_cell_volume   588.54709431
_cell_formula_units_Z   4
loop_
 _symmetry_equiv_pos_site_id
 _symmetry_equiv_pos_as_xyz
  1  'x, y, z'
loop_
 _atom_site_type_symbol
 _atom_site_label
 _atom_site_symmetry_multiplicity
 _atom_site_fract_x
 _atom_site_fract_y
 _atom_site_fract_z
 _atom_site_occupancy
  Ho  Ho0  1  0.185913  0.814074  0.814097  1
  Ho  Ho1  1  0.814082  0.185915  0.185919  1
  Ho  Ho2  1  0.814074  0.185918  0.814081  1
  Ho  Ho3  1  0.185922  0.814079  0.185912  1
  Ho  Ho4  1  0.814078  0.814072  0.185921  1
  Ho  Ho5  1  0.185924  0.185909  0.814088  1
  Ho  Ho6  1  0.600130  0.600358  0.600321  1
  Ho  Ho7  1  0.600272  0.600239  0.199179  1
  Ho  Ho8  1  0.600291  0.199166  0.600219  1
  Ho  Ho9  1  0.199217  0.600334  0.600302  1
  Ho  Ho10  1  0.061243  0.438772  0.438778  1
  Ho  Ho11  1  0.438770  0.061226  0.061238  1
  Er  Er12  1  0.438826  0.061142  0.438810  1
  Er  Er13  1  0.061195  0.438810  0.061173  1
  Er  Er14  1  0.438821  0.438808  0.061180  1
  Er  Er15  1  0.061233  0.061139  0.438810  1
  Ni  Ni16  1  0.393157  0.392968  0.393022  1
  Ni  Ni17  1  0.393017  0.393109  0.820854  1
  Ni  Ni18  1  0.392975  0.820986  0.393075  1
  Ni  Ni19  1  0.820834  0.392992  0.393024  1
  Ag  Ag20  1  0.832324  0.832273  0.832276  1
  Ag  Ag21  1  0.832279  0.832319  0.503127  1
  Ag  Ag22  1  0.832282  0.503120  0.832319  1
  Ag  Ag23  1  0.503139  0.832268  0.832274  1
