# generated using pymatgen
data_Nd6GdPI12
_symmetry_space_group_name_H-M   'P 1'
_cell_length_a   9.95770920
_cell_length_b   9.95771003
_cell_length_c   9.95771200
_cell_angle_alpha   107.58811641
_cell_angle_beta   107.58811190
_cell_angle_gamma   107.58810216
_symmetry_Int_Tables_number   1
_chemical_formula_structural   Nd6GdPI12
_chemical_formula_sum   'Nd6 Gd1 P1 I12'
_cell_volume   808.73389399
_cell_formula_units_Z   1
loop_
 _symmetry_equiv_pos_site_id
 _symmetry_equiv_pos_as_xyz
  1  'x, y, z'
loop_
 _atom_site_type_symbol
 _atom_site_label
 _atom_site_symmetry_multiplicity
 _atom_site_fract_x
 _atom_site_fract_y
 _atom_site_fract_z
 _atom_site_occupancy
  Nd  Nd0  1  0.529566  0.600076  0.803466  1
  Nd  Nd1  1  0.803466  0.529566  0.600076  1
  Nd  Nd2  1  0.600076  0.803466  0.529566  1
  Nd  Nd3  1  0.472614  0.401835  0.196178  1
  Nd  Nd4  1  0.196178  0.472614  0.401835  1
  Nd  Nd5  1  0.401835  0.196178  0.472614  1
  Gd  Gd6  1  0.988092  0.988092  0.988092  1
  P  P7  1  0.498953  0.498953  0.498953  1
  I  I8  1  0.271380  0.813867  0.422317  1
  I  I9  1  0.422317  0.271380  0.813867  1
  I  I10  1  0.813867  0.422317  0.271380  1
  I  I11  1  0.729392  0.185735  0.575018  1
  I  I12  1  0.575018  0.729392  0.185735  1
  I  I13  1  0.185735  0.575018  0.729392  1
  I  I14  1  0.033784  0.111402  0.336460  1
  I  I15  1  0.336460  0.033784  0.111402  1
  I  I16  1  0.111402  0.336460  0.033784  1
  I  I17  1  0.966916  0.885946  0.652373  1
  I  I18  1  0.652373  0.966916  0.885946  1
  I  I19  1  0.885946  0.652373  0.966916  1
