# generated using pymatgen
data_Y2Tm7LuCd3Ni
_symmetry_space_group_name_H-M   'P 1'
_cell_length_a   9.50631400
_cell_length_b   9.50593408
_cell_length_c   9.60069800
_cell_angle_alpha   90.00000000
_cell_angle_beta   90.00000000
_cell_angle_gamma   119.99866679
_symmetry_Int_Tables_number   1
_chemical_formula_structural   Y2Tm7LuCd3Ni
_chemical_formula_sum   'Y4 Tm14 Lu2 Cd6 Ni2'
_cell_volume   751.35681223
_cell_formula_units_Z   2
loop_
 _symmetry_equiv_pos_site_id
 _symmetry_equiv_pos_as_xyz
  1  'x, y, z'
loop_
 _atom_site_type_symbol
 _atom_site_label
 _atom_site_symmetry_multiplicity
 _atom_site_fract_x
 _atom_site_fract_y
 _atom_site_fract_z
 _atom_site_occupancy
  Y  Y0  1  0.912865  0.456433  0.250000  1
  Y  Y1  1  0.457326  0.542391  0.750000  1
  Y  Y2  1  0.457326  0.914935  0.750000  1
  Y  Y3  1  0.084680  0.542340  0.750000  1
  Tm  Tm4  1  0.542338  0.456630  0.250000  1
  Tm  Tm5  1  0.542338  0.085709  0.250000  1
  Tm  Tm6  1  0.211602  0.790480  0.436650  1
  Tm  Tm7  1  0.211602  0.421122  0.436650  1
  Tm  Tm8  1  0.579196  0.789598  0.436294  1
  Tm  Tm9  1  0.788543  0.210120  0.561747  1
  Tm  Tm10  1  0.788543  0.578424  0.561747  1
  Tm  Tm11  1  0.421875  0.210937  0.561025  1
  Tm  Tm12  1  0.788543  0.210120  0.938253  1
  Tm  Tm13  1  0.788543  0.578424  0.938253  1
  Tm  Tm14  1  0.421875  0.210937  0.938975  1
  Tm  Tm15  1  0.211602  0.790480  0.063350  1
  Tm  Tm16  1  0.211602  0.421122  0.063350  1
  Tm  Tm17  1  0.579196  0.789598  0.063706  1
  Lu  Lu18  1  0.000097  0.000049  0.500331  1
  Lu  Lu19  1  0.000097  0.000049  0.999669  1
  Cd  Cd20  1  0.884963  0.113498  0.250000  1
  Cd  Cd21  1  0.884963  0.771464  0.250000  1
  Cd  Cd22  1  0.229495  0.114747  0.250000  1
  Cd  Cd23  1  0.113752  0.886469  0.750000  1
  Cd  Cd24  1  0.113752  0.227283  0.750000  1
  Cd  Cd25  1  0.772492  0.886246  0.750000  1
  Ni  Ni26  1  0.333871  0.666936  0.250000  1
  Ni  Ni27  1  0.666921  0.333460  0.750000  1
