# generated using pymatgen
data_Tb17Y3(Cd3Ru)2
_symmetry_space_group_name_H-M   'P 1'
_cell_length_a   9.65193400
_cell_length_b   9.65193310
_cell_length_c   9.90482600
_cell_angle_alpha   90.00000000
_cell_angle_beta   90.00000000
_cell_angle_gamma   120.00000309
_symmetry_Int_Tables_number   1
_chemical_formula_structural   Tb17Y3(Cd3Ru)2
_chemical_formula_sum   'Tb17 Y3 Cd6 Ru2'
_cell_volume   799.10917187
_cell_formula_units_Z   1
loop_
 _symmetry_equiv_pos_site_id
 _symmetry_equiv_pos_as_xyz
  1  'x, y, z'
loop_
 _atom_site_type_symbol
 _atom_site_label
 _atom_site_symmetry_multiplicity
 _atom_site_fract_x
 _atom_site_fract_y
 _atom_site_fract_z
 _atom_site_occupancy
  Tb  Tb0  1  0.000000  0.000000  0.500089  1
  Tb  Tb1  1  0.000000  0.000000  0.999911  1
  Tb  Tb2  1  0.209843  0.790157  0.439938  1
  Tb  Tb3  1  0.209843  0.419687  0.439938  1
  Tb  Tb4  1  0.580313  0.790157  0.439938  1
  Tb  Tb5  1  0.790159  0.209841  0.560094  1
  Tb  Tb6  1  0.790159  0.580318  0.560094  1
  Tb  Tb7  1  0.419682  0.209841  0.560094  1
  Tb  Tb8  1  0.790159  0.209841  0.939906  1
  Tb  Tb9  1  0.790159  0.580318  0.939906  1
  Tb  Tb10  1  0.419682  0.209841  0.939906  1
  Tb  Tb11  1  0.209843  0.790157  0.060062  1
  Tb  Tb12  1  0.209843  0.419687  0.060062  1
  Tb  Tb13  1  0.580313  0.790157  0.060062  1
  Tb  Tb14  1  0.541332  0.458668  0.250000  1
  Tb  Tb15  1  0.541332  0.082664  0.250000  1
  Tb  Tb16  1  0.917336  0.458668  0.250000  1
  Y  Y17  1  0.458669  0.541331  0.750000  1
  Y  Y18  1  0.458669  0.917338  0.750000  1
  Y  Y19  1  0.082662  0.541331  0.750000  1
  Cd  Cd20  1  0.885382  0.114618  0.250000  1
  Cd  Cd21  1  0.885382  0.770764  0.250000  1
  Cd  Cd22  1  0.229236  0.114618  0.250000  1
  Cd  Cd23  1  0.114674  0.885326  0.750000  1
  Cd  Cd24  1  0.114674  0.229348  0.750000  1
  Cd  Cd25  1  0.770652  0.885326  0.750000  1
  Ru  Ru26  1  0.333333  0.666667  0.250000  1
  Ru  Ru27  1  0.666667  0.333333  0.750000  1
