# generated using pymatgen
data_Ba3LuFe2O9
_symmetry_space_group_name_H-M   'P 1'
_cell_length_a   5.86471200
_cell_length_b   5.86471100
_cell_length_c   14.47388400
_cell_angle_alpha   90.00000000
_cell_angle_beta   90.00000000
_cell_angle_gamma   119.99999436
_symmetry_Int_Tables_number   1
_chemical_formula_structural   Ba3LuFe2O9
_chemical_formula_sum   'Ba6 Lu2 Fe4 O18'
_cell_volume   431.13079990
_cell_formula_units_Z   2
loop_
 _symmetry_equiv_pos_site_id
 _symmetry_equiv_pos_as_xyz
  1  'x, y, z'
loop_
 _atom_site_type_symbol
 _atom_site_label
 _atom_site_symmetry_multiplicity
 _atom_site_fract_x
 _atom_site_fract_y
 _atom_site_fract_z
 _atom_site_occupancy
  Ba  Ba0  1  0.333333  0.666667  0.409028  1
  Ba  Ba1  1  0.666667  0.333333  0.909028  1
  Ba  Ba2  1  0.666667  0.333333  0.590972  1
  Ba  Ba3  1  0.333333  0.666667  0.090972  1
  Ba  Ba4  1  0.000000  0.000000  0.750000  1
  Ba  Ba5  1  0.000000  0.000000  0.250000  1
  Lu  Lu6  1  0.000000  0.000000  0.000000  1
  Lu  Lu7  1  0.000000  0.000000  0.500000  1
  Fe  Fe8  1  0.666667  0.333333  0.342994  1
  Fe  Fe9  1  0.333333  0.666667  0.842994  1
  Fe  Fe10  1  0.666667  0.333333  0.157006  1
  Fe  Fe11  1  0.333333  0.666667  0.657006  1
  O  O12  1  0.825623  0.651245  0.412905  1
  O  O13  1  0.348755  0.174377  0.412905  1
  O  O14  1  0.825623  0.174377  0.412905  1
  O  O15  1  0.174377  0.825623  0.912905  1
  O  O16  1  0.174377  0.825623  0.587095  1
  O  O17  1  0.174377  0.348755  0.912905  1
  O  O18  1  0.651245  0.825623  0.912905  1
  O  O19  1  0.348755  0.174377  0.087095  1
  O  O20  1  0.825623  0.651245  0.087095  1
  O  O21  1  0.174377  0.348755  0.587095  1
  O  O22  1  0.651245  0.825623  0.587095  1
  O  O23  1  0.825623  0.174377  0.087095  1
  O  O24  1  0.519747  0.480253  0.250000  1
  O  O25  1  0.039495  0.519747  0.750000  1
  O  O26  1  0.480253  0.960505  0.750000  1
  O  O27  1  0.519747  0.039495  0.250000  1
  O  O28  1  0.960505  0.480253  0.250000  1
  O  O29  1  0.480253  0.519747  0.750000  1
