# generated using pymatgen
data_K4ErNpS6
_symmetry_space_group_name_H-M   'P 1'
_cell_length_a   7.13687039
_cell_length_b   7.13687098
_cell_length_c   7.67399500
_cell_angle_alpha   80.92341271
_cell_angle_beta   80.92341196
_cell_angle_gamma   120.02096710
_symmetry_Int_Tables_number   1
_chemical_formula_structural   K4ErNpS6
_chemical_formula_sum   'K4 Er1 Np1 S6'
_cell_volume   321.13788240
_cell_formula_units_Z   1
loop_
 _symmetry_equiv_pos_site_id
 _symmetry_equiv_pos_as_xyz
  1  'x, y, z'
loop_
 _atom_site_type_symbol
 _atom_site_label
 _atom_site_symmetry_multiplicity
 _atom_site_fract_x
 _atom_site_fract_y
 _atom_site_fract_z
 _atom_site_occupancy
  K  K0  1  0.499984  0.500016  0.000000  1
  K  K1  1  0.655691  0.344309  0.500000  1
  K  K2  1  0.344547  0.655453  0.500000  1
  K  K3  1  0.999704  0.000296  0.500000  1
  Er  Er4  1  0.832856  0.167144  0.000000  1
  Np  Np5  1  0.167670  0.832330  0.000000  1
  S  S6  1  0.810488  0.800268  0.204325  1
  S  S7  1  0.199732  0.189512  0.795675  1
  S  S8  1  0.418324  0.047653  0.205898  1
  S  S9  1  0.559430  0.940774  0.793078  1
  S  S10  1  0.952347  0.581676  0.794102  1
  S  S11  1  0.059226  0.440570  0.206922  1
