# generated using pymatgen
data_Ba2Sr2CeTi5O15
_symmetry_space_group_name_H-M   'P 1'
_cell_length_a   3.98700100
_cell_length_b   8.87360230
_cell_length_c   8.88657510
_cell_angle_alpha   89.96047699
_cell_angle_beta   90.00000000
_cell_angle_gamma   90.00000000
_symmetry_Int_Tables_number   1
_chemical_formula_structural   Ba2Sr2CeTi5O15
_chemical_formula_sum   'Ba2 Sr2 Ce1 Ti5 O15'
_cell_volume   314.39860981
_cell_formula_units_Z   1
loop_
 _symmetry_equiv_pos_site_id
 _symmetry_equiv_pos_as_xyz
  1  'x, y, z'
loop_
 _atom_site_type_symbol
 _atom_site_label
 _atom_site_symmetry_multiplicity
 _atom_site_fract_x
 _atom_site_fract_y
 _atom_site_fract_z
 _atom_site_occupancy
  Ba  Ba0  1  0.500000  0.099647  0.298284  1
  Ba  Ba1  1  0.500000  0.302456  0.901110  1
  Sr  Sr2  1  0.500000  0.499247  0.498619  1
  Sr  Sr3  1  0.500000  0.698216  0.101666  1
  Ce  Ce4  1  0.500000  0.898698  0.700725  1
  Ti  Ti5  1  0.000000  0.603051  0.799040  1
  Ti  Ti6  1  0.000000  0.796712  0.401579  1
  Ti  Ti7  1  0.000000  0.996551  0.998142  1
  Ti  Ti8  1  0.000000  0.200125  0.599341  1
  Ti  Ti9  1  0.000000  0.404646  0.202594  1
  O  O10  1  0.000000  0.707828  0.603892  1
  O  O11  1  0.000000  0.891190  0.196195  1
  O  O12  1  0.000000  0.089114  0.794190  1
  O  O13  1  0.000000  0.301496  0.402710  1
  O  O14  1  0.000000  0.511011  0.002930  1
  O  O15  1  0.000000  0.403164  0.696984  1
  O  O16  1  0.000000  0.599028  0.306929  1
  O  O17  1  0.000000  0.804899  0.888237  1
  O  O18  1  0.000000  0.994289  0.508897  1
  O  O19  1  0.000000  0.198916  0.097402  1
  O  O20  1  0.500000  0.614462  0.794818  1
  O  O21  1  0.500000  0.797585  0.411103  1
  O  O22  1  0.500000  0.989203  0.987774  1
  O  O23  1  0.500000  0.190848  0.603256  1
  O  O24  1  0.500000  0.407616  0.203579  1
