# generated using pymatgen
data_Bi2Pd3RhO8
_symmetry_space_group_name_H-M   'P 1'
_cell_length_a   5.66997880
_cell_length_b   6.15581319
_cell_length_c   6.54562626
_cell_angle_alpha   115.02611495
_cell_angle_beta   96.21992705
_cell_angle_gamma   110.66439222
_symmetry_Int_Tables_number   1
_chemical_formula_structural   Bi2Pd3RhO8
_chemical_formula_sum   'Bi2 Pd3 Rh1 O8'
_cell_volume   184.53675003
_cell_formula_units_Z   1
loop_
 _symmetry_equiv_pos_site_id
 _symmetry_equiv_pos_as_xyz
  1  'x, y, z'
loop_
 _atom_site_type_symbol
 _atom_site_label
 _atom_site_symmetry_multiplicity
 _atom_site_fract_x
 _atom_site_fract_y
 _atom_site_fract_z
 _atom_site_occupancy
  Bi  Bi0  1  0.861598  0.244451  0.650899  1
  Bi  Bi1  1  0.138402  0.755549  0.349101  1
  Pd  Pd2  1  0.500000  0.500000  0.500000  1
  Pd  Pd3  1  0.500000  0.000000  0.000000  1
  Pd  Pd4  1  0.000000  0.000000  0.000000  1
  Rh  Rh5  1  0.500000  0.500000  0.000000  1
  O  O6  1  0.648247  0.398843  0.226960  1
  O  O7  1  0.351753  0.601157  0.773040  1
  O  O8  1  0.878766  0.646556  0.990818  1
  O  O9  1  0.121234  0.353444  0.009182  1
  O  O10  1  0.518479  0.866811  0.240516  1
  O  O11  1  0.481521  0.133189  0.759484  1
  O  O12  1  0.841265  0.859574  0.645696  1
  O  O13  1  0.158735  0.140426  0.354304  1
