# generated using pymatgen
data_DyTh5SBr15
_symmetry_space_group_name_H-M   'P 1'
_cell_length_a   10.00146320
_cell_length_b   10.00146387
_cell_length_c   10.00146395
_cell_angle_alpha   109.97602830
_cell_angle_beta   109.21940570
_cell_angle_gamma   109.21940907
_symmetry_Int_Tables_number   1
_chemical_formula_structural   DyTh5SBr15
_chemical_formula_sum   'Dy1 Th5 S1 Br15'
_cell_volume   770.09355826
_cell_formula_units_Z   1
loop_
 _symmetry_equiv_pos_site_id
 _symmetry_equiv_pos_as_xyz
  1  'x, y, z'
loop_
 _atom_site_type_symbol
 _atom_site_label
 _atom_site_symmetry_multiplicity
 _atom_site_fract_x
 _atom_site_fract_y
 _atom_site_fract_z
 _atom_site_occupancy
  Dy  Dy0  1  0.000000  0.234840  0.234840  1
  Th  Th1  1  0.000000  0.759526  0.759526  1
  Th  Th2  1  0.237561  0.000684  0.238245  1
  Th  Th3  1  0.762439  0.000684  0.763123  1
  Th  Th4  1  0.237561  0.238245  0.000684  1
  Th  Th5  1  0.762439  0.763123  0.000684  1
  S  S6  1  0.000000  0.003695  0.003695  1
  Br  Br7  1  0.502273  0.251197  0.251197  1
  Br  Br8  1  0.497727  0.748924  0.748924  1
  Br  Br9  1  0.000000  0.251197  0.748924  1
  Br  Br10  1  0.000000  0.748924  0.251197  1
  Br  Br11  1  0.244369  0.497035  0.252665  1
  Br  Br12  1  0.755631  0.008296  0.252665  1
  Br  Br13  1  0.747872  0.495213  0.747341  1
  Br  Br14  1  0.252128  0.999469  0.747341  1
  Br  Br15  1  0.244369  0.252665  0.497035  1
  Br  Br16  1  0.747872  0.747341  0.495213  1
  Br  Br17  1  0.755631  0.252665  0.008296  1
  Br  Br18  1  0.252128  0.747341  0.999469  1
  Br  Br19  1  0.000000  0.501887  0.501887  1
  Br  Br20  1  0.500000  0.998524  0.498524  1
  Br  Br21  1  0.500000  0.498524  0.998524  1
