# generated using pymatgen
data_NdErRh2O7
_symmetry_space_group_name_H-M   'P 1'
_cell_length_a   7.29272548
_cell_length_b   7.29272653
_cell_length_c   7.34168400
_cell_angle_alpha   59.77767984
_cell_angle_beta   59.77767503
_cell_angle_gamma   59.53107755
_symmetry_Int_Tables_number   1
_chemical_formula_structural   NdErRh2O7
_chemical_formula_sum   'Nd2 Er2 Rh4 O14'
_cell_volume   274.18295768
_cell_formula_units_Z   2
loop_
 _symmetry_equiv_pos_site_id
 _symmetry_equiv_pos_as_xyz
  1  'x, y, z'
loop_
 _atom_site_type_symbol
 _atom_site_label
 _atom_site_symmetry_multiplicity
 _atom_site_fract_x
 _atom_site_fract_y
 _atom_site_fract_z
 _atom_site_occupancy
  Nd  Nd0  1  0.125000  0.125000  0.625000  1
  Nd  Nd1  1  0.125000  0.125000  0.125000  1
  Er  Er2  1  0.625000  0.125000  0.125000  1
  Er  Er3  1  0.125000  0.625000  0.125000  1
  Rh  Rh4  1  0.125000  0.625000  0.625000  1
  Rh  Rh5  1  0.625000  0.125000  0.625000  1
  Rh  Rh6  1  0.625000  0.625000  0.125000  1
  Rh  Rh7  1  0.625000  0.625000  0.625000  1
  O  O8  1  0.709548  0.709548  0.290452  1
  O  O9  1  0.289937  0.289937  0.710063  1
  O  O10  1  0.700945  0.290303  0.719357  1
  O  O11  1  0.290303  0.700945  0.289396  1
  O  O12  1  0.290303  0.700945  0.719357  1
  O  O13  1  0.700945  0.290303  0.289396  1
  O  O14  1  0.540452  0.540452  0.959548  1
  O  O15  1  0.960063  0.960063  0.539937  1
  O  O16  1  0.549055  0.959697  0.530643  1
  O  O17  1  0.959697  0.549055  0.960604  1
  O  O18  1  0.959697  0.549055  0.530643  1
  O  O19  1  0.549055  0.959697  0.960604  1
  O  O20  1  0.258411  0.258411  0.241589  1
  O  O21  1  0.991589  0.991589  0.008411  1
