# generated using pymatgen
data_Th2Sc3Co9As7
_symmetry_space_group_name_H-M   'P 1'
_cell_length_a   3.89831200
_cell_length_b   9.70788213
_cell_length_c   9.70788200
_cell_angle_alpha   120.00000638
_cell_angle_beta   90.00000000
_cell_angle_gamma   90.00000000
_symmetry_Int_Tables_number   1
_chemical_formula_structural   Th2Sc3Co9As7
_chemical_formula_sum   'Th2 Sc3 Co9 As7'
_cell_volume   318.16776845
_cell_formula_units_Z   1
loop_
 _symmetry_equiv_pos_site_id
 _symmetry_equiv_pos_as_xyz
  1  'x, y, z'
loop_
 _atom_site_type_symbol
 _atom_site_label
 _atom_site_symmetry_multiplicity
 _atom_site_fract_x
 _atom_site_fract_y
 _atom_site_fract_z
 _atom_site_occupancy
  Th  Th0  1  0.000000  0.666667  0.333333  1
  Th  Th1  1  0.500000  0.333333  0.666667  1
  Sc  Sc2  1  0.500000  0.773127  0.882193  1
  Sc  Sc3  1  0.500000  0.109066  0.226873  1
  Sc  Sc4  1  0.500000  0.117807  0.890934  1
  Co  Co5  1  0.000000  0.572043  0.934961  1
  Co  Co6  1  0.000000  0.362917  0.427957  1
  Co  Co7  1  0.000000  0.065039  0.637083  1
  Co  Co8  1  0.000000  0.873892  0.163514  1
  Co  Co9  1  0.000000  0.289622  0.126108  1
  Co  Co10  1  0.000000  0.836486  0.710378  1
  Co  Co11  1  0.500000  0.948130  0.393088  1
  Co  Co12  1  0.500000  0.444956  0.051870  1
  Co  Co13  1  0.500000  0.606912  0.555044  1
  As  As14  1  0.000000  0.000000  0.000000  1
  As  As15  1  0.500000  0.714825  0.122252  1
  As  As16  1  0.500000  0.407427  0.285175  1
  As  As17  1  0.500000  0.877748  0.592573  1
  As  As18  1  0.000000  0.581788  0.684358  1
  As  As19  1  0.000000  0.102569  0.418212  1
  As  As20  1  0.000000  0.315642  0.897431  1
