# generated using pymatgen
data_TbDy4InSb2
_symmetry_space_group_name_H-M   'P 1'
_cell_length_a   6.48692100
_cell_length_b   8.97880965
_cell_length_c   8.99727500
_cell_angle_alpha   120.06804001
_cell_angle_beta   89.99981615
_cell_angle_gamma   89.99977777
_symmetry_Int_Tables_number   1
_chemical_formula_structural   TbDy4InSb2
_chemical_formula_sum   'Tb2 Dy8 In2 Sb4'
_cell_volume   453.52458242
_cell_formula_units_Z   2
loop_
 _symmetry_equiv_pos_site_id
 _symmetry_equiv_pos_as_xyz
  1  'x, y, z'
loop_
 _atom_site_type_symbol
 _atom_site_label
 _atom_site_symmetry_multiplicity
 _atom_site_fract_x
 _atom_site_fract_y
 _atom_site_fract_z
 _atom_site_occupancy
  Tb  Tb0  1  0.249999  0.759246  0.998014  1
  Tb  Tb1  1  0.250001  0.240752  0.238779  1
  Dy  Dy2  1  0.499339  0.336166  0.667648  1
  Dy  Dy3  1  0.499340  0.663833  0.331480  1
  Dy  Dy4  1  0.000662  0.663833  0.331479  1
  Dy  Dy5  1  0.000663  0.336167  0.667647  1
  Dy  Dy6  1  0.750000  0.241723  0.004306  1
  Dy  Dy7  1  0.750002  0.758268  0.762586  1
  Dy  Dy8  1  0.750001  0.000001  0.239776  1
  Dy  Dy9  1  0.250002  0.000006  0.757414  1
  In  In10  1  0.749991  0.605469  0.000873  1
  In  In11  1  0.750001  0.394539  0.395403  1
  Sb  Sb12  1  0.750004  0.999995  0.608953  1
  Sb  Sb13  1  0.250000  0.391850  0.998094  1
  Sb  Sb14  1  0.250001  0.608154  0.606247  1
  Sb  Sb15  1  0.250001  0.999996  0.391303  1
