# generated using pymatgen
data_LiMg3Si3Pd4
_symmetry_space_group_name_H-M   'P 1'
_cell_length_a   10.39436849
_cell_length_b   10.40805159
_cell_length_c   7.17803479
_cell_angle_alpha   72.86871447
_cell_angle_beta   72.85370815
_cell_angle_gamma   29.70883005
_symmetry_Int_Tables_number   1
_chemical_formula_structural   LiMg3Si3Pd4
_chemical_formula_sum   'Li2 Mg6 Si6 Pd8'
_cell_volume   366.53338492
_cell_formula_units_Z   2
loop_
 _symmetry_equiv_pos_site_id
 _symmetry_equiv_pos_as_xyz
  1  'x, y, z'
loop_
 _atom_site_type_symbol
 _atom_site_label
 _atom_site_symmetry_multiplicity
 _atom_site_fract_x
 _atom_site_fract_y
 _atom_site_fract_z
 _atom_site_occupancy
  Li  Li0  1  0.936205  0.197493  0.336761  1
  Li  Li1  1  0.063795  0.802507  0.663239  1
  Mg  Mg2  1  0.802439  0.067777  0.169520  1
  Mg  Mg3  1  0.457872  0.204170  0.903426  1
  Mg  Mg4  1  0.797356  0.543692  0.593921  1
  Mg  Mg5  1  0.202644  0.456308  0.406079  1
  Mg  Mg6  1  0.197561  0.932223  0.830480  1
  Mg  Mg7  1  0.542128  0.795830  0.096574  1
  Si  Si8  1  0.292747  0.036655  0.450013  1
  Si  Si9  1  0.338702  0.661145  0.252973  1
  Si  Si10  1  0.034748  0.294640  0.954909  1
  Si  Si11  1  0.707253  0.963345  0.549987  1
  Si  Si12  1  0.965252  0.705360  0.045091  1
  Si  Si13  1  0.661298  0.338855  0.747027  1
  Pd  Pd14  1  0.563598  0.310067  0.514567  1
  Pd  Pd15  1  0.693297  0.431176  0.986526  1
  Pd  Pd16  1  0.306703  0.568824  0.013474  1
  Pd  Pd17  1  0.436402  0.689933  0.485433  1
  Pd  Pd18  1  0.627961  0.926156  0.301673  1
  Pd  Pd19  1  0.927955  0.625018  0.801996  1
  Pd  Pd20  1  0.372039  0.073844  0.698327  1
  Pd  Pd21  1  0.072045  0.374982  0.198004  1
