# generated using pymatgen
data_Cs3Rb(AlI4)4
_symmetry_space_group_name_H-M   'P 1'
_cell_length_a   8.41511643
_cell_length_b   9.19465181
_cell_length_c   17.08337980
_cell_angle_alpha   85.77561361
_cell_angle_beta   90.34781175
_cell_angle_gamma   90.08439435
_symmetry_Int_Tables_number   1
_chemical_formula_structural   Cs3Rb(AlI4)4
_chemical_formula_sum   'Cs3 Rb1 Al4 I16'
_cell_volume   1318.19448780
_cell_formula_units_Z   1
loop_
 _symmetry_equiv_pos_site_id
 _symmetry_equiv_pos_as_xyz
  1  'x, y, z'
loop_
 _atom_site_type_symbol
 _atom_site_label
 _atom_site_symmetry_multiplicity
 _atom_site_fract_x
 _atom_site_fract_y
 _atom_site_fract_z
 _atom_site_occupancy
  Cs  Cs0  1  0.506425  0.257157  0.640694  1
  Cs  Cs1  1  0.006816  0.742429  0.860460  1
  Cs  Cs2  1  0.493640  0.742950  0.357787  1
  Rb  Rb3  1  0.996865  0.256442  0.139248  1
  Al  Al4  1  0.352589  0.247331  0.359513  1
  Al  Al5  1  0.859736  0.753627  0.139601  1
  Al  Al6  1  0.644114  0.752370  0.639367  1
  Al  Al7  1  0.142753  0.246523  0.862038  1
  I  I8  1  0.869718  0.151605  0.908186  1
  I  I9  1  0.371414  0.847160  0.591090  1
  I  I10  1  0.129931  0.854254  0.092161  1
  I  I11  1  0.625930  0.153786  0.407529  1
  I  I12  1  0.389557  0.397974  0.227649  1
  I  I13  1  0.897874  0.596015  0.269280  1
  I  I14  1  0.603317  0.601079  0.770699  1
  I  I15  1  0.103803  0.399846  0.731015  1
  I  I16  1  0.667057  0.965793  0.157763  1
  I  I17  1  0.154926  0.039082  0.340336  1
  I  I18  1  0.341290  0.039602  0.842925  1
  I  I19  1  0.841830  0.960899  0.657900  1
  I  I20  1  0.235305  0.411169  0.460463  1
  I  I21  1  0.740611  0.586038  0.040101  1
  I  I22  1  0.764569  0.589067  0.539056  1
  I  I23  1  0.259932  0.407801  0.965140  1
