# generated using pymatgen
data_Zr10CuSn4Bi2As
_symmetry_space_group_name_H-M   'P 1'
_cell_length_a   8.74838906
_cell_length_b   8.75281719
_cell_length_c   5.91765574
_cell_angle_alpha   90.05510102
_cell_angle_beta   89.88966937
_cell_angle_gamma   119.98339576
_symmetry_Int_Tables_number   1
_chemical_formula_structural   Zr10CuSn4Bi2As
_chemical_formula_sum   'Zr10 Cu1 Sn4 Bi2 As1'
_cell_volume   392.48956021
_cell_formula_units_Z   1
loop_
 _symmetry_equiv_pos_site_id
 _symmetry_equiv_pos_as_xyz
  1  'x, y, z'
loop_
 _atom_site_type_symbol
 _atom_site_label
 _atom_site_symmetry_multiplicity
 _atom_site_fract_x
 _atom_site_fract_y
 _atom_site_fract_z
 _atom_site_occupancy
  Zr  Zr0  1  0.737110  0.000000  0.248104  1
  Zr  Zr1  1  0.000712  0.738489  0.248962  1
  Zr  Zr2  1  0.262222  0.261511  0.248962  1
  Zr  Zr3  1  0.262279  0.000000  0.751362  1
  Zr  Zr4  1  0.994532  0.255989  0.750949  1
  Zr  Zr5  1  0.738543  0.744011  0.750949  1
  Zr  Zr6  1  0.335435  0.669246  0.496782  1
  Zr  Zr7  1  0.666190  0.330754  0.496781  1
  Zr  Zr8  1  0.666121  0.330549  0.003007  1
  Zr  Zr9  1  0.335571  0.669451  0.003006  1
  Cu  Cu10  1  0.000054  0.000000  0.003884  1
  Sn  Sn11  1  0.390635  0.999999  0.246950  1
  Sn  Sn12  1  0.000664  0.389372  0.247233  1
  Sn  Sn13  1  0.611291  0.610628  0.247233  1
  Sn  Sn14  1  0.607317  0.999999  0.752648  1
  Bi  Bi15  1  0.999428  0.608109  0.752955  1
  Bi  Bi16  1  0.391319  0.391891  0.752955  1
  As  As17  1  0.000576  0.000000  0.497277  1
