# generated using pymatgen
data_DyErTm(CdGa)3
_symmetry_space_group_name_H-M   'P 1'
_cell_length_a   7.23033300
_cell_length_b   7.22449337
_cell_length_c   4.39291200
_cell_angle_alpha   90.00000000
_cell_angle_beta   90.00000000
_cell_angle_gamma   119.83669191
_symmetry_Int_Tables_number   1
_chemical_formula_structural   DyErTm(CdGa)3
_chemical_formula_sum   'Dy1 Er1 Tm1 Cd3 Ga3'
_cell_volume   199.04953042
_cell_formula_units_Z   1
loop_
 _symmetry_equiv_pos_site_id
 _symmetry_equiv_pos_as_xyz
  1  'x, y, z'
loop_
 _atom_site_type_symbol
 _atom_site_label
 _atom_site_symmetry_multiplicity
 _atom_site_fract_x
 _atom_site_fract_y
 _atom_site_fract_z
 _atom_site_occupancy
  Dy  Dy0  1  0.999547  0.575046  0.500000  1
  Er  Er1  1  0.575072  0.999437  0.500000  1
  Tm  Tm2  1  0.424226  0.424134  0.500000  1
  Cd  Cd3  1  0.750185  0.750297  0.000000  1
  Cd  Cd4  1  0.249597  0.000360  0.000000  1
  Cd  Cd5  1  0.000257  0.249306  0.000000  1
  Ga  Ga6  1  0.665533  0.333713  0.000000  1
  Ga  Ga7  1  0.334244  0.666112  0.000000  1
  Ga  Ga8  1  0.001340  0.001596  0.500000  1
