# generated using pymatgen
data_Be5Rh3
_symmetry_space_group_name_H-M   'P 1'
_cell_length_a   3.85223535
_cell_length_b   4.68175060
_cell_length_c   6.07107937
_cell_angle_alpha   78.28558493
_cell_angle_beta   129.40024331
_cell_angle_gamma   90.00519348
_symmetry_Int_Tables_number   1
_chemical_formula_structural   Be5Rh3
_chemical_formula_sum   'Be5 Rh3'
_cell_volume   81.63768595
_cell_formula_units_Z   1
loop_
 _symmetry_equiv_pos_site_id
 _symmetry_equiv_pos_as_xyz
  1  'x, y, z'
loop_
 _atom_site_type_symbol
 _atom_site_label
 _atom_site_symmetry_multiplicity
 _atom_site_fract_x
 _atom_site_fract_y
 _atom_site_fract_z
 _atom_site_occupancy
  Be  Be0  1  0.435665  0.530584  0.391253  1
  Be  Be1  1  0.644740  0.816489  0.102140  1
  Be  Be2  1  0.432250  0.031218  0.387476  1
  Be  Be3  1  0.215891  0.246043  0.671927  1
  Be  Be4  1  0.935546  0.532763  0.890144  1
  Rh  Rh5  1  0.930974  0.032982  0.886978  1
  Rh  Rh6  1  0.714240  0.312459  0.168964  1
  Rh  Rh7  1  0.151599  0.750598  0.606346  1
