# generated using pymatgen
data_CsNpPO6
_symmetry_space_group_name_H-M   'P 1'
_cell_length_a   9.03157657
_cell_length_b   9.03157686
_cell_length_c   10.53693744
_cell_angle_alpha   114.26016285
_cell_angle_beta   114.26016926
_cell_angle_gamma   92.36524160
_symmetry_Int_Tables_number   1
_chemical_formula_structural   CsNpPO6
_chemical_formula_sum   'Cs4 Np4 P4 O24'
_cell_volume   691.19175309
_cell_formula_units_Z   4
loop_
 _symmetry_equiv_pos_site_id
 _symmetry_equiv_pos_as_xyz
  1  'x, y, z'
loop_
 _atom_site_type_symbol
 _atom_site_label
 _atom_site_symmetry_multiplicity
 _atom_site_fract_x
 _atom_site_fract_y
 _atom_site_fract_z
 _atom_site_occupancy
  Cs  Cs0  1  0.064066  0.314065  0.250000  1
  Cs  Cs1  1  0.685935  0.935934  0.250000  1
  Cs  Cs2  1  0.935934  0.685934  0.749999  1
  Cs  Cs3  1  0.314065  0.064065  0.750000  1
  Np  Np4  1  0.580190  0.419810  0.250000  1
  Np  Np5  1  0.169811  0.830190  0.250000  1
  Np  Np6  1  0.830190  0.169811  0.750000  1
  Np  Np7  1  0.419810  0.580189  0.750000  1
  P  P8  1  0.512629  0.762629  0.525258  1
  P  P9  1  0.237371  0.487371  0.974742  1
  P  P10  1  0.487372  0.237372  0.474742  1
  P  P11  1  0.762629  0.512628  0.025258  1
  O  O12  1  0.594960  0.677306  0.417843  1
  O  O13  1  0.259463  0.677118  0.082158  1
  O  O14  1  0.322695  0.405040  0.082157  1
  O  O15  1  0.322882  0.740537  0.417843  1
  O  O16  1  0.405039  0.322695  0.582157  1
  O  O17  1  0.740537  0.322883  0.917842  1
  O  O18  1  0.677305  0.594960  0.917843  1
  O  O19  1  0.677118  0.259463  0.582158  1
  O  O20  1  0.678337  0.528253  0.129511  1
  O  O21  1  0.398742  0.048826  0.370489  1
  O  O22  1  0.471747  0.321663  0.370489  1
  O  O23  1  0.951174  0.601258  0.129511  1
  O  O24  1  0.902778  0.046302  0.606154  1
  O  O25  1  0.440148  0.796625  0.893847  1
  O  O26  1  0.953698  0.097223  0.893846  1
  O  O27  1  0.203376  0.559853  0.606155  1
  O  O28  1  0.097223  0.953698  0.393847  1
  O  O29  1  0.559853  0.203376  0.106154  1
  O  O30  1  0.321663  0.471747  0.870489  1
  O  O31  1  0.796624  0.440148  0.393846  1
  O  O32  1  0.048826  0.398741  0.870489  1
  O  O33  1  0.528253  0.678337  0.629512  1
  O  O34  1  0.601258  0.951173  0.629511  1
  O  O35  1  0.046301  0.902778  0.106154  1
