# generated using pymatgen
data_Hf3TiPd2C
_symmetry_space_group_name_H-M   'P 1'
_cell_length_a   8.68732686
_cell_length_b   8.68732684
_cell_length_c   8.68732700
_cell_angle_alpha   60.00000318
_cell_angle_beta   60.00000327
_cell_angle_gamma   60.00000429
_symmetry_Int_Tables_number   1
_chemical_formula_structural   Hf3TiPd2C
_chemical_formula_sum   'Hf12 Ti4 Pd8 C4'
_cell_volume   463.60010913
_cell_formula_units_Z   4
loop_
 _symmetry_equiv_pos_site_id
 _symmetry_equiv_pos_as_xyz
  1  'x, y, z'
loop_
 _atom_site_type_symbol
 _atom_site_label
 _atom_site_symmetry_multiplicity
 _atom_site_fract_x
 _atom_site_fract_y
 _atom_site_fract_z
 _atom_site_occupancy
  Hf  Hf0  1  0.435258  0.435258  0.064742  1
  Hf  Hf1  1  0.064742  0.435258  0.064742  1
  Hf  Hf2  1  0.435258  0.064742  0.064742  1
  Hf  Hf3  1  0.064742  0.064742  0.435258  1
  Hf  Hf4  1  0.435258  0.064742  0.435258  1
  Hf  Hf5  1  0.064742  0.435258  0.435258  1
  Hf  Hf6  1  0.814742  0.814742  0.185258  1
  Hf  Hf7  1  0.185258  0.814742  0.185258  1
  Hf  Hf8  1  0.814742  0.185258  0.185258  1
  Hf  Hf9  1  0.185258  0.185258  0.814742  1
  Hf  Hf10  1  0.814742  0.185258  0.814742  1
  Hf  Hf11  1  0.185258  0.814742  0.814742  1
  Ti  Ti12  1  0.625000  0.625000  0.125000  1
  Ti  Ti13  1  0.625000  0.125000  0.625000  1
  Ti  Ti14  1  0.125000  0.625000  0.625000  1
  Ti  Ti15  1  0.625000  0.625000  0.625000  1
  Pd  Pd16  1  0.835765  0.835765  0.492704  1
  Pd  Pd17  1  0.835765  0.492704  0.835765  1
  Pd  Pd18  1  0.492704  0.835765  0.835765  1
  Pd  Pd19  1  0.835765  0.835765  0.835765  1
  Pd  Pd20  1  0.414235  0.414235  0.757296  1
  Pd  Pd21  1  0.414235  0.757296  0.414235  1
  Pd  Pd22  1  0.757296  0.414235  0.414235  1
  Pd  Pd23  1  0.414235  0.414235  0.414235  1
  C  C24  1  0.125000  0.125000  0.625000  1
  C  C25  1  0.125000  0.625000  0.125000  1
  C  C26  1  0.625000  0.125000  0.125000  1
  C  C27  1  0.125000  0.125000  0.125000  1
