# generated using pymatgen
data_Tb7Ho3AlSb5
_symmetry_space_group_name_H-M   'P 1'
_cell_length_a   8.94546406
_cell_length_b   8.95451071
_cell_length_c   6.40053406
_cell_angle_alpha   90.01597236
_cell_angle_beta   89.99032558
_cell_angle_gamma   119.95834184
_symmetry_Int_Tables_number   1
_chemical_formula_structural   Tb7Ho3AlSb5
_chemical_formula_sum   'Tb7 Ho3 Al1 Sb5'
_cell_volume   444.19505137
_cell_formula_units_Z   1
loop_
 _symmetry_equiv_pos_site_id
 _symmetry_equiv_pos_as_xyz
  1  'x, y, z'
loop_
 _atom_site_type_symbol
 _atom_site_label
 _atom_site_symmetry_multiplicity
 _atom_site_fract_x
 _atom_site_fract_y
 _atom_site_fract_z
 _atom_site_occupancy
  Tb  Tb0  1  0.009213  0.761552  0.749932  1
  Tb  Tb1  1  0.998712  0.244966  0.250185  1
  Tb  Tb2  1  0.753628  0.755211  0.250035  1
  Tb  Tb3  1  0.751826  0.000054  0.749965  1
  Tb  Tb4  1  0.247834  0.238569  0.749776  1
  Tb  Tb5  1  0.243637  0.999977  0.250228  1
  Tb  Tb6  1  0.334535  0.673004  0.999392  1
  Ho  Ho7  1  0.334402  0.673146  0.500779  1
  Ho  Ho8  1  0.660946  0.326422  0.999013  1
  Ho  Ho9  1  0.661214  0.326910  0.500890  1
  Al  Al10  1  0.396609  0.000797  0.749091  1
  Sb  Sb11  1  0.389792  0.391316  0.250755  1
  Sb  Sb12  1  0.996759  0.607844  0.250600  1
  Sb  Sb13  1  0.001066  0.389826  0.749136  1
  Sb  Sb14  1  0.612170  0.609560  0.749370  1
  Sb  Sb15  1  0.607655  0.000846  0.250853  1
