# generated using pymatgen
data_Ba6Fe(IrO6)2
_symmetry_space_group_name_H-M   'P 1'
_cell_length_a   9.12431782
_cell_length_b   9.12431796
_cell_length_c   7.32127718
_cell_angle_alpha   68.04722431
_cell_angle_beta   68.04722148
_cell_angle_gamma   36.88916954
_symmetry_Int_Tables_number   1
_chemical_formula_structural   Ba6Fe(IrO6)2
_chemical_formula_sum   'Ba6 Fe1 Ir2 O12'
_cell_volume   336.26665223
_cell_formula_units_Z   1
loop_
 _symmetry_equiv_pos_site_id
 _symmetry_equiv_pos_as_xyz
  1  'x, y, z'
loop_
 _atom_site_type_symbol
 _atom_site_label
 _atom_site_symmetry_multiplicity
 _atom_site_fract_x
 _atom_site_fract_y
 _atom_site_fract_z
 _atom_site_occupancy
  Ba  Ba0  1  0.883698  0.883698  0.708909  1
  Ba  Ba1  1  0.213058  0.213058  0.710048  1
  Ba  Ba2  1  0.547794  0.547794  0.713266  1
  Ba  Ba3  1  0.452206  0.452206  0.286734  1
  Ba  Ba4  1  0.786942  0.786942  0.289952  1
  Ba  Ba5  1  0.116302  0.116302  0.291091  1
  Fe  Fe6  1  0.000000  0.000000  0.000000  1
  Ir  Ir7  1  0.668105  0.668105  0.999906  1
  Ir  Ir8  1  0.331895  0.331895  0.000094  1
  O  O9  1  0.950022  0.950022  0.300263  1
  O  O10  1  0.282141  0.282141  0.308170  1
  O  O11  1  0.615215  0.615215  0.307242  1
  O  O12  1  0.384785  0.384785  0.692758  1
  O  O13  1  0.717859  0.717859  0.691830  1
  O  O14  1  0.049978  0.049978  0.699737  1
  O  O15  1  0.500000  0.000000  0.000000  1
  O  O16  1  0.829268  0.343006  0.999843  1
  O  O17  1  0.170732  0.656994  0.000157  1
  O  O18  1  0.000000  0.500000  0.000000  1
  O  O19  1  0.343006  0.829268  0.999843  1
  O  O20  1  0.656994  0.170732  0.000157  1
