# generated using pymatgen
data_Zn12Sn8Ru3Rh5
_symmetry_space_group_name_H-M   'P 1'
_cell_length_a   4.25394400
_cell_length_b   8.28485722
_cell_length_c   13.65045399
_cell_angle_alpha   89.93798105
_cell_angle_beta   90.00000000
_cell_angle_gamma   90.00000000
_symmetry_Int_Tables_number   1
_chemical_formula_structural   Zn12Sn8Ru3Rh5
_chemical_formula_sum   'Zn12 Sn8 Ru3 Rh5'
_cell_volume   481.08701795
_cell_formula_units_Z   1
loop_
 _symmetry_equiv_pos_site_id
 _symmetry_equiv_pos_as_xyz
  1  'x, y, z'
loop_
 _atom_site_type_symbol
 _atom_site_label
 _atom_site_symmetry_multiplicity
 _atom_site_fract_x
 _atom_site_fract_y
 _atom_site_fract_z
 _atom_site_occupancy
  Zn  Zn0  1  0.750000  0.465855  0.955440  1
  Zn  Zn1  1  0.750000  0.964826  0.542278  1
  Zn  Zn2  1  0.250000  0.531255  0.042155  1
  Zn  Zn3  1  0.250000  0.035325  0.457876  1
  Zn  Zn4  1  0.750000  0.159594  0.868633  1
  Zn  Zn5  1  0.750000  0.659174  0.631168  1
  Zn  Zn6  1  0.250000  0.842098  0.131026  1
  Zn  Zn7  1  0.250000  0.340721  0.368734  1
  Zn  Zn8  1  0.750000  0.911785  0.743414  1
  Zn  Zn9  1  0.750000  0.411363  0.756256  1
  Zn  Zn10  1  0.250000  0.088305  0.256609  1
  Zn  Zn11  1  0.250000  0.588204  0.243532  1
  Sn  Sn12  1  0.750000  0.345274  0.194851  1
  Sn  Sn13  1  0.750000  0.845999  0.305527  1
  Sn  Sn14  1  0.250000  0.654425  0.805526  1
  Sn  Sn15  1  0.250000  0.154160  0.696004  1
  Sn  Sn16  1  0.750000  0.847078  0.972758  1
  Sn  Sn17  1  0.750000  0.347791  0.526610  1
  Sn  Sn18  1  0.250000  0.154686  0.027515  1
  Sn  Sn19  1  0.250000  0.651668  0.473919  1
  Ru  Ru20  1  0.750000  0.153633  0.368245  1
  Ru  Ru21  1  0.250000  0.347879  0.868228  1
  Ru  Ru22  1  0.250000  0.847074  0.631669  1
  Rh  Rh23  1  0.750000  0.040200  0.141294  1
  Rh  Rh24  1  0.750000  0.539984  0.358941  1
  Rh  Rh25  1  0.250000  0.959879  0.859454  1
  Rh  Rh26  1  0.250000  0.459423  0.641156  1
  Rh  Rh27  1  0.750000  0.652338  0.131180  1
