# generated using pymatgen
data_Sm6Th2Be3Si12Pd
_symmetry_space_group_name_H-M   'P 1'
_cell_length_a   8.01831000
_cell_length_b   8.01831073
_cell_length_c   8.40636100
_cell_angle_alpha   90.00000000
_cell_angle_beta   90.00000000
_cell_angle_gamma   119.99999698
_symmetry_Int_Tables_number   1
_chemical_formula_structural   Sm6Th2Be3Si12Pd
_chemical_formula_sum   'Sm6 Th2 Be3 Si12 Pd1'
_cell_volume   468.06310171
_cell_formula_units_Z   1
loop_
 _symmetry_equiv_pos_site_id
 _symmetry_equiv_pos_as_xyz
  1  'x, y, z'
loop_
 _atom_site_type_symbol
 _atom_site_label
 _atom_site_symmetry_multiplicity
 _atom_site_fract_x
 _atom_site_fract_y
 _atom_site_fract_z
 _atom_site_occupancy
  Sm  Sm0  1  0.498118  0.501882  0.752519  1
  Sm  Sm1  1  0.498179  0.501821  0.247525  1
  Sm  Sm2  1  0.003763  0.501882  0.752519  1
  Sm  Sm3  1  0.003643  0.501821  0.247525  1
  Sm  Sm4  1  0.498118  0.996237  0.752519  1
  Sm  Sm5  1  0.498179  0.996357  0.247525  1
  Th  Th6  1  0.000000  0.000000  0.750388  1
  Th  Th7  1  0.000000  0.000000  0.249657  1
  Be  Be8  1  0.666667  0.333333  0.999097  1
  Be  Be9  1  0.333333  0.666667  0.000888  1
  Be  Be10  1  0.333333  0.666667  0.499550  1
  Si  Si11  1  0.828066  0.171934  0.000122  1
  Si  Si12  1  0.172986  0.827014  0.999980  1
  Si  Si13  1  0.343866  0.171934  0.000122  1
  Si  Si14  1  0.171599  0.828401  0.499903  1
  Si  Si15  1  0.654029  0.827014  0.999980  1
  Si  Si16  1  0.833834  0.166166  0.500114  1
  Si  Si17  1  0.828066  0.656134  0.000122  1
  Si  Si18  1  0.656801  0.828401  0.499903  1
  Si  Si19  1  0.172986  0.345971  0.999980  1
  Si  Si20  1  0.332332  0.166166  0.500114  1
  Si  Si21  1  0.171599  0.343199  0.499903  1
  Si  Si22  1  0.833834  0.667668  0.500114  1
  Pd  Pd23  1  0.666667  0.333333  0.499936  1
