# generated using pymatgen
data_HoLu2Sc(Co4P3)2
_symmetry_space_group_name_H-M   'P 1'
_cell_length_a   3.70163000
_cell_length_b   10.61825800
_cell_length_c   12.28283000
_cell_angle_alpha   90.00000000
_cell_angle_beta   90.00000000
_cell_angle_gamma   90.00000000
_symmetry_Int_Tables_number   1
_chemical_formula_structural   HoLu2Sc(Co4P3)2
_chemical_formula_sum   'Ho2 Lu4 Sc2 Co16 P12'
_cell_volume   482.77494255
_cell_formula_units_Z   2
loop_
 _symmetry_equiv_pos_site_id
 _symmetry_equiv_pos_as_xyz
  1  'x, y, z'
loop_
 _atom_site_type_symbol
 _atom_site_label
 _atom_site_symmetry_multiplicity
 _atom_site_fract_x
 _atom_site_fract_y
 _atom_site_fract_z
 _atom_site_occupancy
  Ho  Ho0  1  0.000000  0.500000  0.528460  1
  Ho  Ho1  1  0.500000  0.000000  0.471540  1
  Lu  Lu2  1  0.500000  0.823036  0.205432  1
  Lu  Lu3  1  0.500000  0.176964  0.205432  1
  Lu  Lu4  1  0.000000  0.676964  0.794568  1
  Lu  Lu5  1  0.000000  0.323036  0.794568  1
  Sc  Sc6  1  0.500000  0.500000  0.157665  1
  Sc  Sc7  1  0.000000  0.000000  0.842335  1
  Co  Co8  1  0.000000  0.500000  0.987733  1
  Co  Co9  1  0.500000  0.000000  0.012267  1
  Co  Co10  1  0.500000  0.295285  0.432867  1
  Co  Co11  1  0.500000  0.704715  0.432867  1
  Co  Co12  1  0.000000  0.204715  0.567133  1
  Co  Co13  1  0.000000  0.795285  0.567133  1
  Co  Co14  1  0.500000  0.877094  0.703504  1
  Co  Co15  1  0.500000  0.122906  0.703504  1
  Co  Co16  1  0.000000  0.622906  0.296496  1
  Co  Co17  1  0.000000  0.377094  0.296496  1
  Co  Co18  1  0.500000  0.330885  0.994707  1
  Co  Co19  1  0.500000  0.669115  0.994707  1
  Co  Co20  1  0.000000  0.169115  0.005293  1
  Co  Co21  1  0.000000  0.830885  0.005293  1
  Co  Co22  1  0.500000  0.500000  0.706517  1
  Co  Co23  1  0.000000  0.000000  0.293483  1
  P  P24  1  0.500000  0.310552  0.616939  1
  P  P25  1  0.500000  0.689448  0.616939  1
  P  P26  1  0.000000  0.189448  0.383061  1
  P  P27  1  0.000000  0.810552  0.383061  1
  P  P28  1  0.500000  0.500000  0.885218  1
  P  P29  1  0.000000  0.000000  0.114782  1
  P  P30  1  0.500000  0.838190  0.891288  1
  P  P31  1  0.500000  0.161810  0.891288  1
  P  P32  1  0.000000  0.661810  0.108712  1
  P  P33  1  0.000000  0.338190  0.108712  1
  P  P34  1  0.500000  0.500000  0.360797  1
  P  P35  1  0.000000  0.000000  0.639203  1
