# generated using pymatgen
data_TbHo15In2(AgPt2)2
_symmetry_space_group_name_H-M   'P 1'
_cell_length_a   9.62199726
_cell_length_b   9.62199632
_cell_length_c   9.60061400
_cell_angle_alpha   60.07348371
_cell_angle_beta   60.07348693
_cell_angle_gamma   59.81309798
_symmetry_Int_Tables_number   1
_chemical_formula_structural   TbHo15In2(AgPt2)2
_chemical_formula_sum   'Tb1 Ho15 In2 Ag2 Pt4'
_cell_volume   628.31490478
_cell_formula_units_Z   1
loop_
 _symmetry_equiv_pos_site_id
 _symmetry_equiv_pos_as_xyz
  1  'x, y, z'
loop_
 _atom_site_type_symbol
 _atom_site_label
 _atom_site_symmetry_multiplicity
 _atom_site_fract_x
 _atom_site_fract_y
 _atom_site_fract_z
 _atom_site_occupancy
  Tb  Tb0  1  0.185153  0.185153  0.814847  1
  Ho  Ho1  1  0.602900  0.602900  0.192609  1
  Ho  Ho2  1  0.440304  0.060226  0.440677  1
  Ho  Ho3  1  0.442241  0.442241  0.057759  1
  Ho  Ho4  1  0.811594  0.181296  0.816085  1
  Ho  Ho5  1  0.181296  0.811594  0.191026  1
  Ho  Ho6  1  0.440304  0.060226  0.058793  1
  Ho  Ho7  1  0.181296  0.811594  0.816085  1
  Ho  Ho8  1  0.060226  0.440304  0.058793  1
  Ho  Ho9  1  0.813121  0.813121  0.186879  1
  Ho  Ho10  1  0.186556  0.605991  0.603727  1
  Ho  Ho11  1  0.060226  0.440304  0.440677  1
  Ho  Ho12  1  0.061888  0.061888  0.438112  1
  Ho  Ho13  1  0.811594  0.181296  0.191026  1
  Ho  Ho14  1  0.605991  0.186556  0.603727  1
  Ho  Ho15  1  0.602900  0.602900  0.601592  1
  In  In16  1  0.507018  0.832959  0.830011  1
  In  In17  1  0.832959  0.507018  0.830011  1
  Ag  Ag18  1  0.835276  0.835276  0.833328  1
  Ag  Ag19  1  0.835276  0.835276  0.496122  1
  Pt  Pt20  1  0.392812  0.820158  0.393515  1
  Pt  Pt21  1  0.394457  0.394457  0.393247  1
  Pt  Pt22  1  0.820158  0.392812  0.393515  1
  Pt  Pt23  1  0.394457  0.394457  0.817838  1
