# generated using pymatgen
data_Y7Er11Sc2(Cd3Ru)2
_symmetry_space_group_name_H-M   'P 1'
_cell_length_a   9.49423385
_cell_length_b   9.49451372
_cell_length_c   9.71562116
_cell_angle_alpha   90.00000104
_cell_angle_beta   90.04847869
_cell_angle_gamma   120.00097565
_symmetry_Int_Tables_number   1
_chemical_formula_structural   Y7Er11Sc2(Cd3Ru)2
_chemical_formula_sum   'Y7 Er11 Sc2 Cd6 Ru2'
_cell_volume   758.45422998
_cell_formula_units_Z   1
loop_
 _symmetry_equiv_pos_site_id
 _symmetry_equiv_pos_as_xyz
  1  'x, y, z'
loop_
 _atom_site_type_symbol
 _atom_site_label
 _atom_site_symmetry_multiplicity
 _atom_site_fract_x
 _atom_site_fract_y
 _atom_site_fract_z
 _atom_site_occupancy
  Y  Y0  1  0.583476  0.791738  0.058983  1
  Y  Y1  1  0.540581  0.459009  0.250265  1
  Y  Y2  1  0.540581  0.081573  0.250265  1
  Y  Y3  1  0.918905  0.459453  0.249977  1
  Y  Y4  1  0.459320  0.540333  0.749647  1
  Y  Y5  1  0.459320  0.918987  0.749647  1
  Y  Y6  1  0.081243  0.540621  0.749991  1
  Er  Er7  1  0.208652  0.791323  0.440541  1
  Er  Er8  1  0.208652  0.417329  0.440541  1
  Er  Er9  1  0.582691  0.791345  0.440815  1
  Er  Er10  1  0.791333  0.208707  0.559434  1
  Er  Er11  1  0.791333  0.582626  0.559434  1
  Er  Er12  1  0.417353  0.208677  0.559424  1
  Er  Er13  1  0.791505  0.209019  0.940429  1
  Er  Er14  1  0.791505  0.582486  0.940429  1
  Er  Er15  1  0.417460  0.208730  0.940563  1
  Er  Er16  1  0.208352  0.791297  0.059524  1
  Er  Er17  1  0.208352  0.417055  0.059524  1
  Sc  Sc18  1  0.000041  0.000021  0.500039  1
  Sc  Sc19  1  0.000432  0.000216  0.999863  1
  Cd  Cd20  1  0.889107  0.111146  0.250042  1
  Cd  Cd21  1  0.889107  0.777963  0.250042  1
  Cd  Cd22  1  0.221980  0.110991  0.250018  1
  Cd  Cd23  1  0.110911  0.888930  0.749959  1
  Cd  Cd24  1  0.110911  0.221979  0.749959  1
  Cd  Cd25  1  0.778123  0.889061  0.749919  1
  Ru  Ru26  1  0.332161  0.666081  0.250764  1
  Ru  Ru27  1  0.666612  0.333306  0.749962  1
