# generated using pymatgen
data_Tb3Yb3Mn2(FeC6)2
_symmetry_space_group_name_H-M   'P 1'
_cell_length_a   8.06333496
_cell_length_b   8.06654336
_cell_length_c   4.99513800
_cell_angle_alpha   90.00000000
_cell_angle_beta   90.00000000
_cell_angle_gamma   120.09756456
_symmetry_Int_Tables_number   1
_chemical_formula_structural   Tb3Yb3Mn2(FeC6)2
_chemical_formula_sum   'Tb3 Yb3 Mn2 Fe2 C12'
_cell_volume   281.09459199
_cell_formula_units_Z   1
loop_
 _symmetry_equiv_pos_site_id
 _symmetry_equiv_pos_as_xyz
  1  'x, y, z'
loop_
 _atom_site_type_symbol
 _atom_site_label
 _atom_site_symmetry_multiplicity
 _atom_site_fract_x
 _atom_site_fract_y
 _atom_site_fract_z
 _atom_site_occupancy
  Tb  Tb0  1  0.315423  0.934442  0.750000  1
  Tb  Tb1  1  0.064586  0.384177  0.750000  1
  Tb  Tb2  1  0.383823  0.319216  0.250000  1
  Yb  Yb3  1  0.615474  0.685173  0.750000  1
  Yb  Yb4  1  0.928700  0.615274  0.250000  1
  Yb  Yb5  1  0.681629  0.068317  0.250000  1
  Mn  Mn6  1  0.997429  0.998762  0.499850  1
  Mn  Mn7  1  0.997429  0.998762  0.000150  1
  Fe  Fe8  1  0.667444  0.331364  0.750000  1
  Fe  Fe9  1  0.332314  0.664121  0.250000  1
  C  C10  1  0.958377  0.769268  0.750000  1
  C  C11  1  0.193968  0.961965  0.250000  1
  C  C12  1  0.771584  0.816397  0.250000  1
  C  C13  1  0.230632  0.193179  0.750000  1
  C  C14  1  0.817811  0.043599  0.750000  1
  C  C15  1  0.040781  0.225174  0.250000  1
  C  C16  1  0.861624  0.577017  0.750000  1
  C  C17  1  0.283092  0.858341  0.250000  1
  C  C18  1  0.580247  0.716387  0.250000  1
  C  C19  1  0.425238  0.285300  0.750000  1
  C  C20  1  0.135763  0.418681  0.250000  1
  C  C21  1  0.716631  0.135083  0.750000  1
