# generated using pymatgen
data_LuZr2TcF15
_symmetry_space_group_name_H-M   'P 1'
_cell_length_a   8.08404690
_cell_length_b   8.08404653
_cell_length_c   8.09220267
_cell_angle_alpha   79.84670586
_cell_angle_beta   79.84670755
_cell_angle_gamma   99.92693192
_symmetry_Int_Tables_number   1
_chemical_formula_structural   LuZr2TcF15
_chemical_formula_sum   'Lu2 Zr4 Tc2 F30'
_cell_volume   500.98093952
_cell_formula_units_Z   2
loop_
 _symmetry_equiv_pos_site_id
 _symmetry_equiv_pos_as_xyz
  1  'x, y, z'
loop_
 _atom_site_type_symbol
 _atom_site_label
 _atom_site_symmetry_multiplicity
 _atom_site_fract_x
 _atom_site_fract_y
 _atom_site_fract_z
 _atom_site_occupancy
  Lu  Lu0  1  0.678129  0.321871  0.750000  1
  Lu  Lu1  1  0.321871  0.678129  0.250000  1
  Zr  Zr2  1  0.821626  0.749803  0.325912  1
  Zr  Zr3  1  0.250197  0.178374  0.174088  1
  Zr  Zr4  1  0.178374  0.250197  0.674088  1
  Zr  Zr5  1  0.749803  0.821626  0.825912  1
  Tc  Tc6  1  0.250149  0.749851  0.750000  1
  Tc  Tc7  1  0.749851  0.250149  0.250000  1
  F  F8  1  0.149945  0.185056  0.946888  1
  F  F9  1  0.686570  0.559847  0.846794  1
  F  F10  1  0.043852  0.655019  0.313423  1
  F  F11  1  0.655019  0.043852  0.813423  1
  F  F12  1  0.559847  0.686570  0.346794  1
  F  F13  1  0.185056  0.149945  0.446888  1
  F  F14  1  0.850055  0.814944  0.053112  1
  F  F15  1  0.313430  0.440153  0.153206  1
  F  F16  1  0.956148  0.344981  0.686577  1
  F  F17  1  0.344981  0.956148  0.186577  1
  F  F18  1  0.440153  0.313430  0.653206  1
  F  F19  1  0.814944  0.850055  0.553112  1
  F  F20  1  0.969028  0.030972  0.750000  1
  F  F21  1  0.540620  0.752672  0.029769  1
  F  F22  1  0.247328  0.459380  0.470231  1
  F  F23  1  0.459380  0.247328  0.970231  1
  F  F24  1  0.752672  0.540620  0.529769  1
  F  F25  1  0.030972  0.969028  0.250000  1
  F  F26  1  0.219228  0.727513  0.999019  1
  F  F27  1  0.226118  0.498772  0.783689  1
  F  F28  1  0.998000  0.718178  0.775483  1
  F  F29  1  0.718178  0.998000  0.275483  1
  F  F30  1  0.498772  0.226118  0.283689  1
  F  F31  1  0.727513  0.219228  0.499019  1
  F  F32  1  0.780772  0.272487  0.000981  1
  F  F33  1  0.773882  0.501228  0.216311  1
  F  F34  1  0.002000  0.281822  0.224517  1
  F  F35  1  0.281822  0.002000  0.724517  1
  F  F36  1  0.501228  0.773882  0.716311  1
  F  F37  1  0.272487  0.780772  0.500981  1
