# generated using pymatgen
data_GdEr2TmSb10
_symmetry_space_group_name_H-M   'P 1'
_cell_length_a   4.20894700
_cell_length_b   13.17788280
_cell_length_c   14.60444800
_cell_angle_alpha   78.36664368
_cell_angle_beta   90.00000000
_cell_angle_gamma   90.00000000
_symmetry_Int_Tables_number   1
_chemical_formula_structural   GdEr2TmSb10
_chemical_formula_sum   'Gd2 Er4 Tm2 Sb20'
_cell_volume   793.39611832
_cell_formula_units_Z   2
loop_
 _symmetry_equiv_pos_site_id
 _symmetry_equiv_pos_as_xyz
  1  'x, y, z'
loop_
 _atom_site_type_symbol
 _atom_site_label
 _atom_site_symmetry_multiplicity
 _atom_site_fract_x
 _atom_site_fract_y
 _atom_site_fract_z
 _atom_site_occupancy
  Gd  Gd0  1  0.250000  0.953314  0.359040  1
  Gd  Gd1  1  0.750000  0.046686  0.640960  1
  Er  Er2  1  0.250000  0.661547  0.856277  1
  Er  Er3  1  0.750000  0.338453  0.143723  1
  Er  Er4  1  0.250000  0.667942  0.576341  1
  Er  Er5  1  0.750000  0.332058  0.423659  1
  Tm  Tm6  1  0.250000  0.395672  0.770590  1
  Tm  Tm7  1  0.750000  0.604328  0.229410  1
  Sb  Sb8  1  0.250000  0.145644  0.779549  1
  Sb  Sb9  1  0.750000  0.854356  0.220451  1
  Sb  Sb10  1  0.250000  0.146235  0.481230  1
  Sb  Sb11  1  0.750000  0.853765  0.518770  1
  Sb  Sb12  1  0.250000  0.153563  0.170553  1
  Sb  Sb13  1  0.750000  0.846437  0.829447  1
  Sb  Sb14  1  0.250000  0.420607  0.975028  1
  Sb  Sb15  1  0.750000  0.579393  0.024972  1
  Sb  Sb16  1  0.750000  0.028830  0.909543  1
  Sb  Sb17  1  0.250000  0.971170  0.090457  1
  Sb  Sb18  1  0.750000  0.141772  0.321872  1
  Sb  Sb19  1  0.250000  0.858228  0.678128  1
  Sb  Sb20  1  0.750000  0.279859  0.936143  1
  Sb  Sb21  1  0.250000  0.720141  0.063857  1
  Sb  Sb22  1  0.750000  0.286465  0.653329  1
  Sb  Sb23  1  0.250000  0.713535  0.346671  1
  Sb  Sb24  1  0.750000  0.575956  0.734521  1
  Sb  Sb25  1  0.250000  0.424044  0.265479  1
  Sb  Sb26  1  0.750000  0.571712  0.446815  1
  Sb  Sb27  1  0.250000  0.428288  0.553185  1
