# generated using pymatgen
data_Y3Ho(Ga3Pt4)2
_symmetry_space_group_name_H-M   'P 1'
_cell_length_a   8.13324602
_cell_length_b   8.13326590
_cell_length_c   7.65461400
_cell_angle_alpha   89.99639315
_cell_angle_beta   90.00364912
_cell_angle_gamma   140.02392909
_symmetry_Int_Tables_number   1
_chemical_formula_structural   Y3Ho(Ga3Pt4)2
_chemical_formula_sum   'Y3 Ho1 Ga6 Pt8'
_cell_volume   325.31449916
_cell_formula_units_Z   1
loop_
 _symmetry_equiv_pos_site_id
 _symmetry_equiv_pos_as_xyz
  1  'x, y, z'
loop_
 _atom_site_type_symbol
 _atom_site_label
 _atom_site_symmetry_multiplicity
 _atom_site_fract_x
 _atom_site_fract_y
 _atom_site_fract_z
 _atom_site_occupancy
  Y  Y0  1  0.107552  0.892451  0.407374  1
  Y  Y1  1  0.892386  0.107617  0.592285  1
  Y  Y2  1  0.392499  0.607495  0.907531  1
  Ho  Ho3  1  0.607578  0.392424  0.091802  1
  Ga  Ga4  1  0.999966  0.000002  0.000273  1
  Ga  Ga5  1  0.500126  0.499881  0.500596  1
  Ga  Ga6  1  0.021767  0.478190  0.249670  1
  Ga  Ga7  1  0.478068  0.021859  0.749891  1
  Ga  Ga8  1  0.978137  0.521933  0.749892  1
  Ga  Ga9  1  0.521814  0.978230  0.249672  1
  Pt  Pt10  1  0.192163  0.308171  0.249827  1
  Pt  Pt11  1  0.308815  0.191561  0.751062  1
  Pt  Pt12  1  0.808443  0.691186  0.751062  1
  Pt  Pt13  1  0.691832  0.807841  0.249828  1
  Pt  Pt14  1  0.182238  0.817770  0.026813  1
  Pt  Pt15  1  0.816861  0.183141  0.973442  1
  Pt  Pt16  1  0.317103  0.682896  0.526252  1
  Pt  Pt17  1  0.682652  0.317354  0.472728  1
