# generated using pymatgen
data_NdSmPa(InPt)3
_symmetry_space_group_name_H-M   'P 1'
_cell_length_a   7.66693772
_cell_length_b   7.71648812
_cell_length_c   4.03073300
_cell_angle_alpha   90.00000000
_cell_angle_beta   90.00000000
_cell_angle_gamma   120.29676656
_symmetry_Int_Tables_number   1
_chemical_formula_structural   NdSmPa(InPt)3
_chemical_formula_sum   'Nd1 Sm1 Pa1 In3 Pt3'
_cell_volume   205.89688960
_cell_formula_units_Z   1
loop_
 _symmetry_equiv_pos_site_id
 _symmetry_equiv_pos_as_xyz
  1  'x, y, z'
loop_
 _atom_site_type_symbol
 _atom_site_label
 _atom_site_symmetry_multiplicity
 _atom_site_fract_x
 _atom_site_fract_y
 _atom_site_fract_z
 _atom_site_occupancy
  Nd  Nd0  1  0.407818  0.410177  0.500000  1
  Sm  Sm1  1  0.592678  0.002436  0.500000  1
  Pa  Pa2  1  0.000062  0.587169  0.500000  1
  In  In3  1  0.998962  0.242049  0.000000  1
  In  In4  1  0.264800  0.010440  0.000000  1
  In  In5  1  0.735789  0.747212  0.000000  1
  Pt  Pt6  1  0.999019  0.978600  0.500000  1
  Pt  Pt7  1  0.696506  0.357903  0.000000  1
  Pt  Pt8  1  0.304366  0.664013  0.000000  1
