# generated using pymatgen
data_Hf2MnNi2P3
_symmetry_space_group_name_H-M   'P 1'
_cell_length_a   3.57439100
_cell_length_b   10.08365200
_cell_length_c   12.36469300
_cell_angle_alpha   90.00000000
_cell_angle_beta   90.00000000
_cell_angle_gamma   90.00000000
_symmetry_Int_Tables_number   1
_chemical_formula_structural   Hf2MnNi2P3
_chemical_formula_sum   'Hf8 Mn4 Ni8 P12'
_cell_volume   445.65957826
_cell_formula_units_Z   4
loop_
 _symmetry_equiv_pos_site_id
 _symmetry_equiv_pos_as_xyz
  1  'x, y, z'
loop_
 _atom_site_type_symbol
 _atom_site_label
 _atom_site_symmetry_multiplicity
 _atom_site_fract_x
 _atom_site_fract_y
 _atom_site_fract_z
 _atom_site_occupancy
  Hf  Hf0  1  0.250000  0.338169  0.996299  1
  Hf  Hf1  1  0.250000  0.161831  0.496299  1
  Hf  Hf2  1  0.750000  0.661831  0.003701  1
  Hf  Hf3  1  0.750000  0.838169  0.503701  1
  Hf  Hf4  1  0.250000  0.425385  0.708109  1
  Hf  Hf5  1  0.250000  0.074615  0.208109  1
  Hf  Hf6  1  0.750000  0.574615  0.291891  1
  Hf  Hf7  1  0.750000  0.925385  0.791891  1
  Mn  Mn8  1  0.250000  0.906396  0.984213  1
  Mn  Mn9  1  0.250000  0.593604  0.484213  1
  Mn  Mn10  1  0.750000  0.093604  0.015787  1
  Mn  Mn11  1  0.750000  0.406396  0.515787  1
  Ni  Ni12  1  0.250000  0.135125  0.716997  1
  Ni  Ni13  1  0.250000  0.364875  0.216997  1
  Ni  Ni14  1  0.750000  0.864875  0.283003  1
  Ni  Ni15  1  0.750000  0.635125  0.783003  1
  Ni  Ni16  1  0.250000  0.768271  0.166581  1
  Ni  Ni17  1  0.250000  0.731729  0.666581  1
  Ni  Ni18  1  0.750000  0.231729  0.833419  1
  Ni  Ni19  1  0.750000  0.268271  0.333419  1
  P  P20  1  0.250000  0.103683  0.895660  1
  P  P21  1  0.250000  0.396317  0.395660  1
  P  P22  1  0.750000  0.896317  0.104340  1
  P  P23  1  0.750000  0.603683  0.604340  1
  P  P24  1  0.250000  0.740146  0.856525  1
  P  P25  1  0.250000  0.759854  0.356525  1
  P  P26  1  0.750000  0.259854  0.143475  1
  P  P27  1  0.750000  0.240146  0.643475  1
  P  P28  1  0.250000  0.551945  0.127428  1
  P  P29  1  0.250000  0.948055  0.627428  1
  P  P30  1  0.750000  0.448055  0.872572  1
  P  P31  1  0.750000  0.051945  0.372572  1
