# generated using pymatgen
data_Zr10Ga3SnSb4
_symmetry_space_group_name_H-M   'P 1'
_cell_length_a   8.64996200
_cell_length_b   8.66492444
_cell_length_c   5.88365700
_cell_angle_alpha   90.00000000
_cell_angle_beta   90.00000000
_cell_angle_gamma   120.09894495
_symmetry_Int_Tables_number   1
_chemical_formula_structural   Zr10Ga3SnSb4
_chemical_formula_sum   'Zr10 Ga3 Sn1 Sb4'
_cell_volume   381.52507561
_cell_formula_units_Z   1
loop_
 _symmetry_equiv_pos_site_id
 _symmetry_equiv_pos_as_xyz
  1  'x, y, z'
loop_
 _atom_site_type_symbol
 _atom_site_label
 _atom_site_symmetry_multiplicity
 _atom_site_fract_x
 _atom_site_fract_y
 _atom_site_fract_z
 _atom_site_occupancy
  Zr  Zr0  1  0.277367  0.277916  0.750000  1
  Zr  Zr1  1  0.735184  0.735942  0.250000  1
  Zr  Zr2  1  0.725403  0.989425  0.750000  1
  Zr  Zr3  1  0.000290  0.265719  0.250000  1
  Zr  Zr4  1  0.335605  0.665025  0.503103  1
  Zr  Zr5  1  0.666570  0.336774  0.502770  1
  Zr  Zr6  1  0.989444  0.724053  0.750000  1
  Zr  Zr7  1  0.335605  0.665025  0.996897  1
  Zr  Zr8  1  0.265935  0.001161  0.250000  1
  Zr  Zr9  1  0.666570  0.336774  0.997230  1
  Ga  Ga10  1  0.002275  0.001242  0.508376  1
  Ga  Ga11  1  0.613308  0.612954  0.750000  1
  Ga  Ga12  1  0.002275  0.001242  0.991624  1
  Sn  Sn13  1  0.382294  0.998062  0.750000  1
  Sb  Sb14  1  0.609468  0.000276  0.250000  1
  Sb  Sb15  1  0.393458  0.392824  0.250000  1
  Sb  Sb16  1  0.998104  0.383432  0.750000  1
  Sb  Sb17  1  0.000843  0.612152  0.250000  1
