# generated using pymatgen
data_Ho4GaCo4
_symmetry_space_group_name_H-M   'P 1'
_cell_length_a   5.44411262
_cell_length_b   5.44411268
_cell_length_c   8.82451114
_cell_angle_alpha   70.72807624
_cell_angle_beta   70.72807501
_cell_angle_gamma   43.29683721
_symmetry_Int_Tables_number   1
_chemical_formula_structural   Ho4GaCo4
_chemical_formula_sum   'Ho4 Ga1 Co4'
_cell_volume   167.67202372
_cell_formula_units_Z   1
loop_
 _symmetry_equiv_pos_site_id
 _symmetry_equiv_pos_as_xyz
  1  'x, y, z'
loop_
 _atom_site_type_symbol
 _atom_site_label
 _atom_site_symmetry_multiplicity
 _atom_site_fract_x
 _atom_site_fract_y
 _atom_site_fract_z
 _atom_site_occupancy
  Ho  Ho0  1  0.746047  0.746047  0.661859  1
  Ho  Ho1  1  0.253953  0.253953  0.338141  1
  Ho  Ho2  1  0.391308  0.391308  0.885338  1
  Ho  Ho3  1  0.608692  0.608692  0.114662  1
  Ga  Ga4  1  0.500000  0.500000  0.500000  1
  Co  Co5  1  0.037624  0.037624  0.645642  1
  Co  Co6  1  0.962376  0.962376  0.354358  1
  Co  Co7  1  0.094501  0.094501  0.880336  1
  Co  Co8  1  0.905499  0.905499  0.119664  1
