# generated using pymatgen
data_Er4LuAsPb3
_symmetry_space_group_name_H-M   'P 1'
_cell_length_a   9.12911000
_cell_length_b   9.12910948
_cell_length_c   6.76540600
_cell_angle_alpha   90.00000000
_cell_angle_beta   90.00000000
_cell_angle_gamma   120.00000912
_symmetry_Int_Tables_number   1
_chemical_formula_structural   Er4LuAsPb3
_chemical_formula_sum   'Er8 Lu2 As2 Pb6'
_cell_volume   488.29391429
_cell_formula_units_Z   2
loop_
 _symmetry_equiv_pos_site_id
 _symmetry_equiv_pos_as_xyz
  1  'x, y, z'
loop_
 _atom_site_type_symbol
 _atom_site_label
 _atom_site_symmetry_multiplicity
 _atom_site_fract_x
 _atom_site_fract_y
 _atom_site_fract_z
 _atom_site_occupancy
  Er  Er0  1  0.755479  0.755479  0.750504  1
  Er  Er1  1  0.244521  0.000000  0.750504  1
  Er  Er2  1  0.000000  0.244521  0.750504  1
  Er  Er3  1  0.244521  0.244521  0.249496  1
  Er  Er4  1  0.755479  0.000000  0.249496  1
  Er  Er5  1  0.000000  0.755479  0.249496  1
  Er  Er6  1  0.333333  0.666667  0.500000  1
  Er  Er7  1  0.666667  0.333333  0.500000  1
  Lu  Lu8  1  0.666667  0.333333  0.000000  1
  Lu  Lu9  1  0.333333  0.666667  0.000000  1
  As  As10  1  0.000000  0.000000  0.000000  1
  As  As11  1  0.000000  0.000000  0.500000  1
  Pb  Pb12  1  0.399547  0.399547  0.751703  1
  Pb  Pb13  1  0.600453  0.000000  0.751703  1
  Pb  Pb14  1  0.000000  0.600453  0.751703  1
  Pb  Pb15  1  0.600453  0.600453  0.248297  1
  Pb  Pb16  1  0.399547  0.000000  0.248297  1
  Pb  Pb17  1  0.000000  0.399547  0.248297  1
