# generated using pymatgen
data_Y2Sc2ReB12Os
_symmetry_space_group_name_H-M   'P 1'
_cell_length_a   3.58069400
_cell_length_b   8.99087137
_cell_length_c   11.39133056
_cell_angle_alpha   90.06403929
_cell_angle_beta   90.00000000
_cell_angle_gamma   90.00000000
_symmetry_Int_Tables_number   1
_chemical_formula_structural   Y2Sc2ReB12Os
_chemical_formula_sum   'Y4 Sc4 Re2 B24 Os2'
_cell_volume   366.72724501
_cell_formula_units_Z   2
loop_
 _symmetry_equiv_pos_site_id
 _symmetry_equiv_pos_as_xyz
  1  'x, y, z'
loop_
 _atom_site_type_symbol
 _atom_site_label
 _atom_site_symmetry_multiplicity
 _atom_site_fract_x
 _atom_site_fract_y
 _atom_site_fract_z
 _atom_site_occupancy
  Y  Y0  1  0.000000  0.319187  0.413254  1
  Y  Y1  1  0.000000  0.680813  0.586746  1
  Y  Y2  1  0.000000  0.822342  0.085287  1
  Y  Y3  1  0.000000  0.177658  0.914713  1
  Sc  Sc4  1  0.000000  0.945266  0.371727  1
  Sc  Sc5  1  0.000000  0.054734  0.628273  1
  Sc  Sc6  1  0.000000  0.443067  0.128129  1
  Sc  Sc7  1  0.000000  0.556933  0.871871  1
  Re  Re8  1  0.000000  0.140108  0.182048  1
  Re  Re9  1  0.000000  0.859892  0.817952  1
  B  B10  1  0.500000  0.554843  0.432515  1
  B  B11  1  0.500000  0.445157  0.567485  1
  B  B12  1  0.500000  0.054094  0.067448  1
  B  B13  1  0.500000  0.945906  0.932552  1
  B  B14  1  0.500000  0.753274  0.418055  1
  B  B15  1  0.500000  0.246726  0.581945  1
  B  B16  1  0.500000  0.253463  0.081676  1
  B  B17  1  0.500000  0.746537  0.918324  1
  B  B18  1  0.500000  0.793421  0.265381  1
  B  B19  1  0.500000  0.206579  0.734619  1
  B  B20  1  0.500000  0.294424  0.235116  1
  B  B21  1  0.500000  0.705576  0.764884  1
  B  B22  1  0.500000  0.628456  0.183413  1
  B  B23  1  0.500000  0.371544  0.816587  1
  B  B24  1  0.500000  0.128771  0.317203  1
  B  B25  1  0.500000  0.871229  0.682797  1
  B  B26  1  0.500000  0.981116  0.214619  1
  B  B27  1  0.500000  0.018884  0.785381  1
  B  B28  1  0.500000  0.481602  0.286060  1
  B  B29  1  0.500000  0.518398  0.713940  1
  B  B30  1  0.500000  0.596963  0.026424  1
  B  B31  1  0.500000  0.403037  0.973576  1
  B  B32  1  0.500000  0.097594  0.473796  1
  B  B33  1  0.500000  0.902406  0.526204  1
  Os  Os34  1  0.000000  0.639594  0.318901  1
  Os  Os35  1  0.000000  0.360406  0.681099  1
