# generated using pymatgen
data_NaSbTeO6
_symmetry_space_group_name_H-M   'P 1'
_cell_length_a   7.28438500
_cell_length_b   7.28438500
_cell_length_c   10.28668600
_cell_angle_alpha   90.00000000
_cell_angle_beta   90.00000000
_cell_angle_gamma   90.00000000
_symmetry_Int_Tables_number   1
_chemical_formula_structural   NaSbTeO6
_chemical_formula_sum   'Na4 Sb4 Te4 O24'
_cell_volume   545.83485674
_cell_formula_units_Z   4
loop_
 _symmetry_equiv_pos_site_id
 _symmetry_equiv_pos_as_xyz
  1  'x, y, z'
loop_
 _atom_site_type_symbol
 _atom_site_label
 _atom_site_symmetry_multiplicity
 _atom_site_fract_x
 _atom_site_fract_y
 _atom_site_fract_z
 _atom_site_occupancy
  Na  Na0  1  0.500000  0.236725  0.000000  1
  Na  Na1  1  0.763275  0.500000  0.250000  1
  Na  Na2  1  0.500000  0.763275  0.500000  1
  Na  Na3  1  0.236725  0.500000  0.750000  1
  Sb  Sb4  1  0.500000  0.745699  0.000000  1
  Sb  Sb5  1  0.254301  0.500000  0.250000  1
  Sb  Sb6  1  0.500000  0.254301  0.500000  1
  Sb  Sb7  1  0.745699  0.500000  0.750000  1
  Te  Te8  1  0.000000  0.748555  0.000000  1
  Te  Te9  1  0.251445  0.000000  0.250000  1
  Te  Te10  1  0.000000  0.251445  0.500000  1
  Te  Te11  1  0.748555  0.000000  0.750000  1
  O  O12  1  0.542272  0.542272  0.875000  1
  O  O13  1  0.945738  0.945738  0.875000  1
  O  O14  1  0.554656  0.950637  0.876470  1
  O  O15  1  0.950637  0.554656  0.873530  1
  O  O16  1  0.740010  0.243951  0.824139  1
  O  O17  1  0.259990  0.243951  0.175861  1
  O  O18  1  0.049363  0.554656  0.126470  1
  O  O19  1  0.457728  0.542272  0.125000  1
  O  O20  1  0.054262  0.945738  0.125000  1
  O  O21  1  0.445344  0.950637  0.123530  1
  O  O22  1  0.756049  0.740010  0.074139  1
  O  O23  1  0.756049  0.259990  0.425861  1
  O  O24  1  0.054262  0.054262  0.375000  1
  O  O25  1  0.049363  0.445344  0.373530  1
  O  O26  1  0.457728  0.457728  0.375000  1
  O  O27  1  0.445344  0.049363  0.376470  1
  O  O28  1  0.259990  0.756049  0.324139  1
  O  O29  1  0.740010  0.756049  0.675861  1
  O  O30  1  0.945738  0.054262  0.625000  1
  O  O31  1  0.554656  0.049363  0.623530  1
  O  O32  1  0.542272  0.457728  0.625000  1
  O  O33  1  0.950637  0.445344  0.626470  1
  O  O34  1  0.243951  0.259990  0.574139  1
  O  O35  1  0.243951  0.740010  0.925861  1
