# generated using pymatgen
data_La5Nd5Sn5BiCl2
_symmetry_space_group_name_H-M   'P 1'
_cell_length_a   9.61980113
_cell_length_b   9.61145636
_cell_length_c   6.79521700
_cell_angle_alpha   90.00000000
_cell_angle_beta   90.00000000
_cell_angle_gamma   120.23171300
_symmetry_Int_Tables_number   1
_chemical_formula_structural   La5Nd5Sn5BiCl2
_chemical_formula_sum   'La5 Nd5 Sn5 Bi1 Cl2'
_cell_volume   542.83829807
_cell_formula_units_Z   1
loop_
 _symmetry_equiv_pos_site_id
 _symmetry_equiv_pos_as_xyz
  1  'x, y, z'
loop_
 _atom_site_type_symbol
 _atom_site_label
 _atom_site_symmetry_multiplicity
 _atom_site_fract_x
 _atom_site_fract_y
 _atom_site_fract_z
 _atom_site_occupancy
  La  La0  1  0.738674  0.738950  0.250000  1
  La  La1  1  0.000095  0.262532  0.250000  1
  La  La2  1  0.004181  0.738514  0.750000  1
  La  La3  1  0.259236  0.259393  0.750000  1
  La  La4  1  0.262551  0.000391  0.250000  1
  Nd  Nd5  1  0.667419  0.330584  0.000403  1
  Nd  Nd6  1  0.331433  0.667660  0.499598  1
  Nd  Nd7  1  0.667419  0.330584  0.499597  1
  Nd  Nd8  1  0.331433  0.667660  0.000402  1
  Nd  Nd9  1  0.738695  0.004690  0.750000  1
  Sn  Sn10  1  0.999202  0.611873  0.250000  1
  Sn  Sn11  1  0.611903  0.999148  0.250000  1
  Sn  Sn12  1  0.390962  0.000565  0.750000  1
  Sn  Sn13  1  0.998994  0.387009  0.750000  1
  Sn  Sn14  1  0.387980  0.388228  0.250000  1
  Bi  Bi15  1  0.613128  0.614223  0.750000  1
  Cl  Cl16  1  0.998346  0.998997  0.501387  1
  Cl  Cl17  1  0.998346  0.998997  0.998613  1
