# generated using pymatgen
data_Gd3HoMg2Mn2O12
_symmetry_space_group_name_H-M   'P 1'
_cell_length_a   5.33321077
_cell_length_b   5.59063999
_cell_length_c   7.65130293
_cell_angle_alpha   90.04836860
_cell_angle_beta   89.99523492
_cell_angle_gamma   89.95214154
_symmetry_Int_Tables_number   1
_chemical_formula_structural   Gd3HoMg2Mn2O12
_chemical_formula_sum   'Gd3 Ho1 Mg2 Mn2 O12'
_cell_volume   228.13155613
_cell_formula_units_Z   1
loop_
 _symmetry_equiv_pos_site_id
 _symmetry_equiv_pos_as_xyz
  1  'x, y, z'
loop_
 _atom_site_type_symbol
 _atom_site_label
 _atom_site_symmetry_multiplicity
 _atom_site_fract_x
 _atom_site_fract_y
 _atom_site_fract_z
 _atom_site_occupancy
  Gd  Gd0  1  0.984601  0.062997  0.251022  1
  Gd  Gd1  1  0.484427  0.438382  0.750780  1
  Gd  Gd2  1  0.016430  0.936981  0.748831  1
  Ho  Ho3  1  0.517145  0.566077  0.248575  1
  Mg  Mg4  1  0.500173  0.001499  0.000986  1
  Mg  Mg5  1  0.000084  0.500009  0.498519  1
  Mn  Mn6  1  0.499333  0.999827  0.498539  1
  Mn  Mn7  1  0.000392  0.500280  0.001573  1
  O  O8  1  0.399878  0.960612  0.258744  1
  O  O9  1  0.109585  0.466279  0.241025  1
  O  O10  1  0.600033  0.034155  0.740509  1
  O  O11  1  0.900830  0.532490  0.759580  1
  O  O12  1  0.809949  0.787536  0.057195  1
  O  O13  1  0.683840  0.293025  0.441982  1
  O  O14  1  0.205853  0.189696  0.548808  1
  O  O15  1  0.292881  0.690990  0.951278  1
  O  O16  1  0.185925  0.209359  0.946356  1
  O  O17  1  0.312743  0.710193  0.553586  1
  O  O18  1  0.790576  0.807103  0.448062  1
  O  O19  1  0.705323  0.312509  0.054051  1
