# generated using pymatgen
data_Li6Nd2PaN6
_symmetry_space_group_name_H-M   'P 1'
_cell_length_a   6.28017000
_cell_length_b   6.28017207
_cell_length_c   5.52042100
_cell_angle_alpha   90.00000000
_cell_angle_beta   90.00000000
_cell_angle_gamma   120.00001015
_symmetry_Int_Tables_number   1
_chemical_formula_structural   Li6Nd2PaN6
_chemical_formula_sum   'Li6 Nd2 Pa1 N6'
_cell_volume   188.55833294
_cell_formula_units_Z   1
loop_
 _symmetry_equiv_pos_site_id
 _symmetry_equiv_pos_as_xyz
  1  'x, y, z'
loop_
 _atom_site_type_symbol
 _atom_site_label
 _atom_site_symmetry_multiplicity
 _atom_site_fract_x
 _atom_site_fract_y
 _atom_site_fract_z
 _atom_site_occupancy
  Li  Li0  1  0.939741  0.603334  0.594237  1
  Li  Li1  1  0.396666  0.336407  0.594237  1
  Li  Li2  1  0.663593  0.060259  0.594237  1
  Li  Li3  1  0.034106  0.328082  0.400660  1
  Li  Li4  1  0.671918  0.706023  0.400660  1
  Li  Li5  1  0.293977  0.965894  0.400660  1
  Nd  Nd6  1  0.000000  0.000000  0.974660  1
  Nd  Nd7  1  0.333333  0.666667  0.979788  1
  Pa  Pa8  1  0.666667  0.333333  0.029377  1
  N  N9  1  0.981219  0.648157  0.235945  1
  N  N10  1  0.351843  0.333063  0.235945  1
  N  N11  1  0.666937  0.018781  0.235945  1
  N  N12  1  0.965378  0.332601  0.774550  1
  N  N13  1  0.667399  0.632777  0.774550  1
  N  N14  1  0.367223  0.034622  0.774550  1
