# generated using pymatgen
data_Li4Lu3ZrPt4
_symmetry_space_group_name_H-M   'P 1'
_cell_length_a   3.88311000
_cell_length_b   6.88158319
_cell_length_c   8.39014651
_cell_angle_alpha   90.43921757
_cell_angle_beta   90.00000000
_cell_angle_gamma   90.00000000
_symmetry_Int_Tables_number   1
_chemical_formula_structural   Li4Lu3ZrPt4
_chemical_formula_sum   'Li4 Lu3 Zr1 Pt4'
_cell_volume   224.19444194
_cell_formula_units_Z   1
loop_
 _symmetry_equiv_pos_site_id
 _symmetry_equiv_pos_as_xyz
  1  'x, y, z'
loop_
 _atom_site_type_symbol
 _atom_site_label
 _atom_site_symmetry_multiplicity
 _atom_site_fract_x
 _atom_site_fract_y
 _atom_site_fract_z
 _atom_site_occupancy
  Li  Li0  1  0.250000  0.882272  0.944436  1
  Li  Li1  1  0.250000  0.377684  0.556707  1
  Li  Li2  1  0.750000  0.122222  0.057372  1
  Li  Li3  1  0.750000  0.621005  0.441785  1
  Lu  Lu4  1  0.250000  0.448600  0.179223  1
  Lu  Lu5  1  0.750000  0.051668  0.673808  1
  Lu  Lu6  1  0.750000  0.555964  0.824705  1
  Zr  Zr7  1  0.250000  0.942176  0.324309  1
  Pt  Pt8  1  0.250000  0.262264  0.870958  1
  Pt  Pt9  1  0.250000  0.761841  0.621799  1
  Pt  Pt10  1  0.750000  0.748875  0.135946  1
  Pt  Pt11  1  0.750000  0.225431  0.368953  1
