# generated using pymatgen
data_CeNd2Cd3Ir2Au
_symmetry_space_group_name_H-M   'P 1'
_cell_length_a   7.68356993
_cell_length_b   7.98847190
_cell_length_c   3.96806000
_cell_angle_alpha   90.00000000
_cell_angle_beta   90.00000000
_cell_angle_gamma   121.32160426
_symmetry_Int_Tables_number   1
_chemical_formula_structural   CeNd2Cd3Ir2Au
_chemical_formula_sum   'Ce1 Nd2 Cd3 Ir2 Au1'
_cell_volume   208.06379923
_cell_formula_units_Z   1
loop_
 _symmetry_equiv_pos_site_id
 _symmetry_equiv_pos_as_xyz
  1  'x, y, z'
loop_
 _atom_site_type_symbol
 _atom_site_label
 _atom_site_symmetry_multiplicity
 _atom_site_fract_x
 _atom_site_fract_y
 _atom_site_fract_z
 _atom_site_occupancy
  Ce  Ce0  1  0.000000  0.424329  0.000000  1
  Nd  Nd1  1  0.587359  0.591044  0.000000  1
  Nd  Nd2  1  0.412641  0.003685  0.000000  1
  Cd  Cd3  1  0.000000  0.746353  0.500000  1
  Cd  Cd4  1  0.265277  0.262075  0.500000  1
  Cd  Cd5  1  0.734723  0.996798  0.500000  1
  Ir  Ir6  1  0.310183  0.642049  0.500000  1
  Ir  Ir7  1  0.689817  0.331865  0.500000  1
  Au  Au8  1  0.000000  0.001801  0.000000  1
