# generated using pymatgen
data_La(Tc2Ge)2
_symmetry_space_group_name_H-M   'P 1'
_cell_length_a   7.55630953
_cell_length_b   7.55630834
_cell_length_c   4.16821300
_cell_angle_alpha   90.00000000
_cell_angle_beta   90.00000000
_cell_angle_gamma   147.73322633
_symmetry_Int_Tables_number   1
_chemical_formula_structural   La(Tc2Ge)2
_chemical_formula_sum   'La1 Tc4 Ge2'
_cell_volume   127.05694031
_cell_formula_units_Z   1
loop_
 _symmetry_equiv_pos_site_id
 _symmetry_equiv_pos_as_xyz
  1  'x, y, z'
loop_
 _atom_site_type_symbol
 _atom_site_label
 _atom_site_symmetry_multiplicity
 _atom_site_fract_x
 _atom_site_fract_y
 _atom_site_fract_z
 _atom_site_occupancy
  La  La0  1  0.000000  0.000000  0.000000  1
  Tc  Tc1  1  0.700042  0.299960  0.000000  1
  Tc  Tc2  1  0.299960  0.700042  0.000000  1
  Tc  Tc3  1  0.803611  0.196390  0.499999  1
  Tc  Tc4  1  0.196390  0.803611  0.499999  1
  Ge  Ge5  1  0.590848  0.409154  0.499999  1
  Ge  Ge6  1  0.409154  0.590848  0.499999  1
