# generated using pymatgen
data_NdTh7(Si3Ir)4
_symmetry_space_group_name_H-M   'P 1'
_cell_length_a   8.24229900
_cell_length_b   8.24229934
_cell_length_c   8.46724000
_cell_angle_alpha   90.00000000
_cell_angle_beta   90.00000000
_cell_angle_gamma   119.99999463
_symmetry_Int_Tables_number   1
_chemical_formula_structural   NdTh7(Si3Ir)4
_chemical_formula_sum   'Nd1 Th7 Si12 Ir4'
_cell_volume   498.16048215
_cell_formula_units_Z   1
loop_
 _symmetry_equiv_pos_site_id
 _symmetry_equiv_pos_as_xyz
  1  'x, y, z'
loop_
 _atom_site_type_symbol
 _atom_site_label
 _atom_site_symmetry_multiplicity
 _atom_site_fract_x
 _atom_site_fract_y
 _atom_site_fract_z
 _atom_site_occupancy
  Nd  Nd0  1  0.000000  0.000000  0.250000  1
  Th  Th1  1  0.499593  0.500407  0.750000  1
  Th  Th2  1  0.500410  0.499590  0.250000  1
  Th  Th3  1  0.000812  0.500407  0.750000  1
  Th  Th4  1  0.999180  0.499590  0.250000  1
  Th  Th5  1  0.499593  0.999188  0.750000  1
  Th  Th6  1  0.500410  0.000820  0.250000  1
  Th  Th7  1  0.000000  0.000000  0.750000  1
  Si  Si8  1  0.833807  0.166193  0.999107  1
  Si  Si9  1  0.166221  0.833779  0.999328  1
  Si  Si10  1  0.332385  0.166193  0.999107  1
  Si  Si11  1  0.166221  0.833779  0.500672  1
  Si  Si12  1  0.667556  0.833779  0.999328  1
  Si  Si13  1  0.833807  0.166193  0.500893  1
  Si  Si14  1  0.833807  0.667615  0.999107  1
  Si  Si15  1  0.667556  0.833779  0.500672  1
  Si  Si16  1  0.166221  0.332444  0.999328  1
  Si  Si17  1  0.332385  0.166193  0.500893  1
  Si  Si18  1  0.166221  0.332444  0.500672  1
  Si  Si19  1  0.833807  0.667615  0.500893  1
  Ir  Ir20  1  0.666667  0.333333  0.001146  1
  Ir  Ir21  1  0.333333  0.666667  0.003033  1
  Ir  Ir22  1  0.333333  0.666667  0.496967  1
  Ir  Ir23  1  0.666667  0.333333  0.498854  1
