# generated using pymatgen
data_Ba4Ho(OsO6)2
_symmetry_space_group_name_H-M   'P 1'
_cell_length_a   10.10717428
_cell_length_b   10.10717468
_cell_length_c   10.10717481
_cell_angle_alpha   33.89244364
_cell_angle_beta   33.89243845
_cell_angle_gamma   33.89243976
_symmetry_Int_Tables_number   1
_chemical_formula_structural   Ba4Ho(OsO6)2
_chemical_formula_sum   'Ba4 Ho1 Os2 O12'
_cell_volume   286.13675657
_cell_formula_units_Z   1
loop_
 _symmetry_equiv_pos_site_id
 _symmetry_equiv_pos_as_xyz
  1  'x, y, z'
loop_
 _atom_site_type_symbol
 _atom_site_label
 _atom_site_symmetry_multiplicity
 _atom_site_fract_x
 _atom_site_fract_y
 _atom_site_fract_z
 _atom_site_occupancy
  Ba  Ba0  1  0.711806  0.711806  0.711806  1
  Ba  Ba1  1  0.288194  0.288194  0.288194  1
  Ba  Ba2  1  0.866436  0.866436  0.866436  1
  Ba  Ba3  1  0.133564  0.133564  0.133564  1
  Ho  Ho4  1  0.000000  0.000000  0.000000  1
  Os  Os5  1  0.579330  0.579330  0.579330  1
  Os  Os6  1  0.420670  0.420670  0.420670  1
  O  O7  1  0.222798  0.689487  0.222798  1
  O  O8  1  0.222798  0.222798  0.689487  1
  O  O9  1  0.689487  0.222798  0.222798  1
  O  O10  1  0.777202  0.310513  0.777202  1
  O  O11  1  0.777202  0.777202  0.310513  1
  O  O12  1  0.310513  0.777202  0.777202  1
  O  O13  1  0.388252  0.858354  0.388252  1
  O  O14  1  0.388252  0.388252  0.858354  1
  O  O15  1  0.858354  0.388252  0.388252  1
  O  O16  1  0.611748  0.141646  0.611748  1
  O  O17  1  0.611748  0.611748  0.141646  1
  O  O18  1  0.141646  0.611748  0.611748  1
