# generated using pymatgen
data_Ce3CoAs2Ru3
_symmetry_space_group_name_H-M   'P 1'
_cell_length_a   6.83288300
_cell_length_b   6.83288339
_cell_length_c   4.14531700
_cell_angle_alpha   90.00000000
_cell_angle_beta   90.00000000
_cell_angle_gamma   119.99999326
_symmetry_Int_Tables_number   1
_chemical_formula_structural   Ce3CoAs2Ru3
_chemical_formula_sum   'Ce3 Co1 As2 Ru3'
_cell_volume   167.60864000
_cell_formula_units_Z   1
loop_
 _symmetry_equiv_pos_site_id
 _symmetry_equiv_pos_as_xyz
  1  'x, y, z'
loop_
 _atom_site_type_symbol
 _atom_site_label
 _atom_site_symmetry_multiplicity
 _atom_site_fract_x
 _atom_site_fract_y
 _atom_site_fract_z
 _atom_site_occupancy
  Ce  Ce0  1  0.372694  0.372694  0.500000  1
  Ce  Ce1  1  0.627306  0.000000  0.500000  1
  Ce  Ce2  1  0.000000  0.627306  0.500000  1
  Co  Co3  1  0.000000  0.000000  0.500000  1
  As  As4  1  0.666667  0.333333  0.000000  1
  As  As5  1  0.333333  0.666667  0.000000  1
  Ru  Ru6  1  0.000000  0.235841  0.000000  1
  Ru  Ru7  1  0.235841  0.000000  0.000000  1
  Ru  Ru8  1  0.764159  0.764159  0.000000  1
