# generated using pymatgen
data_Ho2FeSi14Ir5
_symmetry_space_group_name_H-M   'P 1'
_cell_length_a   7.96783960
_cell_length_b   7.96783935
_cell_length_c   7.97140441
_cell_angle_alpha   56.84932828
_cell_angle_beta   56.84932955
_cell_angle_gamma   56.80337004
_symmetry_Int_Tables_number   1
_chemical_formula_structural   Ho2FeSi14Ir5
_chemical_formula_sum   'Ho2 Fe1 Si14 Ir5'
_cell_volume   331.70529468
_cell_formula_units_Z   1
loop_
 _symmetry_equiv_pos_site_id
 _symmetry_equiv_pos_as_xyz
  1  'x, y, z'
loop_
 _atom_site_type_symbol
 _atom_site_label
 _atom_site_symmetry_multiplicity
 _atom_site_fract_x
 _atom_site_fract_y
 _atom_site_fract_z
 _atom_site_occupancy
  Ho  Ho0  1  0.001405  0.002461  0.996643  1
  Ho  Ho1  1  0.497539  0.498595  0.503357  1
  Fe  Fe2  1  0.073254  0.426746  0.750000  1
  Si  Si3  1  0.762359  0.737641  0.750000  1
  Si  Si4  1  0.249110  0.250890  0.250000  1
  Si  Si5  1  0.850814  0.066119  0.671297  1
  Si  Si6  1  0.671503  0.851577  0.064249  1
  Si  Si7  1  0.065193  0.663213  0.846598  1
  Si  Si8  1  0.648423  0.828497  0.435751  1
  Si  Si9  1  0.433881  0.649186  0.828703  1
  Si  Si10  1  0.836787  0.434807  0.653402  1
  Si  Si11  1  0.168348  0.562881  0.363471  1
  Si  Si12  1  0.565730  0.351314  0.172229  1
  Si  Si13  1  0.341977  0.179560  0.573014  1
  Si  Si14  1  0.937119  0.331652  0.136529  1
  Si  Si15  1  0.320440  0.158023  0.926986  1
  Si  Si16  1  0.148686  0.934270  0.327771  1
  Ir  Ir17  1  0.249103  0.928716  0.572326  1
  Ir  Ir18  1  0.571284  0.250897  0.927674  1
  Ir  Ir19  1  0.927802  0.572198  0.250000  1
  Ir  Ir20  1  0.428831  0.749588  0.071364  1
  Ir  Ir21  1  0.750412  0.071169  0.428636  1
