# generated using pymatgen
data_Cd3Ru3RhPbO14
_symmetry_space_group_name_H-M   'P 1'
_cell_length_a   7.29823087
_cell_length_b   7.27668414
_cell_length_c   7.29823008
_cell_angle_alpha   59.60626075
_cell_angle_beta   59.69107642
_cell_angle_gamma   59.60626671
_symmetry_Int_Tables_number   1
_chemical_formula_structural   Cd3Ru3RhPbO14
_chemical_formula_sum   'Cd3 Ru3 Rh1 Pb1 O14'
_cell_volume   271.78859165
_cell_formula_units_Z   1
loop_
 _symmetry_equiv_pos_site_id
 _symmetry_equiv_pos_as_xyz
  1  'x, y, z'
loop_
 _atom_site_type_symbol
 _atom_site_label
 _atom_site_symmetry_multiplicity
 _atom_site_fract_x
 _atom_site_fract_y
 _atom_site_fract_z
 _atom_site_occupancy
  Cd  Cd0  1  0.125000  0.625000  0.125000  1
  Cd  Cd1  1  0.125000  0.125000  0.625000  1
  Cd  Cd2  1  0.625000  0.125000  0.125000  1
  Ru  Ru3  1  0.625000  0.625000  0.125000  1
  Ru  Ru4  1  0.125000  0.625000  0.625000  1
  Ru  Ru5  1  0.625000  0.625000  0.625000  1
  Rh  Rh6  1  0.625000  0.125000  0.625000  1
  Pb  Pb7  1  0.125000  0.125000  0.125000  1
  O  O8  1  0.696295  0.679101  0.310578  1
  O  O9  1  0.939422  0.570899  0.553705  1
  O  O10  1  0.541608  0.951446  0.957070  1
  O  O11  1  0.957070  0.951446  0.541608  1
  O  O12  1  0.944016  0.554953  0.944016  1
  O  O13  1  0.549490  0.947226  0.549490  1
  O  O14  1  0.305984  0.695047  0.305984  1
  O  O15  1  0.310578  0.679101  0.696295  1
  O  O16  1  0.708392  0.298554  0.292930  1
  O  O17  1  0.700510  0.302774  0.700510  1
  O  O18  1  0.553705  0.570899  0.939422  1
  O  O19  1  0.292930  0.298554  0.708392  1
  O  O20  1  0.253915  0.259432  0.253915  1
  O  O21  1  0.996085  0.990568  0.996085  1
