# generated using pymatgen
data_Y19TmCd6RuPt
_symmetry_space_group_name_H-M   'P 1'
_cell_length_a   9.68085500
_cell_length_b   9.68085494
_cell_length_c   9.84042100
_cell_angle_alpha   90.00000000
_cell_angle_beta   90.00000000
_cell_angle_gamma   120.00000363
_symmetry_Int_Tables_number   1
_chemical_formula_structural   Y19TmCd6RuPt
_chemical_formula_sum   'Y19 Tm1 Cd6 Ru1 Pt1'
_cell_volume   798.67800190
_cell_formula_units_Z   1
loop_
 _symmetry_equiv_pos_site_id
 _symmetry_equiv_pos_as_xyz
  1  'x, y, z'
loop_
 _atom_site_type_symbol
 _atom_site_label
 _atom_site_symmetry_multiplicity
 _atom_site_fract_x
 _atom_site_fract_y
 _atom_site_fract_z
 _atom_site_occupancy
  Y  Y0  1  0.000000  0.000000  0.000808  1
  Y  Y1  1  0.207589  0.792411  0.441940  1
  Y  Y2  1  0.207589  0.415179  0.441940  1
  Y  Y3  1  0.584821  0.792411  0.441940  1
  Y  Y4  1  0.791033  0.208967  0.560533  1
  Y  Y5  1  0.791033  0.582065  0.560533  1
  Y  Y6  1  0.417935  0.208967  0.560533  1
  Y  Y7  1  0.790217  0.209783  0.939449  1
  Y  Y8  1  0.790217  0.580433  0.939449  1
  Y  Y9  1  0.419567  0.209783  0.939449  1
  Y  Y10  1  0.208351  0.791649  0.058021  1
  Y  Y11  1  0.208351  0.416702  0.058021  1
  Y  Y12  1  0.583298  0.791649  0.058021  1
  Y  Y13  1  0.542397  0.457603  0.250062  1
  Y  Y14  1  0.542397  0.084792  0.250062  1
  Y  Y15  1  0.915208  0.457603  0.250062  1
  Y  Y16  1  0.458842  0.541158  0.749987  1
  Y  Y17  1  0.458842  0.917684  0.749987  1
  Y  Y18  1  0.082316  0.541158  0.749987  1
  Tm  Tm19  1  0.000000  0.000000  0.499096  1
  Cd  Cd20  1  0.885619  0.114381  0.251110  1
  Cd  Cd21  1  0.885619  0.771239  0.251110  1
  Cd  Cd22  1  0.228761  0.114381  0.251110  1
  Cd  Cd23  1  0.114311  0.885689  0.748994  1
  Cd  Cd24  1  0.114311  0.228620  0.748994  1
  Cd  Cd25  1  0.771380  0.885689  0.748994  1
  Ru  Ru26  1  0.666667  0.333333  0.749571  1
  Pt  Pt27  1  0.333333  0.666667  0.250237  1
