# generated using pymatgen
data_Tm5In2(HgIr)2
_symmetry_space_group_name_H-M   'P 1'
_cell_length_a   3.56228800
_cell_length_b   7.87665000
_cell_length_c   18.13883400
_cell_angle_alpha   90.00000000
_cell_angle_beta   90.00000000
_cell_angle_gamma   90.00000000
_symmetry_Int_Tables_number   1
_chemical_formula_structural   Tm5In2(HgIr)2
_chemical_formula_sum   'Tm10 In4 Hg4 Ir4'
_cell_volume   508.95565269
_cell_formula_units_Z   2
loop_
 _symmetry_equiv_pos_site_id
 _symmetry_equiv_pos_as_xyz
  1  'x, y, z'
loop_
 _atom_site_type_symbol
 _atom_site_label
 _atom_site_symmetry_multiplicity
 _atom_site_fract_x
 _atom_site_fract_y
 _atom_site_fract_z
 _atom_site_occupancy
  Tm  Tm0  1  0.000000  0.500000  0.500000  1
  Tm  Tm1  1  0.000000  0.000000  0.000000  1
  Tm  Tm2  1  0.000000  0.749612  0.282271  1
  Tm  Tm3  1  0.000000  0.250388  0.717729  1
  Tm  Tm4  1  0.000000  0.750388  0.782271  1
  Tm  Tm5  1  0.000000  0.249612  0.217729  1
  Tm  Tm6  1  0.000000  0.611189  0.086894  1
  Tm  Tm7  1  0.000000  0.388811  0.913106  1
  Tm  Tm8  1  0.000000  0.888811  0.586894  1
  Tm  Tm9  1  0.000000  0.111189  0.413106  1
  In  In10  1  0.500000  0.577972  0.649058  1
  In  In11  1  0.500000  0.422028  0.350942  1
  In  In12  1  0.500000  0.922028  0.149058  1
  In  In13  1  0.500000  0.077972  0.850942  1
  Hg  Hg14  1  0.500000  0.712914  0.935897  1
  Hg  Hg15  1  0.500000  0.287086  0.064103  1
  Hg  Hg16  1  0.500000  0.787086  0.435897  1
  Hg  Hg17  1  0.500000  0.212914  0.564103  1
  Ir  Ir18  1  0.500000  0.536561  0.199476  1
  Ir  Ir19  1  0.500000  0.463439  0.800524  1
  Ir  Ir20  1  0.500000  0.963439  0.699476  1
  Ir  Ir21  1  0.500000  0.036561  0.300524  1
