# generated using pymatgen
data_Er4CdHgPd4
_symmetry_space_group_name_H-M   'P 1'
_cell_length_a   7.68065000
_cell_length_b   7.68065000
_cell_length_c   3.69766300
_cell_angle_alpha   90.00000000
_cell_angle_beta   90.00000000
_cell_angle_gamma   90.00000000
_symmetry_Int_Tables_number   1
_chemical_formula_structural   Er4CdHgPd4
_chemical_formula_sum   'Er4 Cd1 Hg1 Pd4'
_cell_volume   218.13395716
_cell_formula_units_Z   1
loop_
 _symmetry_equiv_pos_site_id
 _symmetry_equiv_pos_as_xyz
  1  'x, y, z'
loop_
 _atom_site_type_symbol
 _atom_site_label
 _atom_site_symmetry_multiplicity
 _atom_site_fract_x
 _atom_site_fract_y
 _atom_site_fract_z
 _atom_site_occupancy
  Er  Er0  1  0.681336  0.162665  0.500000  1
  Er  Er1  1  0.318664  0.837335  0.500000  1
  Er  Er2  1  0.162665  0.318664  0.500000  1
  Er  Er3  1  0.837335  0.681336  0.500000  1
  Cd  Cd4  1  0.500000  0.500000  0.000000  1
  Hg  Hg5  1  0.000000  0.000000  0.000000  1
  Pd  Pd6  1  0.133946  0.623767  0.000000  1
  Pd  Pd7  1  0.866054  0.376233  0.000000  1
  Pd  Pd8  1  0.623767  0.866054  0.000000  1
  Pd  Pd9  1  0.376233  0.133946  0.000000  1
