# generated using pymatgen
data_Cu(Te4Ir)2
_symmetry_space_group_name_H-M   'P 1'
_cell_length_a   6.51375283
_cell_length_b   6.52521940
_cell_length_c   6.67103112
_cell_angle_alpha   91.61000811
_cell_angle_beta   93.40673388
_cell_angle_gamma   90.31639325
_symmetry_Int_Tables_number   1
_chemical_formula_structural   Cu(Te4Ir)2
_chemical_formula_sum   'Cu1 Te8 Ir2'
_cell_volume   282.92313045
_cell_formula_units_Z   1
loop_
 _symmetry_equiv_pos_site_id
 _symmetry_equiv_pos_as_xyz
  1  'x, y, z'
loop_
 _atom_site_type_symbol
 _atom_site_label
 _atom_site_symmetry_multiplicity
 _atom_site_fract_x
 _atom_site_fract_y
 _atom_site_fract_z
 _atom_site_occupancy
  Cu  Cu0  1  0.500000  0.500000  0.000000  1
  Te  Te1  1  0.863206  0.124024  0.375552  1
  Te  Te2  1  0.373584  0.875027  0.121114  1
  Te  Te3  1  0.115833  0.372762  0.869660  1
  Te  Te4  1  0.637661  0.634207  0.619295  1
  Te  Te5  1  0.136794  0.875976  0.624448  1
  Te  Te6  1  0.626416  0.124973  0.878886  1
  Te  Te7  1  0.884167  0.627238  0.130340  1
  Te  Te8  1  0.362339  0.365793  0.380705  1
  Ir  Ir9  1  0.000000  0.500000  0.500000  1
  Ir  Ir10  1  0.500000  0.000000  0.500000  1
