# generated using pymatgen
data_Dy11Ho5Cd4Co3Os
_symmetry_space_group_name_H-M   'P 1'
_cell_length_a   9.51358102
_cell_length_b   9.50489740
_cell_length_c   9.57980189
_cell_angle_alpha   60.05329683
_cell_angle_beta   60.07322969
_cell_angle_gamma   59.83697469
_symmetry_Int_Tables_number   1
_chemical_formula_structural   Dy11Ho5Cd4Co3Os
_chemical_formula_sum   'Dy11 Ho5 Cd4 Co3 Os1'
_cell_volume   612.36255424
_cell_formula_units_Z   1
loop_
 _symmetry_equiv_pos_site_id
 _symmetry_equiv_pos_as_xyz
  1  'x, y, z'
loop_
 _atom_site_type_symbol
 _atom_site_label
 _atom_site_symmetry_multiplicity
 _atom_site_fract_x
 _atom_site_fract_y
 _atom_site_fract_z
 _atom_site_occupancy
  Dy  Dy0  1  0.153193  0.153461  0.536450  1
  Dy  Dy1  1  0.936634  0.937232  0.562063  1
  Dy  Dy2  1  0.312361  0.689307  0.310797  1
  Dy  Dy3  1  0.559174  0.945475  0.935624  1
  Dy  Dy4  1  0.562656  0.938218  0.561841  1
  Dy  Dy5  1  0.689418  0.688765  0.311463  1
  Dy  Dy6  1  0.559061  0.558339  0.937824  1
  Dy  Dy7  1  0.944605  0.559109  0.936123  1
  Dy  Dy8  1  0.313387  0.692630  0.684764  1
  Dy  Dy9  1  0.150939  0.150795  0.159542  1
  Dy  Dy10  1  0.311314  0.311889  0.684974  1
  Ho  Ho11  1  0.149806  0.539517  0.159058  1
  Ho  Ho12  1  0.692765  0.313529  0.684570  1
  Ho  Ho13  1  0.689419  0.312533  0.310864  1
  Ho  Ho14  1  0.937766  0.562109  0.562483  1
  Ho  Ho15  1  0.540019  0.149565  0.158764  1
  Cd  Cd16  1  0.919312  0.242424  0.918836  1
  Cd  Cd17  1  0.920046  0.920453  0.919521  1
  Cd  Cd18  1  0.919126  0.919302  0.242925  1
  Cd  Cd19  1  0.241806  0.919690  0.919055  1
  Co  Co20  1  0.358653  0.920221  0.359790  1
  Co  Co21  1  0.920119  0.358400  0.360051  1
  Co  Co22  1  0.359453  0.359185  0.360008  1
  Os  Os23  1  0.358969  0.357850  0.922616  1
