# generated using pymatgen
data_Tb8Pr3In9Au4
_symmetry_space_group_name_H-M   'P 1'
_cell_length_a   13.57383000
_cell_length_b   13.57366988
_cell_length_c   3.83809000
_cell_angle_alpha   90.00000000
_cell_angle_beta   90.00000000
_cell_angle_gamma   111.83334854
_symmetry_Int_Tables_number   1
_chemical_formula_structural   Tb8Pr3In9Au4
_chemical_formula_sum   'Tb8 Pr3 In9 Au4'
_cell_volume   656.43077327
_cell_formula_units_Z   1
loop_
 _symmetry_equiv_pos_site_id
 _symmetry_equiv_pos_as_xyz
  1  'x, y, z'
loop_
 _atom_site_type_symbol
 _atom_site_label
 _atom_site_symmetry_multiplicity
 _atom_site_fract_x
 _atom_site_fract_y
 _atom_site_fract_z
 _atom_site_occupancy
  Tb  Tb0  1  0.812478  0.812480  0.500000  1
  Tb  Tb1  1  0.187522  0.187520  0.500000  1
  Tb  Tb2  1  0.570540  0.917368  0.500000  1
  Tb  Tb3  1  0.429460  0.082632  0.500000  1
  Tb  Tb4  1  0.917391  0.570518  0.500000  1
  Tb  Tb5  1  0.082609  0.429482  0.500000  1
  Tb  Tb6  1  0.128177  0.871818  0.500000  1
  Tb  Tb7  1  0.871823  0.128182  0.500000  1
  Pr  Pr8  1  0.500000  0.500000  0.500000  1
  Pr  Pr9  1  0.340018  0.659969  0.500000  1
  Pr  Pr10  1  0.659982  0.340031  0.500000  1
  In  In11  1  0.343026  0.869105  0.000000  1
  In  In12  1  0.656974  0.130895  0.000000  1
  In  In13  1  0.869094  0.343045  0.000000  1
  In  In14  1  0.130906  0.656955  0.000000  1
  In  In15  1  0.579257  0.721711  0.000000  1
  In  In16  1  0.420743  0.278289  0.000000  1
  In  In17  1  0.721805  0.579286  0.000000  1
  In  In18  1  0.278195  0.420714  0.000000  1
  In  In19  1  0.000000  0.000000  0.000000  1
  Au  Au20  1  0.750321  0.952005  0.000000  1
  Au  Au21  1  0.249679  0.047995  0.000000  1
  Au  Au22  1  0.952031  0.750338  0.000000  1
  Au  Au23  1  0.047969  0.249662  0.000000  1
