# generated using pymatgen
data_MgBi3Ru2(RhO7)2
_symmetry_space_group_name_H-M   'P 1'
_cell_length_a   7.31581386
_cell_length_b   7.17138557
_cell_length_c   7.31581374
_cell_angle_alpha   59.68287146
_cell_angle_beta   60.44004092
_cell_angle_gamma   59.68287579
_symmetry_Int_Tables_number   1
_chemical_formula_structural   MgBi3Ru2(RhO7)2
_chemical_formula_sum   'Mg1 Bi3 Ru2 Rh2 O14'
_cell_volume   270.97190941
_cell_formula_units_Z   1
loop_
 _symmetry_equiv_pos_site_id
 _symmetry_equiv_pos_as_xyz
  1  'x, y, z'
loop_
 _atom_site_type_symbol
 _atom_site_label
 _atom_site_symmetry_multiplicity
 _atom_site_fract_x
 _atom_site_fract_y
 _atom_site_fract_z
 _atom_site_occupancy
  Mg  Mg0  1  0.125000  0.625000  0.125000  1
  Bi  Bi1  1  0.125000  0.125000  0.125000  1
  Bi  Bi2  1  0.625000  0.125000  0.125000  1
  Bi  Bi3  1  0.125000  0.125000  0.625000  1
  Ru  Ru4  1  0.625000  0.625000  0.125000  1
  Ru  Ru5  1  0.125000  0.625000  0.625000  1
  Rh  Rh6  1  0.625000  0.625000  0.625000  1
  Rh  Rh7  1  0.625000  0.125000  0.625000  1
  O  O8  1  0.238768  0.283554  0.238768  1
  O  O9  1  0.301376  0.705432  0.301376  1
  O  O10  1  0.957818  0.957602  0.540102  1
  O  O11  1  0.538089  0.962894  0.538089  1
  O  O12  1  0.708497  0.701082  0.291593  1
  O  O13  1  0.958407  0.548918  0.541503  1
  O  O14  1  0.711911  0.287106  0.711911  1
  O  O15  1  0.292182  0.292398  0.709898  1
  O  O16  1  0.709898  0.292398  0.292182  1
  O  O17  1  0.291593  0.701082  0.708497  1
  O  O18  1  0.948624  0.544568  0.948624  1
  O  O19  1  0.541503  0.548918  0.958407  1
  O  O20  1  0.011232  0.966446  0.011232  1
  O  O21  1  0.540102  0.957602  0.957818  1
