# generated using pymatgen
data_Er4Tm3Lu5Co5Bi
_symmetry_space_group_name_H-M   'P 1'
_cell_length_a   8.16607799
_cell_length_b   8.16607647
_cell_length_c   8.16381610
_cell_angle_alpha   110.80765948
_cell_angle_beta   111.16614849
_cell_angle_gamma   106.49266511
_symmetry_Int_Tables_number   1
_chemical_formula_structural   Er4Tm3Lu5Co5Bi
_chemical_formula_sum   'Er4 Tm3 Lu5 Co5 Bi1'
_cell_volume   418.16857968
_cell_formula_units_Z   1
loop_
 _symmetry_equiv_pos_site_id
 _symmetry_equiv_pos_as_xyz
  1  'x, y, z'
loop_
 _atom_site_type_symbol
 _atom_site_label
 _atom_site_symmetry_multiplicity
 _atom_site_fract_x
 _atom_site_fract_y
 _atom_site_fract_z
 _atom_site_occupancy
  Er  Er0  1  0.210926  0.406945  0.195576  1
  Er  Er1  1  0.788657  0.592705  0.804255  1
  Er  Er2  1  0.211550  0.015598  0.804255  1
  Er  Er3  1  0.788631  0.984650  0.195576  1
  Tm  Tm4  1  0.285869  0.182680  0.468549  1
  Tm  Tm5  1  0.714224  0.817598  0.531822  1
  Tm  Tm6  1  0.285791  0.817278  0.103068  1
  Lu  Lu7  1  0.714262  0.182400  0.896662  1
  Lu  Lu8  1  0.622399  0.312841  0.309251  1
  Lu  Lu9  1  0.377782  0.687355  0.690592  1
  Lu  Lu10  1  0.003238  0.312811  0.690592  1
  Lu  Lu11  1  0.996408  0.686852  0.309251  1
  Co  Co12  1  0.999769  0.373815  0.373584  1
  Co  Co13  1  0.000043  0.626091  0.626134  1
  Co  Co14  1  0.387621  0.887494  0.500451  1
  Co  Co15  1  0.612957  0.112830  0.500451  1
  Co  Co16  1  0.999870  0.000053  0.999923  1
  Bi  Bi17  1  0.500002  0.500006  0.000008  1
