# generated using pymatgen
data_PaInCl6
_symmetry_space_group_name_H-M   'P 1'
_cell_length_a   6.97696142
_cell_length_b   6.97695941
_cell_length_c   7.82367877
_cell_angle_alpha   63.51988266
_cell_angle_beta   63.51988953
_cell_angle_gamma   60.00001623
_symmetry_Int_Tables_number   1
_chemical_formula_structural   PaInCl6
_chemical_formula_sum   'Pa1 In1 Cl6'
_cell_volume   282.74317792
_cell_formula_units_Z   1
loop_
 _symmetry_equiv_pos_site_id
 _symmetry_equiv_pos_as_xyz
  1  'x, y, z'
loop_
 _atom_site_type_symbol
 _atom_site_label
 _atom_site_symmetry_multiplicity
 _atom_site_fract_x
 _atom_site_fract_y
 _atom_site_fract_z
 _atom_site_occupancy
  Pa  Pa0  1  0.000000  0.000000  0.000000  1
  In  In1  1  0.500003  0.500000  0.499999  1
  Cl  Cl2  1  0.613196  0.212009  0.220404  1
  Cl  Cl3  1  0.212009  0.954391  0.220404  1
  Cl  Cl4  1  0.954392  0.613194  0.220404  1
  Cl  Cl5  1  0.045610  0.386802  0.779595  1
  Cl  Cl6  1  0.787993  0.045608  0.779595  1
  Cl  Cl7  1  0.386804  0.787993  0.779595  1
