# generated using pymatgen
data_DyHo2Cd3IrAu2
_symmetry_space_group_name_H-M   'P 1'
_cell_length_a   7.87480800
_cell_length_b   7.87534677
_cell_length_c   3.78121300
_cell_angle_alpha   90.00000000
_cell_angle_beta   90.00000000
_cell_angle_gamma   119.99619287
_symmetry_Int_Tables_number   1
_chemical_formula_structural   DyHo2Cd3IrAu2
_chemical_formula_sum   'Dy1 Ho2 Cd3 Ir1 Au2'
_cell_volume   203.08979137
_cell_formula_units_Z   1
loop_
 _symmetry_equiv_pos_site_id
 _symmetry_equiv_pos_as_xyz
  1  'x, y, z'
loop_
 _atom_site_type_symbol
 _atom_site_label
 _atom_site_symmetry_multiplicity
 _atom_site_fract_x
 _atom_site_fract_y
 _atom_site_fract_z
 _atom_site_occupancy
  Dy  Dy0  1  0.581501  0.971799  0.000000  1
  Ho  Ho1  1  0.028251  0.609729  0.000000  1
  Ho  Ho2  1  0.390272  0.418512  0.000000  1
  Cd  Cd3  1  0.269910  0.003450  0.500000  1
  Cd  Cd4  1  0.996572  0.266510  0.500000  1
  Cd  Cd5  1  0.733517  0.730033  0.500000  1
  Ir  Ir6  1  0.333262  0.666582  0.500000  1
  Au  Au7  1  0.666680  0.333386  0.500000  1
  Au  Au8  1  0.000034  0.000000  0.000000  1
