# generated using pymatgen
data_SrLu2(H6Os)2
_symmetry_space_group_name_H-M   'P 1'
_cell_length_a   4.79538600
_cell_length_b   4.79538815
_cell_length_c   8.35038500
_cell_angle_alpha   90.00000000
_cell_angle_beta   90.00000000
_cell_angle_gamma   119.99999898
_symmetry_Int_Tables_number   1
_chemical_formula_structural   SrLu2(H6Os)2
_chemical_formula_sum   'Sr1 Lu2 H12 Os2'
_cell_volume   166.29702203
_cell_formula_units_Z   1
loop_
 _symmetry_equiv_pos_site_id
 _symmetry_equiv_pos_as_xyz
  1  'x, y, z'
loop_
 _atom_site_type_symbol
 _atom_site_label
 _atom_site_symmetry_multiplicity
 _atom_site_fract_x
 _atom_site_fract_y
 _atom_site_fract_z
 _atom_site_occupancy
  Sr  Sr0  1  0.000000  0.000000  0.000000  1
  Lu  Lu1  1  0.666667  0.333333  0.365700  1
  Lu  Lu2  1  0.333333  0.666667  0.634300  1
  H  H3  1  0.162524  0.837476  0.389178  1
  H  H4  1  0.674954  0.837476  0.389178  1
  H  H5  1  0.162524  0.325046  0.389178  1
  H  H6  1  0.837476  0.162524  0.610822  1
  H  H7  1  0.325046  0.162524  0.610822  1
  H  H8  1  0.837476  0.674954  0.610822  1
  H  H9  1  0.502107  0.004214  0.849959  1
  H  H10  1  0.502107  0.497893  0.849959  1
  H  H11  1  0.995786  0.497893  0.849959  1
  H  H12  1  0.497893  0.995786  0.150041  1
  H  H13  1  0.497893  0.502107  0.150041  1
  H  H14  1  0.004214  0.502107  0.150041  1
  Os  Os15  1  0.666667  0.333333  0.724969  1
  Os  Os16  1  0.333333  0.666667  0.275031  1
