# generated using pymatgen
data_Ho8InHgRh2
_symmetry_space_group_name_H-M   'P 1'
_cell_length_a   9.58792110
_cell_length_b   9.58792087
_cell_length_c   9.60062700
_cell_angle_alpha   59.95615574
_cell_angle_beta   59.95615653
_cell_angle_gamma   59.84578862
_symmetry_Int_Tables_number   1
_chemical_formula_structural   Ho8InHgRh2
_chemical_formula_sum   'Ho16 In2 Hg2 Rh4'
_cell_volume   622.92725036
_cell_formula_units_Z   2
loop_
 _symmetry_equiv_pos_site_id
 _symmetry_equiv_pos_as_xyz
  1  'x, y, z'
loop_
 _atom_site_type_symbol
 _atom_site_label
 _atom_site_symmetry_multiplicity
 _atom_site_fract_x
 _atom_site_fract_y
 _atom_site_fract_z
 _atom_site_occupancy
  Ho  Ho0  1  0.187157  0.187157  0.812843  1
  Ho  Ho1  1  0.600166  0.600166  0.200098  1
  Ho  Ho2  1  0.438823  0.059551  0.441616  1
  Ho  Ho3  1  0.440980  0.440980  0.059020  1
  Ho  Ho4  1  0.812433  0.184803  0.813465  1
  Ho  Ho5  1  0.184803  0.812433  0.189299  1
  Ho  Ho6  1  0.438823  0.059551  0.060010  1
  Ho  Ho7  1  0.184803  0.812433  0.813465  1
  Ho  Ho8  1  0.059551  0.438823  0.060010  1
  Ho  Ho9  1  0.812985  0.812985  0.187015  1
  Ho  Ho10  1  0.197354  0.601902  0.600372  1
  Ho  Ho11  1  0.059551  0.438823  0.441616  1
  Ho  Ho12  1  0.060813  0.060813  0.439187  1
  Ho  Ho13  1  0.812433  0.184803  0.189299  1
  Ho  Ho14  1  0.601902  0.197354  0.600372  1
  Ho  Ho15  1  0.600166  0.600166  0.599570  1
  In  In16  1  0.503444  0.832184  0.832186  1
  In  In17  1  0.832184  0.503444  0.832186  1
  Hg  Hg18  1  0.835381  0.835381  0.835734  1
  Hg  Hg19  1  0.835381  0.835381  0.493505  1
  Rh  Rh20  1  0.392717  0.822846  0.392219  1
  Rh  Rh21  1  0.392652  0.392652  0.392564  1
  Rh  Rh22  1  0.822846  0.392717  0.392219  1
  Rh  Rh23  1  0.392652  0.392652  0.822133  1
