# generated using pymatgen
data_K3Nd(TaS4)2
_symmetry_space_group_name_H-M   'P 1'
_cell_length_a   11.31143070
_cell_length_b   11.31143128
_cell_length_c   9.04085141
_cell_angle_alpha   77.70698949
_cell_angle_beta   102.29301223
_cell_angle_gamma   56.20969777
_symmetry_Int_Tables_number   1
_chemical_formula_structural   K3Nd(TaS4)2
_chemical_formula_sum   'K6 Nd2 Ta4 S16'
_cell_volume   857.57191395
_cell_formula_units_Z   2
loop_
 _symmetry_equiv_pos_site_id
 _symmetry_equiv_pos_as_xyz
  1  'x, y, z'
loop_
 _atom_site_type_symbol
 _atom_site_label
 _atom_site_symmetry_multiplicity
 _atom_site_fract_x
 _atom_site_fract_y
 _atom_site_fract_z
 _atom_site_occupancy
  K  K0  1  0.739955  0.739956  0.749999  1
  K  K1  1  0.260045  0.260045  0.249999  1
  K  K2  1  0.500000  0.500000  0.000000  1
  K  K3  1  0.500000  0.500000  0.500000  1
  K  K4  1  0.003595  0.003596  0.249999  1
  K  K5  1  0.996404  0.996405  0.749999  1
  Nd  Nd6  1  0.759487  0.759488  0.249999  1
  Nd  Nd7  1  0.240512  0.240512  0.749999  1
  Ta  Ta8  1  0.903946  0.349386  0.395121  1
  Ta  Ta9  1  0.349386  0.903946  0.104879  1
  Ta  Ta10  1  0.650613  0.096054  0.895121  1
  Ta  Ta11  1  0.096054  0.650613  0.604879  1
  S  S12  1  0.516949  0.131619  0.059352  1
  S  S13  1  0.131619  0.516949  0.440648  1
  S  S14  1  0.483051  0.868381  0.940648  1
  S  S15  1  0.868381  0.483051  0.559352  1
  S  S16  1  0.868868  0.838660  0.020474  1
  S  S17  1  0.838660  0.868868  0.479526  1
  S  S18  1  0.131132  0.161340  0.979526  1
  S  S19  1  0.161340  0.131132  0.520474  1
  S  S20  1  0.272787  0.755750  0.126915  1
  S  S21  1  0.755750  0.272787  0.373085  1
  S  S22  1  0.727213  0.244250  0.873085  1
  S  S23  1  0.244250  0.727213  0.626915  1
  S  S24  1  0.850426  0.506039  0.142678  1
  S  S25  1  0.506039  0.850426  0.357322  1
  S  S26  1  0.149574  0.493961  0.857322  1
  S  S27  1  0.493960  0.149575  0.642677  1
