# generated using pymatgen
data_TbDyFe3Tc14C3
_symmetry_space_group_name_H-M   'P 1'
_cell_length_a   6.89576828
_cell_length_b   6.89576798
_cell_length_c   6.89576825
_cell_angle_alpha   82.40392189
_cell_angle_beta   82.40391385
_cell_angle_gamma   82.40391756
_symmetry_Int_Tables_number   1
_chemical_formula_structural   TbDyFe3Tc14C3
_chemical_formula_sum   'Tb1 Dy1 Fe3 Tc14 C3'
_cell_volume   319.97174844
_cell_formula_units_Z   1
loop_
 _symmetry_equiv_pos_site_id
 _symmetry_equiv_pos_as_xyz
  1  'x, y, z'
loop_
 _atom_site_type_symbol
 _atom_site_label
 _atom_site_symmetry_multiplicity
 _atom_site_fract_x
 _atom_site_fract_y
 _atom_site_fract_z
 _atom_site_occupancy
  Tb  Tb0  1  0.651204  0.651204  0.651204  1
  Dy  Dy1  1  0.348458  0.348458  0.348458  1
  Fe  Fe2  1  0.999905  0.999905  0.500052  1
  Fe  Fe3  1  0.500052  0.999905  0.999905  1
  Fe  Fe4  1  0.999905  0.500052  0.999905  1
  Tc  Tc5  1  0.724152  0.275793  0.000072  1
  Tc  Tc6  1  0.000072  0.724152  0.275793  1
  Tc  Tc7  1  0.275793  0.000072  0.724152  1
  Tc  Tc8  1  0.000072  0.275793  0.724152  1
  Tc  Tc9  1  0.724152  0.000072  0.275793  1
  Tc  Tc10  1  0.275793  0.724152  0.000072  1
  Tc  Tc11  1  0.348139  0.348139  0.861081  1
  Tc  Tc12  1  0.861081  0.348139  0.348139  1
  Tc  Tc13  1  0.348139  0.861081  0.348139  1
  Tc  Tc14  1  0.651653  0.651653  0.139497  1
  Tc  Tc15  1  0.139497  0.651653  0.651653  1
  Tc  Tc16  1  0.651653  0.139497  0.651653  1
  Tc  Tc17  1  0.899026  0.899026  0.899026  1
  Tc  Tc18  1  0.101084  0.101084  0.101084  1
  C  C19  1  0.499555  0.499555  0.001061  1
  C  C20  1  0.001061  0.499555  0.499555  1
  C  C21  1  0.499555  0.001061  0.499555  1
