# generated using pymatgen
data_Dy29Se32
_symmetry_space_group_name_H-M   'P 1'
_cell_length_a   14.10165747
_cell_length_b   14.10165713
_cell_length_c   14.10165700
_cell_angle_alpha   131.84886751
_cell_angle_beta   131.84886629
_cell_angle_gamma   70.46783176
_symmetry_Int_Tables_number   1
_chemical_formula_structural   Dy29Se32
_chemical_formula_sum   'Dy29 Se32'
_cell_volume   1524.69541625
_cell_formula_units_Z   1
loop_
 _symmetry_equiv_pos_site_id
 _symmetry_equiv_pos_as_xyz
  1  'x, y, z'
loop_
 _atom_site_type_symbol
 _atom_site_label
 _atom_site_symmetry_multiplicity
 _atom_site_fract_x
 _atom_site_fract_y
 _atom_site_fract_z
 _atom_site_occupancy
  Dy  Dy0  1  0.125188  0.874900  0.749711  1
  Dy  Dy1  1  0.374666  0.622907  0.248239  1
  Dy  Dy2  1  0.625334  0.377093  0.751761  1
  Dy  Dy3  1  0.874812  0.125100  0.250289  1
  Dy  Dy4  1  0.749059  0.749059  0.498116  1
  Dy  Dy5  1  0.000000  0.500000  0.000000  1
  Dy  Dy6  1  0.250941  0.250941  0.501884  1
  Dy  Dy7  1  0.500000  0.000000  0.000000  1
  Dy  Dy8  1  0.874900  0.125188  0.749711  1
  Dy  Dy9  1  0.125100  0.874812  0.250289  1
  Dy  Dy10  1  0.377093  0.625334  0.751761  1
  Dy  Dy11  1  0.622907  0.374666  0.248239  1
  Dy  Dy12  1  0.625334  0.873573  0.248239  1
  Dy  Dy13  1  0.874812  0.624523  0.749711  1
  Dy  Dy14  1  0.125188  0.375477  0.250289  1
  Dy  Dy15  1  0.374666  0.126427  0.751761  1
  Dy  Dy16  1  0.000000  0.000000  0.500000  1
  Dy  Dy17  1  0.250941  0.749059  0.000000  1
  Dy  Dy18  1  0.500000  0.500000  0.500000  1
  Dy  Dy19  1  0.749059  0.250941  0.000000  1
  Dy  Dy20  1  0.126427  0.374666  0.751761  1
  Dy  Dy21  1  0.375477  0.125188  0.250289  1
  Dy  Dy22  1  0.624523  0.874812  0.749711  1
  Dy  Dy23  1  0.873573  0.625334  0.248239  1
  Dy  Dy24  1  0.500000  0.000000  0.500000  1
  Dy  Dy25  1  0.750523  0.750523  0.000000  1
  Dy  Dy26  1  0.000000  0.500000  0.500000  1
  Dy  Dy27  1  0.249477  0.249477  0.000000  1
  Dy  Dy28  1  0.000000  0.000000  0.000000  1
  Se  Se29  1  0.875041  0.875041  0.499932  1
  Se  Se30  1  0.124959  0.624892  0.000000  1
  Se  Se31  1  0.375108  0.375108  0.500068  1
  Se  Se32  1  0.624892  0.124959  0.000000  1
  Se  Se33  1  0.124959  0.124959  0.500068  1
  Se  Se34  1  0.375108  0.875041  0.000000  1
  Se  Se35  1  0.624892  0.624892  0.499932  1
  Se  Se36  1  0.875041  0.375108  0.000000  1
  Se  Se37  1  0.749175  0.000000  0.749175  1
  Se  Se38  1  0.003575  0.749904  0.253671  1
  Se  Se39  1  0.254000  0.500000  0.754000  1
  Se  Se40  1  0.503767  0.250096  0.253671  1
  Se  Se41  1  0.373409  0.873409  0.500000  1
  Se  Se42  1  0.624233  0.624233  0.000000  1
  Se  Se43  1  0.873409  0.373409  0.500000  1
  Se  Se44  1  0.125079  0.125079  0.000000  1
  Se  Se45  1  0.500000  0.254000  0.754000  1
  Se  Se46  1  0.749904  0.003575  0.253671  1
  Se  Se47  1  0.000000  0.749175  0.749175  1
  Se  Se48  1  0.250096  0.503767  0.253671  1
  Se  Se49  1  0.250825  0.000000  0.250825  1
  Se  Se50  1  0.496233  0.749904  0.746329  1
  Se  Se51  1  0.746000  0.500000  0.246000  1
  Se  Se52  1  0.996425  0.250096  0.746329  1
  Se  Se53  1  0.626591  0.126591  0.500000  1
  Se  Se54  1  0.874921  0.874921  0.000000  1
  Se  Se55  1  0.126591  0.626591  0.500000  1
  Se  Se56  1  0.375767  0.375767  0.000000  1
  Se  Se57  1  0.500000  0.746000  0.246000  1
  Se  Se58  1  0.749904  0.496233  0.746329  1
  Se  Se59  1  0.000000  0.250825  0.250825  1
  Se  Se60  1  0.250096  0.996425  0.746329  1
