# generated using pymatgen
data_TmMg3Ge6Ir7
_symmetry_space_group_name_H-M   'P 1'
_cell_length_a   7.14174592
_cell_length_b   6.99749926
_cell_length_c   7.14174563
_cell_angle_alpha   109.06258727
_cell_angle_beta   109.87674967
_cell_angle_gamma   109.06258170
_symmetry_Int_Tables_number   1
_chemical_formula_structural   TmMg3Ge6Ir7
_chemical_formula_sum   'Tm1 Mg3 Ge6 Ir7'
_cell_volume   276.11825449
_cell_formula_units_Z   1
loop_
 _symmetry_equiv_pos_site_id
 _symmetry_equiv_pos_as_xyz
  1  'x, y, z'
loop_
 _atom_site_type_symbol
 _atom_site_label
 _atom_site_symmetry_multiplicity
 _atom_site_fract_x
 _atom_site_fract_y
 _atom_site_fract_z
 _atom_site_occupancy
  Tm  Tm0  1  0.000000  0.500000  0.000000  1
  Mg  Mg1  1  0.000000  0.000000  0.500000  1
  Mg  Mg2  1  0.500000  0.000000  0.000000  1
  Mg  Mg3  1  0.500000  0.500000  0.500000  1
  Ge  Ge4  1  0.686288  0.692859  0.000000  1
  Ge  Ge5  1  0.313712  0.006571  0.313712  1
  Ge  Ge6  1  0.000000  0.307141  0.313712  1
  Ge  Ge7  1  0.313712  0.307141  0.000000  1
  Ge  Ge8  1  0.686288  0.993429  0.686288  1
  Ge  Ge9  1  0.000000  0.692859  0.686288  1
  Ir  Ir10  1  0.746869  0.246869  0.493737  1
  Ir  Ir11  1  0.746869  0.500000  0.253131  1
  Ir  Ir12  1  0.493737  0.246869  0.746869  1
  Ir  Ir13  1  0.253131  0.500000  0.746869  1
  Ir  Ir14  1  0.253131  0.753131  0.506263  1
  Ir  Ir15  1  0.506263  0.753131  0.253131  1
  Ir  Ir16  1  0.000000  0.000000  0.000000  1
