# generated using pymatgen
data_TlOs6Pb3O18F
_symmetry_space_group_name_H-M   'P 1'
_cell_length_a   8.09122537
_cell_length_b   8.00781341
_cell_length_c   8.09122367
_cell_angle_alpha   109.26252788
_cell_angle_beta   109.67909971
_cell_angle_gamma   109.26253763
_symmetry_Int_Tables_number   1
_chemical_formula_structural   TlOs6Pb3O18F
_chemical_formula_sum   'Tl1 Os6 Pb3 O18 F1'
_cell_volume   404.60626592
_cell_formula_units_Z   1
loop_
 _symmetry_equiv_pos_site_id
 _symmetry_equiv_pos_as_xyz
  1  'x, y, z'
loop_
 _atom_site_type_symbol
 _atom_site_label
 _atom_site_symmetry_multiplicity
 _atom_site_fract_x
 _atom_site_fract_y
 _atom_site_fract_z
 _atom_site_occupancy
  Tl  Tl0  1  0.000000  0.336502  0.000000  1
  Os  Os1  1  0.502243  0.363577  0.864859  1
  Os  Os2  1  0.500150  0.637843  0.136657  1
  Os  Os3  1  0.362615  0.861334  0.497757  1
  Os  Os4  1  0.636506  0.137693  0.499850  1
  Os  Os5  1  0.863343  0.501186  0.363494  1
  Os  Os6  1  0.135141  0.498719  0.637385  1
  Pb  Pb7  1  0.999276  0.999669  0.318375  1
  Pb  Pb8  1  0.681625  0.681294  0.680901  1
  Pb  Pb9  1  0.319099  0.000393  0.000724  1
  O  O10  1  0.704052  0.355115  0.070042  1
  O  O11  1  0.646506  0.355930  0.713488  1
  O  O12  1  0.286512  0.642441  0.933018  1
  O  O13  1  0.643699  0.294382  0.359118  1
  O  O14  1  0.354329  0.710316  0.645681  1
  O  O15  1  0.929958  0.285073  0.634010  1
  O  O16  1  0.066982  0.709423  0.353494  1
  O  O17  1  0.999615  0.669192  0.665798  1
  O  O18  1  0.666184  0.669577  0.000385  1
  O  O19  1  0.715418  0.650681  0.356301  1
  O  O20  1  0.354319  0.064635  0.708647  1
  O  O21  1  0.662854  0.995030  0.662296  1
  O  O22  1  0.999443  0.332176  0.337146  1
  O  O23  1  0.640882  0.935263  0.284582  1
  O  O24  1  0.365990  0.651061  0.295948  1
  O  O25  1  0.291353  0.355988  0.645671  1
  O  O26  1  0.334202  0.003393  0.333816  1
  O  O27  1  0.337704  0.332734  0.000557  1
  F  F28  1  0.000000  0.969378  0.000000  1
