# generated using pymatgen
data_DyHo(Ga3Co)3
_symmetry_space_group_name_H-M   'P 1'
_cell_length_a   7.36895370
_cell_length_b   7.36895553
_cell_length_c   9.42284100
_cell_angle_alpha   90.00113375
_cell_angle_beta   90.00113874
_cell_angle_gamma   119.78402194
_symmetry_Int_Tables_number   1
_chemical_formula_structural   DyHo(Ga3Co)3
_chemical_formula_sum   'Dy2 Ho2 Ga18 Co6'
_cell_volume   444.08419956
_cell_formula_units_Z   2
loop_
 _symmetry_equiv_pos_site_id
 _symmetry_equiv_pos_as_xyz
  1  'x, y, z'
loop_
 _atom_site_type_symbol
 _atom_site_label
 _atom_site_symmetry_multiplicity
 _atom_site_fract_x
 _atom_site_fract_y
 _atom_site_fract_z
 _atom_site_occupancy
  Dy  Dy0  1  0.331435  0.002681  0.749993  1
  Dy  Dy1  1  0.002686  0.331437  0.749993  1
  Ho  Ho2  1  0.668580  0.997258  0.250007  1
  Ho  Ho3  1  0.997259  0.668584  0.250006  1
  Ga  Ga4  1  0.665742  0.000024  0.928238  1
  Ga  Ga5  1  0.334266  0.999863  0.428076  1
  Ga  Ga6  1  0.999830  0.334252  0.428076  1
  Ga  Ga7  1  0.334258  0.999858  0.071921  1
  Ga  Ga8  1  0.000014  0.665738  0.928238  1
  Ga  Ga9  1  0.999848  0.334251  0.071922  1
  Ga  Ga10  1  0.333565  0.333552  0.557771  1
  Ga  Ga11  1  0.333542  0.333537  0.942232  1
  Ga  Ga12  1  0.666573  0.666569  0.057924  1
  Ga  Ga13  1  0.666562  0.666546  0.442073  1
  Ga  Ga14  1  0.878864  0.878861  0.750006  1
  Ga  Ga15  1  0.121020  0.121020  0.249994  1
  Ga  Ga16  1  0.336246  0.550482  0.250001  1
  Ga  Ga17  1  0.550490  0.336244  0.250010  1
  Ga  Ga18  1  0.663759  0.449632  0.749991  1
  Ga  Ga19  1  0.449638  0.663754  0.750002  1
  Ga  Ga20  1  0.665742  0.000047  0.571764  1
  Ga  Ga21  1  0.000010  0.665727  0.571763  1
  Co  Co22  1  0.329156  0.670929  0.000088  1
  Co  Co23  1  0.670927  0.329158  0.499912  1
  Co  Co24  1  0.670927  0.329157  0.000087  1
  Co  Co25  1  0.329155  0.670930  0.499911  1
  Co  Co26  1  0.999953  0.999954  0.000102  1
  Co  Co27  1  0.999953  0.999953  0.499899  1
