# generated using pymatgen
data_Th8Tl4RuAu7
_symmetry_space_group_name_H-M   'P 1'
_cell_length_a   8.06923496
_cell_length_b   8.06923453
_cell_length_c   7.88613000
_cell_angle_alpha   90.16127438
_cell_angle_beta   90.16126727
_cell_angle_gamma   90.17668948
_symmetry_Int_Tables_number   1
_chemical_formula_structural   Th8Tl4RuAu7
_chemical_formula_sum   'Th8 Tl4 Ru1 Au7'
_cell_volume   513.47950703
_cell_formula_units_Z   1
loop_
 _symmetry_equiv_pos_site_id
 _symmetry_equiv_pos_as_xyz
  1  'x, y, z'
loop_
 _atom_site_type_symbol
 _atom_site_label
 _atom_site_symmetry_multiplicity
 _atom_site_fract_x
 _atom_site_fract_y
 _atom_site_fract_z
 _atom_site_occupancy
  Th  Th0  1  0.179883  0.179883  0.012033  1
  Th  Th1  1  0.834941  0.834941  0.998748  1
  Th  Th2  1  0.655696  0.329069  0.491425  1
  Th  Th3  1  0.329069  0.655696  0.491425  1
  Th  Th4  1  0.668532  0.318143  0.006636  1
  Th  Th5  1  0.318143  0.668532  0.006636  1
  Th  Th6  1  0.820890  0.820890  0.499981  1
  Th  Th7  1  0.188700  0.188700  0.491015  1
  Tl  Tl8  1  0.498747  0.003720  0.250235  1
  Tl  Tl9  1  0.498284  0.994203  0.749819  1
  Tl  Tl10  1  0.003720  0.498747  0.250235  1
  Tl  Tl11  1  0.994203  0.498284  0.749819  1
  Ru  Ru12  1  0.370338  0.370338  0.243811  1
  Au  Au13  1  0.627177  0.627177  0.761357  1
  Au  Au14  1  0.629010  0.629010  0.235333  1
  Au  Au15  1  0.875521  0.130482  0.737892  1
  Au  Au16  1  0.875263  0.126445  0.262058  1
  Au  Au17  1  0.374959  0.374959  0.761592  1
  Au  Au18  1  0.126445  0.875263  0.262058  1
  Au  Au19  1  0.130482  0.875521  0.737892  1
