# generated using pymatgen
data_Cd5InAu18
_symmetry_space_group_name_H-M   'P 1'
_cell_length_a   5.95360200
_cell_length_b   14.62577760
_cell_length_c   5.19582494
_cell_angle_alpha   89.82701555
_cell_angle_beta   90.00000000
_cell_angle_gamma   90.00000000
_symmetry_Int_Tables_number   1
_chemical_formula_structural   Cd5InAu18
_chemical_formula_sum   'Cd5 In1 Au18'
_cell_volume   452.42989610
_cell_formula_units_Z   1
loop_
 _symmetry_equiv_pos_site_id
 _symmetry_equiv_pos_as_xyz
  1  'x, y, z'
loop_
 _atom_site_type_symbol
 _atom_site_label
 _atom_site_symmetry_multiplicity
 _atom_site_fract_x
 _atom_site_fract_y
 _atom_site_fract_z
 _atom_site_occupancy
  Cd  Cd0  1  0.000000  0.999750  0.006214  1
  Cd  Cd1  1  0.500000  0.165377  0.335492  1
  Cd  Cd2  1  0.500000  0.835070  0.335529  1
  Cd  Cd3  1  0.000000  0.334719  0.663323  1
  Cd  Cd4  1  0.500000  0.499619  0.994209  1
  In  In5  1  0.000000  0.665091  0.664029  1
  Au  Au6  1  0.500000  0.999950  0.008697  1
  Au  Au7  1  0.251952  0.332191  0.164048  1
  Au  Au8  1  0.748048  0.332191  0.164048  1
  Au  Au9  1  0.252838  0.668087  0.164613  1
  Au  Au10  1  0.747162  0.668087  0.164613  1
  Au  Au11  1  0.000000  0.166191  0.337576  1
  Au  Au12  1  0.000000  0.834150  0.337742  1
  Au  Au13  1  0.249003  0.499858  0.488130  1
  Au  Au14  1  0.750996  0.499858  0.488130  1
  Au  Au15  1  0.251525  0.999941  0.511691  1
  Au  Au16  1  0.748475  0.999941  0.511691  1
  Au  Au17  1  0.500000  0.333836  0.661767  1
  Au  Au18  1  0.500000  0.665948  0.662555  1
  Au  Au19  1  0.247539  0.168236  0.836549  1
  Au  Au20  1  0.752460  0.168236  0.836549  1
  Au  Au21  1  0.248968  0.831967  0.835982  1
  Au  Au22  1  0.751031  0.831967  0.835982  1
  Au  Au23  1  0.000000  0.499733  0.990863  1
