# generated using pymatgen
data_Ba2HoHO3
_symmetry_space_group_name_H-M   'P 1'
_cell_length_a   4.39646300
_cell_length_b   4.39673900
_cell_length_c   14.02815000
_cell_angle_alpha   90.00000000
_cell_angle_beta   90.00000000
_cell_angle_gamma   90.00000000
_symmetry_Int_Tables_number   1
_chemical_formula_structural   Ba2HoHO3
_chemical_formula_sum   'Ba4 Ho2 H2 O6'
_cell_volume   271.16554700
_cell_formula_units_Z   2
loop_
 _symmetry_equiv_pos_site_id
 _symmetry_equiv_pos_as_xyz
  1  'x, y, z'
loop_
 _atom_site_type_symbol
 _atom_site_label
 _atom_site_symmetry_multiplicity
 _atom_site_fract_x
 _atom_site_fract_y
 _atom_site_fract_z
 _atom_site_occupancy
  Ba  Ba0  1  0.499999  0.000000  0.100611  1
  Ba  Ba1  1  0.499999  0.000000  0.374988  1
  Ba  Ba2  1  0.000000  0.499999  0.625012  1
  Ba  Ba3  1  0.000000  0.499999  0.899389  1
  Ho  Ho4  1  0.000000  0.499999  0.235606  1
  Ho  Ho5  1  0.499999  0.000000  0.764394  1
  H  H6  1  0.000000  0.499999  0.420988  1
  H  H7  1  0.499999  0.000000  0.579013  1
  O  O8  1  0.000000  0.499999  0.080992  1
  O  O9  1  0.000000  0.000000  0.258875  1
  O  O10  1  0.499999  0.499999  0.258877  1
  O  O11  1  0.000000  0.000000  0.741123  1
  O  O12  1  0.499999  0.499999  0.741125  1
  O  O13  1  0.499999  0.000000  0.919008  1
