# generated using pymatgen
data_Sc3(CoSi2)2
_symmetry_space_group_name_H-M   'P 1'
_cell_length_a   3.99765200
_cell_length_b   11.63810200
_cell_length_c   11.92531600
_cell_angle_alpha   90.00000000
_cell_angle_beta   90.00000000
_cell_angle_gamma   90.00000000
_symmetry_Int_Tables_number   1
_chemical_formula_structural   Sc3(CoSi2)2
_chemical_formula_sum   'Sc12 Co8 Si16'
_cell_volume   554.82630163
_cell_formula_units_Z   4
loop_
 _symmetry_equiv_pos_site_id
 _symmetry_equiv_pos_as_xyz
  1  'x, y, z'
loop_
 _atom_site_type_symbol
 _atom_site_label
 _atom_site_symmetry_multiplicity
 _atom_site_fract_x
 _atom_site_fract_y
 _atom_site_fract_z
 _atom_site_occupancy
  Sc  Sc0  1  0.750000  0.981001  0.811173  1
  Sc  Sc1  1  0.250000  0.018999  0.188827  1
  Sc  Sc2  1  0.750000  0.481001  0.688827  1
  Sc  Sc3  1  0.250000  0.518999  0.311173  1
  Sc  Sc4  1  0.750000  0.753723  0.650782  1
  Sc  Sc5  1  0.250000  0.246277  0.349218  1
  Sc  Sc6  1  0.750000  0.253723  0.849218  1
  Sc  Sc7  1  0.250000  0.746277  0.150782  1
  Sc  Sc8  1  0.750000  0.696713  0.919518  1
  Sc  Sc9  1  0.250000  0.303287  0.080482  1
  Sc  Sc10  1  0.750000  0.196713  0.580482  1
  Sc  Sc11  1  0.250000  0.803287  0.419518  1
  Co  Co12  1  0.750000  0.552560  0.131496  1
  Co  Co13  1  0.250000  0.447440  0.868504  1
  Co  Co14  1  0.750000  0.052560  0.368504  1
  Co  Co15  1  0.250000  0.947440  0.631496  1
  Co  Co16  1  0.750000  0.586395  0.476870  1
  Co  Co17  1  0.250000  0.413605  0.523130  1
  Co  Co18  1  0.750000  0.086395  0.023130  1
  Co  Co19  1  0.250000  0.913605  0.976870  1
  Si  Si20  1  0.750000  0.945038  0.534227  1
  Si  Si21  1  0.250000  0.054962  0.465773  1
  Si  Si22  1  0.750000  0.445038  0.965773  1
  Si  Si23  1  0.250000  0.554962  0.034227  1
  Si  Si24  1  0.750000  0.893906  0.063248  1
  Si  Si25  1  0.250000  0.106094  0.936752  1
  Si  Si26  1  0.750000  0.393906  0.436752  1
  Si  Si27  1  0.250000  0.606094  0.563248  1
  Si  Si28  1  0.750000  0.878961  0.271593  1
  Si  Si29  1  0.250000  0.121039  0.728407  1
  Si  Si30  1  0.750000  0.378961  0.228407  1
  Si  Si31  1  0.250000  0.621039  0.771593  1
  Si  Si32  1  0.750000  0.671643  0.300356  1
  Si  Si33  1  0.250000  0.328357  0.699644  1
  Si  Si34  1  0.750000  0.171643  0.199644  1
  Si  Si35  1  0.250000  0.828357  0.800356  1
