# generated using pymatgen
data_Zr7ScCo16(SiP)6
_symmetry_space_group_name_H-M   'P 1'
_cell_length_a   12.23993214
_cell_length_b   12.23462677
_cell_length_c   3.69647700
_cell_angle_alpha   90.00000000
_cell_angle_beta   90.00000000
_cell_angle_gamma   120.02302082
_symmetry_Int_Tables_number   1
_chemical_formula_structural   Zr7ScCo16(SiP)6
_chemical_formula_sum   'Zr7 Sc1 Co16 Si6 P6'
_cell_volume   479.27809879
_cell_formula_units_Z   1
loop_
 _symmetry_equiv_pos_site_id
 _symmetry_equiv_pos_as_xyz
  1  'x, y, z'
loop_
 _atom_site_type_symbol
 _atom_site_label
 _atom_site_symmetry_multiplicity
 _atom_site_fract_x
 _atom_site_fract_y
 _atom_site_fract_z
 _atom_site_occupancy
  Zr  Zr0  1  0.558881  0.998732  0.000000  1
  Zr  Zr1  1  0.999555  0.558801  0.000000  1
  Zr  Zr2  1  0.668469  0.333186  0.000000  1
  Zr  Zr3  1  0.332171  0.665677  0.000000  1
  Zr  Zr4  1  0.818736  0.818194  0.500000  1
  Zr  Zr5  1  0.183204  0.000614  0.500000  1
  Zr  Zr6  1  0.998959  0.181118  0.500000  1
  Sc  Sc7  1  0.439009  0.441907  0.000000  1
  Co  Co8  1  0.196688  0.374281  0.000000  1
  Co  Co9  1  0.179840  0.802860  0.000000  1
  Co  Co10  1  0.822783  0.626103  0.000000  1
  Co  Co11  1  0.802260  0.178729  0.000000  1
  Co  Co12  1  0.370585  0.195751  0.000000  1
  Co  Co13  1  0.127294  0.481684  0.500000  1
  Co  Co14  1  0.355466  0.870594  0.500000  1
  Co  Co15  1  0.515110  0.643146  0.500000  1
  Co  Co16  1  0.646558  0.521705  0.500000  1
  Co  Co17  1  0.872423  0.355168  0.500000  1
  Co  Co18  1  0.480808  0.122963  0.500000  1
  Co  Co19  1  0.006425  0.006851  0.000000  1
  Co  Co20  1  0.720203  0.999647  0.500000  1
  Co  Co21  1  0.001267  0.720840  0.500000  1
  Co  Co22  1  0.624332  0.820158  0.000000  1
  Co  Co23  1  0.274794  0.278456  0.500000  1
  Si  Si24  1  0.649133  0.648366  0.000000  1
  Si  Si25  1  0.349391  0.000944  0.000000  1
  Si  Si26  1  0.000022  0.348075  0.000000  1
  Si  Si27  1  0.482761  0.308756  0.500000  1
  Si  Si28  1  0.823062  0.999572  0.000000  1
  Si  Si29  1  0.001491  0.824431  0.000000  1
  P  P30  1  0.692231  0.174076  0.500000  1
  P  P31  1  0.824650  0.519385  0.500000  1
  P  P32  1  0.518332  0.823954  0.500000  1
  P  P33  1  0.174523  0.692432  0.500000  1
  P  P34  1  0.308053  0.481917  0.500000  1
  P  P35  1  0.180532  0.180931  0.000000  1
