# generated using pymatgen
data_Tc(PtRh)4
_symmetry_space_group_name_H-M   'P 1'
_cell_length_a   6.18526867
_cell_length_b   6.18526933
_cell_length_c   6.18526947
_cell_angle_alpha   95.66288057
_cell_angle_beta   95.66287709
_cell_angle_gamma   143.38390569
_symmetry_Int_Tables_number   1
_chemical_formula_structural   Tc(PtRh)4
_chemical_formula_sum   'Tc1 Pt4 Rh4'
_cell_volume   133.99568277
_cell_formula_units_Z   1
loop_
 _symmetry_equiv_pos_site_id
 _symmetry_equiv_pos_as_xyz
  1  'x, y, z'
loop_
 _atom_site_type_symbol
 _atom_site_label
 _atom_site_symmetry_multiplicity
 _atom_site_fract_x
 _atom_site_fract_y
 _atom_site_fract_z
 _atom_site_occupancy
  Tc  Tc0  1  0.000000  0.000000  0.000000  1
  Pt  Pt1  1  0.000000  0.326763  0.326763  1
  Pt  Pt2  1  0.000000  0.673237  0.673237  1
  Pt  Pt3  1  0.673237  0.000000  0.673237  1
  Pt  Pt4  1  0.326763  0.000000  0.326763  1
  Rh  Rh5  1  0.339624  0.339624  0.679248  1
  Rh  Rh6  1  0.660376  0.660376  0.320752  1
  Rh  Rh7  1  0.660376  0.339624  0.000000  1
  Rh  Rh8  1  0.339624  0.660376  0.000000  1
