# generated using pymatgen
data_YErPa(ZnPd)3
_symmetry_space_group_name_H-M   'P 1'
_cell_length_a   7.44266013
_cell_length_b   7.38769616
_cell_length_c   3.74802100
_cell_angle_alpha   90.00000000
_cell_angle_beta   90.00000000
_cell_angle_gamma   120.09971476
_symmetry_Int_Tables_number   1
_chemical_formula_structural   YErPa(ZnPd)3
_chemical_formula_sum   'Y1 Er1 Pa1 Zn3 Pd3'
_cell_volume   178.29230810
_cell_formula_units_Z   1
loop_
 _symmetry_equiv_pos_site_id
 _symmetry_equiv_pos_as_xyz
  1  'x, y, z'
loop_
 _atom_site_type_symbol
 _atom_site_label
 _atom_site_symmetry_multiplicity
 _atom_site_fract_x
 _atom_site_fract_y
 _atom_site_fract_z
 _atom_site_occupancy
  Y  Y0  1  0.004165  0.600034  0.000000  1
  Er  Er1  1  0.403798  0.399383  0.000000  1
  Pa  Pa2  1  0.593156  0.999892  0.000000  1
  Zn  Zn3  1  0.247517  0.000936  0.500000  1
  Zn  Zn4  1  0.006924  0.262973  0.500000  1
  Zn  Zn5  1  0.742754  0.736658  0.500000  1
  Pd  Pd6  1  0.991627  0.002142  0.000000  1
  Pd  Pd7  1  0.347903  0.680029  0.500000  1
  Pd  Pd8  1  0.662156  0.317954  0.500000  1
