# generated using pymatgen
data_CaNdUIr3
_symmetry_space_group_name_H-M   'P 1'
_cell_length_a   5.37956223
_cell_length_b   5.37956228
_cell_length_c   5.37956203
_cell_angle_alpha   65.81795976
_cell_angle_beta   65.81797331
_cell_angle_gamma   65.81796451
_symmetry_Int_Tables_number   1
_chemical_formula_structural   CaNdUIr3
_chemical_formula_sum   'Ca1 Nd1 U1 Ir3'
_cell_volume   123.96782437
_cell_formula_units_Z   1
loop_
 _symmetry_equiv_pos_site_id
 _symmetry_equiv_pos_as_xyz
  1  'x, y, z'
loop_
 _atom_site_type_symbol
 _atom_site_label
 _atom_site_symmetry_multiplicity
 _atom_site_fract_x
 _atom_site_fract_y
 _atom_site_fract_z
 _atom_site_occupancy
  Ca  Ca0  1  0.998610  0.998610  0.998610  1
  Nd  Nd1  1  0.245769  0.245769  0.245769  1
  U  U2  1  0.626928  0.626928  0.626928  1
  Ir  Ir3  1  0.126115  0.626289  0.626289  1
  Ir  Ir4  1  0.626289  0.126115  0.626289  1
  Ir  Ir5  1  0.626289  0.626289  0.126115  1
