# generated using pymatgen
data_Hf6Al6Co3NiPt2
_symmetry_space_group_name_H-M   'P 1'
_cell_length_a   7.11390800
_cell_length_b   7.11390759
_cell_length_c   6.67779200
_cell_angle_alpha   90.00000000
_cell_angle_beta   90.00000000
_cell_angle_gamma   120.00001120
_symmetry_Int_Tables_number   1
_chemical_formula_structural   Hf6Al6Co3NiPt2
_chemical_formula_sum   'Hf6 Al6 Co3 Ni1 Pt2'
_cell_volume   292.67116354
_cell_formula_units_Z   1
loop_
 _symmetry_equiv_pos_site_id
 _symmetry_equiv_pos_as_xyz
  1  'x, y, z'
loop_
 _atom_site_type_symbol
 _atom_site_label
 _atom_site_symmetry_multiplicity
 _atom_site_fract_x
 _atom_site_fract_y
 _atom_site_fract_z
 _atom_site_occupancy
  Hf  Hf0  1  0.604215  0.019509  0.750000  1
  Hf  Hf1  1  0.980491  0.584706  0.750000  1
  Hf  Hf2  1  0.415294  0.395785  0.750000  1
  Hf  Hf3  1  0.979967  0.589530  0.250000  1
  Hf  Hf4  1  0.609563  0.020033  0.250000  1
  Hf  Hf5  1  0.410470  0.390437  0.250000  1
  Al  Al6  1  0.747116  0.749604  0.001144  1
  Al  Al7  1  0.250396  0.997512  0.001144  1
  Al  Al8  1  0.002488  0.252884  0.001144  1
  Al  Al9  1  0.747116  0.749604  0.498856  1
  Al  Al10  1  0.250396  0.997512  0.498856  1
  Al  Al11  1  0.002488  0.252884  0.498856  1
  Co  Co12  1  0.000000  0.000000  0.250000  1
  Co  Co13  1  0.666667  0.333333  0.997581  1
  Co  Co14  1  0.666667  0.333333  0.502419  1
  Ni  Ni15  1  0.000000  0.000000  0.750000  1
  Pt  Pt16  1  0.333333  0.666667  0.499622  1
  Pt  Pt17  1  0.333333  0.666667  0.000379  1
