# generated using pymatgen
data_Nb12Al8Cu3WC4
_symmetry_space_group_name_H-M   'P 1'
_cell_length_a   8.39734927
_cell_length_b   8.32235494
_cell_length_c   8.32235300
_cell_angle_alpha   59.99999577
_cell_angle_beta   60.29498436
_cell_angle_gamma   60.29498294
_symmetry_Int_Tables_number   1
_chemical_formula_structural   Nb12Al8Cu3WC4
_chemical_formula_sum   'Nb12 Al8 Cu3 W1 C4'
_cell_volume   413.08709597
_cell_formula_units_Z   1
loop_
 _symmetry_equiv_pos_site_id
 _symmetry_equiv_pos_as_xyz
  1  'x, y, z'
loop_
 _atom_site_type_symbol
 _atom_site_label
 _atom_site_symmetry_multiplicity
 _atom_site_fract_x
 _atom_site_fract_y
 _atom_site_fract_z
 _atom_site_occupancy
  Nb  Nb0  1  0.572061  0.938909  0.550120  1
  Nb  Nb1  1  0.318122  0.683350  0.683350  1
  Nb  Nb2  1  0.677939  0.311091  0.311091  1
  Nb  Nb3  1  0.318122  0.683350  0.315179  1
  Nb  Nb4  1  0.677939  0.699880  0.311091  1
  Nb  Nb5  1  0.318122  0.315179  0.683350  1
  Nb  Nb6  1  0.572061  0.550120  0.938909  1
  Nb  Nb7  1  0.931878  0.566650  0.566650  1
  Nb  Nb8  1  0.572061  0.938909  0.938909  1
  Nb  Nb9  1  0.931878  0.934821  0.566650  1
  Nb  Nb10  1  0.677939  0.311091  0.699880  1
  Nb  Nb11  1  0.931878  0.566650  0.934821  1
  Al  Al12  1  0.928037  0.912199  0.912199  1
  Al  Al13  1  0.987365  0.337545  0.337545  1
  Al  Al14  1  0.321963  0.002434  0.337801  1
  Al  Al15  1  0.321963  0.337801  0.002434  1
  Al  Al16  1  0.928037  0.247566  0.912199  1
  Al  Al17  1  0.928037  0.912199  0.247566  1
  Al  Al18  1  0.262635  0.912455  0.912455  1
  Al  Al19  1  0.321963  0.337801  0.337801  1
  Cu  Cu20  1  0.125000  0.125000  0.125000  1
  Cu  Cu21  1  0.125000  0.625000  0.125000  1
  Cu  Cu22  1  0.125000  0.125000  0.625000  1
  W  W23  1  0.625000  0.125000  0.125000  1
  C  C24  1  0.625000  0.625000  0.625000  1
  C  C25  1  0.125000  0.625000  0.625000  1
  C  C26  1  0.625000  0.125000  0.625000  1
  C  C27  1  0.625000  0.625000  0.125000  1
