# generated using pymatgen
data_La15Pr5Si15Br
_symmetry_space_group_name_H-M   'P 1'
_cell_length_a   8.07405337
_cell_length_b   8.00365099
_cell_length_c   15.47389876
_cell_angle_alpha   89.62855329
_cell_angle_beta   89.16612099
_cell_angle_gamma   90.03943300
_symmetry_Int_Tables_number   1
_chemical_formula_structural   La15Pr5Si15Br
_chemical_formula_sum   'La15 Pr5 Si15 Br1'
_cell_volume   999.82560038
_cell_formula_units_Z   1
loop_
 _symmetry_equiv_pos_site_id
 _symmetry_equiv_pos_as_xyz
  1  'x, y, z'
loop_
 _atom_site_type_symbol
 _atom_site_label
 _atom_site_symmetry_multiplicity
 _atom_site_fract_x
 _atom_site_fract_y
 _atom_site_fract_z
 _atom_site_occupancy
  La  La0  1  0.308632  0.310939  0.000138  1
  La  La1  1  0.188197  0.807854  0.249437  1
  La  La2  1  0.795120  0.189690  0.752493  1
  La  La3  1  0.686584  0.688412  0.496702  1
  La  La4  1  0.381280  0.005446  0.442337  1
  La  La5  1  0.497126  0.869435  0.699510  1
  La  La6  1  0.511164  0.122086  0.197404  1
  La  La7  1  0.875257  0.486635  0.300307  1
  La  La8  1  0.121531  0.516590  0.803194  1
  La  La9  1  0.632887  0.985228  0.952692  1
  La  La10  1  0.995891  0.383707  0.544501  1
  La  La11  1  0.992584  0.622348  0.052739  1
  La  La12  1  0.140132  0.990824  0.874236  1
  La  La13  1  0.516609  0.629168  0.126805  1
  La  La14  1  0.485257  0.371958  0.630894  1
  Pr  Pr15  1  0.635749  0.521255  0.877549  1
  Pr  Pr16  1  0.367893  0.479542  0.375330  1
  Pr  Pr17  1  0.870988  0.017580  0.376161  1
  Pr  Pr18  1  0.984628  0.127823  0.125250  1
  Pr  Pr19  1  0.009969  0.860562  0.620753  1
  Si  Si20  1  0.333148  0.699259  0.949814  1
  Si  Si21  1  0.660972  0.302423  0.452228  1
  Si  Si22  1  0.704074  0.334770  0.051053  1
  Si  Si23  1  0.300863  0.667249  0.550008  1
  Si  Si24  1  0.802635  0.833844  0.202146  1
  Si  Si25  1  0.166228  0.196183  0.298983  1
  Si  Si26  1  0.842410  0.802889  0.797393  1
  Si  Si27  1  0.288718  0.922255  0.057432  1
  Si  Si28  1  0.577303  0.788023  0.308230  1
  Si  Si29  1  0.452576  0.211903  0.825127  1
  Si  Si30  1  0.791830  0.578200  0.689812  1
  Si  Si31  1  0.210266  0.420521  0.192236  1
  Si  Si32  1  0.704775  0.076044  0.559375  1
  Si  Si33  1  0.925754  0.290960  0.941198  1
  Si  Si34  1  0.077419  0.711703  0.441015  1
  Br  Br35  1  0.163551  0.176692  0.685519  1
