# generated using pymatgen
data_Sm3Dy14Ho3Sn16
_symmetry_space_group_name_H-M   'P 1'
_cell_length_a   8.05275192
_cell_length_b   8.19858959
_cell_length_c   15.49277433
_cell_angle_alpha   90.03179252
_cell_angle_beta   90.22356685
_cell_angle_gamma   89.90863341
_symmetry_Int_Tables_number   1
_chemical_formula_structural   Sm3Dy14Ho3Sn16
_chemical_formula_sum   'Sm3 Dy14 Ho3 Sn16'
_cell_volume   1022.84243667
_cell_formula_units_Z   1
loop_
 _symmetry_equiv_pos_site_id
 _symmetry_equiv_pos_as_xyz
  1  'x, y, z'
loop_
 _atom_site_type_symbol
 _atom_site_label
 _atom_site_symmetry_multiplicity
 _atom_site_fract_x
 _atom_site_fract_y
 _atom_site_fract_z
 _atom_site_occupancy
  Sm  Sm0  1  0.982962  0.820881  0.403362  1
  Sm  Sm1  1  0.516638  0.320996  0.595819  1
  Sm  Sm2  1  0.017453  0.179116  0.904302  1
  Dy  Dy3  1  0.366520  0.836657  0.877978  1
  Dy  Dy4  1  0.864523  0.663328  0.622304  1
  Dy  Dy5  1  0.635178  0.162858  0.376787  1
  Dy  Dy6  1  0.134076  0.337313  0.121996  1
  Dy  Dy7  1  0.632956  0.162928  0.122378  1
  Dy  Dy8  1  0.134600  0.337194  0.377154  1
  Dy  Dy9  1  0.366256  0.836918  0.622736  1
  Dy  Dy10  1  0.867711  0.662660  0.878145  1
  Dy  Dy11  1  0.521575  0.321938  0.902033  1
  Dy  Dy12  1  0.019804  0.179337  0.597642  1
  Dy  Dy13  1  0.480643  0.679014  0.402235  1
  Dy  Dy14  1  0.979100  0.820096  0.098183  1
  Dy  Dy15  1  0.479750  0.678334  0.097148  1
  Dy  Dy16  1  0.197910  0.503164  0.750426  1
  Ho  Ho17  1  0.697988  0.996936  0.750151  1
  Ho  Ho18  1  0.802066  0.497313  0.249332  1
  Ho  Ho19  1  0.302259  0.002838  0.249561  1
  Sn  Sn20  1  0.294497  0.034003  0.043045  1
  Sn  Sn21  1  0.795071  0.462668  0.457462  1
  Sn  Sn22  1  0.705189  0.963907  0.542253  1
  Sn  Sn23  1  0.208805  0.537434  0.958715  1
  Sn  Sn24  1  0.703553  0.960309  0.959117  1
  Sn  Sn25  1  0.202695  0.540315  0.540725  1
  Sn  Sn26  1  0.297339  0.039471  0.458980  1
  Sn  Sn27  1  0.792700  0.462891  0.041657  1
  Sn  Sn28  1  0.564515  0.619533  0.750563  1
  Sn  Sn29  1  0.063972  0.880301  0.749987  1
  Sn  Sn30  1  0.436374  0.381147  0.249935  1
  Sn  Sn31  1  0.936274  0.119627  0.249410  1
  Sn  Sn32  1  0.328307  0.146573  0.750860  1
  Sn  Sn33  1  0.828220  0.353201  0.749185  1
  Sn  Sn34  1  0.669894  0.851929  0.249511  1
  Sn  Sn35  1  0.172629  0.646871  0.248924  1
