# generated using pymatgen
data_Tm4CoNi2Ru5
_symmetry_space_group_name_H-M   'P 1'
_cell_length_a   5.16457200
_cell_length_b   5.08914806
_cell_length_c   8.69329200
_cell_angle_alpha   90.00000000
_cell_angle_beta   90.00000000
_cell_angle_gamma   118.97298523
_symmetry_Int_Tables_number   1
_chemical_formula_structural   Tm4CoNi2Ru5
_chemical_formula_sum   'Tm4 Co1 Ni2 Ru5'
_cell_volume   199.89244981
_cell_formula_units_Z   1
loop_
 _symmetry_equiv_pos_site_id
 _symmetry_equiv_pos_as_xyz
  1  'x, y, z'
loop_
 _atom_site_type_symbol
 _atom_site_label
 _atom_site_symmetry_multiplicity
 _atom_site_fract_x
 _atom_site_fract_y
 _atom_site_fract_z
 _atom_site_occupancy
  Tm  Tm0  1  0.328051  0.663898  0.436236  1
  Tm  Tm1  1  0.663547  0.330639  0.567472  1
  Tm  Tm2  1  0.663547  0.330639  0.932528  1
  Tm  Tm3  1  0.328051  0.663898  0.063764  1
  Co  Co4  1  0.178685  0.836626  0.750000  1
  Ni  Ni5  1  0.174924  0.343941  0.750000  1
  Ni  Ni6  1  0.338311  0.169676  0.250000  1
  Ru  Ru7  1  0.833778  0.662597  0.250000  1
  Ru  Ru8  1  0.666318  0.835815  0.750000  1
  Ru  Ru9  1  0.996241  0.994424  0.996284  1
  Ru  Ru10  1  0.832304  0.173424  0.250000  1
  Ru  Ru11  1  0.996241  0.994424  0.503716  1
