# generated using pymatgen
data_Sc3P2S
_symmetry_space_group_name_H-M   'P 1'
_cell_length_a   6.48659088
_cell_length_b   6.48659136
_cell_length_c   6.48659124
_cell_angle_alpha   146.54198071
_cell_angle_beta   131.83596622
_cell_angle_gamma   59.91460250
_symmetry_Int_Tables_number   1
_chemical_formula_structural   Sc3P2S
_chemical_formula_sum   'Sc3 P2 S1'
_cell_volume   111.09465958
_cell_formula_units_Z   1
loop_
 _symmetry_equiv_pos_site_id
 _symmetry_equiv_pos_as_xyz
  1  'x, y, z'
loop_
 _atom_site_type_symbol
 _atom_site_label
 _atom_site_symmetry_multiplicity
 _atom_site_fract_x
 _atom_site_fract_y
 _atom_site_fract_z
 _atom_site_occupancy
  Sc  Sc0  1  0.500000  0.000000  0.500000  1
  Sc  Sc1  1  0.171588  0.671588  0.500000  1
  Sc  Sc2  1  0.828412  0.328412  0.500000  1
  P  P3  1  0.665485  0.665485  0.000000  1
  P  P4  1  0.334515  0.334515  0.000000  1
  S  S5  1  0.000000  0.000000  0.000000  1
