# generated using pymatgen
data_Ho6Er2Re(B8Ru)3
_symmetry_space_group_name_H-M   'P 1'
_cell_length_a   3.65316400
_cell_length_b   9.12005819
_cell_length_c   11.50313271
_cell_angle_alpha   89.89018412
_cell_angle_beta   90.00000000
_cell_angle_gamma   90.00000000
_symmetry_Int_Tables_number   1
_chemical_formula_structural   Ho6Er2Re(B8Ru)3
_chemical_formula_sum   'Ho6 Er2 Re1 B24 Ru3'
_cell_volume   383.24995378
_cell_formula_units_Z   1
loop_
 _symmetry_equiv_pos_site_id
 _symmetry_equiv_pos_as_xyz
  1  'x, y, z'
loop_
 _atom_site_type_symbol
 _atom_site_label
 _atom_site_symmetry_multiplicity
 _atom_site_fract_x
 _atom_site_fract_y
 _atom_site_fract_z
 _atom_site_occupancy
  Ho  Ho0  1  0.000000  0.324021  0.413347  1
  Ho  Ho1  1  0.000000  0.676807  0.583851  1
  Ho  Ho2  1  0.000000  0.820522  0.087822  1
  Ho  Ho3  1  0.000000  0.177401  0.914953  1
  Ho  Ho4  1  0.000000  0.944038  0.372404  1
  Ho  Ho5  1  0.000000  0.057086  0.628454  1
  Er  Er6  1  0.000000  0.443860  0.127673  1
  Er  Er7  1  0.000000  0.556671  0.871424  1
  Re  Re8  1  0.000000  0.637370  0.320968  1
  B  B9  1  0.500000  0.552677  0.433278  1
  B  B10  1  0.500000  0.446369  0.567581  1
  B  B11  1  0.500000  0.054051  0.066819  1
  B  B12  1  0.500000  0.945997  0.933167  1
  B  B13  1  0.500000  0.748406  0.419483  1
  B  B14  1  0.500000  0.252085  0.580620  1
  B  B15  1  0.500000  0.248649  0.080193  1
  B  B16  1  0.500000  0.751241  0.919684  1
  B  B17  1  0.500000  0.791787  0.265720  1
  B  B18  1  0.500000  0.209104  0.734229  1
  B  B19  1  0.500000  0.291388  0.233111  1
  B  B20  1  0.500000  0.708905  0.766162  1
  B  B21  1  0.500000  0.631192  0.184985  1
  B  B22  1  0.500000  0.368408  0.815256  1
  B  B23  1  0.500000  0.132036  0.314349  1
  B  B24  1  0.500000  0.868357  0.685257  1
  B  B25  1  0.500000  0.983482  0.212461  1
  B  B26  1  0.500000  0.016598  0.787848  1
  B  B27  1  0.500000  0.481916  0.287041  1
  B  B28  1  0.500000  0.516744  0.712864  1
  B  B29  1  0.500000  0.606070  0.028686  1
  B  B30  1  0.500000  0.393347  0.970145  1
  B  B31  1  0.500000  0.108232  0.470591  1
  B  B32  1  0.500000  0.893205  0.530193  1
  Ru  Ru33  1  0.000000  0.362122  0.679908  1
  Ru  Ru34  1  0.000000  0.138116  0.178377  1
  Ru  Ru35  1  0.000000  0.861741  0.821095  1
