# generated using pymatgen
data_TbEu7Al3Si12Pd
_symmetry_space_group_name_H-M   'P 1'
_cell_length_a   8.26461500
_cell_length_b   8.26461391
_cell_length_c   8.66030900
_cell_angle_alpha   90.00000000
_cell_angle_beta   90.00000000
_cell_angle_gamma   120.00000835
_symmetry_Int_Tables_number   1
_chemical_formula_structural   TbEu7Al3Si12Pd
_chemical_formula_sum   'Tb1 Eu7 Al3 Si12 Pd1'
_cell_volume   512.28209900
_cell_formula_units_Z   1
loop_
 _symmetry_equiv_pos_site_id
 _symmetry_equiv_pos_as_xyz
  1  'x, y, z'
loop_
 _atom_site_type_symbol
 _atom_site_label
 _atom_site_symmetry_multiplicity
 _atom_site_fract_x
 _atom_site_fract_y
 _atom_site_fract_z
 _atom_site_occupancy
  Tb  Tb0  1  0.000000  0.000000  0.747961  1
  Eu  Eu1  1  0.499670  0.999338  0.251293  1
  Eu  Eu2  1  0.499548  0.999097  0.748517  1
  Eu  Eu3  1  0.000662  0.500330  0.251293  1
  Eu  Eu4  1  0.000903  0.500452  0.748517  1
  Eu  Eu5  1  0.499670  0.500330  0.251293  1
  Eu  Eu6  1  0.499548  0.500452  0.748517  1
  Eu  Eu7  1  0.000000  0.000000  0.250231  1
  Al  Al8  1  0.333333  0.666667  0.999990  1
  Al  Al9  1  0.666667  0.333333  0.999409  1
  Al  Al10  1  0.666667  0.333333  0.501306  1
  Si  Si11  1  0.163916  0.327832  0.997260  1
  Si  Si12  1  0.836895  0.673791  0.997408  1
  Si  Si13  1  0.672168  0.836084  0.997260  1
  Si  Si14  1  0.840117  0.680232  0.502192  1
  Si  Si15  1  0.326209  0.163105  0.997408  1
  Si  Si16  1  0.167622  0.335245  0.503307  1
  Si  Si17  1  0.163916  0.836084  0.997260  1
  Si  Si18  1  0.319768  0.159883  0.502192  1
  Si  Si19  1  0.836895  0.163105  0.997408  1
  Si  Si20  1  0.664755  0.832378  0.503307  1
  Si  Si21  1  0.840117  0.159883  0.502192  1
  Si  Si22  1  0.167622  0.832378  0.503307  1
  Pd  Pd23  1  0.333333  0.666667  0.501173  1
