# generated using pymatgen
data_Dy6ZnFe3Ru8
_symmetry_space_group_name_H-M   'P 1'
_cell_length_a   5.22235795
_cell_length_b   5.24398987
_cell_length_c   13.08461094
_cell_angle_alpha   91.76953301
_cell_angle_beta   88.68994417
_cell_angle_gamma   118.18952918
_symmetry_Int_Tables_number   1
_chemical_formula_structural   Dy6ZnFe3Ru8
_chemical_formula_sum   'Dy6 Zn1 Fe3 Ru8'
_cell_volume   315.66831656
_cell_formula_units_Z   1
loop_
 _symmetry_equiv_pos_site_id
 _symmetry_equiv_pos_as_xyz
  1  'x, y, z'
loop_
 _atom_site_type_symbol
 _atom_site_label
 _atom_site_symmetry_multiplicity
 _atom_site_fract_x
 _atom_site_fract_y
 _atom_site_fract_z
 _atom_site_occupancy
  Dy  Dy0  1  0.332407  0.664348  0.914290  1
  Dy  Dy1  1  0.995111  0.993587  0.252947  1
  Dy  Dy2  1  0.666287  0.332872  0.584309  1
  Dy  Dy3  1  0.333713  0.667128  0.665691  1
  Dy  Dy4  1  0.004889  0.006413  0.997053  1
  Dy  Dy5  1  0.667593  0.335652  0.335710  1
  Zn  Zn6  1  0.500000  0.000000  0.125000  1
  Fe  Fe7  1  0.500000  0.500000  0.125000  1
  Fe  Fe8  1  0.168200  0.836689  0.458885  1
  Fe  Fe9  1  0.831800  0.163311  0.791115  1
  Ru  Ru10  1  0.169022  0.338355  0.455658  1
  Ru  Ru11  1  0.830978  0.661645  0.794342  1
  Ru  Ru12  1  0.332282  0.666361  0.289223  1
  Ru  Ru13  1  0.000000  0.000000  0.625000  1
  Ru  Ru14  1  0.667718  0.333639  0.960777  1
  Ru  Ru15  1  0.000000  0.500000  0.125000  1
  Ru  Ru16  1  0.669870  0.835508  0.458407  1
  Ru  Ru17  1  0.330130  0.164492  0.791593  1
