# generated using pymatgen
data_Ce3Er(WN3)4
_symmetry_space_group_name_H-M   'P 1'
_cell_length_a   5.50724737
_cell_length_b   5.63882628
_cell_length_c   7.87978900
_cell_angle_alpha   90.00000000
_cell_angle_beta   90.00000000
_cell_angle_gamma   89.86950877
_symmetry_Int_Tables_number   1
_chemical_formula_structural   Ce3Er(WN3)4
_chemical_formula_sum   'Ce3 Er1 W4 N12'
_cell_volume   244.70157325
_cell_formula_units_Z   1
loop_
 _symmetry_equiv_pos_site_id
 _symmetry_equiv_pos_as_xyz
  1  'x, y, z'
loop_
 _atom_site_type_symbol
 _atom_site_label
 _atom_site_symmetry_multiplicity
 _atom_site_fract_x
 _atom_site_fract_y
 _atom_site_fract_z
 _atom_site_occupancy
  Ce  Ce0  1  0.490967  0.446127  0.250000  1
  Ce  Ce1  1  0.007843  0.950993  0.250000  1
  Ce  Ce2  1  0.498893  0.553403  0.750000  1
  Er  Er3  1  0.995112  0.058938  0.750000  1
  W  W4  1  0.502267  0.999589  0.502128  1
  W  W5  1  0.997497  0.500762  0.998570  1
  W  W6  1  0.997497  0.500762  0.501430  1
  W  W7  1  0.502267  0.999589  0.997872  1
  N  N8  1  0.700162  0.298142  0.541109  1
  N  N9  1  0.304529  0.697360  0.039636  1
  N  N10  1  0.200363  0.201235  0.043019  1
  N  N11  1  0.410550  0.982201  0.750000  1
  N  N12  1  0.918901  0.522240  0.250000  1
  N  N13  1  0.304529  0.697360  0.460364  1
  N  N14  1  0.805157  0.801996  0.953802  1
  N  N15  1  0.700162  0.298142  0.958891  1
  N  N16  1  0.805157  0.801996  0.546198  1
  N  N17  1  0.078494  0.473134  0.750000  1
  N  N18  1  0.200363  0.201235  0.456981  1
  N  N19  1  0.579288  0.014791  0.250000  1
