# generated using pymatgen
data_La3Gd(MoO4)6
_symmetry_space_group_name_H-M   'P 1'
_cell_length_a   7.68796560
_cell_length_b   7.68796602
_cell_length_c   11.00850715
_cell_angle_alpha   89.87077200
_cell_angle_beta   90.12923062
_cell_angle_gamma   89.78678793
_symmetry_Int_Tables_number   1
_chemical_formula_structural   La3Gd(MoO4)6
_chemical_formula_sum   'La3 Gd1 Mo6 O24'
_cell_volume   650.64798791
_cell_formula_units_Z   1
loop_
 _symmetry_equiv_pos_site_id
 _symmetry_equiv_pos_as_xyz
  1  'x, y, z'
loop_
 _atom_site_type_symbol
 _atom_site_label
 _atom_site_symmetry_multiplicity
 _atom_site_fract_x
 _atom_site_fract_y
 _atom_site_fract_z
 _atom_site_occupancy
  La  La0  1  0.690213  0.190561  0.261471  1
  La  La1  1  0.813008  0.686992  0.739701  1
  La  La2  1  0.309439  0.809787  0.261471  1
  Gd  Gd3  1  0.192281  0.307719  0.735695  1
  Mo  Mo4  1  0.494345  0.495633  0.996230  1
  Mo  Mo5  1  0.004367  0.005655  0.996230  1
  Mo  Mo6  1  0.707337  0.209418  0.646596  1
  Mo  Mo7  1  0.791542  0.708458  0.354843  1
  Mo  Mo8  1  0.290582  0.792663  0.646596  1
  Mo  Mo9  1  0.208957  0.291043  0.361149  1
  O  O10  1  0.313168  0.450212  0.898276  1
  O  O11  1  0.187753  0.964026  0.092857  1
  O  O12  1  0.683908  0.538716  0.906628  1
  O  O13  1  0.819005  0.051665  0.089632  1
  O  O14  1  0.535974  0.312247  0.092857  1
  O  O15  1  0.961284  0.816092  0.906628  1
  O  O16  1  0.448335  0.680995  0.089632  1
  O  O17  1  0.049788  0.186832  0.898276  1
  O  O18  1  0.002960  0.226734  0.301949  1
  O  O19  1  0.498633  0.731744  0.704377  1
  O  O20  1  0.996992  0.773909  0.295808  1
  O  O21  1  0.499003  0.276806  0.702465  1
  O  O22  1  0.768256  0.001367  0.704377  1
  O  O23  1  0.726091  0.503008  0.295808  1
  O  O24  1  0.223194  0.000997  0.702465  1
  O  O25  1  0.273266  0.497040  0.301949  1
  O  O26  1  0.696663  0.197959  0.484950  1
  O  O27  1  0.804506  0.695494  0.516279  1
  O  O28  1  0.302041  0.803337  0.484950  1
  O  O29  1  0.197061  0.302939  0.523049  1
  O  O30  1  0.875951  0.365647  0.691386  1
  O  O31  1  0.629094  0.870906  0.309252  1
  O  O32  1  0.134353  0.624049  0.691386  1
  O  O33  1  0.370652  0.129348  0.314785  1
