# generated using pymatgen
data_Tb5Dy(Ho2Si3)2
_symmetry_space_group_name_H-M   'P 1'
_cell_length_a   8.46384200
_cell_length_b   8.46075291
_cell_length_c   6.36503700
_cell_angle_alpha   90.00000000
_cell_angle_beta   90.00000000
_cell_angle_gamma   120.01207840
_symmetry_Int_Tables_number   1
_chemical_formula_structural   Tb5Dy(Ho2Si3)2
_chemical_formula_sum   'Tb5 Dy1 Ho4 Si6'
_cell_volume   394.68920939
_cell_formula_units_Z   1
loop_
 _symmetry_equiv_pos_site_id
 _symmetry_equiv_pos_as_xyz
  1  'x, y, z'
loop_
 _atom_site_type_symbol
 _atom_site_label
 _atom_site_symmetry_multiplicity
 _atom_site_fract_x
 _atom_site_fract_y
 _atom_site_fract_z
 _atom_site_occupancy
  Tb  Tb0  1  0.000109  0.756518  0.750000  1
  Tb  Tb1  1  0.000025  0.243551  0.250000  1
  Tb  Tb2  1  0.756474  0.756449  0.250000  1
  Tb  Tb3  1  0.756292  0.000000  0.750000  1
  Tb  Tb4  1  0.243591  0.243482  0.750000  1
  Dy  Dy5  1  0.243695  0.000000  0.250000  1
  Ho  Ho6  1  0.333327  0.666747  0.499963  1
  Ho  Ho7  1  0.666581  0.333253  0.000037  1
  Ho  Ho8  1  0.666581  0.333253  0.499963  1
  Ho  Ho9  1  0.333327  0.666747  0.000037  1
  Si  Si10  1  0.394771  0.000000  0.750000  1
  Si  Si11  1  0.394631  0.394422  0.250000  1
  Si  Si12  1  0.000209  0.605578  0.250000  1
  Si  Si13  1  0.000036  0.394750  0.750000  1
  Si  Si14  1  0.605286  0.605250  0.750000  1
  Si  Si15  1  0.605064  0.000000  0.250000  1
