# generated using pymatgen
data_Bi2PtRhF14
_symmetry_space_group_name_H-M   'P 1'
_cell_length_a   5.64656538
_cell_length_b   9.16754359
_cell_length_c   12.15980155
_cell_angle_alpha   61.96588773
_cell_angle_beta   90.01830023
_cell_angle_gamma   90.07198913
_symmetry_Int_Tables_number   1
_chemical_formula_structural   Bi2PtRhF14
_chemical_formula_sum   'Bi4 Pt2 Rh2 F28'
_cell_volume   555.59818016
_cell_formula_units_Z   2
loop_
 _symmetry_equiv_pos_site_id
 _symmetry_equiv_pos_as_xyz
  1  'x, y, z'
loop_
 _atom_site_type_symbol
 _atom_site_label
 _atom_site_symmetry_multiplicity
 _atom_site_fract_x
 _atom_site_fract_y
 _atom_site_fract_z
 _atom_site_occupancy
  Bi  Bi0  1  0.261634  0.812367  0.262008  1
  Bi  Bi1  1  0.738366  0.187633  0.737992  1
  Bi  Bi2  1  0.764175  0.183107  0.236894  1
  Bi  Bi3  1  0.235825  0.816893  0.763106  1
  Pt  Pt4  1  0.258691  0.272200  0.457963  1
  Pt  Pt5  1  0.741309  0.727800  0.542037  1
  Rh  Rh6  1  0.756738  0.728139  0.041023  1
  Rh  Rh7  1  0.243262  0.271861  0.958977  1
  F  F8  1  0.931289  0.705944  0.414357  1
  F  F9  1  0.068711  0.294056  0.585643  1
  F  F10  1  0.435729  0.290614  0.085149  1
  F  F11  1  0.564271  0.709386  0.914851  1
  F  F12  1  0.468995  0.731395  0.129948  1
  F  F13  1  0.531005  0.268605  0.870052  1
  F  F14  1  0.967817  0.273679  0.368115  1
  F  F15  1  0.032183  0.726321  0.631885  1
  F  F16  1  0.944135  0.744577  0.171006  1
  F  F17  1  0.055865  0.255423  0.828994  1
  F  F18  1  0.443188  0.258602  0.325309  1
  F  F19  1  0.556812  0.741398  0.674691  1
  F  F20  1  0.766416  0.491518  0.136208  1
  F  F21  1  0.233584  0.508482  0.863792  1
  F  F22  1  0.269314  0.514007  0.360525  1
  F  F23  1  0.730686  0.485993  0.639475  1
  F  F24  1  0.947835  0.280345  0.042843  1
  F  F25  1  0.052165  0.719655  0.957157  1
  F  F26  1  0.443303  0.719907  0.459161  1
  F  F27  1  0.556697  0.280093  0.540839  1
  F  F28  1  0.742257  0.972643  0.449403  1
  F  F29  1  0.257743  0.027357  0.550597  1
  F  F30  1  0.240368  0.031017  0.050303  1
  F  F31  1  0.759632  0.968983  0.949697  1
  F  F32  1  0.595459  0.968371  0.228939  1
  F  F33  1  0.404541  0.031629  0.771061  1
  F  F34  1  0.094983  0.029759  0.270613  1
  F  F35  1  0.905017  0.970241  0.729387  1
