# generated using pymatgen
data_Tb4LuSn4
_symmetry_space_group_name_H-M   'P 1'
_cell_length_a   8.01698300
_cell_length_b   8.17909000
_cell_length_c   15.49488500
_cell_angle_alpha   90.00000000
_cell_angle_beta   90.00000000
_cell_angle_gamma   90.00000000
_symmetry_Int_Tables_number   1
_chemical_formula_structural   Tb4LuSn4
_chemical_formula_sum   'Tb16 Lu4 Sn16'
_cell_volume   1016.02479616
_cell_formula_units_Z   4
loop_
 _symmetry_equiv_pos_site_id
 _symmetry_equiv_pos_as_xyz
  1  'x, y, z'
loop_
 _atom_site_type_symbol
 _atom_site_label
 _atom_site_symmetry_multiplicity
 _atom_site_fract_x
 _atom_site_fract_y
 _atom_site_fract_z
 _atom_site_occupancy
  Tb  Tb0  1  0.367625  0.836054  0.878306  1
  Tb  Tb1  1  0.867625  0.663946  0.621694  1
  Tb  Tb2  1  0.632375  0.163946  0.378306  1
  Tb  Tb3  1  0.132375  0.336054  0.121694  1
  Tb  Tb4  1  0.632375  0.163946  0.121694  1
  Tb  Tb5  1  0.132375  0.336054  0.378306  1
  Tb  Tb6  1  0.367625  0.836054  0.621694  1
  Tb  Tb7  1  0.867625  0.663946  0.878306  1
  Tb  Tb8  1  0.520119  0.319832  0.902410  1
  Tb  Tb9  1  0.020119  0.180168  0.597590  1
  Tb  Tb10  1  0.479881  0.680168  0.402410  1
  Tb  Tb11  1  0.979881  0.819832  0.097590  1
  Tb  Tb12  1  0.479881  0.680168  0.097590  1
  Tb  Tb13  1  0.979881  0.819832  0.402410  1
  Tb  Tb14  1  0.520119  0.319832  0.597590  1
  Tb  Tb15  1  0.020119  0.180168  0.902410  1
  Lu  Lu16  1  0.198393  0.502289  0.750000  1
  Lu  Lu17  1  0.698393  0.997711  0.750000  1
  Lu  Lu18  1  0.801607  0.497711  0.250000  1
  Lu  Lu19  1  0.301607  0.002289  0.250000  1
  Sn  Sn20  1  0.292367  0.034287  0.042825  1
  Sn  Sn21  1  0.792367  0.465713  0.457175  1
  Sn  Sn22  1  0.707633  0.965713  0.542825  1
  Sn  Sn23  1  0.207633  0.534287  0.957175  1
  Sn  Sn24  1  0.707633  0.965713  0.957175  1
  Sn  Sn25  1  0.207633  0.534287  0.542825  1
  Sn  Sn26  1  0.292367  0.034287  0.457175  1
  Sn  Sn27  1  0.792367  0.465713  0.042825  1
  Sn  Sn28  1  0.564002  0.618608  0.750000  1
  Sn  Sn29  1  0.064002  0.881392  0.750000  1
  Sn  Sn30  1  0.435998  0.381392  0.250000  1
  Sn  Sn31  1  0.935998  0.118608  0.250000  1
  Sn  Sn32  1  0.328423  0.147387  0.750000  1
  Sn  Sn33  1  0.828423  0.352613  0.750000  1
  Sn  Sn34  1  0.671577  0.852613  0.250000  1
  Sn  Sn35  1  0.171577  0.647387  0.250000  1
