# generated using pymatgen
data_Ta4Ti15Si16W
_symmetry_space_group_name_H-M   'P 1'
_cell_length_a   6.70736015
_cell_length_b   6.70965651
_cell_length_c   12.25858624
_cell_angle_alpha   90.02881311
_cell_angle_beta   89.88351277
_cell_angle_gamma   90.00578418
_symmetry_Int_Tables_number   1
_chemical_formula_structural   Ta4Ti15Si16W
_chemical_formula_sum   'Ta4 Ti15 Si16 W1'
_cell_volume   551.68521585
_cell_formula_units_Z   1
loop_
 _symmetry_equiv_pos_site_id
 _symmetry_equiv_pos_as_xyz
  1  'x, y, z'
loop_
 _atom_site_type_symbol
 _atom_site_label
 _atom_site_symmetry_multiplicity
 _atom_site_fract_x
 _atom_site_fract_y
 _atom_site_fract_z
 _atom_site_occupancy
  Ta  Ta0  1  0.995298  0.150322  0.621446  1
  Ta  Ta1  1  0.170416  0.169754  0.000290  1
  Ta  Ta2  1  0.329481  0.670390  0.250742  1
  Ta  Ta3  1  0.670876  0.330182  0.749265  1
  Ti  Ti4  1  0.350064  0.495371  0.872397  1
  Ti  Ti5  1  0.650044  0.504395  0.371691  1
  Ti  Ti6  1  0.495210  0.349530  0.128178  1
  Ti  Ti7  1  0.505324  0.650836  0.627753  1
  Ti  Ti8  1  0.004690  0.849867  0.122880  1
  Ti  Ti9  1  0.150703  0.994256  0.378657  1
  Ti  Ti10  1  0.850830  0.004579  0.876883  1
  Ti  Ti11  1  0.003488  0.341568  0.221849  1
  Ti  Ti12  1  0.159865  0.501039  0.471349  1
  Ti  Ti13  1  0.841013  0.496771  0.971329  1
  Ti  Ti14  1  0.502138  0.160613  0.528584  1
  Ti  Ti15  1  0.496604  0.841350  0.029051  1
  Ti  Ti16  1  0.996658  0.658759  0.721206  1
  Ti  Ti17  1  0.339302  0.003066  0.777739  1
  Ti  Ti18  1  0.658797  0.995528  0.278693  1
  Si  Si19  1  0.044532  0.306067  0.815117  1
  Si  Si20  1  0.196593  0.544342  0.063182  1
  Si  Si21  1  0.801322  0.460652  0.561227  1
  Si  Si22  1  0.544882  0.196310  0.937114  1
  Si  Si23  1  0.459329  0.804344  0.436896  1
  Si  Si24  1  0.954361  0.698000  0.314151  1
  Si  Si25  1  0.303638  0.043953  0.187193  1
  Si  Si26  1  0.693316  0.953200  0.686560  1
  Si  Si27  1  0.295324  0.362628  0.673661  1
  Si  Si28  1  0.140274  0.792442  0.922879  1
  Si  Si29  1  0.858745  0.206543  0.420366  1
  Si  Si30  1  0.792658  0.139996  0.077639  1
  Si  Si31  1  0.208030  0.854255  0.576529  1
  Si  Si32  1  0.707559  0.640101  0.172340  1
  Si  Si33  1  0.359586  0.292323  0.327233  1
  Si  Si34  1  0.640167  0.707625  0.828229  1
  W  W35  1  0.828879  0.829039  0.499706  1
