# generated using pymatgen
data_Zr6Ti3V(Sn3N)2
_symmetry_space_group_name_H-M   'P 1'
_cell_length_a   8.29037200
_cell_length_b   8.29037084
_cell_length_c   5.57550000
_cell_angle_alpha   90.00000000
_cell_angle_beta   90.00000000
_cell_angle_gamma   119.99999664
_symmetry_Int_Tables_number   1
_chemical_formula_structural   Zr6Ti3V(Sn3N)2
_chemical_formula_sum   'Zr6 Ti3 V1 Sn6 N2'
_cell_volume   331.86575690
_cell_formula_units_Z   1
loop_
 _symmetry_equiv_pos_site_id
 _symmetry_equiv_pos_as_xyz
  1  'x, y, z'
loop_
 _atom_site_type_symbol
 _atom_site_label
 _atom_site_symmetry_multiplicity
 _atom_site_fract_x
 _atom_site_fract_y
 _atom_site_fract_z
 _atom_site_occupancy
  Zr  Zr0  1  0.775633  0.775598  0.750024  1
  Zr  Zr1  1  0.224402  0.000035  0.750024  1
  Zr  Zr2  1  0.999965  0.224367  0.750024  1
  Zr  Zr3  1  0.224402  0.224367  0.249976  1
  Zr  Zr4  1  0.775633  0.000035  0.249976  1
  Zr  Zr5  1  0.999965  0.775598  0.249976  1
  Ti  Ti6  1  0.333333  0.666667  0.000000  1
  Ti  Ti7  1  0.333333  0.666667  0.500000  1
  Ti  Ti8  1  0.666667  0.333333  0.500000  1
  V  V9  1  0.666667  0.333333  0.000000  1
  Sn  Sn10  1  0.412990  0.410503  0.752238  1
  Sn  Sn11  1  0.589497  0.002486  0.752238  1
  Sn  Sn12  1  0.997514  0.587010  0.752238  1
  Sn  Sn13  1  0.589497  0.587010  0.247762  1
  Sn  Sn14  1  0.412990  0.002486  0.247762  1
  Sn  Sn15  1  0.997514  0.410503  0.247762  1
  N  N16  1  0.000000  0.000000  0.000000  1
  N  N17  1  0.000000  0.000000  0.500000  1
