# generated using pymatgen
data_SrLa(Al5Ru)4
_symmetry_space_group_name_H-M   'P 1'
_cell_length_a   6.91635376
_cell_length_b   6.91635450
_cell_length_c   9.22763200
_cell_angle_alpha   90.00000000
_cell_angle_beta   90.00000000
_cell_angle_gamma   96.82018281
_symmetry_Int_Tables_number   1
_chemical_formula_structural   SrLa(Al5Ru)4
_chemical_formula_sum   'Sr1 La1 Al20 Ru4'
_cell_volume   438.28903255
_cell_formula_units_Z   1
loop_
 _symmetry_equiv_pos_site_id
 _symmetry_equiv_pos_as_xyz
  1  'x, y, z'
loop_
 _atom_site_type_symbol
 _atom_site_label
 _atom_site_symmetry_multiplicity
 _atom_site_fract_x
 _atom_site_fract_y
 _atom_site_fract_z
 _atom_site_occupancy
  Sr  Sr0  1  0.879159  0.120841  0.750000  1
  La  La1  1  0.121409  0.878591  0.250000  1
  Al  Al2  1  0.622395  0.377605  0.545900  1
  Al  Al3  1  0.378108  0.621892  0.447946  1
  Al  Al4  1  0.378108  0.621892  0.052054  1
  Al  Al5  1  0.622395  0.377605  0.954100  1
  Al  Al6  1  0.227108  0.228983  0.500157  1
  Al  Al7  1  0.771017  0.772892  0.500157  1
  Al  Al8  1  0.771017  0.772892  0.999843  1
  Al  Al9  1  0.227108  0.228983  0.999843  1
  Al  Al10  1  0.839638  0.160362  0.100440  1
  Al  Al11  1  0.164022  0.835978  0.898523  1
  Al  Al12  1  0.164022  0.835978  0.601477  1
  Al  Al13  1  0.839638  0.160362  0.399560  1
  Al  Al14  1  0.860544  0.589066  0.750000  1
  Al  Al15  1  0.138430  0.411111  0.250000  1
  Al  Al16  1  0.410934  0.139456  0.750000  1
  Al  Al17  1  0.588889  0.861570  0.250000  1
  Al  Al18  1  0.221176  0.479156  0.750000  1
  Al  Al19  1  0.778487  0.518977  0.250000  1
  Al  Al20  1  0.520844  0.778824  0.750000  1
  Al  Al21  1  0.481023  0.221513  0.250000  1
  Ru  Ru22  1  0.999628  0.502364  0.499224  1
  Ru  Ru23  1  0.999628  0.502364  0.000776  1
  Ru  Ru24  1  0.497636  0.000372  0.000776  1
  Ru  Ru25  1  0.497636  0.000372  0.499224  1
