# generated using pymatgen
data_Sr4CdPt4Pb
_symmetry_space_group_name_H-M   'P 1'
_cell_length_a   6.05137378
_cell_length_b   6.05137403
_cell_length_c   8.52435496
_cell_angle_alpha   77.86320820
_cell_angle_beta   77.86320705
_cell_angle_gamma   59.44191471
_symmetry_Int_Tables_number   1
_chemical_formula_structural   Sr4CdPt4Pb
_chemical_formula_sum   'Sr4 Cd1 Pt4 Pb1'
_cell_volume   260.80455622
_cell_formula_units_Z   1
loop_
 _symmetry_equiv_pos_site_id
 _symmetry_equiv_pos_as_xyz
  1  'x, y, z'
loop_
 _atom_site_type_symbol
 _atom_site_label
 _atom_site_symmetry_multiplicity
 _atom_site_fract_x
 _atom_site_fract_y
 _atom_site_fract_z
 _atom_site_occupancy
  Sr  Sr0  1  0.501270  0.796641  0.352313  1
  Sr  Sr1  1  0.203359  0.498730  0.147687  1
  Sr  Sr2  1  0.496260  0.209919  0.648009  1
  Sr  Sr3  1  0.790081  0.503740  0.851991  1
  Cd  Cd4  1  0.861881  0.138119  0.250000  1
  Pt  Pt5  1  0.281602  0.002922  0.000304  1
  Pt  Pt6  1  0.997078  0.718398  0.499696  1
  Pt  Pt7  1  0.723407  0.003385  0.005197  1
  Pt  Pt8  1  0.996615  0.276593  0.494803  1
  Pb  Pb9  1  0.148448  0.851552  0.750000  1
