# generated using pymatgen
data_Ca3IrO6
_symmetry_space_group_name_H-M   'P 1'
_cell_length_a   6.58885114
_cell_length_b   6.58885071
_cell_length_c   6.58885115
_cell_angle_alpha   91.63643428
_cell_angle_beta   91.63642927
_cell_angle_gamma   91.63644133
_symmetry_Int_Tables_number   1
_chemical_formula_structural   Ca3IrO6
_chemical_formula_sum   'Ca6 Ir2 O12'
_cell_volume   285.68471575
_cell_formula_units_Z   2
loop_
 _symmetry_equiv_pos_site_id
 _symmetry_equiv_pos_as_xyz
  1  'x, y, z'
loop_
 _atom_site_type_symbol
 _atom_site_label
 _atom_site_symmetry_multiplicity
 _atom_site_fract_x
 _atom_site_fract_y
 _atom_site_fract_z
 _atom_site_occupancy
  Ca  Ca0  1  0.932597  0.436545  0.746815  1
  Ca  Ca1  1  0.746815  0.932597  0.436545  1
  Ca  Ca2  1  0.563455  0.253185  0.067403  1
  Ca  Ca3  1  0.436545  0.746815  0.932597  1
  Ca  Ca4  1  0.253185  0.067403  0.563455  1
  Ca  Ca5  1  0.067403  0.563455  0.253185  1
  Ir  Ir6  1  0.000000  0.000000  0.000000  1
  Ir  Ir7  1  0.500000  0.500000  0.500000  1
  O  O8  1  0.936591  0.283584  0.068492  1
  O  O9  1  0.931508  0.063409  0.716416  1
  O  O10  1  0.783699  0.578460  0.452872  1
  O  O11  1  0.716416  0.931508  0.063409  1
  O  O12  1  0.578460  0.452872  0.783699  1
  O  O13  1  0.547128  0.216301  0.421540  1
  O  O14  1  0.452872  0.783699  0.578460  1
  O  O15  1  0.421540  0.547128  0.216301  1
  O  O16  1  0.283584  0.068492  0.936591  1
  O  O17  1  0.216301  0.421540  0.547128  1
  O  O18  1  0.068492  0.936591  0.283584  1
  O  O19  1  0.063409  0.716416  0.931508  1
