# generated using pymatgen
data_La2NdNb(Co4P3)2
_symmetry_space_group_name_H-M   'P 1'
_cell_length_a   3.80538400
_cell_length_b   10.85036100
_cell_length_c   12.60937200
_cell_angle_alpha   90.00000000
_cell_angle_beta   90.00000000
_cell_angle_gamma   90.00000000
_symmetry_Int_Tables_number   1
_chemical_formula_structural   La2NdNb(Co4P3)2
_chemical_formula_sum   'La4 Nd2 Nb2 Co16 P12'
_cell_volume   520.63832372
_cell_formula_units_Z   2
loop_
 _symmetry_equiv_pos_site_id
 _symmetry_equiv_pos_as_xyz
  1  'x, y, z'
loop_
 _atom_site_type_symbol
 _atom_site_label
 _atom_site_symmetry_multiplicity
 _atom_site_fract_x
 _atom_site_fract_y
 _atom_site_fract_z
 _atom_site_occupancy
  La  La0  1  0.000000  0.500000  0.527522  1
  La  La1  1  0.500000  0.000000  0.473451  1
  La  La2  1  0.500000  0.820386  0.206685  1
  La  La3  1  0.500000  0.179614  0.206685  1
  Nd  Nd4  1  0.000000  0.680751  0.795070  1
  Nd  Nd5  1  0.000000  0.319249  0.795070  1
  Nb  Nb6  1  0.500000  0.500000  0.153058  1
  Nb  Nb7  1  0.000000  0.000000  0.846104  1
  Co  Co8  1  0.500000  0.500000  0.703831  1
  Co  Co9  1  0.000000  0.000000  0.295560  1
  Co  Co10  1  0.000000  0.500000  0.985931  1
  Co  Co11  1  0.500000  0.000000  0.010950  1
  Co  Co12  1  0.500000  0.332795  0.991743  1
  Co  Co13  1  0.500000  0.667205  0.991743  1
  Co  Co14  1  0.000000  0.168384  0.005950  1
  Co  Co15  1  0.000000  0.831616  0.005950  1
  Co  Co16  1  0.500000  0.296764  0.433180  1
  Co  Co17  1  0.500000  0.703236  0.433180  1
  Co  Co18  1  0.000000  0.204265  0.569428  1
  Co  Co19  1  0.000000  0.795735  0.569428  1
  Co  Co20  1  0.500000  0.880353  0.706897  1
  Co  Co21  1  0.500000  0.119647  0.706897  1
  Co  Co22  1  0.000000  0.619055  0.293962  1
  Co  Co23  1  0.000000  0.380945  0.293962  1
  P  P24  1  0.500000  0.500000  0.885800  1
  P  P25  1  0.000000  0.000000  0.109668  1
  P  P26  1  0.500000  0.500000  0.348809  1
  P  P27  1  0.000000  0.000000  0.651017  1
  P  P28  1  0.500000  0.303735  0.615300  1
  P  P29  1  0.500000  0.696265  0.615300  1
  P  P30  1  0.000000  0.198070  0.388236  1
  P  P31  1  0.000000  0.801930  0.388236  1
  P  P32  1  0.500000  0.843366  0.896017  1
  P  P33  1  0.500000  0.156634  0.896017  1
  P  P34  1  0.000000  0.655702  0.101683  1
  P  P35  1  0.000000  0.344298  0.101683  1
