# generated using pymatgen
data_Tb7LuHf11Si16W
_symmetry_space_group_name_H-M   'P 1'
_cell_length_a   7.25071114
_cell_length_b   7.24934291
_cell_length_c   13.31029092
_cell_angle_alpha   90.00512378
_cell_angle_beta   90.02608126
_cell_angle_gamma   90.05517241
_symmetry_Int_Tables_number   1
_chemical_formula_structural   Tb7LuHf11Si16W
_chemical_formula_sum   'Tb7 Lu1 Hf11 Si16 W1'
_cell_volume   699.62697624
_cell_formula_units_Z   1
loop_
 _symmetry_equiv_pos_site_id
 _symmetry_equiv_pos_as_xyz
  1  'x, y, z'
loop_
 _atom_site_type_symbol
 _atom_site_label
 _atom_site_symmetry_multiplicity
 _atom_site_fract_x
 _atom_site_fract_y
 _atom_site_fract_z
 _atom_site_occupancy
  Tb  Tb0  1  0.004681  0.656658  0.716940  1
  Tb  Tb1  1  0.155991  0.494690  0.464901  1
  Tb  Tb2  1  0.502424  0.845560  0.034545  1
  Tb  Tb3  1  0.845204  0.502146  0.966231  1
  Tb  Tb4  1  0.494766  0.156683  0.534481  1
  Tb  Tb5  1  0.343426  0.998287  0.787602  1
  Tb  Tb6  1  0.657088  0.005165  0.282871  1
  Lu  Lu7  1  0.000261  0.343915  0.212000  1
  Hf  Hf8  1  0.825598  0.825198  0.499579  1
  Hf  Hf9  1  0.323692  0.674191  0.248617  1
  Hf  Hf10  1  0.674659  0.324436  0.751333  1
  Hf  Hf11  1  0.147010  0.996949  0.372648  1
  Hf  Hf12  1  0.853273  0.005119  0.878200  1
  Hf  Hf13  1  0.504077  0.648501  0.624551  1
  Hf  Hf14  1  0.349066  0.493316  0.877824  1
  Hf  Hf15  1  0.493468  0.349317  0.122835  1
  Hf  Hf16  1  0.648515  0.503127  0.374792  1
  Hf  Hf17  1  0.997159  0.148111  0.626606  1
  Hf  Hf18  1  0.004793  0.854026  0.122578  1
  Si  Si19  1  0.360268  0.296199  0.315066  1
  Si  Si20  1  0.637125  0.704551  0.817599  1
  Si  Si21  1  0.204566  0.862371  0.566522  1
  Si  Si22  1  0.138234  0.797548  0.933430  1
  Si  Si23  1  0.799560  0.140436  0.068252  1
  Si  Si24  1  0.862168  0.204791  0.432921  1
  Si  Si25  1  0.295615  0.362422  0.684465  1
  Si  Si26  1  0.706126  0.635776  0.182155  1
  Si  Si27  1  0.293139  0.052513  0.182134  1
  Si  Si28  1  0.704365  0.951332  0.686404  1
  Si  Si29  1  0.450271  0.795561  0.434665  1
  Si  Si30  1  0.202507  0.544956  0.064831  1
  Si  Si31  1  0.546846  0.203994  0.936190  1
  Si  Si32  1  0.795606  0.450208  0.564920  1
  Si  Si33  1  0.051286  0.294068  0.817949  1
  Si  Si34  1  0.951769  0.701978  0.312908  1
  W  W35  1  0.175400  0.175899  0.000456  1
