# generated using pymatgen
data_DyBi3Te10
_symmetry_space_group_name_H-M   'P 1'
_cell_length_a   23.83331450
_cell_length_b   23.83331402
_cell_length_c   3.18084300
_cell_angle_alpha   90.00000000
_cell_angle_beta   90.00000000
_cell_angle_gamma   166.29204346
_symmetry_Int_Tables_number   1
_chemical_formula_structural   DyBi3Te10
_chemical_formula_sum   'Dy1 Bi3 Te10'
_cell_volume   428.16394249
_cell_formula_units_Z   1
loop_
 _symmetry_equiv_pos_site_id
 _symmetry_equiv_pos_as_xyz
  1  'x, y, z'
loop_
 _atom_site_type_symbol
 _atom_site_label
 _atom_site_symmetry_multiplicity
 _atom_site_fract_x
 _atom_site_fract_y
 _atom_site_fract_z
 _atom_site_occupancy
  Dy  Dy0  1  0.104129  0.895871  0.750000  1
  Bi  Bi1  1  0.682483  0.317517  0.250000  1
  Bi  Bi2  1  0.319747  0.680253  0.750000  1
  Bi  Bi3  1  0.887361  0.112639  0.250000  1
  Te  Te4  1  0.618382  0.381618  0.250000  1
  Te  Te5  1  0.385815  0.614185  0.750000  1
  Te  Te6  1  0.821373  0.178627  0.250000  1
  Te  Te7  1  0.173484  0.826516  0.750000  1
  Te  Te8  1  0.955990  0.044010  0.750000  1
  Te  Te9  1  0.045879  0.954121  0.250000  1
  Te  Te10  1  0.544637  0.455363  0.750000  1
  Te  Te11  1  0.460096  0.539904  0.250000  1
  Te  Te12  1  0.748454  0.251546  0.750000  1
  Te  Te13  1  0.252168  0.747832  0.250000  1
