# generated using pymatgen
data_Pa2Al2ZnMo
_symmetry_space_group_name_H-M   'P 1'
_cell_length_a   5.22989441
_cell_length_b   5.56778733
_cell_length_c   5.22989577
_cell_angle_alpha   62.65092513
_cell_angle_beta   62.32278275
_cell_angle_gamma   62.65092527
_symmetry_Int_Tables_number   1
_chemical_formula_structural   Pa2Al2ZnMo
_chemical_formula_sum   'Pa2 Al2 Zn1 Mo1'
_cell_volume   113.77954115
_cell_formula_units_Z   1
loop_
 _symmetry_equiv_pos_site_id
 _symmetry_equiv_pos_as_xyz
  1  'x, y, z'
loop_
 _atom_site_type_symbol
 _atom_site_label
 _atom_site_symmetry_multiplicity
 _atom_site_fract_x
 _atom_site_fract_y
 _atom_site_fract_z
 _atom_site_occupancy
  Pa  Pa0  1  0.632610  0.584788  0.632610  1
  Pa  Pa1  1  0.367390  0.415212  0.367390  1
  Al  Al2  1  0.500000  0.000000  0.000000  1
  Al  Al3  1  0.000000  0.000000  0.500000  1
  Zn  Zn4  1  0.000000  0.000000  0.000000  1
  Mo  Mo5  1  0.000000  0.500000  0.000000  1
