# generated using pymatgen
data_Dy6Tm4(AlSb)3
_symmetry_space_group_name_H-M   'P 1'
_cell_length_a   8.80247746
_cell_length_b   8.82742265
_cell_length_c   6.43098500
_cell_angle_alpha   90.00000000
_cell_angle_beta   90.00000000
_cell_angle_gamma   119.96753485
_symmetry_Int_Tables_number   1
_chemical_formula_structural   Dy6Tm4(AlSb)3
_chemical_formula_sum   'Dy6 Tm4 Al3 Sb3'
_cell_volume   432.90136306
_cell_formula_units_Z   1
loop_
 _symmetry_equiv_pos_site_id
 _symmetry_equiv_pos_as_xyz
  1  'x, y, z'
loop_
 _atom_site_type_symbol
 _atom_site_label
 _atom_site_symmetry_multiplicity
 _atom_site_fract_x
 _atom_site_fract_y
 _atom_site_fract_z
 _atom_site_occupancy
  Dy  Dy0  1  0.234908  0.990251  0.250000  1
  Dy  Dy1  1  0.758791  0.000771  0.750000  1
  Dy  Dy2  1  0.989004  0.234859  0.250000  1
  Dy  Dy3  1  0.762705  0.763487  0.250000  1
  Dy  Dy4  1  0.245060  0.234243  0.750000  1
  Dy  Dy5  1  0.011198  0.768699  0.750000  1
  Tm  Tm6  1  0.332979  0.679095  0.002622  1
  Tm  Tm7  1  0.666641  0.325916  0.497377  1
  Tm  Tm8  1  0.666641  0.325916  0.002623  1
  Tm  Tm9  1  0.332979  0.679095  0.497378  1
  Al  Al10  1  0.597634  0.998799  0.250000  1
  Al  Al11  1  0.405561  0.003373  0.750000  1
  Al  Al12  1  0.994579  0.598389  0.250000  1
  Sb  Sb13  1  0.388429  0.392385  0.250000  1
  Sb  Sb14  1  0.608974  0.606817  0.750000  1
  Sb  Sb15  1  0.003918  0.397904  0.750000  1
