# generated using pymatgen
data_PrSm4Ho3(Si3Rh)4
_symmetry_space_group_name_H-M   'P 1'
_cell_length_a   8.21128400
_cell_length_b   8.21128353
_cell_length_c   8.08623300
_cell_angle_alpha   90.00000000
_cell_angle_beta   90.00000000
_cell_angle_gamma   120.00000189
_symmetry_Int_Tables_number   1
_chemical_formula_structural   PrSm4Ho3(Si3Rh)4
_chemical_formula_sum   'Pr1 Sm4 Ho3 Si12 Rh4'
_cell_volume   472.17065875
_cell_formula_units_Z   1
loop_
 _symmetry_equiv_pos_site_id
 _symmetry_equiv_pos_as_xyz
  1  'x, y, z'
loop_
 _atom_site_type_symbol
 _atom_site_label
 _atom_site_symmetry_multiplicity
 _atom_site_fract_x
 _atom_site_fract_y
 _atom_site_fract_z
 _atom_site_occupancy
  Pr  Pr0  1  0.000000  0.000000  0.250000  1
  Sm  Sm1  1  0.000000  0.000000  0.750000  1
  Sm  Sm2  1  0.507109  0.492891  0.250000  1
  Sm  Sm3  1  0.507109  0.014218  0.250000  1
  Sm  Sm4  1  0.985782  0.492891  0.250000  1
  Ho  Ho5  1  0.491603  0.508397  0.750000  1
  Ho  Ho6  1  0.491603  0.983206  0.750000  1
  Ho  Ho7  1  0.016794  0.508397  0.750000  1
  Si  Si8  1  0.167284  0.832716  0.505346  1
  Si  Si9  1  0.167284  0.334569  0.505346  1
  Si  Si10  1  0.665431  0.832716  0.505346  1
  Si  Si11  1  0.831835  0.168165  0.503596  1
  Si  Si12  1  0.831835  0.663671  0.503596  1
  Si  Si13  1  0.336329  0.168165  0.503596  1
  Si  Si14  1  0.831835  0.168165  0.996404  1
  Si  Si15  1  0.831835  0.663671  0.996404  1
  Si  Si16  1  0.336329  0.168165  0.996404  1
  Si  Si17  1  0.167284  0.832716  0.994654  1
  Si  Si18  1  0.167284  0.334569  0.994654  1
  Si  Si19  1  0.665431  0.832716  0.994654  1
  Rh  Rh20  1  0.333333  0.666667  0.478668  1
  Rh  Rh21  1  0.666667  0.333333  0.542505  1
  Rh  Rh22  1  0.666667  0.333333  0.957495  1
  Rh  Rh23  1  0.333333  0.666667  0.021332  1
