# generated using pymatgen
data_Y2MnFe2Re14C3
_symmetry_space_group_name_H-M   'P 1'
_cell_length_a   6.93565532
_cell_length_b   6.93565467
_cell_length_c   6.94523901
_cell_angle_alpha   82.49880863
_cell_angle_beta   82.49880863
_cell_angle_gamma   82.59541063
_symmetry_Int_Tables_number   1
_chemical_formula_structural   Y2MnFe2Re14C3
_chemical_formula_sum   'Y2 Mn1 Fe2 Re14 C3'
_cell_volume   326.26299627
_cell_formula_units_Z   1
loop_
 _symmetry_equiv_pos_site_id
 _symmetry_equiv_pos_as_xyz
  1  'x, y, z'
loop_
 _atom_site_type_symbol
 _atom_site_label
 _atom_site_symmetry_multiplicity
 _atom_site_fract_x
 _atom_site_fract_y
 _atom_site_fract_z
 _atom_site_occupancy
  Y  Y0  1  0.648489  0.648489  0.648895  1
  Y  Y1  1  0.351511  0.351511  0.351105  1
  Mn  Mn2  1  0.000000  0.000000  0.500000  1
  Fe  Fe3  1  0.500000  0.000000  0.000000  1
  Fe  Fe4  1  0.000000  0.500000  0.000000  1
  Re  Re5  1  0.722194  0.277806  0.000000  1
  Re  Re6  1  0.999874  0.721493  0.277694  1
  Re  Re7  1  0.278507  0.000126  0.722306  1
  Re  Re8  1  0.000126  0.278507  0.722306  1
  Re  Re9  1  0.721493  0.999874  0.277694  1
  Re  Re10  1  0.277806  0.722194  0.000000  1
  Re  Re11  1  0.346909  0.346909  0.860776  1
  Re  Re12  1  0.860264  0.346694  0.345833  1
  Re  Re13  1  0.346694  0.860264  0.345833  1
  Re  Re14  1  0.653091  0.653091  0.139224  1
  Re  Re15  1  0.139736  0.653306  0.654167  1
  Re  Re16  1  0.653306  0.139736  0.654167  1
  Re  Re17  1  0.897673  0.897673  0.899084  1
  Re  Re18  1  0.102327  0.102327  0.100916  1
  C  C19  1  0.500000  0.500000  0.000000  1
  C  C20  1  0.000000  0.500000  0.500000  1
  C  C21  1  0.500000  0.000000  0.500000  1
