# generated using pymatgen
data_Th3Sc2TcRu2
_symmetry_space_group_name_H-M   'P 1'
_cell_length_a   6.09419700
_cell_length_b   8.21985624
_cell_length_c   8.21985594
_cell_angle_alpha   119.70662889
_cell_angle_beta   90.00000000
_cell_angle_gamma   90.00000000
_symmetry_Int_Tables_number   1
_chemical_formula_structural   Th3Sc2TcRu2
_chemical_formula_sum   'Th6 Sc4 Tc2 Ru4'
_cell_volume   357.64473444
_cell_formula_units_Z   2
loop_
 _symmetry_equiv_pos_site_id
 _symmetry_equiv_pos_as_xyz
  1  'x, y, z'
loop_
 _atom_site_type_symbol
 _atom_site_label
 _atom_site_symmetry_multiplicity
 _atom_site_fract_x
 _atom_site_fract_y
 _atom_site_fract_z
 _atom_site_occupancy
  Th  Th0  1  0.750000  0.746038  0.746038  1
  Th  Th1  1  0.250000  0.253962  0.253962  1
  Th  Th2  1  0.750000  0.001409  0.259067  1
  Th  Th3  1  0.250000  0.998591  0.740933  1
  Th  Th4  1  0.750000  0.259067  0.001409  1
  Th  Th5  1  0.250000  0.740933  0.998591  1
  Sc  Sc6  1  0.000000  0.666037  0.333963  1
  Sc  Sc7  1  0.000000  0.333963  0.666037  1
  Sc  Sc8  1  0.500000  0.333963  0.666037  1
  Sc  Sc9  1  0.500000  0.666037  0.333963  1
  Tc  Tc10  1  0.750000  0.395344  0.395344  1
  Tc  Tc11  1  0.250000  0.604656  0.604656  1
  Ru  Ru12  1  0.750000  0.003102  0.616522  1
  Ru  Ru13  1  0.250000  0.996898  0.383478  1
  Ru  Ru14  1  0.750000  0.616522  0.003102  1
  Ru  Ru15  1  0.250000  0.383478  0.996898  1
