# generated using pymatgen
data_MgNi3(AsO2)8
_symmetry_space_group_name_H-M   'P 1'
_cell_length_a   8.37452170
_cell_length_b   8.37452170
_cell_length_c   5.78087300
_cell_angle_alpha   90.00000000
_cell_angle_beta   90.00000000
_cell_angle_gamma   90.04679708
_symmetry_Int_Tables_number   1
_chemical_formula_structural   MgNi3(AsO2)8
_chemical_formula_sum   'Mg1 Ni3 As8 O16'
_cell_volume   405.42759759
_cell_formula_units_Z   1
loop_
 _symmetry_equiv_pos_site_id
 _symmetry_equiv_pos_as_xyz
  1  'x, y, z'
loop_
 _atom_site_type_symbol
 _atom_site_label
 _atom_site_symmetry_multiplicity
 _atom_site_fract_x
 _atom_site_fract_y
 _atom_site_fract_z
 _atom_site_occupancy
  Mg  Mg0  1  0.500000  0.000000  0.250000  1
  Ni  Ni1  1  0.000000  0.500000  0.750000  1
  Ni  Ni2  1  0.500000  0.000000  0.750000  1
  Ni  Ni3  1  0.000000  0.500000  0.250000  1
  As  As4  1  0.171599  0.186352  0.000333  1
  As  As5  1  0.185933  0.827676  0.500660  1
  As  As6  1  0.828401  0.813648  0.000333  1
  As  As7  1  0.814067  0.172324  0.500660  1
  As  As8  1  0.327676  0.685933  0.999340  1
  As  As9  1  0.672324  0.314067  0.999340  1
  As  As10  1  0.686352  0.671599  0.499667  1
  As  As11  1  0.313648  0.328401  0.499667  1
  O  O12  1  0.317276  0.182724  0.250000  1
  O  O13  1  0.181553  0.681553  0.750000  1
  O  O14  1  0.682724  0.817276  0.250000  1
  O  O15  1  0.818447  0.318447  0.750000  1
  O  O16  1  0.682446  0.817554  0.750000  1
  O  O17  1  0.817642  0.317642  0.250000  1
  O  O18  1  0.317554  0.182446  0.750000  1
  O  O19  1  0.182358  0.682358  0.250000  1
  O  O20  1  0.635074  0.107134  0.000690  1
  O  O21  1  0.106392  0.364490  0.500080  1
  O  O22  1  0.364926  0.892866  0.000690  1
  O  O23  1  0.893608  0.635510  0.500080  1
  O  O24  1  0.864490  0.606392  0.999920  1
  O  O25  1  0.135510  0.393608  0.999920  1
  O  O26  1  0.607134  0.135074  0.499310  1
  O  O27  1  0.392866  0.864926  0.499310  1
