# generated using pymatgen
data_Ac3Nd(Tc2I)2
_symmetry_space_group_name_H-M   'P 1'
_cell_length_a   4.25469000
_cell_length_b   4.25469119
_cell_length_c   19.29825700
_cell_angle_alpha   90.00000000
_cell_angle_beta   90.00000000
_cell_angle_gamma   119.99999074
_symmetry_Int_Tables_number   1
_chemical_formula_structural   Ac3Nd(Tc2I)2
_chemical_formula_sum   'Ac3 Nd1 Tc4 I2'
_cell_volume   302.54133890
_cell_formula_units_Z   1
loop_
 _symmetry_equiv_pos_site_id
 _symmetry_equiv_pos_as_xyz
  1  'x, y, z'
loop_
 _atom_site_type_symbol
 _atom_site_label
 _atom_site_symmetry_multiplicity
 _atom_site_fract_x
 _atom_site_fract_y
 _atom_site_fract_z
 _atom_site_occupancy
  Ac  Ac0  1  0.000000  0.000000  0.116594  1
  Ac  Ac1  1  0.000000  0.000000  0.888381  1
  Ac  Ac2  1  0.000000  0.000000  0.607592  1
  Nd  Nd3  1  0.000000  0.000000  0.388312  1
  Tc  Tc4  1  0.333333  0.666667  0.507720  1
  Tc  Tc5  1  0.666667  0.333333  0.480053  1
  Tc  Tc6  1  0.666667  0.333333  0.016271  1
  Tc  Tc7  1  0.333333  0.666667  0.988292  1
  I  I8  1  0.333333  0.666667  0.258463  1
  I  I9  1  0.666667  0.333333  0.748322  1
