# generated using pymatgen
data_Cs2YbCdBi2
_symmetry_space_group_name_H-M   'P 1'
_cell_length_a   5.23599300
_cell_length_b   5.23599300
_cell_length_c   9.34540000
_cell_angle_alpha   90.00000000
_cell_angle_beta   90.00000000
_cell_angle_gamma   90.00000000
_symmetry_Int_Tables_number   1
_chemical_formula_structural   Cs2YbCdBi2
_chemical_formula_sum   'Cs2 Yb1 Cd1 Bi2'
_cell_volume   256.20996034
_cell_formula_units_Z   1
loop_
 _symmetry_equiv_pos_site_id
 _symmetry_equiv_pos_as_xyz
  1  'x, y, z'
loop_
 _atom_site_type_symbol
 _atom_site_label
 _atom_site_symmetry_multiplicity
 _atom_site_fract_x
 _atom_site_fract_y
 _atom_site_fract_z
 _atom_site_occupancy
  Cs  Cs0  1  0.499999  0.000000  0.148456  1
  Cs  Cs1  1  0.000000  0.499999  0.851545  1
  Yb  Yb2  1  0.499999  0.499999  0.500000  1
  Cd  Cd3  1  0.000000  0.000000  0.500000  1
  Bi  Bi4  1  0.000000  0.499999  0.305462  1
  Bi  Bi5  1  0.499999  0.000000  0.694539  1
