# generated using pymatgen
data_Tm2LuAl3Hg2Au
_symmetry_space_group_name_H-M   'P 1'
_cell_length_a   7.21104473
_cell_length_b   7.22810514
_cell_length_c   4.25648100
_cell_angle_alpha   90.00000000
_cell_angle_beta   90.00000000
_cell_angle_gamma   120.07829035
_symmetry_Int_Tables_number   1
_chemical_formula_structural   Tm2LuAl3Hg2Au
_chemical_formula_sum   'Tm2 Lu1 Al3 Hg2 Au1'
_cell_volume   191.98213781
_cell_formula_units_Z   1
loop_
 _symmetry_equiv_pos_site_id
 _symmetry_equiv_pos_as_xyz
  1  'x, y, z'
loop_
 _atom_site_type_symbol
 _atom_site_label
 _atom_site_symmetry_multiplicity
 _atom_site_fract_x
 _atom_site_fract_y
 _atom_site_fract_z
 _atom_site_occupancy
  Tm  Tm0  1  0.411938  0.412179  0.500000  1
  Tm  Tm1  1  0.588062  0.000241  0.500000  1
  Lu  Lu2  1  0.000000  0.588673  0.500000  1
  Al  Al3  1  0.764187  0.763941  0.000000  1
  Al  Al4  1  0.235813  0.999755  0.000000  1
  Al  Al5  1  0.000000  0.235809  0.000000  1
  Hg  Hg6  1  0.668033  0.334337  0.000000  1
  Hg  Hg7  1  0.331967  0.666305  0.000000  1
  Au  Au8  1  0.000000  0.998760  0.500000  1
