# generated using pymatgen
data_DyLu3(Ga2Ag)4
_symmetry_space_group_name_H-M   'P 1'
_cell_length_a   4.34539300
_cell_length_b   6.88324517
_cell_length_c   10.19355842
_cell_angle_alpha   89.94687015
_cell_angle_beta   90.00000000
_cell_angle_gamma   90.00000000
_symmetry_Int_Tables_number   1
_chemical_formula_structural   DyLu3(Ga2Ag)4
_chemical_formula_sum   'Dy1 Lu3 Ga8 Ag4'
_cell_volume   304.89333330
_cell_formula_units_Z   1
loop_
 _symmetry_equiv_pos_site_id
 _symmetry_equiv_pos_as_xyz
  1  'x, y, z'
loop_
 _atom_site_type_symbol
 _atom_site_label
 _atom_site_symmetry_multiplicity
 _atom_site_fract_x
 _atom_site_fract_y
 _atom_site_fract_z
 _atom_site_occupancy
  Dy  Dy0  1  0.250000  0.778631  0.825571  1
  Lu  Lu1  1  0.750000  0.223078  0.174657  1
  Lu  Lu2  1  0.750000  0.722841  0.325175  1
  Lu  Lu3  1  0.250000  0.276975  0.674079  1
  Ga  Ga4  1  0.250000  0.701371  0.535664  1
  Ga  Ga5  1  0.750000  0.298885  0.463560  1
  Ga  Ga6  1  0.750000  0.796692  0.037468  1
  Ga  Ga7  1  0.250000  0.203179  0.963571  1
  Ga  Ga8  1  0.250000  0.929498  0.152945  1
  Ga  Ga9  1  0.750000  0.072960  0.846339  1
  Ga  Ga10  1  0.750000  0.569633  0.653579  1
  Ga  Ga11  1  0.250000  0.429598  0.346583  1
  Ag  Ag12  1  0.250000  0.541044  0.099140  1
  Ag  Ag13  1  0.750000  0.455632  0.902690  1
  Ag  Ag14  1  0.750000  0.957395  0.597154  1
  Ag  Ag15  1  0.250000  0.042588  0.401825  1
