# generated using pymatgen
data_DyHoCo12AsP6
_symmetry_space_group_name_H-M   'P 1'
_cell_length_a   9.08026600
_cell_length_b   9.08026734
_cell_length_c   3.57421200
_cell_angle_alpha   90.00000000
_cell_angle_beta   90.00000000
_cell_angle_gamma   120.00000240
_symmetry_Int_Tables_number   1
_chemical_formula_structural   DyHoCo12AsP6
_chemical_formula_sum   'Dy1 Ho1 Co12 As1 P6'
_cell_volume   255.21614005
_cell_formula_units_Z   1
loop_
 _symmetry_equiv_pos_site_id
 _symmetry_equiv_pos_as_xyz
  1  'x, y, z'
loop_
 _atom_site_type_symbol
 _atom_site_label
 _atom_site_symmetry_multiplicity
 _atom_site_fract_x
 _atom_site_fract_y
 _atom_site_fract_z
 _atom_site_occupancy
  Dy  Dy0  1  0.333333  0.666667  0.000000  1
  Ho  Ho1  1  0.666667  0.333333  0.500000  1
  Co  Co2  1  0.123651  0.840741  0.000000  1
  Co  Co3  1  0.385327  0.437846  0.500000  1
  Co  Co4  1  0.717091  0.876349  0.000000  1
  Co  Co5  1  0.562154  0.947480  0.500000  1
  Co  Co6  1  0.249893  0.110380  0.500000  1
  Co  Co7  1  0.860487  0.750107  0.500000  1
  Co  Co8  1  0.889620  0.139513  0.500000  1
  Co  Co9  1  0.938826  0.375092  0.000000  1
  Co  Co10  1  0.624908  0.563735  0.000000  1
  Co  Co11  1  0.436265  0.061174  0.000000  1
  Co  Co12  1  0.052520  0.614673  0.500000  1
  Co  Co13  1  0.159259  0.282909  0.000000  1
  As  As14  1  0.000000  0.000000  0.000000  1
  P  P15  1  0.596290  0.708083  0.500000  1
  P  P16  1  0.705529  0.112966  0.000000  1
  P  P17  1  0.887034  0.592564  0.000000  1
  P  P18  1  0.407436  0.294471  0.000000  1
  P  P19  1  0.291917  0.888206  0.500000  1
  P  P20  1  0.111794  0.403710  0.500000  1
