# generated using pymatgen
data_TbY3BS3
_symmetry_space_group_name_H-M   'P 1'
_cell_length_a   6.76238574
_cell_length_b   6.76238544
_cell_length_c   6.76238502
_cell_angle_alpha   131.93187187
_cell_angle_beta   131.93187143
_cell_angle_gamma   70.33664364
_symmetry_Int_Tables_number   1
_chemical_formula_structural   TbY3BS3
_chemical_formula_sum   'Tb1 Y3 B1 S3'
_cell_volume   167.73111703
_cell_formula_units_Z   1
loop_
 _symmetry_equiv_pos_site_id
 _symmetry_equiv_pos_as_xyz
  1  'x, y, z'
loop_
 _atom_site_type_symbol
 _atom_site_label
 _atom_site_symmetry_multiplicity
 _atom_site_fract_x
 _atom_site_fract_y
 _atom_site_fract_z
 _atom_site_occupancy
  Tb  Tb0  1  0.234667  0.234667  0.000000  1
  Y  Y1  1  0.765399  0.765399  0.000000  1
  Y  Y2  1  0.499937  0.999937  0.500000  1
  Y  Y3  1  0.999937  0.499937  0.500000  1
  B  B4  1  0.999950  0.999950  0.000000  1
  S  S5  1  0.749984  0.249984  0.500000  1
  S  S6  1  0.249984  0.749984  0.500000  1
  S  S7  1  0.500142  0.500142  0.000000  1
