# generated using pymatgen
data_Pr3Nd17(Si5Au)2
_symmetry_space_group_name_H-M   'P 1'
_cell_length_a   7.77317101
_cell_length_b   7.77435352
_cell_length_c   14.39161800
_cell_angle_alpha   89.98335152
_cell_angle_beta   90.00340539
_cell_angle_gamma   90.01275082
_symmetry_Int_Tables_number   1
_chemical_formula_structural   Pr3Nd17(Si5Au)2
_chemical_formula_sum   'Pr3 Nd17 Si10 Au2'
_cell_volume   869.70526829
_cell_formula_units_Z   1
loop_
 _symmetry_equiv_pos_site_id
 _symmetry_equiv_pos_as_xyz
  1  'x, y, z'
loop_
 _atom_site_type_symbol
 _atom_site_label
 _atom_site_symmetry_multiplicity
 _atom_site_fract_x
 _atom_site_fract_y
 _atom_site_fract_z
 _atom_site_occupancy
  Pr  Pr0  1  0.316177  0.663787  0.890987  1
  Pr  Pr1  1  0.336945  0.315884  0.109132  1
  Pr  Pr2  1  0.162883  0.183690  0.890982  1
  Nd  Nd3  1  0.815371  0.827016  0.604088  1
  Nd  Nd4  1  0.183829  0.836722  0.110230  1
  Nd  Nd5  1  0.172881  0.815462  0.395747  1
  Nd  Nd6  1  0.000154  0.499995  0.729597  1
  Nd  Nd7  1  0.827199  0.184339  0.395766  1
  Nd  Nd8  1  0.684587  0.672933  0.395781  1
  Nd  Nd9  1  0.672949  0.315519  0.604099  1
  Nd  Nd10  1  0.327171  0.684419  0.604136  1
  Nd  Nd11  1  0.000149  0.499874  0.227527  1
  Nd  Nd12  1  0.663828  0.684231  0.110107  1
  Nd  Nd13  1  0.684073  0.336483  0.889878  1
  Nd  Nd14  1  0.836443  0.816037  0.889925  1
  Nd  Nd15  1  0.315702  0.327443  0.395756  1
  Nd  Nd16  1  0.184429  0.172773  0.604113  1
  Nd  Nd17  1  0.816155  0.163213  0.109938  1
  Nd  Nd18  1  0.499847  0.000108  0.270321  1
  Nd  Nd19  1  0.499694  0.000146  0.772204  1
  Si  Si20  1  0.616870  0.385444  0.255455  1
  Si  Si21  1  0.115627  0.885028  0.744333  1
  Si  Si22  1  0.385853  0.383607  0.744325  1
  Si  Si23  1  0.383973  0.615426  0.255355  1
  Si  Si24  1  0.885057  0.883615  0.255135  1
  Si  Si25  1  0.615426  0.616159  0.744566  1
  Si  Si26  1  0.000037  0.499964  0.507158  1
  Si  Si27  1  0.883041  0.114654  0.744398  1
  Si  Si28  1  0.499920  0.000086  0.492757  1
  Si  Si29  1  0.114478  0.115841  0.255357  1
  Au  Au30  1  0.502770  0.998781  0.998460  1
  Au  Au31  1  0.996480  0.501322  0.002385  1
