# generated using pymatgen
data_Lu7ScTaNb9(Si8W)2
_symmetry_space_group_name_H-M   'P 1'
_cell_length_a   6.75639522
_cell_length_b   6.97608707
_cell_length_c   13.23865834
_cell_angle_alpha   90.04896322
_cell_angle_beta   89.98438951
_cell_angle_gamma   90.03254618
_symmetry_Int_Tables_number   1
_chemical_formula_structural   Lu7ScTaNb9(Si8W)2
_chemical_formula_sum   'Lu7 Sc1 Ta1 Nb9 Si16 W2'
_cell_volume   623.97999692
_cell_formula_units_Z   1
loop_
 _symmetry_equiv_pos_site_id
 _symmetry_equiv_pos_as_xyz
  1  'x, y, z'
loop_
 _atom_site_type_symbol
 _atom_site_label
 _atom_site_symmetry_multiplicity
 _atom_site_fract_x
 _atom_site_fract_y
 _atom_site_fract_z
 _atom_site_occupancy
  Lu  Lu0  1  0.500279  0.673379  0.594853  1
  Lu  Lu1  1  0.000310  0.826323  0.905000  1
  Lu  Lu2  1  0.499467  0.326934  0.094846  1
  Lu  Lu3  1  0.999568  0.173009  0.406037  1
  Lu  Lu4  1  0.499192  0.326778  0.405699  1
  Lu  Lu5  1  0.999703  0.173592  0.094833  1
  Lu  Lu6  1  0.500492  0.673203  0.904351  1
  Sc  Sc7  1  0.000321  0.825065  0.596181  1
  Ta  Ta8  1  0.337565  0.007195  0.749463  1
  Nb  Nb9  1  0.664126  0.172511  0.625642  1
  Nb  Nb10  1  0.162818  0.328083  0.873882  1
  Nb  Nb11  1  0.336459  0.827107  0.125877  1
  Nb  Nb12  1  0.837513  0.672423  0.374998  1
  Nb  Nb13  1  0.336436  0.827068  0.374195  1
  Nb  Nb14  1  0.837031  0.671733  0.125513  1
  Nb  Nb15  1  0.664226  0.172319  0.873643  1
  Nb  Nb16  1  0.163291  0.328283  0.625507  1
  Nb  Nb17  1  0.662480  0.993456  0.250239  1
  Si  Si18  1  0.666756  0.963439  0.460038  1
  Si  Si19  1  0.166490  0.536472  0.041851  1
  Si  Si20  1  0.333989  0.035843  0.958449  1
  Si  Si21  1  0.835365  0.466646  0.542836  1
  Si  Si22  1  0.329432  0.032973  0.541960  1
  Si  Si23  1  0.833378  0.463128  0.957911  1
  Si  Si24  1  0.666093  0.963814  0.040745  1
  Si  Si25  1  0.165751  0.538484  0.459060  1
  Si  Si26  1  0.463773  0.383567  0.749805  1
  Si  Si27  1  0.960796  0.116420  0.748752  1
  Si  Si28  1  0.536565  0.616478  0.250183  1
  Si  Si29  1  0.039863  0.881515  0.250092  1
  Si  Si30  1  0.705881  0.862286  0.748726  1
  Si  Si31  1  0.199127  0.634954  0.748542  1
  Si  Si32  1  0.295378  0.137393  0.250214  1
  Si  Si33  1  0.799669  0.367681  0.250375  1
  W  W34  1  0.838445  0.492901  0.749647  1
  W  W35  1  0.161969  0.507548  0.250057  1
