# generated using pymatgen
data_Cs8Zr(USe4)3
_symmetry_space_group_name_H-M   'P 1'
_cell_length_a   14.57679424
_cell_length_b   7.11460207
_cell_length_c   9.65759430
_cell_angle_alpha   71.95974461
_cell_angle_beta   89.85266199
_cell_angle_gamma   89.76230083
_symmetry_Int_Tables_number   1
_chemical_formula_structural   Cs8Zr(USe4)3
_chemical_formula_sum   'Cs8 Zr1 U3 Se12'
_cell_volume   952.32355035
_cell_formula_units_Z   1
loop_
 _symmetry_equiv_pos_site_id
 _symmetry_equiv_pos_as_xyz
  1  'x, y, z'
loop_
 _atom_site_type_symbol
 _atom_site_label
 _atom_site_symmetry_multiplicity
 _atom_site_fract_x
 _atom_site_fract_y
 _atom_site_fract_z
 _atom_site_occupancy
  Cs  Cs0  1  0.954191  0.674622  0.657367  1
  Cs  Cs1  1  0.457045  0.827440  0.339601  1
  Cs  Cs2  1  0.042535  0.323528  0.339856  1
  Cs  Cs3  1  0.546263  0.170543  0.656240  1
  Cs  Cs4  1  0.868887  0.089564  0.895965  1
  Cs  Cs5  1  0.372158  0.415652  0.104686  1
  Cs  Cs6  1  0.127607  0.916590  0.105151  1
  Cs  Cs7  1  0.631502  0.578507  0.895077  1
  Zr  Zr8  1  0.749420  0.156651  0.298265  1
  U  U9  1  0.750392  0.657370  0.298267  1
  U  U10  1  0.250294  0.842219  0.702634  1
  U  U11  1  0.249657  0.342163  0.702759  1
  Se  Se12  1  0.898225  0.922684  0.280885  1
  Se  Se13  1  0.403058  0.585585  0.716216  1
  Se  Se14  1  0.096948  0.087061  0.717008  1
  Se  Se15  1  0.601622  0.409157  0.281081  1
  Se  Se16  1  0.813405  0.312453  0.508557  1
  Se  Se17  1  0.317490  0.181954  0.487304  1
  Se  Se18  1  0.182380  0.682881  0.487490  1
  Se  Se19  1  0.686954  0.828327  0.509117  1
  Se  Se20  1  0.835250  0.484666  0.100698  1
  Se  Se21  1  0.335731  0.005084  0.907430  1
  Se  Se22  1  0.164049  0.506325  0.907397  1
  Se  Se23  1  0.664936  0.998970  0.100951  1
