# generated using pymatgen
data_HfRe(IrRh)3
_symmetry_space_group_name_H-M   'P 1'
_cell_length_a   5.57227500
_cell_length_b   5.57227464
_cell_length_c   4.45170100
_cell_angle_alpha   90.00000000
_cell_angle_beta   90.00000000
_cell_angle_gamma   120.00000809
_symmetry_Int_Tables_number   1
_chemical_formula_structural   HfRe(IrRh)3
_chemical_formula_sum   'Hf1 Re1 Ir3 Rh3'
_cell_volume   119.70757633
_cell_formula_units_Z   1
loop_
 _symmetry_equiv_pos_site_id
 _symmetry_equiv_pos_as_xyz
  1  'x, y, z'
loop_
 _atom_site_type_symbol
 _atom_site_label
 _atom_site_symmetry_multiplicity
 _atom_site_fract_x
 _atom_site_fract_y
 _atom_site_fract_z
 _atom_site_occupancy
  Hf  Hf0  1  0.333333  0.666667  0.750000  1
  Re  Re1  1  0.666667  0.333333  0.250000  1
  Ir  Ir2  1  0.831733  0.663467  0.750000  1
  Ir  Ir3  1  0.336533  0.168267  0.750000  1
  Ir  Ir4  1  0.831733  0.168267  0.750000  1
  Rh  Rh5  1  0.161327  0.322653  0.250000  1
  Rh  Rh6  1  0.677347  0.838673  0.250000  1
  Rh  Rh7  1  0.161327  0.838673  0.250000  1
