# generated using pymatgen
data_Pm4InPt3
_symmetry_space_group_name_H-M   'P 1'
_cell_length_a   7.48804718
_cell_length_b   5.82454568
_cell_length_c   4.64877300
_cell_angle_alpha   90.00000000
_cell_angle_beta   90.00000000
_cell_angle_gamma   88.71414153
_symmetry_Int_Tables_number   1
_chemical_formula_structural   Pm4InPt3
_chemical_formula_sum   'Pm4 In1 Pt3'
_cell_volume   202.70272592
_cell_formula_units_Z   1
loop_
 _symmetry_equiv_pos_site_id
 _symmetry_equiv_pos_as_xyz
  1  'x, y, z'
loop_
 _atom_site_type_symbol
 _atom_site_label
 _atom_site_symmetry_multiplicity
 _atom_site_fract_x
 _atom_site_fract_y
 _atom_site_fract_z
 _atom_site_occupancy
  Pm  Pm0  1  0.117907  0.495199  0.000000  1
  Pm  Pm1  1  0.578092  0.738802  0.000000  1
  Pm  Pm2  1  0.240904  0.028210  0.499999  1
  Pm  Pm3  1  0.719946  0.236677  0.499999  1
  In  In4  1  0.886720  0.730413  0.499999  1
  Pt  Pt5  1  0.461450  0.223363  0.000000  1
  Pt  Pt6  1  0.955821  0.008109  0.000000  1
  Pt  Pt7  1  0.372491  0.539229  0.499999  1
