# generated using pymatgen
data_Ta4BeNb(B2Ru5)2
_symmetry_space_group_name_H-M   'P 1'
_cell_length_a   9.30125446
_cell_length_b   9.30363246
_cell_length_c   3.00862700
_cell_angle_alpha   90.00000000
_cell_angle_beta   90.00000000
_cell_angle_gamma   89.93570392
_symmetry_Int_Tables_number   1
_chemical_formula_structural   Ta4BeNb(B2Ru5)2
_chemical_formula_sum   'Ta4 Be1 Nb1 B4 Ru10'
_cell_volume   260.35273640
_cell_formula_units_Z   1
loop_
 _symmetry_equiv_pos_site_id
 _symmetry_equiv_pos_as_xyz
  1  'x, y, z'
loop_
 _atom_site_type_symbol
 _atom_site_label
 _atom_site_symmetry_multiplicity
 _atom_site_fract_x
 _atom_site_fract_y
 _atom_site_fract_z
 _atom_site_occupancy
  Ta  Ta0  1  0.818087  0.673544  0.000000  1
  Ta  Ta1  1  0.181776  0.326366  0.000000  1
  Ta  Ta2  1  0.326522  0.817910  0.000000  1
  Ta  Ta3  1  0.999974  0.000157  0.000000  1
  Be  Be4  1  0.500143  0.499838  0.000000  1
  Nb  Nb5  1  0.673541  0.181450  0.000000  1
  B  B6  1  0.613613  0.865320  0.000000  1
  B  B7  1  0.386322  0.135034  0.000000  1
  B  B8  1  0.134767  0.613695  0.000000  1
  B  B9  1  0.864982  0.386295  0.000000  1
  Ru  Ru10  1  0.564186  0.707038  0.500000  1
  Ru  Ru11  1  0.434980  0.293238  0.500000  1
  Ru  Ru12  1  0.075250  0.779986  0.500000  1
  Ru  Ru13  1  0.926333  0.220658  0.500000  1
  Ru  Ru14  1  0.292843  0.564513  0.500000  1
  Ru  Ru15  1  0.707341  0.436476  0.500000  1
  Ru  Ru16  1  0.220067  0.074972  0.500000  1
  Ru  Ru17  1  0.779978  0.924057  0.500000  1
  Ru  Ru18  1  0.499162  0.999160  0.500000  1
  Ru  Ru19  1  0.000132  0.500292  0.500000  1
