# generated using pymatgen
data_Sc4Re3SiTc4
_symmetry_space_group_name_H-M   'P 1'
_cell_length_a   5.24369600
_cell_length_b   5.24369541
_cell_length_c   8.60647900
_cell_angle_alpha   90.00000000
_cell_angle_beta   90.00000000
_cell_angle_gamma   119.82265397
_symmetry_Int_Tables_number   1
_chemical_formula_structural   Sc4Re3SiTc4
_chemical_formula_sum   'Sc4 Re3 Si1 Tc4'
_cell_volume   205.30732564
_cell_formula_units_Z   1
loop_
 _symmetry_equiv_pos_site_id
 _symmetry_equiv_pos_as_xyz
  1  'x, y, z'
loop_
 _atom_site_type_symbol
 _atom_site_label
 _atom_site_symmetry_multiplicity
 _atom_site_fract_x
 _atom_site_fract_y
 _atom_site_fract_z
 _atom_site_occupancy
  Sc  Sc0  1  0.333804  0.666196  0.440114  1
  Sc  Sc1  1  0.665914  0.334086  0.563156  1
  Sc  Sc2  1  0.665914  0.334086  0.936844  1
  Sc  Sc3  1  0.333804  0.666196  0.059886  1
  Re  Re4  1  0.169371  0.830629  0.750000  1
  Re  Re5  1  0.169334  0.341921  0.750000  1
  Re  Re6  1  0.658079  0.830666  0.750000  1
  Si  Si7  1  0.828311  0.171689  0.250000  1
  Tc  Tc8  1  0.002920  0.997080  0.492700  1
  Tc  Tc9  1  0.002920  0.997080  0.007300  1
  Tc  Tc10  1  0.823079  0.653451  0.250000  1
  Tc  Tc11  1  0.346549  0.176921  0.250000  1
