# generated using pymatgen
data_Tl3(CuS)4
_symmetry_space_group_name_H-M   'P 1'
_cell_length_a   15.63765300
_cell_length_b   8.19315100
_cell_length_c   3.74353400
_cell_angle_alpha   90.00000000
_cell_angle_beta   90.00000000
_cell_angle_gamma   90.00000000
_symmetry_Int_Tables_number   1
_chemical_formula_structural   Tl3(CuS)4
_chemical_formula_sum   'Tl6 Cu8 S8'
_cell_volume   479.62776158
_cell_formula_units_Z   2
loop_
 _symmetry_equiv_pos_site_id
 _symmetry_equiv_pos_as_xyz
  1  'x, y, z'
loop_
 _atom_site_type_symbol
 _atom_site_label
 _atom_site_symmetry_multiplicity
 _atom_site_fract_x
 _atom_site_fract_y
 _atom_site_fract_z
 _atom_site_occupancy
  Tl  Tl0  1  0.500000  0.500000  0.499998  1
  Tl  Tl1  1  0.000000  0.000000  0.499998  1
  Tl  Tl2  1  0.262517  0.525825  0.000000  1
  Tl  Tl3  1  0.737484  0.474174  0.000000  1
  Tl  Tl4  1  0.762517  0.974175  0.000000  1
  Tl  Tl5  1  0.237483  0.025824  0.000000  1
  Cu  Cu6  1  0.053534  0.342454  0.000000  1
  Cu  Cu7  1  0.946466  0.657546  0.000000  1
  Cu  Cu8  1  0.553534  0.157547  0.000000  1
  Cu  Cu9  1  0.446465  0.842453  0.000000  1
  Cu  Cu10  1  0.416179  0.072290  0.499998  1
  Cu  Cu11  1  0.583821  0.927711  0.499998  1
  Cu  Cu12  1  0.916178  0.427709  0.499998  1
  Cu  Cu13  1  0.083821  0.572288  0.499998  1
  S  S14  1  0.412151  0.230023  0.000000  1
  S  S15  1  0.587849  0.769976  0.000000  1
  S  S16  1  0.912151  0.269978  0.000000  1
  S  S17  1  0.087849  0.730023  0.000000  1
  S  S18  1  0.137863  0.312088  0.499998  1
  S  S19  1  0.862136  0.687911  0.499998  1
  S  S20  1  0.637863  0.187913  0.499998  1
  S  S21  1  0.362136  0.812088  0.499998  1
