# generated using pymatgen
data_Th3PaCo12(CuB3)2
_symmetry_space_group_name_H-M   'P 1'
_cell_length_a   5.03462900
_cell_length_b   5.03512276
_cell_length_c   13.14882800
_cell_angle_alpha   90.00000000
_cell_angle_beta   90.00000000
_cell_angle_gamma   119.99623822
_symmetry_Int_Tables_number   1
_chemical_formula_structural   Th3PaCo12(CuB3)2
_chemical_formula_sum   'Th3 Pa1 Co12 Cu2 B6'
_cell_volume   288.67666105
_cell_formula_units_Z   1
loop_
 _symmetry_equiv_pos_site_id
 _symmetry_equiv_pos_as_xyz
  1  'x, y, z'
loop_
 _atom_site_type_symbol
 _atom_site_label
 _atom_site_symmetry_multiplicity
 _atom_site_fract_x
 _atom_site_fract_y
 _atom_site_fract_z
 _atom_site_occupancy
  Th  Th0  1  0.000000  0.000000  0.259106  1
  Th  Th1  1  0.000000  0.000000  0.000000  1
  Th  Th2  1  0.000000  0.000000  0.740894  1
  Pa  Pa3  1  0.000000  0.000000  0.500000  1
  Co  Co4  1  0.500000  0.000000  0.614627  1
  Co  Co5  1  0.500000  0.000000  0.841629  1
  Co  Co6  1  0.500000  0.500000  0.841667  1
  Co  Co7  1  0.500000  0.500000  0.385345  1
  Co  Co8  1  0.000000  0.500000  0.614659  1
  Co  Co9  1  0.000000  0.500000  0.158339  1
  Co  Co10  1  0.000000  0.500000  0.841661  1
  Co  Co11  1  0.500000  0.500000  0.158333  1
  Co  Co12  1  0.500000  0.000000  0.385373  1
  Co  Co13  1  0.500000  0.000000  0.158371  1
  Co  Co14  1  0.500000  0.500000  0.614655  1
  Co  Co15  1  0.000000  0.500000  0.385341  1
  Cu  Cu16  1  0.333378  0.666690  0.000000  1
  Cu  Cu17  1  0.666622  0.333310  0.000000  1
  B  B18  1  0.666640  0.333299  0.731797  1
  B  B19  1  0.333360  0.666701  0.731797  1
  B  B20  1  0.333360  0.666701  0.268203  1
  B  B21  1  0.666690  0.333399  0.500000  1
  B  B22  1  0.666640  0.333299  0.268203  1
  B  B23  1  0.333310  0.666601  0.500000  1
