# generated using pymatgen
data_In6Cu6Pd11Pt
_symmetry_space_group_name_H-M   'P 1'
_cell_length_a   4.14059100
_cell_length_b   7.34153500
_cell_length_c   12.41920700
_cell_angle_alpha   90.00000000
_cell_angle_beta   90.00267554
_cell_angle_gamma   90.00000000
_symmetry_Int_Tables_number   1
_chemical_formula_structural   In6Cu6Pd11Pt
_chemical_formula_sum   'In6 Cu6 Pd11 Pt1'
_cell_volume   377.52270229
_cell_formula_units_Z   1
loop_
 _symmetry_equiv_pos_site_id
 _symmetry_equiv_pos_as_xyz
  1  'x, y, z'
loop_
 _atom_site_type_symbol
 _atom_site_label
 _atom_site_symmetry_multiplicity
 _atom_site_fract_x
 _atom_site_fract_y
 _atom_site_fract_z
 _atom_site_occupancy
  In  In0  1  0.000000  0.501006  0.000000  1
  In  In1  1  0.500160  0.999727  0.167027  1
  In  In2  1  0.000060  0.499998  0.333509  1
  In  In3  1  0.500001  0.999794  0.500000  1
  In  In4  1  0.999940  0.499998  0.666491  1
  In  In5  1  0.499839  0.999727  0.832973  1
  Cu  Cu6  1  0.000000  0.000773  0.000000  1
  Cu  Cu7  1  0.500092  0.499415  0.166486  1
  Cu  Cu8  1  0.999881  0.000005  0.333367  1
  Cu  Cu9  1  0.500001  0.500380  0.500000  1
  Cu  Cu10  1  0.000119  0.000005  0.666633  1
  Cu  Cu11  1  0.499910  0.499415  0.833515  1
  Pd  Pd12  1  0.500000  0.750066  0.000000  1
  Pd  Pd13  1  0.999808  0.249927  0.166781  1
  Pd  Pd14  1  0.000134  0.749991  0.166729  1
  Pd  Pd15  1  0.500075  0.249990  0.333339  1
  Pd  Pd16  1  0.500133  0.749796  0.333397  1
  Pd  Pd17  1  0.000000  0.250039  0.500000  1
  Pd  Pd18  1  0.000000  0.749874  0.500000  1
  Pd  Pd19  1  0.499924  0.249990  0.666661  1
  Pd  Pd20  1  0.499866  0.749796  0.666603  1
  Pd  Pd21  1  0.000192  0.249927  0.833219  1
  Pd  Pd22  1  0.999866  0.749991  0.833271  1
  Pt  Pt23  1  0.500000  0.250373  0.000000  1
