# generated using pymatgen
data_Tb2Er4TcIr
_symmetry_space_group_name_H-M   'P 1'
_cell_length_a   6.32432900
_cell_length_b   7.31242200
_cell_length_c   9.10146500
_cell_angle_alpha   90.00000000
_cell_angle_beta   90.00000000
_cell_angle_gamma   90.00000000
_symmetry_Int_Tables_number   1
_chemical_formula_structural   Tb2Er4TcIr
_chemical_formula_sum   'Tb4 Er8 Tc2 Ir2'
_cell_volume   420.90782951
_cell_formula_units_Z   2
loop_
 _symmetry_equiv_pos_site_id
 _symmetry_equiv_pos_as_xyz
  1  'x, y, z'
loop_
 _atom_site_type_symbol
 _atom_site_label
 _atom_site_symmetry_multiplicity
 _atom_site_fract_x
 _atom_site_fract_y
 _atom_site_fract_z
 _atom_site_occupancy
  Tb  Tb0  1  0.874371  0.538127  0.250000  1
  Tb  Tb1  1  0.625629  0.038127  0.250000  1
  Tb  Tb2  1  0.132605  0.460143  0.750000  1
  Tb  Tb3  1  0.367395  0.960143  0.750000  1
  Er  Er4  1  0.329702  0.676357  0.065833  1
  Er  Er5  1  0.170298  0.176357  0.434167  1
  Er  Er6  1  0.668067  0.324128  0.561808  1
  Er  Er7  1  0.831933  0.824128  0.938192  1
  Er  Er8  1  0.668067  0.324128  0.938192  1
  Er  Er9  1  0.831933  0.824128  0.561808  1
  Er  Er10  1  0.329702  0.676357  0.434167  1
  Er  Er11  1  0.170298  0.176357  0.065833  1
  Tc  Tc12  1  0.036845  0.886255  0.250000  1
  Tc  Tc13  1  0.463155  0.386255  0.250000  1
  Ir  Ir14  1  0.953541  0.114502  0.750000  1
  Ir  Ir15  1  0.546459  0.614502  0.750000  1
