# generated using pymatgen
data_Sr2VIO3
_symmetry_space_group_name_H-M   'P 1'
_cell_length_a   5.72373311
_cell_length_b   5.72186679
_cell_length_c   17.33033085
_cell_angle_alpha   80.26640648
_cell_angle_beta   80.25706570
_cell_angle_gamma   88.62174027
_symmetry_Int_Tables_number   1
_chemical_formula_structural   Sr2VIO3
_chemical_formula_sum   'Sr8 V4 I4 O12'
_cell_volume   551.33099087
_cell_formula_units_Z   4
loop_
 _symmetry_equiv_pos_site_id
 _symmetry_equiv_pos_as_xyz
  1  'x, y, z'
loop_
 _atom_site_type_symbol
 _atom_site_label
 _atom_site_symmetry_multiplicity
 _atom_site_fract_x
 _atom_site_fract_y
 _atom_site_fract_z
 _atom_site_occupancy
  Sr  Sr0  1  0.144623  0.394834  0.710672  1
  Sr  Sr1  1  0.645378  0.895294  0.709779  1
  Sr  Sr2  1  0.354462  0.105119  0.290263  1
  Sr  Sr3  1  0.855118  0.605580  0.289352  1
  Sr  Sr4  1  0.458745  0.209331  0.081454  1
  Sr  Sr5  1  0.961406  0.709500  0.078409  1
  Sr  Sr6  1  0.039167  0.287952  0.921541  1
  Sr  Sr7  1  0.541295  0.791051  0.918492  1
  V  V8  1  0.092534  0.841657  0.816431  1
  V  V9  1  0.411464  0.661694  0.176801  1
  V  V10  1  0.588439  0.338363  0.823130  1
  V  V11  1  0.907736  0.158494  0.183540  1
  I  I12  1  0.302861  0.553563  0.393575  1
  I  I13  1  0.803623  0.054230  0.391957  1
  I  I14  1  0.196002  0.946033  0.608195  1
  I  I15  1  0.696730  0.446934  0.606580  1
  O  O16  1  0.467575  0.717067  0.064012  1
  O  O17  1  0.968223  0.218721  0.064321  1
  O  O18  1  0.032733  0.783087  0.935631  1
  O  O19  1  0.532121  0.280822  0.935893  1
  O  O20  1  0.851619  0.602457  0.805310  1
  O  O21  1  0.343552  0.092604  0.805044  1
  O  O22  1  0.352451  0.595386  0.803019  1
  O  O23  1  0.844977  0.101716  0.802920  1
  O  O24  1  0.155040  0.898432  0.196920  1
  O  O25  1  0.647469  0.404746  0.197126  1
  O  O26  1  0.656394  0.907752  0.194771  1
  O  O27  1  0.148265  0.397584  0.194861  1
