# generated using pymatgen
data_Hf18GaRe8Se
_symmetry_space_group_name_H-M   'P 1'
_cell_length_a   8.65098700
_cell_length_b   8.65098631
_cell_length_c   8.62434300
_cell_angle_alpha   90.00000000
_cell_angle_beta   90.00000000
_cell_angle_gamma   119.99999882
_symmetry_Int_Tables_number   1
_chemical_formula_structural   Hf18GaRe8Se
_chemical_formula_sum   'Hf18 Ga1 Re8 Se1'
_cell_volume   558.96928135
_cell_formula_units_Z   1
loop_
 _symmetry_equiv_pos_site_id
 _symmetry_equiv_pos_as_xyz
  1  'x, y, z'
loop_
 _atom_site_type_symbol
 _atom_site_label
 _atom_site_symmetry_multiplicity
 _atom_site_fract_x
 _atom_site_fract_y
 _atom_site_fract_z
 _atom_site_occupancy
  Hf  Hf0  1  0.192195  0.807805  0.450125  1
  Hf  Hf1  1  0.192195  0.384389  0.450125  1
  Hf  Hf2  1  0.615611  0.807805  0.450125  1
  Hf  Hf3  1  0.807568  0.192432  0.548195  1
  Hf  Hf4  1  0.807568  0.615134  0.548195  1
  Hf  Hf5  1  0.384866  0.192432  0.548195  1
  Hf  Hf6  1  0.807568  0.192432  0.951805  1
  Hf  Hf7  1  0.807568  0.615134  0.951805  1
  Hf  Hf8  1  0.384866  0.192432  0.951805  1
  Hf  Hf9  1  0.192195  0.807805  0.049875  1
  Hf  Hf10  1  0.192195  0.384389  0.049875  1
  Hf  Hf11  1  0.615611  0.807805  0.049875  1
  Hf  Hf12  1  0.541709  0.458291  0.250000  1
  Hf  Hf13  1  0.541709  0.083419  0.250000  1
  Hf  Hf14  1  0.916581  0.458291  0.250000  1
  Hf  Hf15  1  0.454282  0.545718  0.750000  1
  Hf  Hf16  1  0.454282  0.908566  0.750000  1
  Hf  Hf17  1  0.091434  0.545718  0.750000  1
  Ga  Ga18  1  0.333333  0.666667  0.250000  1
  Re  Re19  1  0.890060  0.109940  0.250000  1
  Re  Re20  1  0.890060  0.780120  0.250000  1
  Re  Re21  1  0.219880  0.109940  0.250000  1
  Re  Re22  1  0.109886  0.890114  0.750000  1
  Re  Re23  1  0.109886  0.219772  0.750000  1
  Re  Re24  1  0.780228  0.890114  0.750000  1
  Re  Re25  1  0.000000  0.000000  0.500269  1
  Re  Re26  1  0.000000  0.000000  0.999731  1
  Se  Se27  1  0.666667  0.333333  0.750000  1
