# generated using pymatgen
data_YbMgScNi9
_symmetry_space_group_name_H-M   'P 1'
_cell_length_a   8.30458066
_cell_length_b   8.30458082
_cell_length_c   8.30458145
_cell_angle_alpha   33.72850286
_cell_angle_beta   33.72850088
_cell_angle_gamma   33.72850177
_symmetry_Int_Tables_number   1
_chemical_formula_structural   YbMgScNi9
_chemical_formula_sum   'Yb1 Mg1 Sc1 Ni9'
_cell_volume   157.32894764
_cell_formula_units_Z   1
loop_
 _symmetry_equiv_pos_site_id
 _symmetry_equiv_pos_as_xyz
  1  'x, y, z'
loop_
 _atom_site_type_symbol
 _atom_site_label
 _atom_site_symmetry_multiplicity
 _atom_site_fract_x
 _atom_site_fract_y
 _atom_site_fract_z
 _atom_site_occupancy
  Yb  Yb0  1  0.998063  0.998063  0.998063  1
  Mg  Mg1  1  0.859609  0.859609  0.859609  1
  Sc  Sc2  1  0.142496  0.142496  0.142496  1
  Ni  Ni3  1  0.414481  0.918565  0.414481  1
  Ni  Ni4  1  0.414481  0.414481  0.918565  1
  Ni  Ni5  1  0.918565  0.414481  0.414481  1
  Ni  Ni6  1  0.585280  0.081280  0.585280  1
  Ni  Ni7  1  0.585280  0.585280  0.081280  1
  Ni  Ni8  1  0.081280  0.585280  0.585280  1
  Ni  Ni9  1  0.666811  0.666811  0.666811  1
  Ni  Ni10  1  0.333517  0.333517  0.333517  1
  Ni  Ni11  1  0.500137  0.500137  0.500137  1
