# generated using pymatgen
data_Ho3ThInIr
_symmetry_space_group_name_H-M   'P 1'
_cell_length_a   9.75323141
_cell_length_b   9.75323247
_cell_length_c   9.75323100
_cell_angle_alpha   60.00000159
_cell_angle_beta   59.99999800
_cell_angle_gamma   59.99999834
_symmetry_Int_Tables_number   1
_chemical_formula_structural   Ho3ThInIr
_chemical_formula_sum   'Ho12 Th4 In4 Ir4'
_cell_volume   656.04043841
_cell_formula_units_Z   4
loop_
 _symmetry_equiv_pos_site_id
 _symmetry_equiv_pos_as_xyz
  1  'x, y, z'
loop_
 _atom_site_type_symbol
 _atom_site_label
 _atom_site_symmetry_multiplicity
 _atom_site_fract_x
 _atom_site_fract_y
 _atom_site_fract_z
 _atom_site_occupancy
  Ho  Ho0  1  0.061412  0.438588  0.438588  1
  Ho  Ho1  1  0.438588  0.061412  0.061412  1
  Ho  Ho2  1  0.438588  0.061412  0.438588  1
  Ho  Ho3  1  0.061412  0.438588  0.061412  1
  Ho  Ho4  1  0.438588  0.438588  0.061412  1
  Ho  Ho5  1  0.061412  0.061412  0.438588  1
  Ho  Ho6  1  0.186430  0.813570  0.813570  1
  Ho  Ho7  1  0.813570  0.186430  0.186430  1
  Ho  Ho8  1  0.813570  0.186430  0.813570  1
  Ho  Ho9  1  0.186430  0.813570  0.186430  1
  Ho  Ho10  1  0.813570  0.813570  0.186430  1
  Ho  Ho11  1  0.186430  0.186430  0.813570  1
  Th  Th12  1  0.598832  0.598832  0.598832  1
  Th  Th13  1  0.598832  0.598832  0.203504  1
  Th  Th14  1  0.598832  0.203504  0.598832  1
  Th  Th15  1  0.203504  0.598832  0.598832  1
  In  In16  1  0.834251  0.834251  0.834251  1
  In  In17  1  0.834251  0.834251  0.497247  1
  In  In18  1  0.834251  0.497247  0.834251  1
  In  In19  1  0.497247  0.834251  0.834251  1
  Ir  Ir20  1  0.392483  0.392483  0.392483  1
  Ir  Ir21  1  0.392483  0.392483  0.822551  1
  Ir  Ir22  1  0.392483  0.822551  0.392483  1
  Ir  Ir23  1  0.822551  0.392483  0.392483  1
