# generated using pymatgen
data_Ta2RuI12
_symmetry_space_group_name_H-M   'P 1'
_cell_length_a   10.01123968
_cell_length_b   10.01123985
_cell_length_c   7.71939819
_cell_angle_alpha   69.94053482
_cell_angle_beta   69.94054271
_cell_angle_gamma   83.16219562
_symmetry_Int_Tables_number   1
_chemical_formula_structural   Ta2RuI12
_chemical_formula_sum   'Ta2 Ru1 I12'
_cell_volume   682.65555118
_cell_formula_units_Z   1
loop_
 _symmetry_equiv_pos_site_id
 _symmetry_equiv_pos_as_xyz
  1  'x, y, z'
loop_
 _atom_site_type_symbol
 _atom_site_label
 _atom_site_symmetry_multiplicity
 _atom_site_fract_x
 _atom_site_fract_y
 _atom_site_fract_z
 _atom_site_occupancy
  Ta  Ta0  1  0.252545  0.252545  0.753188  1
  Ta  Ta1  1  0.747455  0.747455  0.246812  1
  Ru  Ru2  1  0.000000  0.000000  0.000000  1
  I  I3  1  0.968965  0.257209  0.746283  1
  I  I4  1  0.257209  0.968965  0.746283  1
  I  I5  1  0.031035  0.742791  0.253717  1
  I  I6  1  0.742791  0.031035  0.253717  1
  I  I7  1  0.217247  0.514163  0.788210  1
  I  I8  1  0.514163  0.217247  0.788210  1
  I  I9  1  0.782753  0.485837  0.211790  1
  I  I10  1  0.485837  0.782753  0.211790  1
  I  I11  1  0.126455  0.126455  0.162935  1
  I  I12  1  0.873545  0.873545  0.837065  1
  I  I13  1  0.648546  0.648546  0.640685  1
  I  I14  1  0.351454  0.351454  0.359315  1
