# generated using pymatgen
data_Ho9TmGa3Bi2Pt
_symmetry_space_group_name_H-M   'P 1'
_cell_length_a   8.59523035
_cell_length_b   8.59523067
_cell_length_c   8.73062554
_cell_angle_alpha   124.42463997
_cell_angle_beta   124.48487469
_cell_angle_gamma   81.41165065
_symmetry_Int_Tables_number   1
_chemical_formula_structural   Ho9TmGa3Bi2Pt
_chemical_formula_sum   'Ho9 Tm1 Ga3 Bi2 Pt1'
_cell_volume   424.49616630
_cell_formula_units_Z   1
loop_
 _symmetry_equiv_pos_site_id
 _symmetry_equiv_pos_as_xyz
  1  'x, y, z'
loop_
 _atom_site_type_symbol
 _atom_site_label
 _atom_site_symmetry_multiplicity
 _atom_site_fract_x
 _atom_site_fract_y
 _atom_site_fract_z
 _atom_site_occupancy
  Ho  Ho0  1  0.501761  0.504437  0.006199  1
  Ho  Ho1  1  0.784232  0.295958  0.798742  1
  Ho  Ho2  1  0.203514  0.715289  0.201004  1
  Ho  Ho3  1  0.485717  0.997490  0.201004  1
  Ho  Ho4  1  0.299823  0.467794  0.499696  1
  Ho  Ho5  1  0.031903  0.199873  0.499696  1
  Ho  Ho6  1  0.502785  0.014509  0.798742  1
  Ho  Ho7  1  0.706045  0.514862  0.500494  1
  Ho  Ho8  1  0.985633  0.794449  0.500494  1
  Tm  Tm9  1  0.997169  0.998765  0.995934  1
  Ga  Ga10  1  0.145556  0.646106  0.791662  1
  Ga  Ga11  1  0.854460  0.353666  0.208126  1
  Ga  Ga12  1  0.639871  0.861708  0.501579  1
  Bi  Bi13  1  0.245402  0.253257  0.999615  1
  Bi  Bi14  1  0.746359  0.754214  0.999615  1
  Pt  Pt15  1  0.369768  0.127627  0.497395  1
