# generated using pymatgen
data_Ho2B6Ir
_symmetry_space_group_name_H-M   'P 1'
_cell_length_a   3.63612400
_cell_length_b   9.18021600
_cell_length_c   11.51548400
_cell_angle_alpha   90.00000000
_cell_angle_beta   90.00000000
_cell_angle_gamma   90.00000000
_symmetry_Int_Tables_number   1
_chemical_formula_structural   Ho2B6Ir
_chemical_formula_sum   'Ho8 B24 Ir4'
_cell_volume   384.39150498
_cell_formula_units_Z   4
loop_
 _symmetry_equiv_pos_site_id
 _symmetry_equiv_pos_as_xyz
  1  'x, y, z'
loop_
 _atom_site_type_symbol
 _atom_site_label
 _atom_site_symmetry_multiplicity
 _atom_site_fract_x
 _atom_site_fract_y
 _atom_site_fract_z
 _atom_site_occupancy
  Ho  Ho0  1  0.000000  0.322045  0.413117  1
  Ho  Ho1  1  0.000000  0.677955  0.586883  1
  Ho  Ho2  1  0.000000  0.822045  0.086883  1
  Ho  Ho3  1  0.000000  0.177955  0.913117  1
  Ho  Ho4  1  0.000000  0.944312  0.374364  1
  Ho  Ho5  1  0.000000  0.055688  0.625636  1
  Ho  Ho6  1  0.000000  0.444312  0.125636  1
  Ho  Ho7  1  0.000000  0.555688  0.874364  1
  B  B8  1  0.500000  0.553301  0.433931  1
  B  B9  1  0.500000  0.446699  0.566069  1
  B  B10  1  0.500000  0.053301  0.066069  1
  B  B11  1  0.500000  0.946699  0.933931  1
  B  B12  1  0.500000  0.749239  0.420867  1
  B  B13  1  0.500000  0.250761  0.579133  1
  B  B14  1  0.500000  0.249239  0.079133  1
  B  B15  1  0.500000  0.750761  0.920867  1
  B  B16  1  0.500000  0.793272  0.265400  1
  B  B17  1  0.500000  0.206728  0.734600  1
  B  B18  1  0.500000  0.293272  0.234600  1
  B  B19  1  0.500000  0.706728  0.765400  1
  B  B20  1  0.500000  0.632426  0.184386  1
  B  B21  1  0.500000  0.367574  0.815614  1
  B  B22  1  0.500000  0.132426  0.315614  1
  B  B23  1  0.500000  0.867574  0.684386  1
  B  B24  1  0.500000  0.981995  0.213097  1
  B  B25  1  0.500000  0.018005  0.786903  1
  B  B26  1  0.500000  0.481995  0.286903  1
  B  B27  1  0.500000  0.518005  0.713097  1
  B  B28  1  0.500000  0.611163  0.030434  1
  B  B29  1  0.500000  0.388837  0.969566  1
  B  B30  1  0.500000  0.111163  0.469566  1
  B  B31  1  0.500000  0.888837  0.530434  1
  Ir  Ir32  1  0.000000  0.638444  0.321466  1
  Ir  Ir33  1  0.000000  0.361556  0.678534  1
  Ir  Ir34  1  0.000000  0.138444  0.178534  1
  Ir  Ir35  1  0.000000  0.861556  0.821466  1
