# generated using pymatgen
data_KTb2NdTe4
_symmetry_space_group_name_H-M   'P 1'
_cell_length_a   4.43254600
_cell_length_b   4.43254512
_cell_length_c   15.78592400
_cell_angle_alpha   90.00000000
_cell_angle_beta   90.00000000
_cell_angle_gamma   119.99999165
_symmetry_Int_Tables_number   1
_chemical_formula_structural   KTb2NdTe4
_chemical_formula_sum   'K1 Tb2 Nd1 Te4'
_cell_volume   268.60067034
_cell_formula_units_Z   1
loop_
 _symmetry_equiv_pos_site_id
 _symmetry_equiv_pos_as_xyz
  1  'x, y, z'
loop_
 _atom_site_type_symbol
 _atom_site_label
 _atom_site_symmetry_multiplicity
 _atom_site_fract_x
 _atom_site_fract_y
 _atom_site_fract_z
 _atom_site_occupancy
  K  K0  1  0.666667  0.333333  0.750000  1
  Tb  Tb1  1  0.000000  0.000000  0.017178  1
  Tb  Tb2  1  0.000000  0.000000  0.482822  1
  Nd  Nd3  1  0.333333  0.666667  0.250000  1
  Te  Te4  1  0.333333  0.666667  0.593686  1
  Te  Te5  1  0.666667  0.333333  0.128028  1
  Te  Te6  1  0.666667  0.333333  0.371972  1
  Te  Te7  1  0.333333  0.666667  0.906314  1
