# generated using pymatgen
data_Yb(ClO4)2
_symmetry_space_group_name_H-M   'P 1'
_cell_length_a   5.29185384
_cell_length_b   5.29185267
_cell_length_c   8.01958079
_cell_angle_alpha   70.73527592
_cell_angle_beta   109.26472547
_cell_angle_gamma   119.99998960
_symmetry_Int_Tables_number   1
_chemical_formula_structural   Yb(ClO4)2
_chemical_formula_sum   'Yb1 Cl2 O8'
_cell_volume   179.82294236
_cell_formula_units_Z   1
loop_
 _symmetry_equiv_pos_site_id
 _symmetry_equiv_pos_as_xyz
  1  'x, y, z'
loop_
 _atom_site_type_symbol
 _atom_site_label
 _atom_site_symmetry_multiplicity
 _atom_site_fract_x
 _atom_site_fract_y
 _atom_site_fract_z
 _atom_site_occupancy
  Yb  Yb0  1  0.000000  0.000000  0.000000  1
  Cl  Cl1  1  0.750348  0.249652  0.251043  1
  Cl  Cl2  1  0.249653  0.750349  0.748958  1
  O  O3  1  0.755975  0.030094  0.179585  1
  O  O4  1  0.453702  0.244022  0.179585  1
  O  O5  1  0.969906  0.546296  0.179585  1
  O  O6  1  0.814160  0.185840  0.442481  1
  O  O7  1  0.185840  0.814161  0.557520  1
  O  O8  1  0.030093  0.453704  0.820414  1
  O  O9  1  0.546297  0.755977  0.820414  1
  O  O10  1  0.244024  0.969908  0.820414  1
