# generated using pymatgen
data_Ac6Mg7Cd16S
_symmetry_space_group_name_H-M   'P 1'
_cell_length_a   10.30909760
_cell_length_b   10.30884953
_cell_length_c   10.30872400
_cell_angle_alpha   60.52300154
_cell_angle_beta   60.52367870
_cell_angle_gamma   60.52397735
_symmetry_Int_Tables_number   1
_chemical_formula_structural   Ac6Mg7Cd16S
_chemical_formula_sum   'Ac6 Mg7 Cd16 S1'
_cell_volume   783.84193399
_cell_formula_units_Z   1
loop_
 _symmetry_equiv_pos_site_id
 _symmetry_equiv_pos_as_xyz
  1  'x, y, z'
loop_
 _atom_site_type_symbol
 _atom_site_label
 _atom_site_symmetry_multiplicity
 _atom_site_fract_x
 _atom_site_fract_y
 _atom_site_fract_z
 _atom_site_occupancy
  Ac  Ac0  1  0.788945  0.788925  0.211066  1
  Ac  Ac1  1  0.211063  0.788920  0.211065  1
  Ac  Ac2  1  0.788924  0.211074  0.211058  1
  Ac  Ac3  1  0.211055  0.211075  0.788934  1
  Ac  Ac4  1  0.788937  0.211080  0.788935  1
  Ac  Ac5  1  0.211076  0.788926  0.788942  1
  Mg  Mg6  1  0.000000  0.000000  0.500000  1
  Mg  Mg7  1  0.500000  0.000000  0.500000  1
  Mg  Mg8  1  0.000000  0.500000  0.500000  1
  Mg  Mg9  1  0.500000  0.500000  0.000000  1
  Mg  Mg10  1  0.000000  0.500000  0.000000  1
  Mg  Mg11  1  0.500000  0.000000  0.000000  1
  Mg  Mg12  1  0.500000  0.500000  0.500000  1
  Cd  Cd13  1  0.828168  0.828178  0.513250  1
  Cd  Cd14  1  0.828164  0.513275  0.828163  1
  Cd  Cd15  1  0.513252  0.828178  0.828167  1
  Cd  Cd16  1  0.828287  0.828293  0.828286  1
  Cd  Cd17  1  0.171832  0.171822  0.486750  1
  Cd  Cd18  1  0.171836  0.486725  0.171837  1
  Cd  Cd19  1  0.486748  0.171822  0.171833  1
  Cd  Cd20  1  0.171713  0.171707  0.171714  1
  Cd  Cd21  1  0.621752  0.621754  0.135381  1
  Cd  Cd22  1  0.621750  0.135377  0.621754  1
  Cd  Cd23  1  0.135379  0.621753  0.621754  1
  Cd  Cd24  1  0.622501  0.622510  0.622499  1
  Cd  Cd25  1  0.378248  0.378246  0.864619  1
  Cd  Cd26  1  0.378250  0.864623  0.378246  1
  Cd  Cd27  1  0.864621  0.378247  0.378246  1
  Cd  Cd28  1  0.377499  0.377490  0.377501  1
  S  S29  1  0.000000  0.000000  0.000000  1
