# generated using pymatgen
data_Hf5Zr3(V3Si4)4
_symmetry_space_group_name_H-M   'P 1'
_cell_length_a   6.62108009
_cell_length_b   6.62097271
_cell_length_c   12.25520317
_cell_angle_alpha   90.00802791
_cell_angle_beta   90.00661057
_cell_angle_gamma   89.95899905
_symmetry_Int_Tables_number   1
_chemical_formula_structural   Hf5Zr3(V3Si4)4
_chemical_formula_sum   'Hf5 Zr3 V12 Si16'
_cell_volume   537.24333479
_cell_formula_units_Z   1
loop_
 _symmetry_equiv_pos_site_id
 _symmetry_equiv_pos_as_xyz
  1  'x, y, z'
loop_
 _atom_site_type_symbol
 _atom_site_label
 _atom_site_symmetry_multiplicity
 _atom_site_fract_x
 _atom_site_fract_y
 _atom_site_fract_z
 _atom_site_occupancy
  Hf  Hf0  1  0.002768  0.661463  0.030005  1
  Hf  Hf1  1  0.837763  0.502748  0.279755  1
  Hf  Hf2  1  0.162405  0.497529  0.780151  1
  Hf  Hf3  1  0.502898  0.837562  0.720246  1
  Hf  Hf4  1  0.497558  0.162366  0.219825  1
  Zr  Zr5  1  0.997637  0.338668  0.530511  1
  Zr  Zr6  1  0.661688  0.002249  0.969652  1
  Zr  Zr7  1  0.338747  0.997591  0.469488  1
  V  V8  1  0.333242  0.334102  0.000149  1
  V  V9  1  0.165833  0.833298  0.249518  1
  V  V10  1  0.833756  0.166007  0.750251  1
  V  V11  1  0.666292  0.666420  0.499916  1
  V  V12  1  0.003539  0.159899  0.126842  1
  V  V13  1  0.340913  0.504789  0.376078  1
  V  V14  1  0.659406  0.495953  0.876774  1
  V  V15  1  0.504713  0.340787  0.623880  1
  V  V16  1  0.495373  0.658897  0.123460  1
  V  V17  1  0.996383  0.839549  0.627242  1
  V  V18  1  0.159774  0.003352  0.873474  1
  V  V19  1  0.839431  0.996326  0.372753  1
  Si  Si20  1  0.289880  0.960823  0.064801  1
  Si  Si21  1  0.539534  0.790708  0.313846  1
  Si  Si22  1  0.460617  0.209394  0.814397  1
  Si  Si23  1  0.790579  0.539429  0.686084  1
  Si  Si24  1  0.208586  0.461068  0.185398  1
  Si  Si25  1  0.709810  0.038730  0.564866  1
  Si  Si26  1  0.961475  0.291341  0.935327  1
  Si  Si27  1  0.038730  0.709925  0.435117  1
  Si  Si28  1  0.705604  0.374018  0.071502  1
  Si  Si29  1  0.126215  0.206053  0.320560  1
  Si  Si30  1  0.873927  0.793593  0.821264  1
  Si  Si31  1  0.205957  0.126239  0.679508  1
  Si  Si32  1  0.794539  0.872711  0.178684  1
  Si  Si33  1  0.295163  0.626481  0.571554  1
  Si  Si34  1  0.372697  0.704806  0.928662  1
  Si  Si35  1  0.626569  0.295124  0.428460  1
