# generated using pymatgen
data_Pr2Nd2Ga18Ru5Rh
_symmetry_space_group_name_H-M   'P 1'
_cell_length_a   7.58939865
_cell_length_b   7.58994338
_cell_length_c   9.84773102
_cell_angle_alpha   90.09049469
_cell_angle_beta   90.09188834
_cell_angle_gamma   119.50260909
_symmetry_Int_Tables_number   1
_chemical_formula_structural   Pr2Nd2Ga18Ru5Rh
_chemical_formula_sum   'Pr2 Nd2 Ga18 Ru5 Rh1'
_cell_volume   493.70269467
_cell_formula_units_Z   1
loop_
 _symmetry_equiv_pos_site_id
 _symmetry_equiv_pos_as_xyz
  1  'x, y, z'
loop_
 _atom_site_type_symbol
 _atom_site_label
 _atom_site_symmetry_multiplicity
 _atom_site_fract_x
 _atom_site_fract_y
 _atom_site_fract_z
 _atom_site_occupancy
  Pr  Pr0  1  0.997100  0.669325  0.250321  1
  Pr  Pr1  1  0.002900  0.330675  0.749679  1
  Nd  Nd2  1  0.669316  0.997172  0.250332  1
  Nd  Nd3  1  0.330684  0.002828  0.749668  1
  Ga  Ga4  1  0.130204  0.130297  0.250745  1
  Ga  Ga5  1  0.869796  0.869703  0.749255  1
  Ga  Ga6  1  0.006694  0.336290  0.073938  1
  Ga  Ga7  1  0.993306  0.663710  0.926062  1
  Ga  Ga8  1  0.992216  0.664244  0.573497  1
  Ga  Ga9  1  0.335991  0.007884  0.426583  1
  Ga  Ga10  1  0.007784  0.335756  0.426503  1
  Ga  Ga11  1  0.664009  0.992116  0.573417  1
  Ga  Ga12  1  0.663472  0.993211  0.926136  1
  Ga  Ga13  1  0.336528  0.006789  0.073864  1
  Ga  Ga14  1  0.338379  0.338281  0.555763  1
  Ga  Ga15  1  0.661621  0.661719  0.444237  1
  Ga  Ga16  1  0.660115  0.660204  0.056667  1
  Ga  Ga17  1  0.339885  0.339796  0.943333  1
  Ga  Ga18  1  0.336796  0.546926  0.249673  1
  Ga  Ga19  1  0.663204  0.453074  0.750327  1
  Ga  Ga20  1  0.546809  0.336582  0.249674  1
  Ga  Ga21  1  0.453191  0.663418  0.750326  1
  Ru  Ru22  1  0.673314  0.326559  0.000002  1
  Ru  Ru23  1  0.326686  0.673441  0.999998  1
  Ru  Ru24  1  0.326707  0.673391  0.500007  1
  Ru  Ru25  1  0.673293  0.326609  0.499993  1
  Ru  Ru26  1  0.000000  0.000000  0.500000  1
  Rh  Rh27  1  0.000000  0.000000  0.000000  1
