# generated using pymatgen
data_Er12CdCo4Pt
_symmetry_space_group_name_H-M   'P 1'
_cell_length_a   8.23207350
_cell_length_b   8.23207277
_cell_length_c   8.23207364
_cell_angle_alpha   111.08223218
_cell_angle_beta   110.50827936
_cell_angle_gamma   106.85495649
_symmetry_Int_Tables_number   1
_chemical_formula_structural   Er12CdCo4Pt
_chemical_formula_sum   'Er12 Cd1 Co4 Pt1'
_cell_volume   428.76423291
_cell_formula_units_Z   1
loop_
 _symmetry_equiv_pos_site_id
 _symmetry_equiv_pos_as_xyz
  1  'x, y, z'
loop_
 _atom_site_type_symbol
 _atom_site_label
 _atom_site_symmetry_multiplicity
 _atom_site_fract_x
 _atom_site_fract_y
 _atom_site_fract_z
 _atom_site_occupancy
  Er  Er0  1  0.185132  0.289493  0.474625  1
  Er  Er1  1  0.814868  0.710507  0.525375  1
  Er  Er2  1  0.185132  0.710507  0.895639  1
  Er  Er3  1  0.814868  0.289493  0.104361  1
  Er  Er4  1  0.315622  0.620210  0.304588  1
  Er  Er5  1  0.684378  0.379790  0.695412  1
  Er  Er6  1  0.315622  0.011035  0.695412  1
  Er  Er7  1  0.684378  0.988965  0.304588  1
  Er  Er8  1  0.415401  0.217407  0.197994  1
  Er  Er9  1  0.584599  0.782593  0.802006  1
  Er  Er10  1  0.019413  0.217407  0.802006  1
  Er  Er11  1  0.980587  0.782593  0.197994  1
  Cd  Cd12  1  0.500000  0.500000  0.000000  1
  Co  Co13  1  0.112702  0.612702  0.500000  1
  Co  Co14  1  0.887298  0.387298  0.500000  1
  Co  Co15  1  0.377671  0.000000  0.377671  1
  Co  Co16  1  0.622329  0.000000  0.622329  1
  Pt  Pt17  1  0.000000  0.000000  0.000000  1
