# generated using pymatgen
data_La7Ru4C9
_symmetry_space_group_name_H-M   'P 1'
_cell_length_a   6.58983167
_cell_length_b   6.58983207
_cell_length_c   11.98287490
_cell_angle_alpha   71.23067840
_cell_angle_beta   71.23067870
_cell_angle_gamma   48.54796222
_symmetry_Int_Tables_number   1
_chemical_formula_structural   La7Ru4C9
_chemical_formula_sum   'La7 Ru4 C9'
_cell_volume   364.91733093
_cell_formula_units_Z   1
loop_
 _symmetry_equiv_pos_site_id
 _symmetry_equiv_pos_as_xyz
  1  'x, y, z'
loop_
 _atom_site_type_symbol
 _atom_site_label
 _atom_site_symmetry_multiplicity
 _atom_site_fract_x
 _atom_site_fract_y
 _atom_site_fract_z
 _atom_site_occupancy
  La  La0  1  0.373764  0.373764  0.842859  1
  La  La1  1  0.145852  0.145852  0.679831  1
  La  La2  1  0.854148  0.854148  0.320169  1
  La  La3  1  0.138943  0.138943  0.382414  1
  La  La4  1  0.861057  0.861057  0.617586  1
  La  La5  1  0.000000  0.000000  0.000000  1
  La  La6  1  0.626236  0.626236  0.157141  1
  Ru  Ru7  1  0.358008  0.358008  0.141018  1
  Ru  Ru8  1  0.566207  0.566207  0.570483  1
  Ru  Ru9  1  0.433793  0.433793  0.429517  1
  Ru  Ru10  1  0.641992  0.641992  0.858982  1
  C  C11  1  0.384405  0.384405  0.290579  1
  C  C12  1  0.921506  0.921506  0.819629  1
  C  C13  1  0.392227  0.392227  0.613487  1
  C  C14  1  0.196324  0.196324  0.142776  1
  C  C15  1  0.803676  0.803676  0.857224  1
  C  C16  1  0.500000  0.500000  0.000000  1
  C  C17  1  0.078494  0.078494  0.180371  1
  C  C18  1  0.615595  0.615595  0.709421  1
  C  C19  1  0.607773  0.607773  0.386513  1
