# generated using pymatgen
data_Ta6V4Si6H
_symmetry_space_group_name_H-M   'P 1'
_cell_length_a   7.39018800
_cell_length_b   7.39018976
_cell_length_c   4.99813500
_cell_angle_alpha   90.00000000
_cell_angle_beta   90.00000000
_cell_angle_gamma   120.00000108
_symmetry_Int_Tables_number   1
_chemical_formula_structural   Ta6V4Si6H
_chemical_formula_sum   'Ta6 V4 Si6 H1'
_cell_volume   236.40120493
_cell_formula_units_Z   1
loop_
 _symmetry_equiv_pos_site_id
 _symmetry_equiv_pos_as_xyz
  1  'x, y, z'
loop_
 _atom_site_type_symbol
 _atom_site_label
 _atom_site_symmetry_multiplicity
 _atom_site_fract_x
 _atom_site_fract_y
 _atom_site_fract_z
 _atom_site_occupancy
  Ta  Ta0  1  0.000000  0.757285  0.248438  1
  Ta  Ta1  1  0.242715  0.242715  0.248438  1
  Ta  Ta2  1  0.757285  0.000000  0.248438  1
  Ta  Ta3  1  0.000000  0.242715  0.751562  1
  Ta  Ta4  1  0.757285  0.757285  0.751562  1
  Ta  Ta5  1  0.242715  0.000000  0.751562  1
  V  V6  1  0.333333  0.666667  0.500000  1
  V  V7  1  0.666667  0.333333  0.500000  1
  V  V8  1  0.666667  0.333333  0.000000  1
  V  V9  1  0.333333  0.666667  0.000000  1
  Si  Si10  1  0.000000  0.403940  0.248903  1
  Si  Si11  1  0.596060  0.596060  0.248903  1
  Si  Si12  1  0.403940  0.000000  0.248903  1
  Si  Si13  1  0.000000  0.596060  0.751097  1
  Si  Si14  1  0.403940  0.403940  0.751097  1
  Si  Si15  1  0.596060  0.000000  0.751097  1
  H  H16  1  0.000000  0.000000  0.500000  1
