# generated using pymatgen
data_Yb19Sm(SiSb2)4
_symmetry_space_group_name_H-M   'P 1'
_cell_length_a   7.95169128
_cell_length_b   9.47776988
_cell_length_c   12.54477113
_cell_angle_alpha   90.02109691
_cell_angle_beta   89.57653648
_cell_angle_gamma   89.89837164
_symmetry_Int_Tables_number   1
_chemical_formula_structural   Yb19Sm(SiSb2)4
_chemical_formula_sum   'Yb19 Sm1 Si4 Sb8'
_cell_volume   945.40051842
_cell_formula_units_Z   1
loop_
 _symmetry_equiv_pos_site_id
 _symmetry_equiv_pos_as_xyz
  1  'x, y, z'
loop_
 _atom_site_type_symbol
 _atom_site_label
 _atom_site_symmetry_multiplicity
 _atom_site_fract_x
 _atom_site_fract_y
 _atom_site_fract_z
 _atom_site_occupancy
  Yb  Yb0  1  0.446680  0.750134  0.000518  1
  Yb  Yb1  1  0.948220  0.248476  0.499308  1
  Yb  Yb2  1  0.553504  0.249654  0.999585  1
  Yb  Yb3  1  0.048715  0.752717  0.500762  1
  Yb  Yb4  1  0.650982  0.751102  0.298726  1
  Yb  Yb5  1  0.148140  0.248367  0.199756  1
  Yb  Yb6  1  0.350803  0.249306  0.700867  1
  Yb  Yb7  1  0.851776  0.750616  0.800908  1
  Yb  Yb8  1  0.324139  0.749910  0.720704  1
  Yb  Yb9  1  0.827129  0.249358  0.781736  1
  Yb  Yb10  1  0.676540  0.248165  0.278900  1
  Yb  Yb11  1  0.173333  0.751813  0.218319  1
  Yb  Yb12  1  0.822398  0.528975  0.074135  1
  Yb  Yb13  1  0.677652  0.972513  0.575123  1
  Yb  Yb14  1  0.177299  0.028591  0.925376  1
  Yb  Yb15  1  0.681741  0.528933  0.576540  1
  Yb  Yb16  1  0.177657  0.471007  0.925239  1
  Yb  Yb17  1  0.320870  0.029872  0.424354  1
  Yb  Yb18  1  0.822431  0.971102  0.074407  1
  Sm  Sm19  1  0.323033  0.473287  0.427463  1
  Si  Si20  1  0.062001  0.749653  0.989769  1
  Si  Si21  1  0.555993  0.253129  0.507743  1
  Si  Si22  1  0.938369  0.250042  0.009923  1
  Si  Si23  1  0.436308  0.745906  0.488144  1
  Sb  Sb24  1  0.441866  0.006683  0.169601  1
  Sb  Sb25  1  0.939194  0.991968  0.332087  1
  Sb  Sb26  1  0.559276  0.507507  0.831041  1
  Sb  Sb27  1  0.062513  0.491145  0.665926  1
  Sb  Sb28  1  0.558274  0.992541  0.829788  1
  Sb  Sb29  1  0.059356  0.007171  0.668368  1
  Sb  Sb30  1  0.440993  0.492559  0.173054  1
  Sb  Sb31  1  0.942815  0.507801  0.331830  1
