# generated using pymatgen
data_Ac20Si15P
_symmetry_space_group_name_H-M   'P 1'
_cell_length_a   8.27751412
_cell_length_b   8.27054676
_cell_length_c   16.38108148
_cell_angle_alpha   89.89596223
_cell_angle_beta   89.67279662
_cell_angle_gamma   90.06497851
_symmetry_Int_Tables_number   1
_chemical_formula_structural   Ac20Si15P
_chemical_formula_sum   'Ac20 Si15 P1'
_cell_volume   1121.42088423
_cell_formula_units_Z   1
loop_
 _symmetry_equiv_pos_site_id
 _symmetry_equiv_pos_as_xyz
  1  'x, y, z'
loop_
 _atom_site_type_symbol
 _atom_site_label
 _atom_site_symmetry_multiplicity
 _atom_site_fract_x
 _atom_site_fract_y
 _atom_site_fract_z
 _atom_site_occupancy
  Ac  Ac0  1  0.311470  0.308800  0.999488  1
  Ac  Ac1  1  0.190048  0.809234  0.249521  1
  Ac  Ac2  1  0.806014  0.191769  0.750461  1
  Ac  Ac3  1  0.690570  0.689706  0.499313  1
  Ac  Ac4  1  0.382114  0.012357  0.443804  1
  Ac  Ac5  1  0.484765  0.880230  0.696165  1
  Ac  Ac6  1  0.513919  0.120290  0.195355  1
  Ac  Ac7  1  0.879234  0.484858  0.303912  1
  Ac  Ac8  1  0.121603  0.510945  0.803654  1
  Ac  Ac9  1  0.621420  0.985583  0.944788  1
  Ac  Ac10  1  0.011992  0.378368  0.554125  1
  Ac  Ac11  1  0.985682  0.619561  0.054237  1
  Ac  Ac12  1  0.128550  0.977556  0.875715  1
  Ac  Ac13  1  0.524897  0.625050  0.127150  1
  Ac  Ac14  1  0.468874  0.370431  0.628947  1
  Ac  Ac15  1  0.624615  0.524495  0.872285  1
  Ac  Ac16  1  0.373558  0.473075  0.373516  1
  Ac  Ac17  1  0.877337  0.025007  0.378542  1
  Ac  Ac18  1  0.974833  0.125587  0.122602  1
  Ac  Ac19  1  0.029475  0.880408  0.623479  1
  Si  Si20  1  0.327887  0.696104  0.959495  1
  Si  Si21  1  0.671305  0.305591  0.461495  1
  Si  Si22  1  0.697167  0.329659  0.039884  1
  Si  Si23  1  0.303891  0.670879  0.540542  1
  Si  Si24  1  0.804578  0.829268  0.210640  1
  Si  Si25  1  0.171148  0.195617  0.289406  1
  Si  Si26  1  0.831182  0.804847  0.789330  1
  Si  Si27  1  0.288739  0.917959  0.059506  1
  Si  Si28  1  0.582241  0.789184  0.309870  1
  Si  Si29  1  0.424037  0.209496  0.812417  1
  Si  Si30  1  0.791672  0.583103  0.688941  1
  Si  Si31  1  0.209612  0.419528  0.189981  1
  Si  Si32  1  0.707888  0.080918  0.560500  1
  Si  Si33  1  0.920512  0.289842  0.940165  1
  Si  Si34  1  0.080932  0.709229  0.441065  1
  P  P35  1  0.186239  0.175465  0.709704  1
