# generated using pymatgen
data_Yb5V3BrO12
_symmetry_space_group_name_H-M   'P 1'
_cell_length_a   6.69585200
_cell_length_b   10.18586128
_cell_length_c   10.18586100
_cell_angle_alpha   60.00000416
_cell_angle_beta   90.00000000
_cell_angle_gamma   90.00000000
_symmetry_Int_Tables_number   1
_chemical_formula_structural   Yb5V3BrO12
_chemical_formula_sum   'Yb10 V6 Br2 O24'
_cell_volume   601.63348321
_cell_formula_units_Z   2
loop_
 _symmetry_equiv_pos_site_id
 _symmetry_equiv_pos_as_xyz
  1  'x, y, z'
loop_
 _atom_site_type_symbol
 _atom_site_label
 _atom_site_symmetry_multiplicity
 _atom_site_fract_x
 _atom_site_fract_y
 _atom_site_fract_z
 _atom_site_occupancy
  Yb  Yb0  1  0.250000  0.238315  0.035913  1
  Yb  Yb1  1  0.250000  0.725771  0.238316  1
  Yb  Yb2  1  0.750000  0.964086  0.274229  1
  Yb  Yb3  1  0.503945  0.333334  0.333333  1
  Yb  Yb4  1  0.996056  0.333334  0.333333  1
  Yb  Yb5  1  0.003944  0.666667  0.666667  1
  Yb  Yb6  1  0.496055  0.666667  0.666667  1
  Yb  Yb7  1  0.250000  0.035913  0.725771  1
  Yb  Yb8  1  0.750000  0.274228  0.761685  1
  Yb  Yb9  1  0.750000  0.761685  0.964086  1
  V  V10  1  0.250000  0.584242  0.031455  1
  V  V11  1  0.250000  0.031455  0.384303  1
  V  V12  1  0.750000  0.615697  0.415758  1
  V  V13  1  0.250000  0.384303  0.584243  1
  V  V14  1  0.750000  0.968545  0.615697  1
  V  V15  1  0.750000  0.415758  0.968545  1
  Br  Br16  1  0.000000  0.000000  0.000000  1
  Br  Br17  1  0.500001  0.000000  0.000000  1
  O  O18  1  0.046311  0.647469  0.089945  1
  O  O19  1  0.453689  0.647469  0.089945  1
  O  O20  1  0.250000  0.385077  0.145838  1
  O  O21  1  0.750000  0.359144  0.158873  1
  O  O22  1  0.046311  0.089945  0.262587  1
  O  O23  1  0.453689  0.089945  0.262587  1
  O  O24  1  0.546311  0.737414  0.352530  1
  O  O25  1  0.953690  0.737414  0.352530  1
  O  O26  1  0.750000  0.481982  0.359144  1
  O  O27  1  0.250000  0.469085  0.385077  1
  O  O28  1  0.250000  0.145837  0.469085  1
  O  O29  1  0.750000  0.158873  0.481983  1
  O  O30  1  0.250000  0.841128  0.518017  1
  O  O31  1  0.750000  0.854163  0.530915  1
  O  O32  1  0.750000  0.530915  0.614922  1
  O  O33  1  0.250000  0.518017  0.640856  1
  O  O34  1  0.046311  0.262586  0.647469  1
  O  O35  1  0.453689  0.262586  0.647469  1
  O  O36  1  0.546311  0.910055  0.737414  1
  O  O37  1  0.953690  0.910055  0.737414  1
  O  O38  1  0.250000  0.640856  0.841128  1
  O  O39  1  0.750000  0.614923  0.854162  1
  O  O40  1  0.546311  0.352530  0.910056  1
  O  O41  1  0.953690  0.352530  0.910056  1
