# generated using pymatgen
data_Li2La3Pr5Sc10Si15Ge
_symmetry_space_group_name_H-M   'P 1'
_cell_length_a   7.19219233
_cell_length_b   7.62396176
_cell_length_c   14.35223592
_cell_angle_alpha   89.97384093
_cell_angle_beta   89.96844814
_cell_angle_gamma   90.08344600
_symmetry_Int_Tables_number   1
_chemical_formula_structural   Li2La3Pr5Sc10Si15Ge
_chemical_formula_sum   'Li2 La3 Pr5 Sc10 Si15 Ge1'
_cell_volume   786.97510580
_cell_formula_units_Z   1
loop_
 _symmetry_equiv_pos_site_id
 _symmetry_equiv_pos_as_xyz
  1  'x, y, z'
loop_
 _atom_site_type_symbol
 _atom_site_label
 _atom_site_symmetry_multiplicity
 _atom_site_fract_x
 _atom_site_fract_y
 _atom_site_fract_z
 _atom_site_occupancy
  Li  Li0  1  0.653907  0.009999  0.749225  1
  Li  Li1  1  0.849395  0.511505  0.247940  1
  La  La2  1  0.009732  0.181620  0.400690  1
  La  La3  1  0.520811  0.328750  0.398147  1
  La  La4  1  0.491114  0.678631  0.902281  1
  Pr  Pr5  1  0.491635  0.679725  0.599133  1
  Pr  Pr6  1  0.979476  0.828002  0.602988  1
  Pr  Pr7  1  0.978835  0.828114  0.898328  1
  Pr  Pr8  1  0.520173  0.327884  0.102659  1
  Pr  Pr9  1  0.010003  0.182231  0.100020  1
  Sc  Sc10  1  0.332297  0.173210  0.624319  1
  Sc  Sc11  1  0.674147  0.815407  0.373572  1
  Sc  Sc12  1  0.165234  0.673729  0.375005  1
  Sc  Sc13  1  0.825052  0.314858  0.874355  1
  Sc  Sc14  1  0.825963  0.315349  0.625710  1
  Sc  Sc15  1  0.341680  0.992870  0.249070  1
  Sc  Sc16  1  0.333397  0.173312  0.875698  1
  Sc  Sc17  1  0.166382  0.673048  0.124005  1
  Sc  Sc18  1  0.673832  0.815365  0.125309  1
  Sc  Sc19  1  0.157072  0.490904  0.749987  1
  Si  Si20  1  0.459455  0.625441  0.249063  1
  Si  Si21  1  0.036959  0.126873  0.749972  1
  Si  Si22  1  0.529969  0.381043  0.749847  1
  Si  Si23  1  0.151979  0.467394  0.541858  1
  Si  Si24  1  0.969929  0.881532  0.249139  1
  Si  Si25  1  0.710677  0.095277  0.249134  1
  Si  Si26  1  0.849060  0.539218  0.032087  1
  Si  Si27  1  0.347265  0.967062  0.041258  1
  Si  Si28  1  0.150898  0.465219  0.959114  1
  Si  Si29  1  0.650272  0.037972  0.532366  1
  Si  Si30  1  0.348406  0.963731  0.459493  1
  Si  Si31  1  0.848908  0.542334  0.469674  1
  Si  Si32  1  0.789624  0.596100  0.749648  1
  Si  Si33  1  0.218458  0.390622  0.249503  1
  Si  Si34  1  0.651777  0.041026  0.969061  1
  Ge  Ge35  1  0.286227  0.884643  0.750341  1
