# generated using pymatgen
data_NdEu2Ho(MgRh)4
_symmetry_space_group_name_H-M   'P 1'
_cell_length_a   4.22664400
_cell_length_b   7.24881425
_cell_length_c   8.61106564
_cell_angle_alpha   89.47659253
_cell_angle_beta   90.00000000
_cell_angle_gamma   90.00000000
_symmetry_Int_Tables_number   1
_chemical_formula_structural   NdEu2Ho(MgRh)4
_chemical_formula_sum   'Nd1 Eu2 Ho1 Mg4 Rh4'
_cell_volume   263.81617501
_cell_formula_units_Z   1
loop_
 _symmetry_equiv_pos_site_id
 _symmetry_equiv_pos_as_xyz
  1  'x, y, z'
loop_
 _atom_site_type_symbol
 _atom_site_label
 _atom_site_symmetry_multiplicity
 _atom_site_fract_x
 _atom_site_fract_y
 _atom_site_fract_z
 _atom_site_occupancy
  Nd  Nd0  1  0.750000  0.465142  0.173642  1
  Eu  Eu1  1  0.750000  0.966389  0.323051  1
  Eu  Eu2  1  0.250000  0.032884  0.677207  1
  Ho  Ho3  1  0.250000  0.538315  0.825178  1
  Mg  Mg4  1  0.750000  0.863715  0.940223  1
  Mg  Mg5  1  0.250000  0.137817  0.055641  1
  Mg  Mg6  1  0.250000  0.634688  0.446183  1
  Mg  Mg7  1  0.750000  0.363632  0.558959  1
  Rh  Rh8  1  0.750000  0.721638  0.641413  1
  Rh  Rh9  1  0.250000  0.267781  0.365147  1
  Rh  Rh10  1  0.250000  0.750772  0.119011  1
  Rh  Rh11  1  0.750000  0.257226  0.874344  1
