# generated using pymatgen
data_Li16Zn3Si6Ag
_symmetry_space_group_name_H-M   'P 1'
_cell_length_a   9.15578882
_cell_length_b   9.15578982
_cell_length_c   9.15579000
_cell_angle_alpha   48.31825468
_cell_angle_beta   48.31825750
_cell_angle_gamma   48.31824592
_symmetry_Int_Tables_number   1
_chemical_formula_structural   Li16Zn3Si6Ag
_chemical_formula_sum   'Li16 Zn3 Si6 Ag1'
_cell_volume   392.48090856
_cell_formula_units_Z   1
loop_
 _symmetry_equiv_pos_site_id
 _symmetry_equiv_pos_as_xyz
  1  'x, y, z'
loop_
 _atom_site_type_symbol
 _atom_site_label
 _atom_site_symmetry_multiplicity
 _atom_site_fract_x
 _atom_site_fract_y
 _atom_site_fract_z
 _atom_site_occupancy
  Li  Li0  1  0.056587  0.056587  0.056587  1
  Li  Li1  1  0.300249  0.594372  0.956518  1
  Li  Li2  1  0.557071  0.557071  0.557071  1
  Li  Li3  1  0.207486  0.910261  0.559038  1
  Li  Li4  1  0.594372  0.956518  0.300249  1
  Li  Li5  1  0.058577  0.407845  0.706199  1
  Li  Li6  1  0.910261  0.559038  0.207486  1
  Li  Li7  1  0.798866  0.453814  0.094732  1
  Li  Li8  1  0.956518  0.300249  0.594372  1
  Li  Li9  1  0.559038  0.207486  0.910261  1
  Li  Li10  1  0.453814  0.094732  0.798866  1
  Li  Li11  1  0.706199  0.058577  0.407845  1
  Li  Li12  1  0.094732  0.798866  0.453814  1
  Li  Li13  1  0.454217  0.454217  0.454217  1
  Li  Li14  1  0.955697  0.955697  0.955697  1
  Li  Li15  1  0.407845  0.706199  0.058577  1
  Zn  Zn16  1  0.335984  0.335984  0.335984  1
  Zn  Zn17  1  0.835979  0.835979  0.835979  1
  Zn  Zn18  1  0.174223  0.174223  0.174223  1
  Si  Si19  1  0.176867  0.503684  0.832047  1
  Si  Si20  1  0.678264  0.322261  0.013135  1
  Si  Si21  1  0.832047  0.176867  0.503684  1
  Si  Si22  1  0.322261  0.013135  0.678264  1
  Si  Si23  1  0.013135  0.678264  0.322261  1
  Si  Si24  1  0.503684  0.832047  0.176867  1
  Ag  Ag25  1  0.672767  0.672767  0.672767  1
