# generated using pymatgen
data_Pr8HgPd8Pb3
_symmetry_space_group_name_H-M   'P 1'
_cell_length_a   8.13539800
_cell_length_b   8.13539800
_cell_length_c   7.49082800
_cell_angle_alpha   90.00000000
_cell_angle_beta   90.00000000
_cell_angle_gamma   90.00000000
_symmetry_Int_Tables_number   1
_chemical_formula_structural   Pr8HgPd8Pb3
_chemical_formula_sum   'Pr8 Hg1 Pd8 Pb3'
_cell_volume   495.77820856
_cell_formula_units_Z   1
loop_
 _symmetry_equiv_pos_site_id
 _symmetry_equiv_pos_as_xyz
  1  'x, y, z'
loop_
 _atom_site_type_symbol
 _atom_site_label
 _atom_site_symmetry_multiplicity
 _atom_site_fract_x
 _atom_site_fract_y
 _atom_site_fract_z
 _atom_site_occupancy
  Pr  Pr0  1  0.681235  0.671410  0.499558  1
  Pr  Pr1  1  0.829208  0.180477  0.499429  1
  Pr  Pr2  1  0.680477  0.670792  0.000571  1
  Pr  Pr3  1  0.828590  0.181235  0.000442  1
  Pr  Pr4  1  0.170792  0.819523  0.499429  1
  Pr  Pr5  1  0.319523  0.329208  0.000571  1
  Pr  Pr6  1  0.171410  0.818765  0.000442  1
  Pr  Pr7  1  0.318765  0.328590  0.499558  1
  Hg  Hg8  1  0.000000  0.500000  0.250000  1
  Pd  Pd9  1  0.621070  0.375045  0.250623  1
  Pd  Pd10  1  0.378901  0.623948  0.749368  1
  Pd  Pd11  1  0.876052  0.878901  0.750632  1
  Pd  Pd12  1  0.621099  0.376052  0.749368  1
  Pd  Pd13  1  0.378930  0.624955  0.250623  1
  Pd  Pd14  1  0.124955  0.121070  0.249377  1
  Pd  Pd15  1  0.875045  0.878930  0.249377  1
  Pd  Pd16  1  0.123948  0.121099  0.750632  1
  Pb  Pb17  1  0.500000  0.000000  0.750000  1
  Pb  Pb18  1  0.500000  0.000000  0.250000  1
  Pb  Pb19  1  0.000000  0.500000  0.750000  1
