# generated using pymatgen
data_LiZrH6Os
_symmetry_space_group_name_H-M   'P 1'
_cell_length_a   4.71525222
_cell_length_b   4.71524907
_cell_length_c   4.71524800
_cell_angle_alpha   60.00006254
_cell_angle_beta   60.00005577
_cell_angle_gamma   60.00004503
_symmetry_Int_Tables_number   1
_chemical_formula_structural   LiZrH6Os
_chemical_formula_sum   'Li1 Zr1 H6 Os1'
_cell_volume   74.13096334
_cell_formula_units_Z   1
loop_
 _symmetry_equiv_pos_site_id
 _symmetry_equiv_pos_as_xyz
  1  'x, y, z'
loop_
 _atom_site_type_symbol
 _atom_site_label
 _atom_site_symmetry_multiplicity
 _atom_site_fract_x
 _atom_site_fract_y
 _atom_site_fract_z
 _atom_site_occupancy
  Li  Li0  1  0.750000  0.750001  0.749999  1
  Zr  Zr1  1  0.249999  0.250001  0.250000  1
  H  H2  1  0.741167  0.741167  0.258834  1
  H  H3  1  0.741167  0.258834  0.258832  1
  H  H4  1  0.258832  0.741168  0.258834  1
  H  H5  1  0.258832  0.741166  0.741168  1
  H  H6  1  0.258832  0.258833  0.741167  1
  H  H7  1  0.741167  0.258832  0.741167  1
  Os  Os8  1  0.000000  0.000000  0.999999  1
