# generated using pymatgen
data_TmMgZn3Rh
_symmetry_space_group_name_H-M   'P 1'
_cell_length_a   5.26755751
_cell_length_b   5.31845904
_cell_length_c   8.55375568
_cell_angle_alpha   89.00820802
_cell_angle_beta   90.50066344
_cell_angle_gamma   120.32016774
_symmetry_Int_Tables_number   1
_chemical_formula_structural   TmMgZn3Rh
_chemical_formula_sum   'Tm2 Mg2 Zn6 Rh2'
_cell_volume   206.82704075
_cell_formula_units_Z   2
loop_
 _symmetry_equiv_pos_site_id
 _symmetry_equiv_pos_as_xyz
  1  'x, y, z'
loop_
 _atom_site_type_symbol
 _atom_site_label
 _atom_site_symmetry_multiplicity
 _atom_site_fract_x
 _atom_site_fract_y
 _atom_site_fract_z
 _atom_site_occupancy
  Tm  Tm0  1  0.323385  0.654694  0.064636  1
  Tm  Tm1  1  0.676615  0.331308  0.564636  1
  Mg  Mg2  1  0.669159  0.328894  0.936738  1
  Mg  Mg3  1  0.330841  0.659736  0.436738  1
  Zn  Zn4  1  0.001481  0.006390  0.996943  1
  Zn  Zn5  1  0.998519  0.004909  0.496943  1
  Zn  Zn6  1  0.336538  0.164767  0.251617  1
  Zn  Zn7  1  0.663462  0.828230  0.751617  1
  Zn  Zn8  1  0.170432  0.835833  0.751218  1
  Zn  Zn9  1  0.829568  0.665400  0.251218  1
  Rh  Rh10  1  0.172295  0.346067  0.748849  1
  Rh  Rh11  1  0.827705  0.173772  0.248849  1
