# generated using pymatgen
data_TbDy15Cd2(HgIr2)2
_symmetry_space_group_name_H-M   'P 1'
_cell_length_a   9.61974123
_cell_length_b   9.61974134
_cell_length_c   9.61999700
_cell_angle_alpha   59.99911741
_cell_angle_beta   59.99911703
_cell_angle_gamma   60.02980793
_symmetry_Int_Tables_number   1
_chemical_formula_structural   TbDy15Cd2(HgIr2)2
_chemical_formula_sum   'Tb1 Dy15 Cd2 Hg2 Ir4'
_cell_volume   629.62021754
_cell_formula_units_Z   1
loop_
 _symmetry_equiv_pos_site_id
 _symmetry_equiv_pos_as_xyz
  1  'x, y, z'
loop_
 _atom_site_type_symbol
 _atom_site_label
 _atom_site_symmetry_multiplicity
 _atom_site_fract_x
 _atom_site_fract_y
 _atom_site_fract_z
 _atom_site_occupancy
  Tb  Tb0  1  0.187971  0.187971  0.812029  1
  Dy  Dy1  1  0.599722  0.599722  0.597929  1
  Dy  Dy2  1  0.599722  0.599722  0.202628  1
  Dy  Dy3  1  0.601519  0.199169  0.599656  1
  Dy  Dy4  1  0.199169  0.601519  0.599656  1
  Dy  Dy5  1  0.059482  0.438650  0.441001  1
  Dy  Dy6  1  0.438650  0.059482  0.060866  1
  Dy  Dy7  1  0.438650  0.059482  0.441001  1
  Dy  Dy8  1  0.059482  0.438650  0.060866  1
  Dy  Dy9  1  0.439197  0.439197  0.060803  1
  Dy  Dy10  1  0.059192  0.059192  0.440808  1
  Dy  Dy11  1  0.187722  0.810940  0.812476  1
  Dy  Dy12  1  0.810940  0.187722  0.188861  1
  Dy  Dy13  1  0.810940  0.187722  0.812476  1
  Dy  Dy14  1  0.187722  0.810940  0.188861  1
  Dy  Dy15  1  0.811799  0.811799  0.188201  1
  Cd  Cd16  1  0.829959  0.507954  0.831044  1
  Cd  Cd17  1  0.507954  0.829959  0.831044  1
  Hg  Hg18  1  0.834054  0.834054  0.836137  1
  Hg  Hg19  1  0.834054  0.834054  0.495755  1
  Ir  Ir20  1  0.392292  0.392292  0.390759  1
  Ir  Ir21  1  0.392292  0.392292  0.824656  1
  Ir  Ir22  1  0.392382  0.825130  0.391244  1
  Ir  Ir23  1  0.825130  0.392382  0.391244  1
