# generated using pymatgen
data_Er2SbRhO7
_symmetry_space_group_name_H-M   'P 1'
_cell_length_a   7.27350154
_cell_length_b   7.23340714
_cell_length_c   7.27350237
_cell_angle_alpha   60.18218721
_cell_angle_beta   60.77342946
_cell_angle_gamma   60.18218756
_symmetry_Int_Tables_number   1
_chemical_formula_structural   Er2SbRhO7
_chemical_formula_sum   'Er4 Sb2 Rh2 O14'
_cell_volume   272.89399897
_cell_formula_units_Z   2
loop_
 _symmetry_equiv_pos_site_id
 _symmetry_equiv_pos_as_xyz
  1  'x, y, z'
loop_
 _atom_site_type_symbol
 _atom_site_label
 _atom_site_symmetry_multiplicity
 _atom_site_fract_x
 _atom_site_fract_y
 _atom_site_fract_z
 _atom_site_occupancy
  Er  Er0  1  0.125000  0.625000  0.125000  1
  Er  Er1  1  0.125000  0.125000  0.625000  1
  Er  Er2  1  0.625000  0.125000  0.125000  1
  Er  Er3  1  0.125000  0.125000  0.125000  1
  Sb  Sb4  1  0.125000  0.625000  0.625000  1
  Sb  Sb5  1  0.625000  0.625000  0.125000  1
  Rh  Rh6  1  0.625000  0.625000  0.625000  1
  Rh  Rh7  1  0.625000  0.125000  0.625000  1
  O  O8  1  0.282733  0.708016  0.719396  1
  O  O9  1  0.530604  0.960146  0.967267  1
  O  O10  1  0.725649  0.274351  0.725649  1
  O  O11  1  0.282733  0.289854  0.719396  1
  O  O12  1  0.719396  0.708016  0.282733  1
  O  O13  1  0.003511  0.996489  0.003511  1
  O  O14  1  0.294167  0.705833  0.294167  1
  O  O15  1  0.955833  0.544167  0.955833  1
  O  O16  1  0.967267  0.960146  0.530604  1
  O  O17  1  0.530604  0.541984  0.967267  1
  O  O18  1  0.246489  0.253511  0.246489  1
  O  O19  1  0.524351  0.975649  0.524351  1
  O  O20  1  0.719396  0.289854  0.282733  1
  O  O21  1  0.967267  0.541984  0.530604  1
