# generated using pymatgen
data_Ba6Er3Tm(WO9)2
_symmetry_space_group_name_H-M   'P 1'
_cell_length_a   6.05653040
_cell_length_b   8.58008912
_cell_length_c   10.49588401
_cell_angle_alpha   65.87557483
_cell_angle_beta   73.23087888
_cell_angle_gamma   90.00092806
_symmetry_Int_Tables_number   1
_chemical_formula_structural   Ba6Er3Tm(WO9)2
_chemical_formula_sum   'Ba6 Er3 Tm1 W2 O18'
_cell_volume   472.25806318
_cell_formula_units_Z   1
loop_
 _symmetry_equiv_pos_site_id
 _symmetry_equiv_pos_as_xyz
  1  'x, y, z'
loop_
 _atom_site_type_symbol
 _atom_site_label
 _atom_site_symmetry_multiplicity
 _atom_site_fract_x
 _atom_site_fract_y
 _atom_site_fract_z
 _atom_site_occupancy
  Ba  Ba0  1  0.500000  0.265919  0.999999  1
  Ba  Ba1  1  0.839581  0.579955  0.320838  1
  Ba  Ba2  1  0.160432  0.900796  0.679163  1
  Ba  Ba3  1  0.500000  0.734083  0.999999  1
  Ba  Ba4  1  0.839569  0.099199  0.320839  1
  Ba  Ba5  1  0.160419  0.420044  0.679162  1
  Er  Er6  1  0.999992  0.000004  0.999999  1
  Er  Er7  1  0.329690  0.329686  0.340625  1
  Er  Er8  1  0.670315  0.670314  0.659381  1
  Tm  Tm9  1  0.000001  0.499999  0.000001  1
  W  W10  1  0.334242  0.834240  0.331504  1
  W  W11  1  0.665763  0.165761  0.668497  1
  O  O12  1  0.999999  0.247385  0.000002  1
  O  O13  1  0.330800  0.600578  0.338414  1
  O  O14  1  0.669199  0.939002  0.661584  1
  O  O15  1  0.162217  0.411633  0.176721  1
  O  O16  1  0.490724  0.759165  0.481669  1
  O  O17  1  0.818260  0.089108  0.821798  1
  O  O18  1  0.338923  0.588366  0.823276  1
  O  O19  1  0.640073  0.910891  0.178201  1
  O  O20  1  0.972387  0.240839  0.518331  1
  O  O21  1  0.999999  0.752616  0.999996  1
  O  O22  1  0.330802  0.060999  0.338416  1
  O  O23  1  0.669199  0.399419  0.661582  1
  O  O24  1  0.837783  0.588366  0.823280  1
  O  O25  1  0.181737  0.910896  0.178198  1
  O  O26  1  0.509282  0.240834  0.518334  1
  O  O27  1  0.661077  0.411635  0.176722  1
  O  O28  1  0.027607  0.759159  0.481674  1
  O  O29  1  0.359928  0.089110  0.821796  1
