# generated using pymatgen
data_YbYGa9Ir2Pd
_symmetry_space_group_name_H-M   'P 1'
_cell_length_a   7.62597418
_cell_length_b   7.61254816
_cell_length_c   9.53453800
_cell_angle_alpha   90.00000000
_cell_angle_beta   90.00000000
_cell_angle_gamma   119.80287926
_symmetry_Int_Tables_number   1
_chemical_formula_structural   YbYGa9Ir2Pd
_chemical_formula_sum   'Yb2 Y2 Ga18 Ir4 Pd2'
_cell_volume   480.30255216
_cell_formula_units_Z   2
loop_
 _symmetry_equiv_pos_site_id
 _symmetry_equiv_pos_as_xyz
  1  'x, y, z'
loop_
 _atom_site_type_symbol
 _atom_site_label
 _atom_site_symmetry_multiplicity
 _atom_site_fract_x
 _atom_site_fract_y
 _atom_site_fract_z
 _atom_site_occupancy
  Yb  Yb0  1  0.996895  0.668621  0.250000  1
  Yb  Yb1  1  0.003105  0.331379  0.750000  1
  Y  Y2  1  0.669422  0.997034  0.250000  1
  Y  Y3  1  0.330578  0.002966  0.750000  1
  Ga  Ga4  1  0.128784  0.128257  0.250000  1
  Ga  Ga5  1  0.871216  0.871743  0.750000  1
  Ga  Ga6  1  0.999575  0.339181  0.080016  1
  Ga  Ga7  1  0.000425  0.660819  0.919984  1
  Ga  Ga8  1  0.000425  0.660819  0.580016  1
  Ga  Ga9  1  0.335732  0.998465  0.418642  1
  Ga  Ga10  1  0.999575  0.339181  0.419984  1
  Ga  Ga11  1  0.664268  0.001535  0.581358  1
  Ga  Ga12  1  0.664268  0.001535  0.918642  1
  Ga  Ga13  1  0.335732  0.998465  0.081358  1
  Ga  Ga14  1  0.334520  0.335872  0.566387  1
  Ga  Ga15  1  0.665480  0.664128  0.433613  1
  Ga  Ga16  1  0.665480  0.664128  0.066387  1
  Ga  Ga17  1  0.334520  0.335872  0.933613  1
  Ga  Ga18  1  0.336501  0.546942  0.250000  1
  Ga  Ga19  1  0.663499  0.453058  0.750000  1
  Ga  Ga20  1  0.547655  0.337632  0.250000  1
  Ga  Ga21  1  0.452345  0.662368  0.750000  1
  Ir  Ir22  1  0.670212  0.327680  0.999936  1
  Ir  Ir23  1  0.329788  0.672320  0.000064  1
  Ir  Ir24  1  0.329788  0.672320  0.499936  1
  Ir  Ir25  1  0.670212  0.327680  0.500064  1
  Pd  Pd26  1  0.000000  0.000000  0.000000  1
  Pd  Pd27  1  0.000000  0.000000  0.500000  1
