# generated using pymatgen
data_Lu10In8IrAu3
_symmetry_space_group_name_H-M   'P 1'
_cell_length_a   3.59387100
_cell_length_b   8.10383405
_cell_length_c   18.07002410
_cell_angle_alpha   90.01209335
_cell_angle_beta   90.00000000
_cell_angle_gamma   90.00000000
_symmetry_Int_Tables_number   1
_chemical_formula_structural   Lu10In8IrAu3
_chemical_formula_sum   'Lu10 In8 Ir1 Au3'
_cell_volume   526.27379452
_cell_formula_units_Z   1
loop_
 _symmetry_equiv_pos_site_id
 _symmetry_equiv_pos_as_xyz
  1  'x, y, z'
loop_
 _atom_site_type_symbol
 _atom_site_label
 _atom_site_symmetry_multiplicity
 _atom_site_fract_x
 _atom_site_fract_y
 _atom_site_fract_z
 _atom_site_occupancy
  Lu  Lu0  1  0.000000  0.879890  0.081718  1
  Lu  Lu1  1  0.000000  0.741182  0.281931  1
  Lu  Lu2  1  0.000000  0.740838  0.780886  1
  Lu  Lu3  1  0.000000  0.384829  0.413771  1
  Lu  Lu4  1  0.000000  0.120879  0.918842  1
  Lu  Lu5  1  0.000000  0.240814  0.719037  1
  Lu  Lu6  1  0.000000  0.498840  0.000758  1
  Lu  Lu7  1  0.000000  0.271187  0.223289  1
  Lu  Lu8  1  0.000000  0.621268  0.580927  1
  Lu  Lu9  1  0.000000  0.997851  0.499062  1
  In  In10  1  0.500000  0.209869  0.065351  1
  In  In11  1  0.500000  0.424637  0.853921  1
  In  In12  1  0.500000  0.572635  0.148643  1
  In  In13  1  0.500000  0.078205  0.353552  1
  In  In14  1  0.500000  0.924729  0.645569  1
  In  In15  1  0.500000  0.790769  0.935434  1
  In  In16  1  0.500000  0.706512  0.432487  1
  In  In17  1  0.500000  0.291654  0.563806  1
  Ir  Ir18  1  0.500000  0.475230  0.303941  1
  Au  Au19  1  0.500000  0.973917  0.197580  1
  Au  Au20  1  0.500000  0.027091  0.802527  1
  Au  Au21  1  0.500000  0.527175  0.696967  1
