# generated using pymatgen
data_LiSm6Fe(P3Rh4)4
_symmetry_space_group_name_H-M   'P 1'
_cell_length_a   3.92976900
_cell_length_b   11.27868100
_cell_length_c   12.81232100
_cell_angle_alpha   90.00000000
_cell_angle_beta   90.00000000
_cell_angle_gamma   90.00000000
_symmetry_Int_Tables_number   1
_chemical_formula_structural   LiSm6Fe(P3Rh4)4
_chemical_formula_sum   'Li1 Sm6 Fe1 P12 Rh16'
_cell_volume   567.87551911
_cell_formula_units_Z   1
loop_
 _symmetry_equiv_pos_site_id
 _symmetry_equiv_pos_as_xyz
  1  'x, y, z'
loop_
 _atom_site_type_symbol
 _atom_site_label
 _atom_site_symmetry_multiplicity
 _atom_site_fract_x
 _atom_site_fract_y
 _atom_site_fract_z
 _atom_site_occupancy
  Li  Li0  1  0.500000  0.500000  0.154520  1
  Sm  Sm1  1  0.000000  0.500000  0.514996  1
  Sm  Sm2  1  0.500000  0.000000  0.480119  1
  Sm  Sm3  1  0.500000  0.820795  0.203409  1
  Sm  Sm4  1  0.500000  0.179205  0.203409  1
  Sm  Sm5  1  0.000000  0.682796  0.795830  1
  Sm  Sm6  1  0.000000  0.317204  0.795830  1
  Fe  Fe7  1  0.500000  0.000000  0.007190  1
  P  P8  1  0.500000  0.500000  0.883306  1
  P  P9  1  0.000000  0.000000  0.111295  1
  P  P10  1  0.500000  0.500000  0.342989  1
  P  P11  1  0.000000  0.000000  0.653233  1
  P  P12  1  0.500000  0.312886  0.618447  1
  P  P13  1  0.500000  0.687114  0.618447  1
  P  P14  1  0.000000  0.187273  0.382198  1
  P  P15  1  0.000000  0.812727  0.382198  1
  P  P16  1  0.500000  0.850290  0.896452  1
  P  P17  1  0.500000  0.149710  0.896452  1
  P  P18  1  0.000000  0.657219  0.107626  1
  P  P19  1  0.000000  0.342781  0.107626  1
  Rh  Rh20  1  0.000000  0.000000  0.836398  1
  Rh  Rh21  1  0.500000  0.500000  0.702838  1
  Rh  Rh22  1  0.000000  0.000000  0.295157  1
  Rh  Rh23  1  0.000000  0.500000  0.986008  1
  Rh  Rh24  1  0.500000  0.330912  0.996222  1
  Rh  Rh25  1  0.500000  0.669088  0.996222  1
  Rh  Rh26  1  0.000000  0.164086  0.005042  1
  Rh  Rh27  1  0.000000  0.835914  0.005042  1
  Rh  Rh28  1  0.500000  0.287416  0.433437  1
  Rh  Rh29  1  0.500000  0.712584  0.433437  1
  Rh  Rh30  1  0.000000  0.202160  0.572819  1
  Rh  Rh31  1  0.000000  0.797840  0.572819  1
  Rh  Rh32  1  0.500000  0.875588  0.713354  1
  Rh  Rh33  1  0.500000  0.124412  0.713354  1
  Rh  Rh34  1  0.000000  0.625837  0.291143  1
  Rh  Rh35  1  0.000000  0.374163  0.291143  1
