# generated using pymatgen
data_Er3In4NiIr
_symmetry_space_group_name_H-M   'P 1'
_cell_length_a   7.87235900
_cell_length_b   7.87235972
_cell_length_c   3.67233700
_cell_angle_alpha   90.00000000
_cell_angle_beta   90.00000000
_cell_angle_gamma   119.99999278
_symmetry_Int_Tables_number   1
_chemical_formula_structural   Er3In4NiIr
_chemical_formula_sum   'Er3 In4 Ni1 Ir1'
_cell_volume   197.09836103
_cell_formula_units_Z   1
loop_
 _symmetry_equiv_pos_site_id
 _symmetry_equiv_pos_as_xyz
  1  'x, y, z'
loop_
 _atom_site_type_symbol
 _atom_site_label
 _atom_site_symmetry_multiplicity
 _atom_site_fract_x
 _atom_site_fract_y
 _atom_site_fract_z
 _atom_site_occupancy
  Er  Er0  1  0.702970  0.954689  0.500000  1
  Er  Er1  1  0.251719  0.297030  0.500000  1
  Er  Er2  1  0.045311  0.748281  0.500000  1
  In  In3  1  0.919521  0.337317  0.000000  1
  In  In4  1  0.417797  0.080479  0.000000  1
  In  In5  1  0.662683  0.582203  0.000000  1
  In  In6  1  0.333333  0.666667  0.000000  1
  Ni  Ni7  1  0.666667  0.333333  0.500000  1
  Ir  Ir8  1  0.000000  0.000000  0.000000  1
