# generated using pymatgen
data_Mg4Sn2Pd3Pt7
_symmetry_space_group_name_H-M   'P 1'
_cell_length_a   4.15721700
_cell_length_b   5.63566088
_cell_length_c   11.13507657
_cell_angle_alpha   90.09270983
_cell_angle_beta   90.00000000
_cell_angle_gamma   90.00000000
_symmetry_Int_Tables_number   1
_chemical_formula_structural   Mg4Sn2Pd3Pt7
_chemical_formula_sum   'Mg4 Sn2 Pd3 Pt7'
_cell_volume   260.87963971
_cell_formula_units_Z   1
loop_
 _symmetry_equiv_pos_site_id
 _symmetry_equiv_pos_as_xyz
  1  'x, y, z'
loop_
 _atom_site_type_symbol
 _atom_site_label
 _atom_site_symmetry_multiplicity
 _atom_site_fract_x
 _atom_site_fract_y
 _atom_site_fract_z
 _atom_site_occupancy
  Mg  Mg0  1  0.500000  0.180006  0.139592  1
  Mg  Mg1  1  0.500000  0.819058  0.859526  1
  Mg  Mg2  1  0.500000  0.317236  0.639957  1
  Mg  Mg3  1  0.500000  0.683075  0.359936  1
  Sn  Sn4  1  0.000000  0.000073  0.500017  1
  Sn  Sn5  1  0.000000  0.500660  0.000943  1
  Pd  Pd6  1  0.500000  0.703145  0.116117  1
  Pd  Pd7  1  0.000000  0.998408  0.999927  1
  Pd  Pd8  1  0.000000  0.500285  0.499720  1
  Pt  Pt9  1  0.500000  0.206668  0.383230  1
  Pt  Pt10  1  0.500000  0.793947  0.616710  1
  Pt  Pt11  1  0.500000  0.297587  0.884490  1
  Pt  Pt12  1  0.000000  0.437582  0.245169  1
  Pt  Pt13  1  0.000000  0.562757  0.754413  1
  Pt  Pt14  1  0.000000  0.063050  0.745893  1
  Pt  Pt15  1  0.000000  0.936462  0.254360  1
