# generated using pymatgen
data_Er8Lu2GaSb5
_symmetry_space_group_name_H-M   'P 1'
_cell_length_a   8.80133900
_cell_length_b   8.79714063
_cell_length_c   6.28999717
_cell_angle_alpha   90.02320303
_cell_angle_beta   90.00000000
_cell_angle_gamma   120.01578454
_symmetry_Int_Tables_number   1
_chemical_formula_structural   Er8Lu2GaSb5
_chemical_formula_sum   'Er8 Lu2 Ga1 Sb5'
_cell_volume   421.69865829
_cell_formula_units_Z   1
loop_
 _symmetry_equiv_pos_site_id
 _symmetry_equiv_pos_as_xyz
  1  'x, y, z'
loop_
 _atom_site_type_symbol
 _atom_site_label
 _atom_site_symmetry_multiplicity
 _atom_site_fract_x
 _atom_site_fract_y
 _atom_site_fract_z
 _atom_site_occupancy
  Er  Er0  1  0.010771  0.764536  0.750102  1
  Er  Er1  1  0.999529  0.243422  0.250067  1
  Er  Er2  1  0.756107  0.756578  0.249933  1
  Er  Er3  1  0.751162  0.000000  0.750000  1
  Er  Er4  1  0.246236  0.235464  0.749898  1
  Er  Er5  1  0.244301  0.000000  0.250000  1
  Er  Er6  1  0.659937  0.324928  0.501634  1
  Er  Er7  1  0.335009  0.675072  0.998366  1
  Lu  Lu8  1  0.335107  0.675637  0.501914  1
  Lu  Lu9  1  0.659470  0.324363  0.998086  1
  Ga  Ga10  1  0.393776  0.000000  0.750000  1
  Sb  Sb11  1  0.390067  0.393357  0.250068  1
  Sb  Sb12  1  0.996709  0.606643  0.249932  1
  Sb  Sb13  1  0.002097  0.390833  0.749892  1
  Sb  Sb14  1  0.611263  0.609167  0.750108  1
  Sb  Sb15  1  0.608459  0.000000  0.250000  1
