# generated using pymatgen
data_Nd3Ni2Sn3Rh
_symmetry_space_group_name_H-M   'P 1'
_cell_length_a   7.49156200
_cell_length_b   7.49156199
_cell_length_c   4.05341300
_cell_angle_alpha   90.00000000
_cell_angle_beta   90.00000000
_cell_angle_gamma   120.00000002
_symmetry_Int_Tables_number   1
_chemical_formula_structural   Nd3Ni2Sn3Rh
_chemical_formula_sum   'Nd3 Ni2 Sn3 Rh1'
_cell_volume   197.01361660
_cell_formula_units_Z   1
loop_
 _symmetry_equiv_pos_site_id
 _symmetry_equiv_pos_as_xyz
  1  'x, y, z'
loop_
 _atom_site_type_symbol
 _atom_site_label
 _atom_site_symmetry_multiplicity
 _atom_site_fract_x
 _atom_site_fract_y
 _atom_site_fract_z
 _atom_site_occupancy
  Nd  Nd0  1  0.001114  0.588536  0.000000  1
  Nd  Nd1  1  0.411464  0.412578  0.000000  1
  Nd  Nd2  1  0.587422  0.998886  0.000000  1
  Ni  Ni3  1  0.000000  0.000000  0.000000  1
  Ni  Ni4  1  0.666667  0.333333  0.500000  1
  Sn  Sn5  1  0.752823  0.750329  0.500000  1
  Sn  Sn6  1  0.997505  0.247177  0.500000  1
  Sn  Sn7  1  0.249671  0.002495  0.500000  1
  Rh  Rh8  1  0.333333  0.666667  0.500000  1
