# generated using pymatgen
data_YbPr2B10O19
_symmetry_space_group_name_H-M   'P 1'
_cell_length_a   6.46100027
_cell_length_b   6.46100101
_cell_length_c   9.19144800
_cell_angle_alpha   88.55056659
_cell_angle_beta   91.44943358
_cell_angle_gamma   118.30096080
_symmetry_Int_Tables_number   1
_chemical_formula_structural   YbPr2B10O19
_chemical_formula_sum   'Yb1 Pr2 B10 O19'
_cell_volume   337.68299291
_cell_formula_units_Z   1
loop_
 _symmetry_equiv_pos_site_id
 _symmetry_equiv_pos_as_xyz
  1  'x, y, z'
loop_
 _atom_site_type_symbol
 _atom_site_label
 _atom_site_symmetry_multiplicity
 _atom_site_fract_x
 _atom_site_fract_y
 _atom_site_fract_z
 _atom_site_occupancy
  Yb  Yb0  1  0.813102  0.813102  0.500000  1
  Pr  Pr1  1  0.153510  0.834227  0.145005  1
  Pr  Pr2  1  0.834228  0.153509  0.854995  1
  B  B3  1  0.282245  0.365739  0.161295  1
  B  B4  1  0.365739  0.282245  0.838705  1
  B  B5  1  0.836641  0.187665  0.207265  1
  B  B6  1  0.187665  0.836641  0.792736  1
  B  B7  1  0.672519  0.447792  0.272101  1
  B  B8  1  0.447792  0.672519  0.727899  1
  B  B9  1  0.252937  0.786550  0.528532  1
  B  B10  1  0.786550  0.252937  0.471468  1
  B  B11  1  0.623529  0.761541  0.126138  1
  B  B12  1  0.761542  0.623528  0.873862  1
  O  O13  1  0.141194  0.847585  0.636471  1
  O  O14  1  0.847585  0.141194  0.363530  1
  O  O15  1  0.364256  0.594045  0.114382  1
  O  O16  1  0.594044  0.364257  0.885619  1
  O  O17  1  0.409370  0.703044  0.571119  1
  O  O18  1  0.703044  0.409370  0.428882  1
  O  O19  1  0.191341  0.807504  0.389862  1
  O  O20  1  0.807505  0.191340  0.610138  1
  O  O21  1  0.723674  0.696317  0.254996  1
  O  O22  1  0.696316  0.723675  0.745004  1
  O  O23  1  0.423436  0.284196  0.223499  1
  O  O24  1  0.284196  0.423436  0.776501  1
  O  O25  1  0.838545  0.412132  0.182603  1
  O  O26  1  0.412132  0.838546  0.817396  1
  O  O27  1  0.050593  0.198467  0.132348  1
  O  O28  1  0.198466  0.050593  0.867652  1
  O  O29  1  0.633318  0.993300  0.133409  1
  O  O30  1  0.993301  0.633317  0.866590  1
  O  O31  1  0.764588  0.764588  0.000000  1
