# generated using pymatgen
data_Zn12FeCu
_symmetry_space_group_name_H-M   'P 1'
_cell_length_a   6.54417659
_cell_length_b   6.54417646
_cell_length_c   5.07425506
_cell_angle_alpha   81.09508742
_cell_angle_beta   81.09508225
_cell_angle_gamma   70.91702239
_symmetry_Int_Tables_number   1
_chemical_formula_structural   Zn12FeCu
_chemical_formula_sum   'Zn12 Fe1 Cu1'
_cell_volume   201.62657740
_cell_formula_units_Z   1
loop_
 _symmetry_equiv_pos_site_id
 _symmetry_equiv_pos_as_xyz
  1  'x, y, z'
loop_
 _atom_site_type_symbol
 _atom_site_label
 _atom_site_symmetry_multiplicity
 _atom_site_fract_x
 _atom_site_fract_y
 _atom_site_fract_z
 _atom_site_occupancy
  Zn  Zn0  1  0.999697  0.999697  0.999757  1
  Zn  Zn1  1  0.614803  0.614803  0.059758  1
  Zn  Zn2  1  0.774869  0.774869  0.379496  1
  Zn  Zn3  1  0.224737  0.224737  0.636885  1
  Zn  Zn4  1  0.218260  0.630969  0.307241  1
  Zn  Zn5  1  0.366894  0.775167  0.683441  1
  Zn  Zn6  1  0.775167  0.366894  0.683441  1
  Zn  Zn7  1  0.630969  0.218260  0.307241  1
  Zn  Zn8  1  0.011581  0.640070  0.799226  1
  Zn  Zn9  1  0.355856  0.001795  0.200543  1
  Zn  Zn10  1  0.001795  0.355856  0.200543  1
  Zn  Zn11  1  0.640070  0.011581  0.799226  1
  Fe  Fe12  1  0.999717  0.999717  0.499134  1
  Cu  Cu13  1  0.385586  0.385586  0.944068  1
