# generated using pymatgen
data_Dy10Y6Cd4Co3Ni
_symmetry_space_group_name_H-M   'P 1'
_cell_length_a   9.52690671
_cell_length_b   9.51451718
_cell_length_c   9.51451700
_cell_angle_alpha   60.00000410
_cell_angle_beta   60.04301424
_cell_angle_gamma   60.04301086
_symmetry_Int_Tables_number   1
_chemical_formula_structural   Dy10Y6Cd4Co3Ni
_chemical_formula_sum   'Dy10 Y6 Cd4 Co3 Ni1'
_cell_volume   610.22848072
_cell_formula_units_Z   1
loop_
 _symmetry_equiv_pos_site_id
 _symmetry_equiv_pos_as_xyz
  1  'x, y, z'
loop_
 _atom_site_type_symbol
 _atom_site_label
 _atom_site_symmetry_multiplicity
 _atom_site_fract_x
 _atom_site_fract_y
 _atom_site_fract_z
 _atom_site_occupancy
  Dy  Dy0  1  0.594409  0.598181  0.598181  1
  Dy  Dy1  1  0.594409  0.598181  0.209227  1
  Dy  Dy2  1  0.594409  0.209227  0.598181  1
  Dy  Dy3  1  0.212902  0.595699  0.595699  1
  Dy  Dy4  1  0.065938  0.437771  0.437771  1
  Dy  Dy5  1  0.437343  0.062470  0.062470  1
  Dy  Dy6  1  0.437343  0.062470  0.437717  1
  Dy  Dy7  1  0.065938  0.437771  0.058520  1
  Dy  Dy8  1  0.437343  0.437717  0.062470  1
  Dy  Dy9  1  0.065938  0.058520  0.437771  1
  Y  Y10  1  0.186273  0.812943  0.812943  1
  Y  Y11  1  0.811130  0.187513  0.187513  1
  Y  Y12  1  0.811130  0.187513  0.813845  1
  Y  Y13  1  0.186273  0.812943  0.187842  1
  Y  Y14  1  0.811130  0.813845  0.187513  1
  Y  Y15  1  0.186273  0.187842  0.812943  1
  Cd  Cd16  1  0.830623  0.830107  0.830107  1
  Cd  Cd17  1  0.830623  0.830107  0.509160  1
  Cd  Cd18  1  0.830623  0.509160  0.830107  1
  Cd  Cd19  1  0.507718  0.830761  0.830761  1
  Co  Co20  1  0.391808  0.390799  0.390799  1
  Co  Co21  1  0.391808  0.390799  0.826593  1
  Co  Co22  1  0.391808  0.826593  0.390799  1
  Ni  Ni23  1  0.826808  0.391064  0.391064  1
