# generated using pymatgen
data_DyHoMnC2
_symmetry_space_group_name_H-M   'P 1'
_cell_length_a   5.02884100
_cell_length_b   6.33935600
_cell_length_c   9.65069200
_cell_angle_alpha   90.00000000
_cell_angle_beta   90.00000000
_cell_angle_gamma   90.00000000
_symmetry_Int_Tables_number   1
_chemical_formula_structural   DyHoMnC2
_chemical_formula_sum   'Dy4 Ho4 Mn4 C8'
_cell_volume   307.66032968
_cell_formula_units_Z   4
loop_
 _symmetry_equiv_pos_site_id
 _symmetry_equiv_pos_as_xyz
  1  'x, y, z'
loop_
 _atom_site_type_symbol
 _atom_site_label
 _atom_site_symmetry_multiplicity
 _atom_site_fract_x
 _atom_site_fract_y
 _atom_site_fract_z
 _atom_site_occupancy
  Dy  Dy0  1  0.250000  0.476466  0.786781  1
  Dy  Dy1  1  0.750000  0.023534  0.286781  1
  Dy  Dy2  1  0.250000  0.976466  0.713219  1
  Dy  Dy3  1  0.750000  0.523534  0.213219  1
  Ho  Ho4  1  0.250000  0.818065  0.055592  1
  Ho  Ho5  1  0.750000  0.681935  0.555592  1
  Ho  Ho6  1  0.250000  0.318065  0.444408  1
  Ho  Ho7  1  0.750000  0.181935  0.944408  1
  Mn  Mn8  1  0.250000  0.270961  0.143074  1
  Mn  Mn9  1  0.750000  0.229039  0.643074  1
  Mn  Mn10  1  0.250000  0.770961  0.356926  1
  Mn  Mn11  1  0.750000  0.729039  0.856926  1
  C  C12  1  0.250000  0.189855  0.964699  1
  C  C13  1  0.750000  0.810145  0.035301  1
  C  C14  1  0.250000  0.689855  0.535301  1
  C  C15  1  0.750000  0.310145  0.464699  1
  C  C16  1  0.250000  0.036362  0.260164  1
  C  C17  1  0.750000  0.463638  0.760164  1
  C  C18  1  0.250000  0.536362  0.239836  1
  C  C19  1  0.750000  0.963638  0.739836  1
