# generated using pymatgen
data_CoHg3(BrO3)8
_symmetry_space_group_name_H-M   'P 1'
_cell_length_a   5.75248624
_cell_length_b   11.09295961
_cell_length_c   11.21381532
_cell_angle_alpha   119.67052776
_cell_angle_beta   89.82158538
_cell_angle_gamma   90.56455287
_symmetry_Int_Tables_number   1
_chemical_formula_structural   CoHg3(BrO3)8
_chemical_formula_sum   'Co1 Hg3 Br8 O24'
_cell_volume   621.72362539
_cell_formula_units_Z   1
loop_
 _symmetry_equiv_pos_site_id
 _symmetry_equiv_pos_as_xyz
  1  'x, y, z'
loop_
 _atom_site_type_symbol
 _atom_site_label
 _atom_site_symmetry_multiplicity
 _atom_site_fract_x
 _atom_site_fract_y
 _atom_site_fract_z
 _atom_site_occupancy
  Co  Co0  1  0.148002  0.762721  0.509046  1
  Hg  Hg1  1  0.649074  0.237049  0.494359  1
  Hg  Hg2  1  0.151205  0.267380  0.009022  1
  Hg  Hg3  1  0.640694  0.729940  0.994698  1
  Br  Br4  1  0.264162  0.429678  0.357598  1
  Br  Br5  1  0.780887  0.592545  0.648471  1
  Br  Br6  1  0.259167  0.915230  0.838130  1
  Br  Br7  1  0.759756  0.081071  0.148102  1
  Br  Br8  1  0.788997  0.066860  0.673469  1
  Br  Br9  1  0.268708  0.903427  0.318570  1
  Br  Br10  1  0.276092  0.414028  0.808334  1
  Br  Br11  1  0.788383  0.593113  0.206393  1
  O  O12  1  0.409981  0.885107  0.948977  1
  O  O13  1  0.902648  0.102874  0.028717  1
  O  O14  1  0.361374  0.800961  0.678854  1
  O  O15  1  0.877484  0.200578  0.300847  1
  O  O16  1  0.387422  0.319107  0.203658  1
  O  O17  1  0.889314  0.705047  0.805972  1
  O  O18  1  0.902894  0.209365  0.809056  1
  O  O19  1  0.405545  0.766799  0.188256  1
  O  O20  1  0.942390  0.928620  0.655543  1
  O  O21  1  0.407338  0.046672  0.336622  1
  O  O22  1  0.374153  0.069731  0.866034  1
  O  O23  1  0.867165  0.929527  0.128563  1
  O  O24  1  0.397126  0.271211  0.678302  1
  O  O25  1  0.931355  0.727115  0.338496  1
  O  O26  1  0.364832  0.413907  0.952957  1
  O  O27  1  0.874466  0.602037  0.065443  1
  O  O28  1  0.420124  0.552561  0.816906  1
  O  O29  1  0.911269  0.444887  0.183079  1
  O  O30  1  0.350527  0.588325  0.383219  1
  O  O31  1  0.885606  0.437437  0.620903  1
  O  O32  1  0.423556  0.408677  0.471975  1
  O  O33  1  0.935051  0.621150  0.535720  1
  O  O34  1  0.869669  0.082779  0.535334  1
  O  O35  1  0.343186  0.892489  0.460372  1
