# generated using pymatgen
data_Hf3ZrFe3Si4Os
_symmetry_space_group_name_H-M   'P 1'
_cell_length_a   4.00868500
_cell_length_b   6.38218120
_cell_length_c   7.05472811
_cell_angle_alpha   89.62115821
_cell_angle_beta   90.00000000
_cell_angle_gamma   90.00000000
_symmetry_Int_Tables_number   1
_chemical_formula_structural   Hf3ZrFe3Si4Os
_chemical_formula_sum   'Hf3 Zr1 Fe3 Si4 Os1'
_cell_volume   180.48530537
_cell_formula_units_Z   1
loop_
 _symmetry_equiv_pos_site_id
 _symmetry_equiv_pos_as_xyz
  1  'x, y, z'
loop_
 _atom_site_type_symbol
 _atom_site_label
 _atom_site_symmetry_multiplicity
 _atom_site_fract_x
 _atom_site_fract_y
 _atom_site_fract_z
 _atom_site_occupancy
  Hf  Hf0  1  0.250000  0.989628  0.306581  1
  Hf  Hf1  1  0.250000  0.497534  0.202056  1
  Hf  Hf2  1  0.750000  0.499514  0.801639  1
  Zr  Zr3  1  0.750000  0.999873  0.688056  1
  Fe  Fe4  1  0.250000  0.660034  0.557318  1
  Fe  Fe5  1  0.750000  0.845001  0.063663  1
  Fe  Fe6  1  0.750000  0.348122  0.437440  1
  Si  Si7  1  0.250000  0.294706  0.599887  1
  Si  Si8  1  0.250000  0.782501  0.893193  1
  Si  Si9  1  0.750000  0.708160  0.388255  1
  Si  Si10  1  0.750000  0.211150  0.123379  1
  Os  Os11  1  0.250000  0.163778  0.938532  1
