# generated using pymatgen
data_Ho15Er5(Bi2Os)4
_symmetry_space_group_name_H-M   'P 1'
_cell_length_a   7.94626201
_cell_length_b   9.01206591
_cell_length_c   12.52306200
_cell_angle_alpha   89.95406580
_cell_angle_beta   90.00229291
_cell_angle_gamma   90.00279286
_symmetry_Int_Tables_number   1
_chemical_formula_structural   Ho15Er5(Bi2Os)4
_chemical_formula_sum   'Ho15 Er5 Bi8 Os4'
_cell_volume   896.80419286
_cell_formula_units_Z   1
loop_
 _symmetry_equiv_pos_site_id
 _symmetry_equiv_pos_as_xyz
  1  'x, y, z'
loop_
 _atom_site_type_symbol
 _atom_site_label
 _atom_site_symmetry_multiplicity
 _atom_site_fract_x
 _atom_site_fract_y
 _atom_site_fract_z
 _atom_site_occupancy
  Ho  Ho0  1  0.839604  0.749992  0.791921  1
  Ho  Ho1  1  0.160470  0.249838  0.208285  1
  Ho  Ho2  1  0.339518  0.249966  0.708118  1
  Ho  Ho3  1  0.660449  0.749877  0.291809  1
  Ho  Ho4  1  0.376345  0.750022  0.690160  1
  Ho  Ho5  1  0.623165  0.249993  0.309634  1
  Ho  Ho6  1  0.876673  0.249579  0.809565  1
  Ho  Ho7  1  0.123233  0.750504  0.190572  1
  Ho  Ho8  1  0.941278  0.750380  0.504212  1
  Ho  Ho9  1  0.059176  0.249779  0.495747  1
  Ho  Ho10  1  0.441075  0.249316  0.995818  1
  Ho  Ho11  1  0.558878  0.750543  0.004263  1
  Ho  Ho12  1  0.673085  0.457785  0.564481  1
  Ho  Ho13  1  0.826789  0.457606  0.064639  1
  Ho  Ho14  1  0.173354  0.542298  0.935490  1
  Er  Er15  1  0.671955  0.042506  0.564585  1
  Er  Er16  1  0.327936  0.957660  0.435286  1
  Er  Er17  1  0.171979  0.957454  0.935318  1
  Er  Er18  1  0.327567  0.542528  0.435294  1
  Er  Er19  1  0.828014  0.042366  0.064808  1
  Bi  Bi20  1  0.566687  0.492796  0.828030  1
  Bi  Bi21  1  0.433076  0.507179  0.171954  1
  Bi  Bi22  1  0.066533  0.507087  0.672023  1
  Bi  Bi23  1  0.433859  0.992871  0.172100  1
  Bi  Bi24  1  0.933770  0.492919  0.328148  1
  Bi  Bi25  1  0.566038  0.006883  0.827834  1
  Bi  Bi26  1  0.933571  0.007149  0.328093  1
  Bi  Bi27  1  0.066182  0.992867  0.671945  1
  Os  Os28  1  0.574631  0.750374  0.509136  1
  Os  Os29  1  0.424915  0.249771  0.490831  1
  Os  Os30  1  0.075245  0.249490  0.990672  1
  Os  Os31  1  0.924947  0.750622  0.009224  1
