# generated using pymatgen
data_La2Y3(SnBi)2
_symmetry_space_group_name_H-M   'P 1'
_cell_length_a   8.44665200
_cell_length_b   8.42057800
_cell_length_c   15.83964100
_cell_angle_alpha   90.00000000
_cell_angle_beta   90.00000000
_cell_angle_gamma   90.00000000
_symmetry_Int_Tables_number   1
_chemical_formula_structural   La2Y3(SnBi)2
_chemical_formula_sum   'La8 Y12 Sn8 Bi8'
_cell_volume   1126.60542723
_cell_formula_units_Z   4
loop_
 _symmetry_equiv_pos_site_id
 _symmetry_equiv_pos_as_xyz
  1  'x, y, z'
loop_
 _atom_site_type_symbol
 _atom_site_label
 _atom_site_symmetry_multiplicity
 _atom_site_fract_x
 _atom_site_fract_y
 _atom_site_fract_z
 _atom_site_occupancy
  La  La0  1  0.521161  0.320937  0.899904  1
  La  La1  1  0.021161  0.179063  0.600096  1
  La  La2  1  0.478839  0.679063  0.399904  1
  La  La3  1  0.978839  0.820937  0.100096  1
  La  La4  1  0.478839  0.679063  0.100096  1
  La  La5  1  0.978839  0.820937  0.399904  1
  La  La6  1  0.521161  0.320937  0.600096  1
  La  La7  1  0.021161  0.179063  0.899904  1
  Y  Y8  1  0.356278  0.843386  0.872935  1
  Y  Y9  1  0.856278  0.656614  0.627065  1
  Y  Y10  1  0.643722  0.156614  0.372935  1
  Y  Y11  1  0.143722  0.343386  0.127065  1
  Y  Y12  1  0.643722  0.156614  0.127065  1
  Y  Y13  1  0.143722  0.343386  0.372935  1
  Y  Y14  1  0.356278  0.843386  0.627065  1
  Y  Y15  1  0.856278  0.656614  0.872935  1
  Y  Y16  1  0.185719  0.497134  0.750000  1
  Y  Y17  1  0.685719  0.002866  0.750000  1
  Y  Y18  1  0.814281  0.502866  0.250000  1
  Y  Y19  1  0.314281  0.997134  0.250000  1
  Sn  Sn20  1  0.551758  0.627195  0.750000  1
  Sn  Sn21  1  0.051758  0.872805  0.750000  1
  Sn  Sn22  1  0.448242  0.372805  0.250000  1
  Sn  Sn23  1  0.948242  0.127195  0.250000  1
  Sn  Sn24  1  0.326285  0.147469  0.750000  1
  Sn  Sn25  1  0.826285  0.352531  0.750000  1
  Sn  Sn26  1  0.673715  0.852531  0.250000  1
  Sn  Sn27  1  0.173715  0.647469  0.250000  1
  Bi  Bi28  1  0.295695  0.042425  0.044129  1
  Bi  Bi29  1  0.795695  0.457575  0.455871  1
  Bi  Bi30  1  0.704305  0.957575  0.544129  1
  Bi  Bi31  1  0.204305  0.542425  0.955871  1
  Bi  Bi32  1  0.704305  0.957575  0.955871  1
  Bi  Bi33  1  0.204305  0.542425  0.544129  1
  Bi  Bi34  1  0.295695  0.042425  0.455871  1
  Bi  Bi35  1  0.795695  0.457575  0.044129  1
