# generated using pymatgen
data_ErLu3(P3Rh4)2
_symmetry_space_group_name_H-M   'P 1'
_cell_length_a   3.93282600
_cell_length_b   11.28039000
_cell_length_c   12.91134700
_cell_angle_alpha   90.00000000
_cell_angle_beta   90.00000000
_cell_angle_gamma   90.00000000
_symmetry_Int_Tables_number   1
_chemical_formula_structural   ErLu3(P3Rh4)2
_chemical_formula_sum   'Er2 Lu6 P12 Rh16'
_cell_volume   572.79655912
_cell_formula_units_Z   2
loop_
 _symmetry_equiv_pos_site_id
 _symmetry_equiv_pos_as_xyz
  1  'x, y, z'
loop_
 _atom_site_type_symbol
 _atom_site_label
 _atom_site_symmetry_multiplicity
 _atom_site_fract_x
 _atom_site_fract_y
 _atom_site_fract_z
 _atom_site_occupancy
  Er  Er0  1  0.500000  0.500000  0.160704  1
  Er  Er1  1  0.000000  0.000000  0.839296  1
  Lu  Lu2  1  0.000000  0.500000  0.523480  1
  Lu  Lu3  1  0.500000  0.000000  0.476520  1
  Lu  Lu4  1  0.500000  0.820359  0.203982  1
  Lu  Lu5  1  0.500000  0.179641  0.203982  1
  Lu  Lu6  1  0.000000  0.679641  0.796018  1
  Lu  Lu7  1  0.000000  0.320359  0.796018  1
  P  P8  1  0.500000  0.500000  0.878306  1
  P  P9  1  0.000000  0.000000  0.121694  1
  P  P10  1  0.500000  0.500000  0.367853  1
  P  P11  1  0.000000  0.000000  0.632147  1
  P  P12  1  0.500000  0.313943  0.617256  1
  P  P13  1  0.500000  0.686057  0.617256  1
  P  P14  1  0.000000  0.186057  0.382744  1
  P  P15  1  0.000000  0.813943  0.382744  1
  P  P16  1  0.500000  0.837172  0.888731  1
  P  P17  1  0.500000  0.162828  0.888731  1
  P  P18  1  0.000000  0.662828  0.111269  1
  P  P19  1  0.000000  0.337172  0.111269  1
  Rh  Rh20  1  0.500000  0.500000  0.700785  1
  Rh  Rh21  1  0.000000  0.000000  0.299215  1
  Rh  Rh22  1  0.000000  0.500000  0.979760  1
  Rh  Rh23  1  0.500000  0.000000  0.020240  1
  Rh  Rh24  1  0.500000  0.331424  0.990335  1
  Rh  Rh25  1  0.500000  0.668576  0.990335  1
  Rh  Rh26  1  0.000000  0.168576  0.009665  1
  Rh  Rh27  1  0.000000  0.831424  0.009665  1
  Rh  Rh28  1  0.500000  0.292374  0.433163  1
  Rh  Rh29  1  0.500000  0.707626  0.433163  1
  Rh  Rh30  1  0.000000  0.207626  0.566837  1
  Rh  Rh31  1  0.000000  0.792374  0.566837  1
  Rh  Rh32  1  0.500000  0.871412  0.705753  1
  Rh  Rh33  1  0.500000  0.128588  0.705753  1
  Rh  Rh34  1  0.000000  0.628588  0.294247  1
  Rh  Rh35  1  0.000000  0.371412  0.294247  1
