# generated using pymatgen
data_Li2Pr3InHg6
_symmetry_space_group_name_H-M   'P 1'
_cell_length_a   5.15785602
_cell_length_b   7.24437600
_cell_length_c   15.60592200
_cell_angle_alpha   90.00000000
_cell_angle_beta   90.00524319
_cell_angle_gamma   90.00000000
_symmetry_Int_Tables_number   1
_chemical_formula_structural   Li2Pr3InHg6
_chemical_formula_sum   'Li4 Pr6 In2 Hg12'
_cell_volume   583.12227038
_cell_formula_units_Z   2
loop_
 _symmetry_equiv_pos_site_id
 _symmetry_equiv_pos_as_xyz
  1  'x, y, z'
loop_
 _atom_site_type_symbol
 _atom_site_label
 _atom_site_symmetry_multiplicity
 _atom_site_fract_x
 _atom_site_fract_y
 _atom_site_fract_z
 _atom_site_occupancy
  Li  Li0  1  0.999815  0.500000  0.332556  1
  Li  Li1  1  0.500074  0.000000  0.497395  1
  Li  Li2  1  0.000462  0.500000  0.668835  1
  Li  Li3  1  0.500683  0.000000  0.834285  1
  Pr  Pr4  1  0.999228  0.000000  0.009913  1
  Pr  Pr5  1  0.498920  0.500000  0.156984  1
  Pr  Pr6  1  0.999874  0.000000  0.331394  1
  Pr  Pr7  1  0.499913  0.500000  0.504393  1
  Pr  Pr8  1  0.000553  0.000000  0.662295  1
  Pr  Pr9  1  0.501163  0.500000  0.835287  1
  In  In10  1  0.000593  0.500000  0.997874  1
  In  In11  1  0.498948  0.000000  0.168808  1
  Hg  Hg12  1  0.499508  0.236271  0.990687  1
  Hg  Hg13  1  0.499508  0.763728  0.990687  1
  Hg  Hg14  1  0.998956  0.263900  0.176184  1
  Hg  Hg15  1  0.998956  0.736100  0.176184  1
  Hg  Hg16  1  0.499782  0.263392  0.338593  1
  Hg  Hg17  1  0.499782  0.736609  0.338593  1
  Hg  Hg18  1  0.999741  0.255228  0.497126  1
  Hg  Hg19  1  0.999741  0.744771  0.497126  1
  Hg  Hg20  1  0.500693  0.244889  0.669365  1
  Hg  Hg21  1  0.500693  0.755112  0.669365  1
  Hg  Hg22  1  0.001204  0.236242  0.828035  1
  Hg  Hg23  1  0.001204  0.763758  0.828035  1
