# generated using pymatgen
data_Zr6Zn20Ag3S
_symmetry_space_group_name_H-M   'P 1'
_cell_length_a   8.85916054
_cell_length_b   8.85919298
_cell_length_c   8.86682000
_cell_angle_alpha   59.97146475
_cell_angle_beta   59.97123144
_cell_angle_gamma   59.95828133
_symmetry_Int_Tables_number   1
_chemical_formula_structural   Zr6Zn20Ag3S
_chemical_formula_sum   'Zr6 Zn20 Ag3 S1'
_cell_volume   491.71608411
_cell_formula_units_Z   1
loop_
 _symmetry_equiv_pos_site_id
 _symmetry_equiv_pos_as_xyz
  1  'x, y, z'
loop_
 _atom_site_type_symbol
 _atom_site_label
 _atom_site_symmetry_multiplicity
 _atom_site_fract_x
 _atom_site_fract_y
 _atom_site_fract_z
 _atom_site_occupancy
  Zr  Zr0  1  0.705586  0.294347  0.295980  1
  Zr  Zr1  1  0.705585  0.294347  0.704087  1
  Zr  Zr2  1  0.702863  0.702868  0.297133  1
  Zr  Zr3  1  0.294346  0.705590  0.704087  1
  Zr  Zr4  1  0.294348  0.705590  0.295975  1
  Zr  Zr5  1  0.291846  0.291845  0.708155  1
  Zn  Zn6  1  0.124302  0.124300  0.621590  1
  Zn  Zn7  1  0.124305  0.124302  0.129809  1
  Zn  Zn8  1  0.377817  0.869064  0.876558  1
  Zn  Zn9  1  0.869066  0.377814  0.876559  1
  Zn  Zn10  1  0.877533  0.877532  0.361535  1
  Zn  Zn11  1  0.877538  0.877538  0.883398  1
  Zn  Zn12  1  0.497798  0.998599  0.999500  1
  Zn  Zn13  1  0.497799  0.998601  0.504102  1
  Zn  Zn14  1  0.500315  0.500314  0.999688  1
  Zn  Zn15  1  0.998601  0.497799  0.504101  1
  Zn  Zn16  1  0.998599  0.497797  0.999500  1
  Zn  Zn17  1  0.998236  0.998237  0.501761  1
  Zn  Zn18  1  0.991086  0.335499  0.336707  1
  Zn  Zn19  1  0.335500  0.991081  0.336710  1
  Zn  Zn20  1  0.334912  0.334910  0.994046  1
  Zn  Zn21  1  0.334911  0.334912  0.336134  1
  Zn  Zn22  1  0.002354  0.665998  0.665825  1
  Zn  Zn23  1  0.665996  0.002358  0.665823  1
  Zn  Zn24  1  0.664783  0.664785  0.006323  1
  Zn  Zn25  1  0.664782  0.664782  0.664108  1
  Ag  Ag26  1  0.636414  0.118504  0.122542  1
  Ag  Ag27  1  0.118500  0.636416  0.122542  1
  Ag  Ag28  1  0.016992  0.016991  0.983004  1
  S  S29  1  0.497284  0.497280  0.502716  1
