# generated using pymatgen
data_Nd4Al4Ni3Rh
_symmetry_space_group_name_H-M   'P 1'
_cell_length_a   4.35129200
_cell_length_b   6.88990859
_cell_length_c   7.81395648
_cell_angle_alpha   89.54489586
_cell_angle_beta   90.00000000
_cell_angle_gamma   90.00000000
_symmetry_Int_Tables_number   1
_chemical_formula_structural   Nd4Al4Ni3Rh
_chemical_formula_sum   'Nd4 Al4 Ni3 Rh1'
_cell_volume   234.25505745
_cell_formula_units_Z   1
loop_
 _symmetry_equiv_pos_site_id
 _symmetry_equiv_pos_as_xyz
  1  'x, y, z'
loop_
 _atom_site_type_symbol
 _atom_site_label
 _atom_site_symmetry_multiplicity
 _atom_site_fract_x
 _atom_site_fract_y
 _atom_site_fract_z
 _atom_site_occupancy
  Nd  Nd0  1  0.250000  0.542967  0.177754  1
  Nd  Nd1  1  0.750000  0.459312  0.827920  1
  Nd  Nd2  1  0.750000  0.957509  0.676333  1
  Nd  Nd3  1  0.250000  0.038233  0.320051  1
  Al  Al4  1  0.250000  0.637401  0.561354  1
  Al  Al5  1  0.750000  0.366910  0.436791  1
  Al  Al6  1  0.750000  0.865066  0.060054  1
  Al  Al7  1  0.250000  0.135329  0.940310  1
  Ni  Ni8  1  0.250000  0.780218  0.882149  1
  Ni  Ni9  1  0.750000  0.221992  0.120938  1
  Ni  Ni10  1  0.750000  0.724536  0.378778  1
  Rh  Rh11  1  0.250000  0.270527  0.617569  1
