# generated using pymatgen
data_HoLu5Al24Ir5Ru3
_symmetry_space_group_name_H-M   'P 1'
_cell_length_a   8.77306289
_cell_length_b   8.77306391
_cell_length_c   9.48001585
_cell_angle_alpha   89.87272704
_cell_angle_beta   90.12727455
_cell_angle_gamma   119.92814735
_symmetry_Int_Tables_number   1
_chemical_formula_structural   HoLu5Al24Ir5Ru3
_chemical_formula_sum   'Ho1 Lu5 Al24 Ir5 Ru3'
_cell_volume   632.34602192
_cell_formula_units_Z   1
loop_
 _symmetry_equiv_pos_site_id
 _symmetry_equiv_pos_as_xyz
  1  'x, y, z'
loop_
 _atom_site_type_symbol
 _atom_site_label
 _atom_site_symmetry_multiplicity
 _atom_site_fract_x
 _atom_site_fract_y
 _atom_site_fract_z
 _atom_site_occupancy
  Ho  Ho0  1  0.807122  0.192878  0.751088  1
  Lu  Lu1  1  0.196166  0.391281  0.249044  1
  Lu  Lu2  1  0.803708  0.609063  0.751041  1
  Lu  Lu3  1  0.608719  0.803834  0.249044  1
  Lu  Lu4  1  0.390937  0.196292  0.751041  1
  Lu  Lu5  1  0.194760  0.805240  0.248807  1
  Al  Al6  1  0.333217  0.666783  0.028634  1
  Al  Al7  1  0.666506  0.333494  0.972036  1
  Al  Al8  1  0.665650  0.334350  0.526802  1
  Al  Al9  1  0.334094  0.665906  0.472471  1
  Al  Al10  1  0.164853  0.325411  0.578618  1
  Al  Al11  1  0.835722  0.675184  0.420720  1
  Al  Al12  1  0.674589  0.835147  0.578618  1
  Al  Al13  1  0.837168  0.673941  0.078257  1
  Al  Al14  1  0.324816  0.164278  0.420720  1
  Al  Al15  1  0.163348  0.326710  0.922414  1
  Al  Al16  1  0.162730  0.837270  0.577887  1
  Al  Al17  1  0.326059  0.162832  0.078257  1
  Al  Al18  1  0.837206  0.162794  0.420847  1
  Al  Al19  1  0.673290  0.836652  0.922414  1
  Al  Al20  1  0.837075  0.162925  0.079741  1
  Al  Al21  1  0.162863  0.837137  0.921485  1
  Al  Al22  1  0.562025  0.124899  0.248920  1
  Al  Al23  1  0.437131  0.874823  0.751125  1
  Al  Al24  1  0.875101  0.437975  0.248920  1
  Al  Al25  1  0.125177  0.562869  0.751125  1
  Al  Al26  1  0.561798  0.438202  0.250359  1
  Al  Al27  1  0.438149  0.561851  0.749636  1
  Al  Al28  1  0.000007  0.999993  0.249740  1
  Al  Al29  1  0.001431  0.998569  0.750195  1
  Ir  Ir30  1  0.499492  0.999856  0.000485  1
  Ir  Ir31  1  0.000144  0.500508  0.000485  1
  Ir  Ir32  1  0.499452  0.999841  0.499531  1
  Ir  Ir33  1  0.499850  0.500150  0.000225  1
  Ir  Ir34  1  0.000159  0.500548  0.499531  1
  Ru  Ru35  1  0.499792  0.500208  0.499781  1
  Ru  Ru36  1  0.999862  0.000138  0.000019  1
  Ru  Ru37  1  0.999833  0.000167  0.499931  1
