# generated using pymatgen
data_CaDy(NiRh)2
_symmetry_space_group_name_H-M   'P 1'
_cell_length_a   5.09850914
_cell_length_b   5.21725927
_cell_length_c   5.21725870
_cell_angle_alpha   62.26725786
_cell_angle_beta   60.75011019
_cell_angle_gamma   60.75011560
_symmetry_Int_Tables_number   1
_chemical_formula_structural   CaDy(NiRh)2
_chemical_formula_sum   'Ca1 Dy1 Ni2 Rh2'
_cell_volume   100.85770673
_cell_formula_units_Z   1
loop_
 _symmetry_equiv_pos_site_id
 _symmetry_equiv_pos_as_xyz
  1  'x, y, z'
loop_
 _atom_site_type_symbol
 _atom_site_label
 _atom_site_symmetry_multiplicity
 _atom_site_fract_x
 _atom_site_fract_y
 _atom_site_fract_z
 _atom_site_occupancy
  Ca  Ca0  1  0.003491  0.996509  0.996509  1
  Dy  Dy1  1  0.248166  0.251834  0.251834  1
  Ni  Ni2  1  0.125053  0.625813  0.625813  1
  Ni  Ni3  1  0.623322  0.625813  0.625813  1
  Rh  Rh4  1  0.624984  0.624845  0.125187  1
  Rh  Rh5  1  0.624984  0.125187  0.624845  1
