# generated using pymatgen
data_LaTa3CrFeH12
_symmetry_space_group_name_H-M   'P 1'
_cell_length_a   6.10354400
_cell_length_b   6.10354113
_cell_length_c   4.68972900
_cell_angle_alpha   90.00000000
_cell_angle_beta   90.00000000
_cell_angle_gamma   119.99999387
_symmetry_Int_Tables_number   1
_chemical_formula_structural   LaTa3CrFeH12
_chemical_formula_sum   'La1 Ta3 Cr1 Fe1 H12'
_cell_volume   151.30119608
_cell_formula_units_Z   1
loop_
 _symmetry_equiv_pos_site_id
 _symmetry_equiv_pos_as_xyz
  1  'x, y, z'
loop_
 _atom_site_type_symbol
 _atom_site_label
 _atom_site_symmetry_multiplicity
 _atom_site_fract_x
 _atom_site_fract_y
 _atom_site_fract_z
 _atom_site_occupancy
  La  La0  1  0.000000  0.000000  0.000000  1
  Ta  Ta1  1  0.498183  0.996367  0.500000  1
  Ta  Ta2  1  0.003633  0.501817  0.500000  1
  Ta  Ta3  1  0.498183  0.501817  0.500000  1
  Cr  Cr4  1  0.666667  0.333333  0.000000  1
  Fe  Fe5  1  0.333333  0.666667  0.000000  1
  H  H6  1  0.798784  0.597570  0.739311  1
  H  H7  1  0.205321  0.410641  0.248294  1
  H  H8  1  0.205321  0.794679  0.248294  1
  H  H9  1  0.798784  0.201216  0.260689  1
  H  H10  1  0.589359  0.794679  0.248294  1
  H  H11  1  0.402430  0.201216  0.260689  1
  H  H12  1  0.402430  0.201216  0.739311  1
  H  H13  1  0.205321  0.410641  0.751706  1
  H  H14  1  0.798784  0.201216  0.739311  1
  H  H15  1  0.589359  0.794679  0.751706  1
  H  H16  1  0.798784  0.597570  0.260689  1
  H  H17  1  0.205321  0.794679  0.751706  1
