# generated using pymatgen
data_Nd5Mg2Ru3
_symmetry_space_group_name_H-M   'P 1'
_cell_length_a   8.66187599
_cell_length_b   8.66187483
_cell_length_c   8.66187600
_cell_angle_alpha   109.47122336
_cell_angle_beta   109.47122066
_cell_angle_gamma   109.47122001
_symmetry_Int_Tables_number   1
_chemical_formula_structural   Nd5Mg2Ru3
_chemical_formula_sum   'Nd10 Mg4 Ru6'
_cell_volume   500.28090357
_cell_formula_units_Z   2
loop_
 _symmetry_equiv_pos_site_id
 _symmetry_equiv_pos_as_xyz
  1  'x, y, z'
loop_
 _atom_site_type_symbol
 _atom_site_label
 _atom_site_symmetry_multiplicity
 _atom_site_fract_x
 _atom_site_fract_y
 _atom_site_fract_z
 _atom_site_occupancy
  Nd  Nd0  1  0.250000  0.676580  0.426581  1
  Nd  Nd1  1  0.750000  0.823420  0.073420  1
  Nd  Nd2  1  0.426581  0.250000  0.676580  1
  Nd  Nd3  1  0.676580  0.426581  0.250000  1
  Nd  Nd4  1  0.073420  0.750000  0.823420  1
  Nd  Nd5  1  0.823420  0.073420  0.750000  1
  Nd  Nd6  1  0.212352  0.212352  0.212352  1
  Nd  Nd7  1  0.500001  0.000000  0.287648  1
  Nd  Nd8  1  0.287648  0.500001  0.000000  1
  Nd  Nd9  1  0.000000  0.287648  0.500001  1
  Mg  Mg10  1  0.500001  0.000000  0.901312  1
  Mg  Mg11  1  0.598688  0.598688  0.598688  1
  Mg  Mg12  1  0.901312  0.500001  0.000000  1
  Mg  Mg13  1  0.000000  0.901312  0.500001  1
  Ru  Ru14  1  0.250001  0.132458  0.882458  1
  Ru  Ru15  1  0.750000  0.367541  0.617541  1
  Ru  Ru16  1  0.882458  0.250001  0.132458  1
  Ru  Ru17  1  0.132458  0.882458  0.250001  1
  Ru  Ru18  1  0.617541  0.750000  0.367541  1
  Ru  Ru19  1  0.367541  0.617541  0.750000  1
