# generated using pymatgen
data_Ti4ReGe3N
_symmetry_space_group_name_H-M   'P 1'
_cell_length_a   7.48901100
_cell_length_b   7.48900958
_cell_length_c   5.22786700
_cell_angle_alpha   90.00000000
_cell_angle_beta   90.00000000
_cell_angle_gamma   119.99999303
_symmetry_Int_Tables_number   1
_chemical_formula_structural   Ti4ReGe3N
_chemical_formula_sum   'Ti8 Re2 Ge6 N2'
_cell_volume   253.92417325
_cell_formula_units_Z   2
loop_
 _symmetry_equiv_pos_site_id
 _symmetry_equiv_pos_as_xyz
  1  'x, y, z'
loop_
 _atom_site_type_symbol
 _atom_site_label
 _atom_site_symmetry_multiplicity
 _atom_site_fract_x
 _atom_site_fract_y
 _atom_site_fract_z
 _atom_site_occupancy
  Ti  Ti0  1  0.224510  0.000000  0.748777  1
  Ti  Ti1  1  0.775490  0.000000  0.251223  1
  Ti  Ti2  1  0.000000  0.224510  0.748777  1
  Ti  Ti3  1  0.000000  0.775490  0.251223  1
  Ti  Ti4  1  0.775490  0.775490  0.748777  1
  Ti  Ti5  1  0.224510  0.224510  0.251223  1
  Ti  Ti6  1  0.333333  0.666667  0.500000  1
  Ti  Ti7  1  0.666667  0.333333  0.500000  1
  Re  Re8  1  0.666667  0.333333  0.000000  1
  Re  Re9  1  0.333333  0.666667  0.000000  1
  Ge  Ge10  1  0.593599  0.000000  0.754285  1
  Ge  Ge11  1  0.406401  0.000000  0.245715  1
  Ge  Ge12  1  0.000000  0.593599  0.754285  1
  Ge  Ge13  1  0.000000  0.406401  0.245715  1
  Ge  Ge14  1  0.406401  0.406401  0.754285  1
  Ge  Ge15  1  0.593599  0.593599  0.245715  1
  N  N16  1  0.000000  0.000000  0.500000  1
  N  N17  1  0.000000  0.000000  0.000000  1
