# generated using pymatgen
data_Th3AlGa2Ru2Pt
_symmetry_space_group_name_H-M   'P 1'
_cell_length_a   7.23826273
_cell_length_b   7.23826367
_cell_length_c   4.11755500
_cell_angle_alpha   90.00000000
_cell_angle_beta   90.00000000
_cell_angle_gamma   120.38912886
_symmetry_Int_Tables_number   1
_chemical_formula_structural   Th3AlGa2Ru2Pt
_chemical_formula_sum   'Th3 Al1 Ga2 Ru2 Pt1'
_cell_volume   186.08975838
_cell_formula_units_Z   1
loop_
 _symmetry_equiv_pos_site_id
 _symmetry_equiv_pos_as_xyz
  1  'x, y, z'
loop_
 _atom_site_type_symbol
 _atom_site_label
 _atom_site_symmetry_multiplicity
 _atom_site_fract_x
 _atom_site_fract_y
 _atom_site_fract_z
 _atom_site_occupancy
  Th  Th0  1  0.418152  0.418152  0.500000  1
  Th  Th1  1  0.578254  0.001818  0.500000  1
  Th  Th2  1  0.001818  0.578254  0.500000  1
  Al  Al3  1  0.765682  0.765682  0.000000  1
  Ga  Ga4  1  0.240129  0.999007  0.000000  1
  Ga  Ga5  1  0.999007  0.240129  0.000000  1
  Ru  Ru6  1  0.667520  0.338802  0.000000  1
  Ru  Ru7  1  0.338802  0.667520  0.000000  1
  Pt  Pt8  1  0.990635  0.990635  0.500000  1
