# generated using pymatgen
data_LaThAl2PtRh
_symmetry_space_group_name_H-M   'P 1'
_cell_length_a   4.29981600
_cell_length_b   7.30594000
_cell_length_c   16.32056600
_cell_angle_alpha   90.00000000
_cell_angle_beta   90.00000000
_cell_angle_gamma   90.00000000
_symmetry_Int_Tables_number   1
_chemical_formula_structural   LaThAl2PtRh
_chemical_formula_sum   'La4 Th4 Al8 Pt4 Rh4'
_cell_volume   512.69748701
_cell_formula_units_Z   4
loop_
 _symmetry_equiv_pos_site_id
 _symmetry_equiv_pos_as_xyz
  1  'x, y, z'
loop_
 _atom_site_type_symbol
 _atom_site_label
 _atom_site_symmetry_multiplicity
 _atom_site_fract_x
 _atom_site_fract_y
 _atom_site_fract_z
 _atom_site_occupancy
  La  La0  1  0.250000  0.652650  0.556913  1
  La  La1  1  0.750000  0.347350  0.443087  1
  La  La2  1  0.750000  0.847350  0.056913  1
  La  La3  1  0.250000  0.152650  0.943087  1
  Th  Th4  1  0.250000  0.524450  0.779761  1
  Th  Th5  1  0.750000  0.475550  0.220239  1
  Th  Th6  1  0.750000  0.975550  0.279761  1
  Th  Th7  1  0.250000  0.024450  0.720239  1
  Al  Al8  1  0.250000  0.654678  0.350994  1
  Al  Al9  1  0.750000  0.345322  0.649006  1
  Al  Al10  1  0.750000  0.845322  0.850994  1
  Al  Al11  1  0.250000  0.154678  0.149006  1
  Al  Al12  1  0.250000  0.507250  0.060500  1
  Al  Al13  1  0.750000  0.492750  0.939500  1
  Al  Al14  1  0.750000  0.992750  0.560500  1
  Al  Al15  1  0.250000  0.007250  0.439500  1
  Pt  Pt16  1  0.250000  0.762383  0.185635  1
  Pt  Pt17  1  0.750000  0.237617  0.814365  1
  Pt  Pt18  1  0.750000  0.737617  0.685635  1
  Pt  Pt19  1  0.250000  0.262383  0.314365  1
  Rh  Rh20  1  0.250000  0.708099  0.923831  1
  Rh  Rh21  1  0.750000  0.291901  0.076169  1
  Rh  Rh22  1  0.750000  0.791901  0.423831  1
  Rh  Rh23  1  0.250000  0.208099  0.576169  1
