# generated using pymatgen
data_ZrScVFe3
_symmetry_space_group_name_H-M   'P 1'
_cell_length_a   5.07193873
_cell_length_b   5.07193868
_cell_length_c   4.91600568
_cell_angle_alpha   58.94507363
_cell_angle_beta   58.94507319
_cell_angle_gamma   60.00001035
_symmetry_Int_Tables_number   1
_chemical_formula_structural   ZrScVFe3
_chemical_formula_sum   'Zr1 Sc1 V1 Fe3'
_cell_volume   87.96972566
_cell_formula_units_Z   1
loop_
 _symmetry_equiv_pos_site_id
 _symmetry_equiv_pos_as_xyz
  1  'x, y, z'
loop_
 _atom_site_type_symbol
 _atom_site_label
 _atom_site_symmetry_multiplicity
 _atom_site_fract_x
 _atom_site_fract_y
 _atom_site_fract_z
 _atom_site_occupancy
  Zr  Zr0  1  0.999628  0.999628  0.001115  1
  Sc  Sc1  1  0.250731  0.250731  0.247806  1
  V  V2  1  0.625290  0.625290  0.124130  1
  Fe  Fe3  1  0.624408  0.125535  0.625650  1
  Fe  Fe4  1  0.125535  0.624408  0.625650  1
  Fe  Fe5  1  0.624408  0.624408  0.625650  1
