# generated using pymatgen
data_Tb10Pr5Y(CdPt)4
_symmetry_space_group_name_H-M   'P 1'
_cell_length_a   9.82372130
_cell_length_b   9.82743747
_cell_length_c   9.82743686
_cell_angle_alpha   60.17450190
_cell_angle_beta   60.01250753
_cell_angle_gamma   60.01251105
_symmetry_Int_Tables_number   1
_chemical_formula_structural   Tb10Pr5Y(CdPt)4
_chemical_formula_sum   'Tb10 Pr5 Y1 Cd4 Pt4'
_cell_volume   671.88255993
_cell_formula_units_Z   1
loop_
 _symmetry_equiv_pos_site_id
 _symmetry_equiv_pos_as_xyz
  1  'x, y, z'
loop_
 _atom_site_type_symbol
 _atom_site_label
 _atom_site_symmetry_multiplicity
 _atom_site_fract_x
 _atom_site_fract_y
 _atom_site_fract_z
 _atom_site_occupancy
  Tb  Tb0  1  0.350358  0.350073  0.350073  1
  Tb  Tb1  1  0.349804  0.352537  0.947857  1
  Tb  Tb2  1  0.349804  0.947857  0.352537  1
  Tb  Tb3  1  0.949498  0.350073  0.350073  1
  Tb  Tb4  1  0.810489  0.189511  0.189511  1
  Tb  Tb5  1  0.188513  0.811487  0.811487  1
  Tb  Tb6  1  0.188443  0.810912  0.190617  1
  Tb  Tb7  1  0.810028  0.190617  0.810912  1
  Tb  Tb8  1  0.188443  0.190617  0.810912  1
  Tb  Tb9  1  0.810028  0.810912  0.190617  1
  Pr  Pr10  1  0.560974  0.939026  0.939026  1
  Pr  Pr11  1  0.565066  0.935999  0.561801  1
  Pr  Pr12  1  0.937133  0.561801  0.935999  1
  Pr  Pr13  1  0.565066  0.561801  0.935999  1
  Pr  Pr14  1  0.937133  0.935999  0.561801  1
  Y  Y15  1  0.942171  0.557829  0.557829  1
  Cd  Cd16  1  0.582536  0.579306  0.579306  1
  Cd  Cd17  1  0.579106  0.580389  0.261398  1
  Cd  Cd18  1  0.579106  0.261398  0.580389  1
  Cd  Cd19  1  0.258852  0.579306  0.579306  1
  Pt  Pt20  1  0.143567  0.142753  0.142753  1
  Pt  Pt21  1  0.141477  0.145067  0.571979  1
  Pt  Pt22  1  0.141477  0.571979  0.145067  1
  Pt  Pt23  1  0.570926  0.142753  0.142753  1
