# generated using pymatgen
data_TbNdY14(CdNi)4
_symmetry_space_group_name_H-M   'P 1'
_cell_length_a   9.61275595
_cell_length_b   9.61275594
_cell_length_c   9.60270075
_cell_angle_alpha   60.13692179
_cell_angle_beta   60.13692417
_cell_angle_gamma   60.18118756
_symmetry_Int_Tables_number   1
_chemical_formula_structural   TbNdY14(CdNi)4
_chemical_formula_sum   'Tb1 Nd1 Y14 Cd4 Ni4'
_cell_volume   629.59833192
_cell_formula_units_Z   1
loop_
 _symmetry_equiv_pos_site_id
 _symmetry_equiv_pos_as_xyz
  1  'x, y, z'
loop_
 _atom_site_type_symbol
 _atom_site_label
 _atom_site_symmetry_multiplicity
 _atom_site_fract_x
 _atom_site_fract_y
 _atom_site_fract_z
 _atom_site_occupancy
  Tb  Tb0  1  0.597311  0.597311  0.599355  1
  Nd  Nd1  1  0.598044  0.598044  0.205629  1
  Y  Y2  1  0.600715  0.198378  0.601370  1
  Y  Y3  1  0.198378  0.600715  0.601370  1
  Y  Y4  1  0.061300  0.440019  0.437928  1
  Y  Y5  1  0.438814  0.063132  0.060214  1
  Y  Y6  1  0.440019  0.061300  0.437928  1
  Y  Y7  1  0.063132  0.438814  0.060214  1
  Y  Y8  1  0.439411  0.439411  0.059619  1
  Y  Y9  1  0.062203  0.062203  0.437051  1
  Y  Y10  1  0.187501  0.813580  0.813597  1
  Y  Y11  1  0.813919  0.187095  0.185264  1
  Y  Y12  1  0.813580  0.187501  0.813597  1
  Y  Y13  1  0.187095  0.813919  0.185264  1
  Y  Y14  1  0.814152  0.814152  0.185743  1
  Y  Y15  1  0.187188  0.187188  0.813000  1
  Cd  Cd16  1  0.832002  0.832002  0.829270  1
  Cd  Cd17  1  0.831009  0.831009  0.506971  1
  Cd  Cd18  1  0.831891  0.506010  0.829528  1
  Cd  Cd19  1  0.506010  0.831891  0.829528  1
  Ni  Ni20  1  0.390595  0.390595  0.396837  1
  Ni  Ni21  1  0.392602  0.392602  0.819942  1
  Ni  Ni22  1  0.390173  0.822954  0.395390  1
  Ni  Ni23  1  0.822954  0.390173  0.395390  1
