# generated using pymatgen
data_Mo2Os5Pt
_symmetry_space_group_name_H-M   'P 1'
_cell_length_a   5.57708900
_cell_length_b   5.56697339
_cell_length_c   4.40341200
_cell_angle_alpha   90.00000000
_cell_angle_beta   90.00000000
_cell_angle_gamma   120.06012066
_symmetry_Int_Tables_number   1
_chemical_formula_structural   Mo2Os5Pt
_chemical_formula_sum   'Mo2 Os5 Pt1'
_cell_volume   118.32683612
_cell_formula_units_Z   1
loop_
 _symmetry_equiv_pos_site_id
 _symmetry_equiv_pos_as_xyz
  1  'x, y, z'
loop_
 _atom_site_type_symbol
 _atom_site_label
 _atom_site_symmetry_multiplicity
 _atom_site_fract_x
 _atom_site_fract_y
 _atom_site_fract_z
 _atom_site_occupancy
  Mo  Mo0  1  0.337446  0.674891  0.749999  1
  Mo  Mo1  1  0.663557  0.327111  0.250001  1
  Os  Os2  1  0.665871  0.838408  0.250001  1
  Os  Os3  1  0.172536  0.838408  0.250001  1
  Os  Os4  1  0.833256  0.666513  0.749999  1
  Os  Os5  1  0.331674  0.161615  0.749999  1
  Os  Os6  1  0.829939  0.161615  0.749999  1
  Pt  Pt7  1  0.165720  0.331439  0.250001  1
