# generated using pymatgen
data_Lu10GaSn5
_symmetry_space_group_name_H-M   'P 1'
_cell_length_a   8.70447080
_cell_length_b   8.69478292
_cell_length_c   6.41246000
_cell_angle_alpha   90.00000000
_cell_angle_beta   90.00000000
_cell_angle_gamma   119.96320327
_symmetry_Int_Tables_number   1
_chemical_formula_structural   Lu10GaSn5
_chemical_formula_sum   'Lu10 Ga1 Sn5'
_cell_volume   420.45287722
_cell_formula_units_Z   1
loop_
 _symmetry_equiv_pos_site_id
 _symmetry_equiv_pos_as_xyz
  1  'x, y, z'
loop_
 _atom_site_type_symbol
 _atom_site_label
 _atom_site_symmetry_multiplicity
 _atom_site_fract_x
 _atom_site_fract_y
 _atom_site_fract_z
 _atom_site_occupancy
  Lu  Lu0  1  0.673684  0.334573  0.003174  1
  Lu  Lu1  1  0.326316  0.660890  0.003174  1
  Lu  Lu2  1  0.326316  0.660890  0.496826  1
  Lu  Lu3  1  0.673684  0.334573  0.496826  1
  Lu  Lu4  1  0.764075  0.763902  0.750000  1
  Lu  Lu5  1  0.235925  0.999827  0.750000  1
  Lu  Lu6  1  0.000000  0.236617  0.750000  1
  Lu  Lu7  1  0.229376  0.239638  0.250000  1
  Lu  Lu8  1  0.770624  0.010262  0.250000  1
  Lu  Lu9  1  0.000000  0.757798  0.250000  1
  Ga  Ga10  1  0.000000  0.398643  0.250000  1
  Sn  Sn11  1  0.398843  0.397168  0.750000  1
  Sn  Sn12  1  0.601157  0.998324  0.750000  1
  Sn  Sn13  1  0.000000  0.602256  0.750000  1
  Sn  Sn14  1  0.603155  0.603897  0.250000  1
  Sn  Sn15  1  0.396845  0.000742  0.250000  1
