# generated using pymatgen
data_Sm2Pd2O7
_symmetry_space_group_name_H-M   'P 1'
_cell_length_a   7.35959900
_cell_length_b   7.35959825
_cell_length_c   7.35959900
_cell_angle_alpha   119.99999890
_cell_angle_beta   90.00000000
_cell_angle_gamma   119.99999890
_symmetry_Int_Tables_number   1
_chemical_formula_structural   Sm2Pd2O7
_chemical_formula_sum   'Sm4 Pd4 O14'
_cell_volume   281.86907308
_cell_formula_units_Z   2
loop_
 _symmetry_equiv_pos_site_id
 _symmetry_equiv_pos_as_xyz
  1  'x, y, z'
loop_
 _atom_site_type_symbol
 _atom_site_label
 _atom_site_symmetry_multiplicity
 _atom_site_fract_x
 _atom_site_fract_y
 _atom_site_fract_z
 _atom_site_occupancy
  Sm  Sm0  1  0.000000  0.000000  0.000000  1
  Sm  Sm1  1  0.500001  0.000000  0.000000  1
  Sm  Sm2  1  0.500001  0.500001  0.000000  1
  Sm  Sm3  1  0.500001  0.500001  0.500001  1
  Pd  Pd4  1  0.000000  0.500001  0.000000  1
  Pd  Pd5  1  0.500000  0.000000  0.500000  1
  Pd  Pd6  1  0.000000  0.000000  0.500001  1
  Pd  Pd7  1  0.000000  0.500001  0.500001  1
  O  O8  1  0.375001  0.250000  0.125000  1
  O  O9  1  0.336763  0.749999  0.163236  1
  O  O10  1  0.913236  0.326473  0.163237  1
  O  O11  1  0.913236  0.749999  0.163237  1
  O  O12  1  0.663236  0.250000  0.413236  1
  O  O13  1  0.663236  0.826472  0.413236  1
  O  O14  1  0.086764  0.250000  0.413237  1
  O  O15  1  0.913236  0.749999  0.586763  1
  O  O16  1  0.336763  0.173527  0.586764  1
  O  O17  1  0.336763  0.749999  0.586764  1
  O  O18  1  0.086764  0.250000  0.836763  1
  O  O19  1  0.086764  0.673526  0.836763  1
  O  O20  1  0.663236  0.250000  0.836764  1
  O  O21  1  0.624999  0.749999  0.874999  1
