# generated using pymatgen
data_Nd16In4Co3Ir
_symmetry_space_group_name_H-M   'P 1'
_cell_length_a   9.84142247
_cell_length_b   9.86901897
_cell_length_c   9.84142200
_cell_angle_alpha   60.09245860
_cell_angle_beta   60.00000157
_cell_angle_gamma   60.09245808
_symmetry_Int_Tables_number   1
_chemical_formula_structural   Nd16In4Co3Ir
_chemical_formula_sum   'Nd16 In4 Co3 Ir1'
_cell_volume   676.83099580
_cell_formula_units_Z   1
loop_
 _symmetry_equiv_pos_site_id
 _symmetry_equiv_pos_as_xyz
  1  'x, y, z'
loop_
 _atom_site_type_symbol
 _atom_site_label
 _atom_site_symmetry_multiplicity
 _atom_site_fract_x
 _atom_site_fract_y
 _atom_site_fract_z
 _atom_site_occupancy
  Nd  Nd0  1  0.061832  0.062951  0.437608  1
  Nd  Nd1  1  0.653636  0.039092  0.653636  1
  Nd  Nd2  1  0.190909  0.807038  0.190909  1
  Nd  Nd3  1  0.437608  0.062951  0.437608  1
  Nd  Nd4  1  0.195235  0.185705  0.809529  1
  Nd  Nd5  1  0.650186  0.658411  0.650186  1
  Nd  Nd6  1  0.041218  0.658411  0.650186  1
  Nd  Nd7  1  0.437608  0.062951  0.061832  1
  Nd  Nd8  1  0.650186  0.658411  0.041218  1
  Nd  Nd9  1  0.190909  0.807038  0.811146  1
  Nd  Nd10  1  0.809529  0.185705  0.809529  1
  Nd  Nd11  1  0.809529  0.185705  0.195235  1
  Nd  Nd12  1  0.811146  0.807038  0.190909  1
  Nd  Nd13  1  0.059156  0.438434  0.443254  1
  Nd  Nd14  1  0.443254  0.438434  0.059156  1
  Nd  Nd15  1  0.059156  0.438434  0.059156  1
  In  In16  1  0.741903  0.418847  0.419625  1
  In  In17  1  0.419625  0.418847  0.741903  1
  In  In18  1  0.418963  0.743109  0.418963  1
  In  In19  1  0.419625  0.418847  0.419625  1
  Co  Co20  1  0.859309  0.860008  0.859309  1
  Co  Co21  1  0.421373  0.860008  0.859309  1
  Co  Co22  1  0.859309  0.860008  0.421373  1
  Ir  Ir23  1  0.858795  0.423614  0.858795  1
