# generated using pymatgen
data_KPu2P3O14
_symmetry_space_group_name_H-M   'P 1'
_cell_length_a   10.20406000
_cell_length_b   10.67876400
_cell_length_c   11.02069700
_cell_angle_alpha   90.00000000
_cell_angle_beta   90.00000000
_cell_angle_gamma   90.00000000
_symmetry_Int_Tables_number   1
_chemical_formula_structural   KPu2P3O14
_chemical_formula_sum   'K4 Pu8 P12 O56'
_cell_volume   1200.88951920
_cell_formula_units_Z   4
loop_
 _symmetry_equiv_pos_site_id
 _symmetry_equiv_pos_as_xyz
  1  'x, y, z'
loop_
 _atom_site_type_symbol
 _atom_site_label
 _atom_site_symmetry_multiplicity
 _atom_site_fract_x
 _atom_site_fract_y
 _atom_site_fract_z
 _atom_site_occupancy
  K  K0  1  0.390748  0.000000  0.250000  1
  K  K1  1  0.109252  0.500000  0.750000  1
  K  K2  1  0.890748  0.500000  0.250000  1
  K  K3  1  0.609252  0.000000  0.750000  1
  Pu  Pu4  1  0.674690  0.806043  0.096130  1
  Pu  Pu5  1  0.174690  0.306043  0.403870  1
  Pu  Pu6  1  0.825310  0.693957  0.596130  1
  Pu  Pu7  1  0.174690  0.693957  0.096130  1
  Pu  Pu8  1  0.325310  0.193957  0.903870  1
  Pu  Pu9  1  0.325310  0.806043  0.596130  1
  Pu  Pu10  1  0.825310  0.306043  0.903870  1
  Pu  Pu11  1  0.674690  0.193957  0.403870  1
  P  P12  1  0.580207  0.500000  0.750000  1
  P  P13  1  0.422792  0.685593  0.883332  1
  P  P14  1  0.577208  0.685593  0.383332  1
  P  P15  1  0.077208  0.185593  0.116668  1
  P  P16  1  0.922792  0.814407  0.883332  1
  P  P17  1  0.919793  0.000000  0.250000  1
  P  P18  1  0.077208  0.814407  0.383332  1
  P  P19  1  0.577208  0.314407  0.116668  1
  P  P20  1  0.419793  0.500000  0.250000  1
  P  P21  1  0.080207  0.000000  0.750000  1
  P  P22  1  0.922792  0.185593  0.616668  1
  P  P23  1  0.422792  0.314407  0.616668  1
  O  O24  1  0.437417  0.769343  0.771430  1
  O  O25  1  0.742692  0.652606  0.104181  1
  O  O26  1  0.984051  0.952262  0.853507  1
  O  O27  1  0.106378  0.540757  0.091154  1
  O  O28  1  0.219894  0.155417  0.084906  1
  O  O29  1  0.562583  0.230657  0.228570  1
  O  O30  1  0.757308  0.152606  0.895819  1
  O  O31  1  0.844874  0.889755  0.201113  1
  O  O32  1  0.742692  0.347394  0.395819  1
  O  O33  1  0.719894  0.655417  0.415094  1
  O  O34  1  0.484051  0.547738  0.853507  1
  O  O35  1  0.393622  0.040757  0.908846  1
  O  O36  1  0.501079  0.264103  0.510608  1
  O  O37  1  0.937417  0.730657  0.771430  1
  O  O38  1  0.780106  0.155417  0.584906  1
  O  O39  1  0.015949  0.952262  0.353507  1
  O  O40  1  0.437417  0.230657  0.728570  1
  O  O41  1  0.998921  0.235897  0.010608  1
  O  O42  1  0.344874  0.389755  0.298887  1
  O  O43  1  0.844874  0.110245  0.298887  1
  O  O44  1  0.606378  0.040757  0.408846  1
  O  O45  1  0.484051  0.452262  0.646493  1
  O  O46  1  0.001079  0.764103  0.989392  1
  O  O47  1  0.257308  0.347394  0.895819  1
  O  O48  1  0.106378  0.459243  0.408846  1
  O  O49  1  0.257308  0.652606  0.604181  1
  O  O50  1  0.062583  0.730657  0.271430  1
  O  O51  1  0.998921  0.764103  0.489392  1
  O  O52  1  0.155126  0.889755  0.701113  1
  O  O53  1  0.937417  0.269343  0.728570  1
  O  O54  1  0.280106  0.655417  0.915094  1
  O  O55  1  0.242692  0.152606  0.395819  1
  O  O56  1  0.515949  0.452262  0.146493  1
  O  O57  1  0.893622  0.540757  0.591154  1
  O  O58  1  0.562583  0.769343  0.271430  1
  O  O59  1  0.393622  0.959243  0.591154  1
  O  O60  1  0.280106  0.344583  0.584906  1
  O  O61  1  0.501079  0.735897  0.989392  1
  O  O62  1  0.344874  0.610245  0.201113  1
  O  O63  1  0.655126  0.610245  0.701113  1
  O  O64  1  0.015949  0.047738  0.146493  1
  O  O65  1  0.498921  0.735897  0.489392  1
  O  O66  1  0.780106  0.844583  0.915094  1
  O  O67  1  0.893622  0.459243  0.908846  1
  O  O68  1  0.001079  0.235897  0.510608  1
  O  O69  1  0.498921  0.264103  0.010608  1
  O  O70  1  0.655126  0.389755  0.798887  1
  O  O71  1  0.155126  0.110245  0.798887  1
  O  O72  1  0.062583  0.269343  0.228570  1
  O  O73  1  0.242692  0.847394  0.104181  1
  O  O74  1  0.719894  0.344583  0.084906  1
  O  O75  1  0.515949  0.547738  0.353507  1
  O  O76  1  0.606378  0.959243  0.091154  1
  O  O77  1  0.757308  0.847394  0.604181  1
  O  O78  1  0.984051  0.047738  0.646493  1
  O  O79  1  0.219894  0.844583  0.415094  1
