# generated using pymatgen
data_La12Tl(TcBr4)3
_symmetry_space_group_name_H-M   'P 1'
_cell_length_a   10.48101193
_cell_length_b   10.76168283
_cell_length_c   10.76168200
_cell_angle_alpha   109.99349414
_cell_angle_beta   108.94376180
_cell_angle_gamma   108.94375569
_symmetry_Int_Tables_number   1
_chemical_formula_structural   La12Tl(TcBr4)3
_chemical_formula_sum   'La12 Tl1 Tc3 Br12'
_cell_volume   940.43205010
_cell_formula_units_Z   1
loop_
 _symmetry_equiv_pos_site_id
 _symmetry_equiv_pos_as_xyz
  1  'x, y, z'
loop_
 _atom_site_type_symbol
 _atom_site_label
 _atom_site_symmetry_multiplicity
 _atom_site_fract_x
 _atom_site_fract_y
 _atom_site_fract_z
 _atom_site_occupancy
  La  La0  1  0.468536  0.466146  0.246953  1
  La  La1  1  0.750000  0.235767  0.264233  1
  La  La2  1  0.750000  0.010929  0.489071  1
  La  La3  1  0.239071  0.478143  0.489071  1
  La  La4  1  0.278417  0.780806  0.246953  1
  La  La5  1  0.031464  0.253047  0.033854  1
  La  La6  1  0.014233  0.028464  0.264233  1
  La  La7  1  0.502388  0.780806  0.033854  1
  La  La8  1  0.485767  0.235767  0.471536  1
  La  La9  1  0.997612  0.466146  0.719194  1
  La  La10  1  0.260929  0.010929  0.021857  1
  La  La11  1  0.221583  0.253047  0.719194  1
  Tl  Tl12  1  0.250000  0.500000  0.000000  1
  Tc  Tc13  1  0.250000  0.256763  0.243237  1
  Tc  Tc14  1  0.493237  0.986474  0.243237  1
  Tc  Tc15  1  0.006763  0.256763  0.513526  1
  Br  Br16  1  0.250000  0.752767  0.747233  1
  Br  Br17  1  0.506554  0.506182  0.751377  1
  Br  Br18  1  0.993446  0.748623  0.993818  1
  Br  Br19  1  0.744823  0.245195  0.751377  1
  Br  Br20  1  0.997233  0.994465  0.747233  1
  Br  Br21  1  0.250000  0.995039  0.504961  1
  Br  Br22  1  0.754961  0.509921  0.504961  1
  Br  Br23  1  0.500372  0.245195  0.993818  1
  Br  Br24  1  0.755177  0.748623  0.254805  1
  Br  Br25  1  0.745039  0.995039  0.990079  1
  Br  Br26  1  0.999628  0.506182  0.254805  1
  Br  Br27  1  0.502767  0.752767  0.505535  1
