# generated using pymatgen
data_Li8ZnGa3Pd4
_symmetry_space_group_name_H-M   'P 1'
_cell_length_a   6.10473200
_cell_length_b   6.10473200
_cell_length_c   6.10473200
_cell_angle_alpha   90.00000000
_cell_angle_beta   90.00000000
_cell_angle_gamma   90.00000000
_symmetry_Int_Tables_number   1
_chemical_formula_structural   Li8ZnGa3Pd4
_chemical_formula_sum   'Li8 Zn1 Ga3 Pd4'
_cell_volume   227.50964304
_cell_formula_units_Z   1
loop_
 _symmetry_equiv_pos_site_id
 _symmetry_equiv_pos_as_xyz
  1  'x, y, z'
loop_
 _atom_site_type_symbol
 _atom_site_label
 _atom_site_symmetry_multiplicity
 _atom_site_fract_x
 _atom_site_fract_y
 _atom_site_fract_z
 _atom_site_occupancy
  Li  Li0  1  0.253811  0.746189  0.253811  1
  Li  Li1  1  0.746189  0.253811  0.253811  1
  Li  Li2  1  0.253811  0.253811  0.746189  1
  Li  Li3  1  0.000000  0.000000  0.000000  1
  Li  Li4  1  0.000000  0.500000  0.500000  1
  Li  Li5  1  0.746189  0.746189  0.746189  1
  Li  Li6  1  0.500000  0.000000  0.500000  1
  Li  Li7  1  0.500000  0.500000  0.000000  1
  Zn  Zn8  1  0.500000  0.500000  0.500000  1
  Ga  Ga9  1  0.000000  0.000000  0.500000  1
  Ga  Ga10  1  0.000000  0.500000  0.000000  1
  Ga  Ga11  1  0.500000  0.000000  0.000000  1
  Pd  Pd12  1  0.245613  0.245613  0.245613  1
  Pd  Pd13  1  0.754387  0.245613  0.754387  1
  Pd  Pd14  1  0.754387  0.754387  0.245613  1
  Pd  Pd15  1  0.245613  0.754387  0.754387  1
