# generated using pymatgen
data_ThCoF36
_symmetry_space_group_name_H-M   'P 1'
_cell_length_a   6.43163803
_cell_length_b   10.64997959
_cell_length_c   10.84687376
_cell_angle_alpha   92.36814204
_cell_angle_beta   104.04265787
_cell_angle_gamma   75.84011964
_symmetry_Int_Tables_number   1
_chemical_formula_structural   ThCoF36
_chemical_formula_sum   'Th1 Co1 F36'
_cell_volume   698.74487307
_cell_formula_units_Z   1
loop_
 _symmetry_equiv_pos_site_id
 _symmetry_equiv_pos_as_xyz
  1  'x, y, z'
loop_
 _atom_site_type_symbol
 _atom_site_label
 _atom_site_symmetry_multiplicity
 _atom_site_fract_x
 _atom_site_fract_y
 _atom_site_fract_z
 _atom_site_occupancy
  Th  Th0  1  0.739411  0.843437  0.873901  1
  Co  Co1  1  0.315453  0.159382  0.153625  1
  F  F2  1  0.297861  0.406946  0.860937  1
  F  F3  1  0.617149  0.626069  0.119481  1
  F  F4  1  0.337374  0.284290  0.596451  1
  F  F5  1  0.660431  0.741025  0.423706  1
  F  F6  1  0.886838  0.227188  0.796585  1
  F  F7  1  0.179838  0.749889  0.199441  1
  F  F8  1  0.699064  0.835464  0.060271  1
  F  F9  1  0.364193  0.111441  0.005856  1
  F  F10  1  0.760057  0.619728  0.861224  1
  F  F11  1  0.304512  0.317352  0.111669  1
  F  F12  1  0.467005  0.467613  0.848616  1
  F  F13  1  0.548240  0.515977  0.150832  1
  F  F14  1  0.725721  0.710645  0.696241  1
  F  F15  1  0.211904  0.220789  0.282443  1
  F  F16  1  0.740891  0.956303  0.565668  1
  F  F17  1  0.220454  0.009871  0.475925  1
  F  F18  1  0.287888  0.179432  0.652301  1
  F  F19  1  0.685584  0.812998  0.322490  1
  F  F20  1  0.777907  0.083473  0.578476  1
  F  F21  1  0.169522  0.914794  0.384167  1
  F  F22  1  0.811554  0.023054  0.856359  1
  F  F23  1  0.189073  0.031712  0.150340  1
  F  F24  1  0.908395  0.357169  0.788542  1
  F  F25  1  0.105057  0.639656  0.222414  1
  F  F26  1  0.134922  0.762253  0.915339  1
  F  F27  1  0.841440  0.290043  0.046790  1
  F  F28  1  0.373701  0.945353  0.762628  1
  F  F29  1  0.590013  0.095507  0.242890  1
  F  F30  1  0.123169  0.741861  0.568834  1
  F  F31  1  0.884811  0.252310  0.428666  1
  F  F32  1  0.202758  0.632615  0.653888  1
  F  F33  1  0.796545  0.371614  0.358419  1
  F  F34  1  0.255944  0.852242  0.839801  1
  F  F35  1  0.766442  0.211825  0.122339  1
  F  F36  1  0.553110  0.450337  0.559712  1
  F  F37  1  0.465770  0.548343  0.462737  1
