# generated using pymatgen
data_Mg2B2PRh5
_symmetry_space_group_name_H-M   'P 1'
_cell_length_a   9.31760300
_cell_length_b   9.31760300
_cell_length_c   2.92644700
_cell_angle_alpha   90.00000000
_cell_angle_beta   90.00000000
_cell_angle_gamma   90.00000000
_symmetry_Int_Tables_number   1
_chemical_formula_structural   Mg2B2PRh5
_chemical_formula_sum   'Mg4 B4 P2 Rh10'
_cell_volume   254.06747282
_cell_formula_units_Z   2
loop_
 _symmetry_equiv_pos_site_id
 _symmetry_equiv_pos_as_xyz
  1  'x, y, z'
loop_
 _atom_site_type_symbol
 _atom_site_label
 _atom_site_symmetry_multiplicity
 _atom_site_fract_x
 _atom_site_fract_y
 _atom_site_fract_z
 _atom_site_occupancy
  Mg  Mg0  1  0.826202  0.326202  0.000000  1
  Mg  Mg1  1  0.326202  0.173798  0.000000  1
  Mg  Mg2  1  0.673798  0.826202  0.000000  1
  Mg  Mg3  1  0.173798  0.673798  0.000000  1
  B  B4  1  0.626028  0.126028  0.000000  1
  B  B5  1  0.126028  0.373972  0.000000  1
  B  B6  1  0.873972  0.626028  0.000000  1
  B  B7  1  0.373972  0.873972  0.000000  1
  P  P8  1  0.000000  0.000000  0.000000  1
  P  P9  1  0.500000  0.500000  0.000000  1
  Rh  Rh10  1  0.073311  0.208343  0.500000  1
  Rh  Rh11  1  0.208343  0.926689  0.500000  1
  Rh  Rh12  1  0.791657  0.073311  0.500000  1
  Rh  Rh13  1  0.926689  0.791657  0.500000  1
  Rh  Rh14  1  0.426689  0.708343  0.500000  1
  Rh  Rh15  1  0.573311  0.291657  0.500000  1
  Rh  Rh16  1  0.708343  0.573311  0.500000  1
  Rh  Rh17  1  0.291657  0.426689  0.500000  1
  Rh  Rh18  1  0.500000  0.000000  0.500000  1
  Rh  Rh19  1  0.000000  0.500000  0.500000  1
