# generated using pymatgen
data_Lu3Mg2Hg3C
_symmetry_space_group_name_H-M   'P 1'
_cell_length_a   8.58493100
_cell_length_b   8.58493096
_cell_length_c   5.90039800
_cell_angle_alpha   90.00000000
_cell_angle_beta   90.00000000
_cell_angle_gamma   120.00000401
_symmetry_Int_Tables_number   1
_chemical_formula_structural   Lu3Mg2Hg3C
_chemical_formula_sum   'Lu6 Mg4 Hg6 C2'
_cell_volume   376.60452779
_cell_formula_units_Z   2
loop_
 _symmetry_equiv_pos_site_id
 _symmetry_equiv_pos_as_xyz
  1  'x, y, z'
loop_
 _atom_site_type_symbol
 _atom_site_label
 _atom_site_symmetry_multiplicity
 _atom_site_fract_x
 _atom_site_fract_y
 _atom_site_fract_z
 _atom_site_occupancy
  Lu  Lu0  1  0.784120  0.784120  0.750000  1
  Lu  Lu1  1  0.215880  0.000000  0.750000  1
  Lu  Lu2  1  0.000000  0.215880  0.750000  1
  Lu  Lu3  1  0.215880  0.215880  0.250000  1
  Lu  Lu4  1  0.784120  0.000000  0.250000  1
  Lu  Lu5  1  0.000000  0.784120  0.250000  1
  Mg  Mg6  1  0.666667  0.333333  0.000000  1
  Mg  Mg7  1  0.333333  0.666667  0.000000  1
  Mg  Mg8  1  0.333333  0.666667  0.500000  1
  Mg  Mg9  1  0.666667  0.333333  0.500000  1
  Hg  Hg10  1  0.410865  0.410865  0.750000  1
  Hg  Hg11  1  0.589135  0.000000  0.750000  1
  Hg  Hg12  1  0.000000  0.589135  0.750000  1
  Hg  Hg13  1  0.589135  0.589135  0.250000  1
  Hg  Hg14  1  0.410865  0.000000  0.250000  1
  Hg  Hg15  1  0.000000  0.410865  0.250000  1
  C  C16  1  0.000000  0.000000  0.000000  1
  C  C17  1  0.000000  0.000000  0.500000  1
