# generated using pymatgen
data_Tm6Zn19GeIr4
_symmetry_space_group_name_H-M   'P 1'
_cell_length_a   9.04192993
_cell_length_b   8.93055442
_cell_length_c   8.93055633
_cell_angle_alpha   60.82682351
_cell_angle_beta   59.58658666
_cell_angle_gamma   59.58658942
_symmetry_Int_Tables_number   1
_chemical_formula_structural   Tm6Zn19GeIr4
_chemical_formula_sum   'Tm6 Zn19 Ge1 Ir4'
_cell_volume   509.76057714
_cell_formula_units_Z   1
loop_
 _symmetry_equiv_pos_site_id
 _symmetry_equiv_pos_as_xyz
  1  'x, y, z'
loop_
 _atom_site_type_symbol
 _atom_site_label
 _atom_site_symmetry_multiplicity
 _atom_site_fract_x
 _atom_site_fract_y
 _atom_site_fract_z
 _atom_site_occupancy
  Tm  Tm0  1  0.721349  0.278651  0.278651  1
  Tm  Tm1  1  0.723048  0.276952  0.723048  1
  Tm  Tm2  1  0.723048  0.723048  0.276952  1
  Tm  Tm3  1  0.278651  0.721349  0.721349  1
  Tm  Tm4  1  0.276952  0.723048  0.276952  1
  Tm  Tm5  1  0.276952  0.276952  0.723048  1
  Zn  Zn6  1  0.620864  0.127017  0.127017  1
  Zn  Zn7  1  0.127017  0.620864  0.125103  1
  Zn  Zn8  1  0.127017  0.125103  0.620864  1
  Zn  Zn9  1  0.125103  0.127017  0.127017  1
  Zn  Zn10  1  0.379136  0.872983  0.872983  1
  Zn  Zn11  1  0.872983  0.379136  0.874897  1
  Zn  Zn12  1  0.872983  0.874897  0.379136  1
  Zn  Zn13  1  0.874897  0.872983  0.872983  1
  Zn  Zn14  1  0.500000  0.000000  0.000000  1
  Zn  Zn15  1  0.000000  0.500000  0.500000  1
  Zn  Zn16  1  0.000000  0.000000  0.000000  1
  Zn  Zn17  1  0.992149  0.334668  0.334668  1
  Zn  Zn18  1  0.334668  0.992149  0.338513  1
  Zn  Zn19  1  0.334668  0.338513  0.992149  1
  Zn  Zn20  1  0.338513  0.334668  0.334668  1
  Zn  Zn21  1  0.007851  0.665332  0.665332  1
  Zn  Zn22  1  0.665332  0.007851  0.661487  1
  Zn  Zn23  1  0.665332  0.661487  0.007851  1
  Zn  Zn24  1  0.661487  0.665332  0.665332  1
  Ge  Ge25  1  0.500000  0.500000  0.500000  1
  Ir  Ir26  1  0.500000  0.000000  0.500000  1
  Ir  Ir27  1  0.500000  0.500000  0.000000  1
  Ir  Ir28  1  0.000000  0.500000  0.000000  1
  Ir  Ir29  1  0.000000  0.000000  0.500000  1
