# generated using pymatgen
data_Tb4Lu4Ga3Co
_symmetry_space_group_name_H-M   'P 1'
_cell_length_a   9.89904800
_cell_length_b   9.89904796
_cell_length_c   6.94851200
_cell_angle_alpha   90.00000000
_cell_angle_beta   90.00000000
_cell_angle_gamma   120.00000012
_symmetry_Int_Tables_number   1
_chemical_formula_structural   Tb4Lu4Ga3Co
_chemical_formula_sum   'Tb8 Lu8 Ga6 Co2'
_cell_volume   589.67036460
_cell_formula_units_Z   2
loop_
 _symmetry_equiv_pos_site_id
 _symmetry_equiv_pos_as_xyz
  1  'x, y, z'
loop_
 _atom_site_type_symbol
 _atom_site_label
 _atom_site_symmetry_multiplicity
 _atom_site_fract_x
 _atom_site_fract_y
 _atom_site_fract_z
 _atom_site_occupancy
  Tb  Tb0  1  0.535726  0.071451  0.791666  1
  Tb  Tb1  1  0.928549  0.464274  0.791666  1
  Tb  Tb2  1  0.535726  0.464274  0.791666  1
  Tb  Tb3  1  0.464274  0.928549  0.291666  1
  Tb  Tb4  1  0.071451  0.535726  0.291666  1
  Tb  Tb5  1  0.464274  0.535726  0.291666  1
  Tb  Tb6  1  0.000000  0.000000  0.769582  1
  Tb  Tb7  1  0.000000  0.000000  0.269582  1
  Lu  Lu8  1  0.826367  0.652735  0.487990  1
  Lu  Lu9  1  0.347265  0.173633  0.487990  1
  Lu  Lu10  1  0.826367  0.173633  0.487990  1
  Lu  Lu11  1  0.173633  0.347265  0.987990  1
  Lu  Lu12  1  0.652735  0.826367  0.987990  1
  Lu  Lu13  1  0.173633  0.826367  0.987990  1
  Lu  Lu14  1  0.666667  0.333333  0.175664  1
  Lu  Lu15  1  0.333333  0.666667  0.675664  1
  Ga  Ga16  1  0.836279  0.672560  0.042080  1
  Ga  Ga17  1  0.327440  0.163721  0.042080  1
  Ga  Ga18  1  0.836279  0.163721  0.042080  1
  Ga  Ga19  1  0.163721  0.327440  0.542080  1
  Ga  Ga20  1  0.672560  0.836279  0.542080  1
  Ga  Ga21  1  0.163721  0.836279  0.542080  1
  Co  Co22  1  0.666667  0.333333  0.552582  1
  Co  Co23  1  0.333333  0.666667  0.052582  1
