# generated using pymatgen
data_Ba5Al2Ga3Pb
_symmetry_space_group_name_H-M   'P 1'
_cell_length_a   6.09121732
_cell_length_b   6.09461835
_cell_length_c   11.08506400
_cell_angle_alpha   90.00000000
_cell_angle_beta   90.00000000
_cell_angle_gamma   120.01845178
_symmetry_Int_Tables_number   1
_chemical_formula_structural   Ba5Al2Ga3Pb
_chemical_formula_sum   'Ba5 Al2 Ga3 Pb1'
_cell_volume   356.31874202
_cell_formula_units_Z   1
loop_
 _symmetry_equiv_pos_site_id
 _symmetry_equiv_pos_as_xyz
  1  'x, y, z'
loop_
 _atom_site_type_symbol
 _atom_site_label
 _atom_site_symmetry_multiplicity
 _atom_site_fract_x
 _atom_site_fract_y
 _atom_site_fract_z
 _atom_site_occupancy
  Ba  Ba0  1  0.667137  0.333568  0.830652  1
  Ba  Ba1  1  0.333233  0.666617  0.703837  1
  Ba  Ba2  1  0.333233  0.666617  0.296163  1
  Ba  Ba3  1  0.667137  0.333568  0.169348  1
  Ba  Ba4  1  0.999566  0.999783  0.500000  1
  Al  Al5  1  0.178839  0.820323  0.000000  1
  Al  Al6  1  0.178839  0.358516  0.000000  1
  Ga  Ga7  1  0.002531  0.001266  0.176055  1
  Ga  Ga8  1  0.002531  0.001266  0.823945  1
  Ga  Ga9  1  0.637102  0.818551  0.000000  1
  Pb  Pb10  1  0.666519  0.333259  0.500000  1
