# generated using pymatgen
data_DyHf2Be2Ir5
_symmetry_space_group_name_H-M   'P 1'
_cell_length_a   9.62090400
_cell_length_b   9.62042600
_cell_length_c   3.32018400
_cell_angle_alpha   90.00000000
_cell_angle_beta   90.00000000
_cell_angle_gamma   90.00000000
_symmetry_Int_Tables_number   1
_chemical_formula_structural   DyHf2Be2Ir5
_chemical_formula_sum   'Dy2 Hf4 Be4 Ir10'
_cell_volume   307.30691787
_cell_formula_units_Z   2
loop_
 _symmetry_equiv_pos_site_id
 _symmetry_equiv_pos_as_xyz
  1  'x, y, z'
loop_
 _atom_site_type_symbol
 _atom_site_label
 _atom_site_symmetry_multiplicity
 _atom_site_fract_x
 _atom_site_fract_y
 _atom_site_fract_z
 _atom_site_occupancy
  Dy  Dy0  1  0.174796  0.675410  0.000000  1
  Dy  Dy1  1  0.325204  0.175410  0.000000  1
  Hf  Hf2  1  0.825412  0.324377  0.000000  1
  Hf  Hf3  1  0.499711  0.499230  0.000000  1
  Hf  Hf4  1  0.674588  0.824377  0.000000  1
  Hf  Hf5  1  0.000289  0.999230  0.000000  1
  Be  Be6  1  0.384077  0.880273  0.000000  1
  Be  Be7  1  0.115923  0.380273  0.000000  1
  Be  Be8  1  0.876237  0.618681  0.000000  1
  Be  Be9  1  0.623763  0.118681  0.000000  1
  Ir  Ir10  1  0.220443  0.931437  0.500000  1
  Ir  Ir11  1  0.918909  0.784321  0.500000  1
  Ir  Ir12  1  0.438879  0.718780  0.500000  1
  Ir  Ir13  1  0.581091  0.284321  0.500000  1
  Ir  Ir14  1  0.713614  0.571668  0.500000  1
  Ir  Ir15  1  0.279557  0.431437  0.500000  1
  Ir  Ir16  1  0.061121  0.218780  0.500000  1
  Ir  Ir17  1  0.990048  0.495822  0.500000  1
  Ir  Ir18  1  0.509952  0.995822  0.500000  1
  Ir  Ir19  1  0.786386  0.071668  0.500000  1
