# generated using pymatgen
data_Tb13Nd2Gd5Sn16
_symmetry_space_group_name_H-M   'P 1'
_cell_length_a   8.15056203
_cell_length_b   8.32027984
_cell_length_c   15.69351600
_cell_angle_alpha   90.03122928
_cell_angle_beta   90.23237348
_cell_angle_gamma   89.78852089
_symmetry_Int_Tables_number   1
_chemical_formula_structural   Tb13Nd2Gd5Sn16
_chemical_formula_sum   'Tb13 Nd2 Gd5 Sn16'
_cell_volume   1064.23896111
_cell_formula_units_Z   1
loop_
 _symmetry_equiv_pos_site_id
 _symmetry_equiv_pos_as_xyz
  1  'x, y, z'
loop_
 _atom_site_type_symbol
 _atom_site_label
 _atom_site_symmetry_multiplicity
 _atom_site_fract_x
 _atom_site_fract_y
 _atom_site_fract_z
 _atom_site_occupancy
  Tb  Tb0  1  0.362429  0.836086  0.878050  1
  Tb  Tb1  1  0.860254  0.664311  0.623284  1
  Tb  Tb2  1  0.639545  0.162743  0.376741  1
  Tb  Tb3  1  0.137364  0.338100  0.121325  1
  Tb  Tb4  1  0.637134  0.162460  0.121717  1
  Tb  Tb5  1  0.139296  0.336815  0.376895  1
  Tb  Tb6  1  0.361494  0.836855  0.623409  1
  Tb  Tb7  1  0.863445  0.662992  0.878493  1
  Tb  Tb8  1  0.517938  0.321656  0.902154  1
  Tb  Tb9  1  0.194970  0.501732  0.751078  1
  Tb  Tb10  1  0.695252  0.998538  0.750771  1
  Tb  Tb11  1  0.803969  0.499026  0.248919  1
  Tb  Tb12  1  0.304455  0.000596  0.249078  1
  Nd  Nd13  1  0.513844  0.321012  0.596991  1
  Nd  Nd14  1  0.013876  0.179600  0.904437  1
  Gd  Gd15  1  0.016378  0.179859  0.599041  1
  Gd  Gd16  1  0.485702  0.680437  0.403017  1
  Gd  Gd17  1  0.985838  0.818120  0.095159  1
  Gd  Gd18  1  0.484490  0.679372  0.095397  1
  Gd  Gd19  1  0.985732  0.820447  0.403585  1
  Sn  Sn20  1  0.299338  0.037782  0.042268  1
  Sn  Sn21  1  0.800984  0.462519  0.457338  1
  Sn  Sn22  1  0.702050  0.962574  0.542393  1
  Sn  Sn23  1  0.205605  0.537377  0.957815  1
  Sn  Sn24  1  0.699138  0.960226  0.958486  1
  Sn  Sn25  1  0.197255  0.540263  0.541966  1
  Sn  Sn26  1  0.299331  0.038272  0.458126  1
  Sn  Sn27  1  0.794672  0.460046  0.040922  1
  Sn  Sn28  1  0.560851  0.620430  0.751509  1
  Sn  Sn29  1  0.060487  0.879096  0.751075  1
  Sn  Sn30  1  0.439169  0.380355  0.248851  1
  Sn  Sn31  1  0.939904  0.119779  0.248671  1
  Sn  Sn32  1  0.324636  0.144866  0.752172  1
  Sn  Sn33  1  0.822903  0.355899  0.750692  1
  Sn  Sn34  1  0.675422  0.853800  0.248927  1
  Sn  Sn35  1  0.174851  0.645959  0.249245  1
