# generated using pymatgen
data_SrPt4PbO8
_symmetry_space_group_name_H-M   'P 1'
_cell_length_a   5.66182037
_cell_length_b   6.26580827
_cell_length_c   6.81387028
_cell_angle_alpha   116.67934735
_cell_angle_beta   96.17177728
_cell_angle_gamma   109.33317788
_symmetry_Int_Tables_number   1
_chemical_formula_structural   SrPt4PbO8
_chemical_formula_sum   'Sr1 Pt4 Pb1 O8'
_cell_volume   194.17858209
_cell_formula_units_Z   1
loop_
 _symmetry_equiv_pos_site_id
 _symmetry_equiv_pos_as_xyz
  1  'x, y, z'
loop_
 _atom_site_type_symbol
 _atom_site_label
 _atom_site_symmetry_multiplicity
 _atom_site_fract_x
 _atom_site_fract_y
 _atom_site_fract_z
 _atom_site_occupancy
  Sr  Sr0  1  0.870982  0.242483  0.135089  1
  Pt  Pt1  1  0.501149  0.499850  0.501064  1
  Pt  Pt2  1  0.997878  0.000009  0.501322  1
  Pt  Pt3  1  0.496910  0.502543  0.001197  1
  Pt  Pt4  1  0.497314  0.000228  0.500443  1
  Pb  Pb5  1  0.143192  0.749013  0.847701  1
  O  O6  1  0.526585  0.870097  0.727123  1
  O  O7  1  0.477234  0.133788  0.278279  1
  O  O8  1  0.838996  0.824006  0.158999  1
  O  O9  1  0.152530  0.176866  0.843880  1
  O  O10  1  0.872584  0.653494  0.487891  1
  O  O11  1  0.129835  0.348098  0.514156  1
  O  O12  1  0.362672  0.602317  0.277670  1
  O  O13  1  0.632141  0.397208  0.725185  1
