# generated using pymatgen
data_Hf16CoRe4Ni3
_symmetry_space_group_name_H-M   'P 1'
_cell_length_a   8.63954014
_cell_length_b   8.65037046
_cell_length_c   8.65037100
_cell_angle_alpha   60.00000178
_cell_angle_beta   59.95852511
_cell_angle_gamma   59.95852294
_symmetry_Int_Tables_number   1
_chemical_formula_structural   Hf16CoRe4Ni3
_chemical_formula_sum   'Hf16 Co1 Re4 Ni3'
_cell_volume   456.84884138
_cell_formula_units_Z   1
loop_
 _symmetry_equiv_pos_site_id
 _symmetry_equiv_pos_as_xyz
  1  'x, y, z'
loop_
 _atom_site_type_symbol
 _atom_site_label
 _atom_site_symmetry_multiplicity
 _atom_site_fract_x
 _atom_site_fract_y
 _atom_site_fract_z
 _atom_site_occupancy
  Hf  Hf0  1  0.688487  0.103837  0.103837  1
  Hf  Hf1  1  0.104784  0.692256  0.101479  1
  Hf  Hf2  1  0.104784  0.101479  0.692256  1
  Hf  Hf3  1  0.104784  0.101479  0.101479  1
  Hf  Hf4  1  0.315746  0.315020  0.684617  1
  Hf  Hf5  1  0.685247  0.684265  0.315244  1
  Hf  Hf6  1  0.315746  0.684617  0.315020  1
  Hf  Hf7  1  0.685247  0.315244  0.684265  1
  Hf  Hf8  1  0.685247  0.315244  0.315244  1
  Hf  Hf9  1  0.315746  0.684617  0.684617  1
  Hf  Hf10  1  0.956372  0.956502  0.543563  1
  Hf  Hf11  1  0.542744  0.548464  0.954396  1
  Hf  Hf12  1  0.956372  0.543563  0.956502  1
  Hf  Hf13  1  0.542744  0.954396  0.548464  1
  Hf  Hf14  1  0.542744  0.954396  0.954396  1
  Hf  Hf15  1  0.956372  0.543563  0.543563  1
  Co  Co16  1  0.326546  0.891151  0.891151  1
  Re  Re17  1  0.000241  0.333252  0.333252  1
  Re  Re18  1  0.332511  0.001418  0.333035  1
  Re  Re19  1  0.332511  0.333035  0.001418  1
  Re  Re20  1  0.332511  0.333035  0.333035  1
  Ni  Ni21  1  0.890836  0.327474  0.890845  1
  Ni  Ni22  1  0.890836  0.890845  0.327474  1
  Ni  Ni23  1  0.890836  0.890845  0.890845  1
