# generated using pymatgen
data_Tl3V2Cl9
_symmetry_space_group_name_H-M   'P 1'
_cell_length_a   7.02141900
_cell_length_b   7.02141806
_cell_length_c   17.91431600
_cell_angle_alpha   90.00000000
_cell_angle_beta   90.00000000
_cell_angle_gamma   119.99999032
_symmetry_Int_Tables_number   1
_chemical_formula_structural   Tl3V2Cl9
_chemical_formula_sum   'Tl6 V4 Cl18'
_cell_volume   764.85767081
_cell_formula_units_Z   2
loop_
 _symmetry_equiv_pos_site_id
 _symmetry_equiv_pos_as_xyz
  1  'x, y, z'
loop_
 _atom_site_type_symbol
 _atom_site_label
 _atom_site_symmetry_multiplicity
 _atom_site_fract_x
 _atom_site_fract_y
 _atom_site_fract_z
 _atom_site_occupancy
  Tl  Tl0  1  0.666667  0.333333  0.559576  1
  Tl  Tl1  1  0.333333  0.666667  0.059576  1
  Tl  Tl2  1  0.333333  0.666667  0.440424  1
  Tl  Tl3  1  0.666667  0.333333  0.940424  1
  Tl  Tl4  1  0.000000  0.000000  0.250000  1
  Tl  Tl5  1  0.000000  0.000000  0.750000  1
  V  V6  1  0.333333  0.666667  0.664381  1
  V  V7  1  0.666667  0.333333  0.335619  1
  V  V8  1  0.333333  0.666667  0.835619  1
  V  V9  1  0.666667  0.333333  0.164381  1
  Cl  Cl10  1  0.826134  0.652269  0.407534  1
  Cl  Cl11  1  0.173866  0.826134  0.592466  1
  Cl  Cl12  1  0.652269  0.826134  0.592466  1
  Cl  Cl13  1  0.826134  0.173866  0.407534  1
  Cl  Cl14  1  0.347731  0.173866  0.407534  1
  Cl  Cl15  1  0.173866  0.347731  0.907534  1
  Cl  Cl16  1  0.021507  0.510753  0.750000  1
  Cl  Cl17  1  0.652269  0.826134  0.907534  1
  Cl  Cl18  1  0.826134  0.652269  0.092466  1
  Cl  Cl19  1  0.173866  0.347731  0.592466  1
  Cl  Cl20  1  0.489247  0.978493  0.750000  1
  Cl  Cl21  1  0.510753  0.489247  0.250000  1
  Cl  Cl22  1  0.489247  0.510753  0.750000  1
  Cl  Cl23  1  0.173866  0.826134  0.907534  1
  Cl  Cl24  1  0.347731  0.173866  0.092466  1
  Cl  Cl25  1  0.978493  0.489247  0.250000  1
  Cl  Cl26  1  0.510753  0.021507  0.250000  1
  Cl  Cl27  1  0.826134  0.173866  0.092466  1
