# generated using pymatgen
data_Na4Yb2HfP4
_symmetry_space_group_name_H-M   'P 1'
_cell_length_a   9.32136001
_cell_length_b   9.32135953
_cell_length_c   7.30375200
_cell_angle_alpha   89.81998074
_cell_angle_beta   89.81998075
_cell_angle_gamma   120.48485665
_symmetry_Int_Tables_number   1
_chemical_formula_structural   Na4Yb2HfP4
_chemical_formula_sum   'Na8 Yb4 Hf2 P8'
_cell_volume   546.86967137
_cell_formula_units_Z   2
loop_
 _symmetry_equiv_pos_site_id
 _symmetry_equiv_pos_as_xyz
  1  'x, y, z'
loop_
 _atom_site_type_symbol
 _atom_site_label
 _atom_site_symmetry_multiplicity
 _atom_site_fract_x
 _atom_site_fract_y
 _atom_site_fract_z
 _atom_site_occupancy
  Na  Na0  1  0.468216  0.931324  0.386211  1
  Na  Na1  1  0.931324  0.468216  0.886211  1
  Na  Na2  1  0.867836  0.729962  0.207870  1
  Na  Na3  1  0.277430  0.131532  0.234260  1
  Na  Na4  1  0.856475  0.133934  0.223940  1
  Na  Na5  1  0.131532  0.277430  0.734260  1
  Na  Na6  1  0.729962  0.867836  0.707870  1
  Na  Na7  1  0.133934  0.856475  0.723940  1
  Yb  Yb8  1  0.063402  0.534393  0.390304  1
  Yb  Yb9  1  0.475359  0.536317  0.386254  1
  Yb  Yb10  1  0.534393  0.063402  0.890304  1
  Yb  Yb11  1  0.536317  0.475359  0.886254  1
  Hf  Hf12  1  0.662388  0.329039  0.495361  1
  Hf  Hf13  1  0.329039  0.662388  0.995361  1
  P  P14  1  0.657582  0.334290  0.152025  1
  P  P15  1  0.334290  0.657582  0.652025  1
  P  P16  1  0.196366  0.378167  0.128421  1
  P  P17  1  0.624483  0.806133  0.095836  1
  P  P18  1  0.192413  0.811971  0.109054  1
  P  P19  1  0.806133  0.624483  0.595836  1
  P  P20  1  0.378167  0.196366  0.628421  1
  P  P21  1  0.811971  0.192413  0.609054  1
