# generated using pymatgen
data_UI4Br
_symmetry_space_group_name_H-M   'P 1'
_cell_length_a   7.97057882
_cell_length_b   8.60355043
_cell_length_c   11.57016107
_cell_angle_alpha   110.37911066
_cell_angle_beta   91.11238296
_cell_angle_gamma   117.40077462
_symmetry_Int_Tables_number   1
_chemical_formula_structural   UI4Br
_chemical_formula_sum   'U2 I8 Br2'
_cell_volume   644.74986609
_cell_formula_units_Z   2
loop_
 _symmetry_equiv_pos_site_id
 _symmetry_equiv_pos_as_xyz
  1  'x, y, z'
loop_
 _atom_site_type_symbol
 _atom_site_label
 _atom_site_symmetry_multiplicity
 _atom_site_fract_x
 _atom_site_fract_y
 _atom_site_fract_z
 _atom_site_occupancy
  U  U0  1  0.106697  0.211600  0.210950  1
  U  U1  1  0.893303  0.788400  0.789050  1
  I  I2  1  0.935706  0.185365  0.423864  1
  I  I3  1  0.064294  0.814635  0.576136  1
  I  I4  1  0.242657  0.185490  0.959663  1
  I  I5  1  0.757343  0.814510  0.040337  1
  I  I6  1  0.104307  0.617229  0.844146  1
  I  I7  1  0.895693  0.382771  0.155854  1
  I  I8  1  0.699014  0.983483  0.751176  1
  I  I9  1  0.300986  0.016517  0.248824  1
  Br  Br10  1  0.580730  0.451176  0.671523  1
  Br  Br11  1  0.419270  0.548824  0.328477  1
