# generated using pymatgen
data_La3Th5S12
_symmetry_space_group_name_H-M   'P 1'
_cell_length_a   4.03901400
_cell_length_b   10.76418017
_cell_length_c   10.97795615
_cell_angle_alpha   90.05284677
_cell_angle_beta   90.00000000
_cell_angle_gamma   90.00000000
_symmetry_Int_Tables_number   1
_chemical_formula_structural   La3Th5S12
_chemical_formula_sum   'La3 Th5 S12'
_cell_volume   477.28482179
_cell_formula_units_Z   1
loop_
 _symmetry_equiv_pos_site_id
 _symmetry_equiv_pos_as_xyz
  1  'x, y, z'
loop_
 _atom_site_type_symbol
 _atom_site_label
 _atom_site_symmetry_multiplicity
 _atom_site_fract_x
 _atom_site_fract_y
 _atom_site_fract_z
 _atom_site_occupancy
  La  La0  1  0.250000  0.007260  0.307657  1
  La  La1  1  0.750000  0.990803  0.692237  1
  La  La2  1  0.750000  0.505946  0.193083  1
  Th  Th3  1  0.250000  0.495815  0.805104  1
  Th  Th4  1  0.250000  0.684435  0.488007  1
  Th  Th5  1  0.750000  0.315857  0.514311  1
  Th  Th6  1  0.750000  0.184589  0.014005  1
  Th  Th7  1  0.250000  0.812635  0.986632  1
  S  S8  1  0.250000  0.055259  0.879589  1
  S  S9  1  0.750000  0.943571  0.119138  1
  S  S10  1  0.750000  0.556386  0.623735  1
  S  S11  1  0.250000  0.444278  0.380515  1
  S  S12  1  0.250000  0.131044  0.550678  1
  S  S13  1  0.750000  0.868340  0.451270  1
  S  S14  1  0.750000  0.626596  0.946817  1
  S  S15  1  0.250000  0.372900  0.042898  1
  S  S16  1  0.250000  0.706196  0.225732  1
  S  S17  1  0.750000  0.301272  0.777520  1
  S  S18  1  0.750000  0.208754  0.272461  1
  S  S19  1  0.250000  0.788064  0.728611  1
