# generated using pymatgen
data_Ba2FeNi3As4
_symmetry_space_group_name_H-M   'P 1'
_cell_length_a   5.83452147
_cell_length_b   6.69948625
_cell_length_c   5.82472798
_cell_angle_alpha   64.11711283
_cell_angle_beta   90.04187190
_cell_angle_gamma   90.00034947
_symmetry_Int_Tables_number   1
_chemical_formula_structural   Ba2FeNi3As4
_chemical_formula_sum   'Ba2 Fe1 Ni3 As4'
_cell_volume   204.83976704
_cell_formula_units_Z   1
loop_
 _symmetry_equiv_pos_site_id
 _symmetry_equiv_pos_as_xyz
  1  'x, y, z'
loop_
 _atom_site_type_symbol
 _atom_site_label
 _atom_site_symmetry_multiplicity
 _atom_site_fract_x
 _atom_site_fract_y
 _atom_site_fract_z
 _atom_site_occupancy
  Ba  Ba0  1  0.995891  0.999952  0.000125  1
  Ba  Ba1  1  0.504043  0.999868  0.499958  1
  Fe  Fe2  1  0.250597  0.498924  0.500424  1
  Ni  Ni3  1  0.248957  0.497767  0.001415  1
  Ni  Ni4  1  0.751152  0.502711  0.998311  1
  Ni  Ni5  1  0.749333  0.501010  0.499675  1
  As  As6  1  0.497114  0.693726  0.153101  1
  As  As7  1  0.003140  0.694321  0.650622  1
  As  As8  1  0.000363  0.305603  0.349090  1
  As  As9  1  0.499411  0.306116  0.847281  1
