# generated using pymatgen
data_Sr11CaMn6(CoO9)3
_symmetry_space_group_name_H-M   'P 1'
_cell_length_a   9.66855243
_cell_length_b   9.66170880
_cell_length_c   7.88265966
_cell_angle_alpha   89.95350990
_cell_angle_beta   89.83580327
_cell_angle_gamma   119.94102771
_symmetry_Int_Tables_number   1
_chemical_formula_structural   Sr11CaMn6(CoO9)3
_chemical_formula_sum   'Sr11 Ca1 Mn6 Co3 O27'
_cell_volume   638.07736999
_cell_formula_units_Z   1
loop_
 _symmetry_equiv_pos_site_id
 _symmetry_equiv_pos_as_xyz
  1  'x, y, z'
loop_
 _atom_site_type_symbol
 _atom_site_label
 _atom_site_symmetry_multiplicity
 _atom_site_fract_x
 _atom_site_fract_y
 _atom_site_fract_z
 _atom_site_occupancy
  Sr  Sr0  1  0.665542  0.975847  0.248894  1
  Sr  Sr1  1  0.000066  0.358151  0.500235  1
  Sr  Sr2  1  0.640737  0.640293  0.500789  1
  Sr  Sr3  1  0.308609  0.332969  0.250807  1
  Sr  Sr4  1  0.000230  0.327657  0.999303  1
  Sr  Sr5  1  0.672389  0.671847  0.999554  1
  Sr  Sr6  1  0.975938  0.665260  0.751296  1
  Sr  Sr7  1  0.357525  0.000770  0.501262  1
  Sr  Sr8  1  0.024355  0.689709  0.248900  1
  Sr  Sr9  1  0.327045  0.000808  0.998174  1
  Sr  Sr10  1  0.690238  0.025083  0.751180  1
  Ca  Ca11  1  0.332289  0.313264  0.755793  1
  Mn  Mn12  1  0.002882  0.002558  0.834926  1
  Mn  Mn13  1  0.665700  0.333127  0.927014  1
  Mn  Mn14  1  0.333027  0.665088  0.072003  1
  Mn  Mn15  1  0.333163  0.665517  0.405809  1
  Mn  Mn16  1  0.001452  0.000793  0.163816  1
  Mn  Mn17  1  0.664962  0.332981  0.595240  1
  Co  Co18  1  0.662230  0.332594  0.259006  1
  Co  Co19  1  0.996787  0.997869  0.499914  1
  Co  Co20  1  0.335931  0.662696  0.740796  1
  O  O21  1  0.682767  0.181556  0.457251  1
  O  O22  1  0.837389  0.844215  0.695787  1
  O  O23  1  0.349029  0.828217  0.240171  1
  O  O24  1  0.317675  0.495857  0.547265  1
  O  O25  1  0.497443  0.317576  0.457758  1
  O  O26  1  0.000968  0.848381  0.999378  1
  O  O27  1  0.170290  0.518183  0.240745  1
  O  O28  1  0.183796  0.680326  0.935922  1
  O  O29  1  0.682091  0.183950  0.063960  1
  O  O30  1  0.829096  0.349399  0.759192  1
  O  O31  1  0.319341  0.499533  0.931222  1
  O  O32  1  0.165196  0.008040  0.301738  1
  O  O33  1  0.181315  0.682131  0.543270  1
  O  O34  1  0.818460  0.500992  0.457014  1
  O  O35  1  0.848834  0.000985  0.999756  1
  O  O36  1  0.155112  0.154359  0.996574  1
  O  O37  1  0.644906  0.478983  0.759645  1
  O  O38  1  0.497085  0.816637  0.935137  1
  O  O39  1  0.993705  0.157463  0.302742  1
  O  O40  1  0.011989  0.168027  0.697283  1
  O  O41  1  0.502198  0.319072  0.066220  1
  O  O42  1  0.480956  0.649630  0.240298  1
  O  O43  1  0.500663  0.818780  0.543359  1
  O  O44  1  0.843797  0.835920  0.303203  1
  O  O45  1  0.161019  0.998816  0.696888  1
  O  O46  1  0.516876  0.170614  0.760140  1
  O  O47  1  0.816909  0.497478  0.063369  1
