# generated using pymatgen
data_HoEr19(Ir2Os)4
_symmetry_space_group_name_H-M   'P 1'
_cell_length_a   10.76746613
_cell_length_b   10.76678801
_cell_length_c   6.36469800
_cell_angle_alpha   89.99749888
_cell_angle_beta   90.00876401
_cell_angle_gamma   89.99864871
_symmetry_Int_Tables_number   1
_chemical_formula_structural   HoEr19(Ir2Os)4
_chemical_formula_sum   'Ho1 Er19 Ir8 Os4'
_cell_volume   737.86595480
_cell_formula_units_Z   1
loop_
 _symmetry_equiv_pos_site_id
 _symmetry_equiv_pos_as_xyz
  1  'x, y, z'
loop_
 _atom_site_type_symbol
 _atom_site_label
 _atom_site_symmetry_multiplicity
 _atom_site_fract_x
 _atom_site_fract_y
 _atom_site_fract_z
 _atom_site_occupancy
  Ho  Ho0  1  0.293178  0.086242  0.375766  1
  Er  Er1  1  0.293649  0.913668  0.876470  1
  Er  Er2  1  0.706396  0.086194  0.876491  1
  Er  Er3  1  0.706412  0.913804  0.376416  1
  Er  Er4  1  0.586227  0.793617  0.876483  1
  Er  Er5  1  0.586424  0.206446  0.376454  1
  Er  Er6  1  0.413914  0.793459  0.376428  1
  Er  Er7  1  0.413949  0.206430  0.876467  1
  Er  Er8  1  0.206345  0.413870  0.623625  1
  Er  Er9  1  0.206347  0.586197  0.123583  1
  Er  Er10  1  0.793650  0.413822  0.123553  1
  Er  Er11  1  0.793654  0.586190  0.623559  1
  Er  Er12  1  0.913821  0.706346  0.123554  1
  Er  Er13  1  0.913803  0.293628  0.623555  1
  Er  Er14  1  0.086174  0.706367  0.623585  1
  Er  Er15  1  0.086020  0.293778  0.123425  1
  Er  Er16  1  0.999762  0.999906  0.500148  1
  Er  Er17  1  0.999938  0.999964  0.000031  1
  Er  Er18  1  0.500061  0.500067  0.000022  1
  Er  Er19  1  0.500091  0.499998  0.500032  1
  Ir  Ir20  1  0.847679  0.152314  0.250023  1
  Ir  Ir21  1  0.847671  0.847682  0.750005  1
  Ir  Ir22  1  0.152095  0.152438  0.750734  1
  Ir  Ir23  1  0.152123  0.847417  0.249845  1
  Ir  Ir24  1  0.652310  0.347688  0.750027  1
  Ir  Ir25  1  0.652299  0.652322  0.250031  1
  Ir  Ir26  1  0.347731  0.348098  0.249768  1
  Ir  Ir27  1  0.347689  0.652308  0.750008  1
  Os  Os28  1  0.500260  0.999912  0.121990  1
  Os  Os29  1  0.500308  0.999900  0.622775  1
  Os  Os30  1  0.000006  0.499947  0.877580  1
  Os  Os31  1  0.000012  0.499981  0.377568  1
