# generated using pymatgen
data_Ac8CuNi6
_symmetry_space_group_name_H-M   'P 1'
_cell_length_a   7.73904043
_cell_length_b   7.73903896
_cell_length_c   7.73904053
_cell_angle_alpha   74.18524145
_cell_angle_beta   74.18522843
_cell_angle_gamma   74.18523875
_symmetry_Int_Tables_number   1
_chemical_formula_structural   Ac8CuNi6
_chemical_formula_sum   'Ac8 Cu1 Ni6'
_cell_volume   419.13083024
_cell_formula_units_Z   1
loop_
 _symmetry_equiv_pos_site_id
 _symmetry_equiv_pos_as_xyz
  1  'x, y, z'
loop_
 _atom_site_type_symbol
 _atom_site_label
 _atom_site_symmetry_multiplicity
 _atom_site_fract_x
 _atom_site_fract_y
 _atom_site_fract_z
 _atom_site_occupancy
  Ac  Ac0  1  0.303752  0.303752  0.303752  1
  Ac  Ac1  1  0.696248  0.696248  0.696248  1
  Ac  Ac2  1  0.811924  0.336087  0.142005  1
  Ac  Ac3  1  0.336087  0.142005  0.811924  1
  Ac  Ac4  1  0.142005  0.811924  0.336087  1
  Ac  Ac5  1  0.188076  0.663913  0.857995  1
  Ac  Ac6  1  0.663913  0.857995  0.188076  1
  Ac  Ac7  1  0.857995  0.188076  0.663913  1
  Cu  Cu8  1  0.500000  0.500000  0.500000  1
  Ni  Ni9  1  0.465073  0.634956  0.081597  1
  Ni  Ni10  1  0.634956  0.081597  0.465073  1
  Ni  Ni11  1  0.081597  0.465073  0.634956  1
  Ni  Ni12  1  0.534927  0.365044  0.918403  1
  Ni  Ni13  1  0.365044  0.918403  0.534927  1
  Ni  Ni14  1  0.918403  0.534927  0.365044  1
