# generated using pymatgen
data_Ho7Tm3Ru3Rh
_symmetry_space_group_name_H-M   'P 1'
_cell_length_a   6.29412019
_cell_length_b   7.26782370
_cell_length_c   8.39960373
_cell_angle_alpha   96.82562774
_cell_angle_beta   111.85208203
_cell_angle_gamma   89.98788233
_symmetry_Int_Tables_number   1
_chemical_formula_structural   Ho7Tm3Ru3Rh
_chemical_formula_sum   'Ho7 Tm3 Ru3 Rh1'
_cell_volume   353.69605002
_cell_formula_units_Z   1
loop_
 _symmetry_equiv_pos_site_id
 _symmetry_equiv_pos_as_xyz
  1  'x, y, z'
loop_
 _atom_site_type_symbol
 _atom_site_label
 _atom_site_symmetry_multiplicity
 _atom_site_fract_x
 _atom_site_fract_y
 _atom_site_fract_z
 _atom_site_occupancy
  Ho  Ho0  1  0.792090  0.081696  0.814941  1
  Ho  Ho1  1  0.979594  0.415518  0.188563  1
  Ho  Ho2  1  0.208709  0.915383  0.186032  1
  Ho  Ho3  1  0.025125  0.585954  0.814794  1
  Ho  Ho4  1  0.204147  0.183219  0.564344  1
  Ho  Ho5  1  0.642013  0.315397  0.432471  1
  Ho  Ho6  1  0.792970  0.814713  0.434404  1
  Tm  Tm7  1  0.357584  0.686226  0.564551  1
  Tm  Tm8  1  0.419350  0.249006  0.000735  1
  Tm  Tm9  1  0.579954  0.752002  0.000720  1
  Ru  Ru10  1  0.822283  0.076770  0.218458  1
  Ru  Ru11  1  0.396235  0.575719  0.220398  1
  Ru  Ru12  1  0.179324  0.923710  0.780127  1
  Rh  Rh13  1  0.600620  0.424688  0.779463  1
