# generated using pymatgen
data_KOsBr6
_symmetry_space_group_name_H-M   'P 1'
_cell_length_a   7.92187700
_cell_length_b   7.51690886
_cell_length_c   20.61783691
_cell_angle_alpha   88.11137264
_cell_angle_beta   90.00000000
_cell_angle_gamma   90.00000000
_symmetry_Int_Tables_number   1
_chemical_formula_structural   KOsBr6
_chemical_formula_sum   'K4 Os4 Br24'
_cell_volume   1227.08457480
_cell_formula_units_Z   4
loop_
 _symmetry_equiv_pos_site_id
 _symmetry_equiv_pos_as_xyz
  1  'x, y, z'
loop_
 _atom_site_type_symbol
 _atom_site_label
 _atom_site_symmetry_multiplicity
 _atom_site_fract_x
 _atom_site_fract_y
 _atom_site_fract_z
 _atom_site_occupancy
  K  K0  1  0.795107  0.227668  0.750553  1
  K  K1  1  0.295107  0.772332  0.749447  1
  K  K2  1  0.204893  0.772332  0.249447  1
  K  K3  1  0.704893  0.227668  0.250553  1
  Os  Os4  1  0.720156  0.753684  0.619941  1
  Os  Os5  1  0.220156  0.246316  0.880059  1
  Os  Os6  1  0.279844  0.246316  0.380059  1
  Os  Os7  1  0.779844  0.753684  0.119941  1
  Br  Br8  1  0.793488  0.667385  0.241144  1
  Br  Br9  1  0.293488  0.332615  0.258856  1
  Br  Br10  1  0.206512  0.332615  0.758856  1
  Br  Br11  1  0.706512  0.667385  0.741144  1
  Br  Br12  1  0.606615  0.487944  0.102135  1
  Br  Br13  1  0.106615  0.512056  0.397865  1
  Br  Br14  1  0.393385  0.512056  0.897865  1
  Br  Br15  1  0.893385  0.487944  0.602135  1
  Br  Br16  1  0.519375  0.932088  0.144968  1
  Br  Br17  1  0.019375  0.067912  0.355032  1
  Br  Br18  1  0.480625  0.067912  0.855032  1
  Br  Br19  1  0.980625  0.932088  0.644968  1
  Br  Br20  1  0.760221  0.850796  0.007106  1
  Br  Br21  1  0.260221  0.149204  0.492894  1
  Br  Br22  1  0.239779  0.149204  0.992894  1
  Br  Br23  1  0.739779  0.850796  0.507106  1
  Br  Br24  1  0.956980  0.023644  0.144298  1
  Br  Br25  1  0.456980  0.976356  0.355702  1
  Br  Br26  1  0.043020  0.976356  0.855702  1
  Br  Br27  1  0.543020  0.023644  0.644298  1
  Br  Br28  1  0.043030  0.588831  0.101878  1
  Br  Br29  1  0.543030  0.411169  0.398122  1
  Br  Br30  1  0.956970  0.411169  0.898122  1
  Br  Br31  1  0.456970  0.588831  0.601878  1
