# generated using pymatgen
data_TbU7IrS17
_symmetry_space_group_name_H-M   'P 1'
_cell_length_a   7.78162945
_cell_length_b   7.79391219
_cell_length_c   10.37893113
_cell_angle_alpha   80.31140913
_cell_angle_beta   80.15859329
_cell_angle_gamma   64.95617692
_symmetry_Int_Tables_number   1
_chemical_formula_structural   TbU7IrS17
_chemical_formula_sum   'Tb1 U7 Ir1 S17'
_cell_volume   558.64780756
_cell_formula_units_Z   1
loop_
 _symmetry_equiv_pos_site_id
 _symmetry_equiv_pos_as_xyz
  1  'x, y, z'
loop_
 _atom_site_type_symbol
 _atom_site_label
 _atom_site_symmetry_multiplicity
 _atom_site_fract_x
 _atom_site_fract_y
 _atom_site_fract_z
 _atom_site_occupancy
  Tb  Tb0  1  0.815491  0.309529  0.299677  1
  U  U1  1  0.303469  0.822229  0.299682  1
  U  U2  1  0.179065  0.697385  0.700436  1
  U  U3  1  0.696682  0.177867  0.702457  1
  U  U4  1  0.202826  0.205071  0.544226  1
  U  U5  1  0.795740  0.794698  0.454125  1
  U  U6  1  0.676277  0.673116  0.981531  1
  U  U7  1  0.322986  0.324240  0.018264  1
  Ir  Ir8  1  0.001836  0.998434  0.998070  1
  S  S9  1  0.822062  0.432420  0.539174  1
  S  S10  1  0.433081  0.819919  0.536130  1
  S  S11  1  0.180252  0.566758  0.463651  1
  S  S12  1  0.569088  0.175315  0.468914  1
  S  S13  1  0.952268  0.318595  0.024546  1
  S  S14  1  0.319860  0.952191  0.026772  1
  S  S15  1  0.047893  0.679266  0.972541  1
  S  S16  1  0.679981  0.048883  0.971864  1
  S  S17  1  0.220755  0.211057  0.280082  1
  S  S18  1  0.784925  0.785199  0.720841  1
  S  S19  1  0.054930  0.053833  0.770456  1
  S  S20  1  0.948757  0.946206  0.228388  1
  S  S21  1  0.299805  0.300822  0.756704  1
  S  S22  1  0.695909  0.707015  0.241557  1
  S  S23  1  0.519044  0.520758  0.829382  1
  S  S24  1  0.474737  0.485560  0.166347  1
  S  S25  1  0.002282  0.993635  0.504180  1
