# generated using pymatgen
data_Ho10Er6MgNi4Hg3
_symmetry_space_group_name_H-M   'P 1'
_cell_length_a   9.48556754
_cell_length_b   9.44517380
_cell_length_c   9.44517300
_cell_angle_alpha   59.99999930
_cell_angle_beta   60.14076773
_cell_angle_gamma   60.14076528
_symmetry_Int_Tables_number   1
_chemical_formula_structural   Ho10Er6MgNi4Hg3
_chemical_formula_sum   'Ho10 Er6 Mg1 Ni4 Hg3'
_cell_volume   599.63774707
_cell_formula_units_Z   1
loop_
 _symmetry_equiv_pos_site_id
 _symmetry_equiv_pos_as_xyz
  1  'x, y, z'
loop_
 _atom_site_type_symbol
 _atom_site_label
 _atom_site_symmetry_multiplicity
 _atom_site_fract_x
 _atom_site_fract_y
 _atom_site_fract_z
 _atom_site_occupancy
  Ho  Ho0  1  0.184161  0.814866  0.814866  1
  Ho  Ho1  1  0.812614  0.186452  0.186452  1
  Ho  Ho2  1  0.812614  0.186452  0.814481  1
  Ho  Ho3  1  0.184161  0.814866  0.186106  1
  Ho  Ho4  1  0.812614  0.814481  0.186452  1
  Ho  Ho5  1  0.184161  0.186106  0.814866  1
  Ho  Ho6  1  0.598807  0.597499  0.597499  1
  Ho  Ho7  1  0.598807  0.597499  0.206196  1
  Ho  Ho8  1  0.598807  0.206196  0.597499  1
  Ho  Ho9  1  0.197870  0.600710  0.600710  1
  Er  Er10  1  0.059295  0.439424  0.439424  1
  Er  Er11  1  0.434541  0.064027  0.064027  1
  Er  Er12  1  0.434541  0.064027  0.437406  1
  Er  Er13  1  0.059295  0.439424  0.061856  1
  Er  Er14  1  0.434541  0.437406  0.064027  1
  Er  Er15  1  0.059295  0.061856  0.439424  1
  Mg  Mg16  1  0.535076  0.821641  0.821641  1
  Ni  Ni17  1  0.390042  0.392930  0.392930  1
  Ni  Ni18  1  0.390042  0.392930  0.824097  1
  Ni  Ni19  1  0.390042  0.824097  0.392930  1
  Ni  Ni20  1  0.824076  0.391974  0.391974  1
  Hg  Hg21  1  0.834866  0.836097  0.836097  1
  Hg  Hg22  1  0.834866  0.836097  0.492939  1
  Hg  Hg23  1  0.834866  0.492939  0.836097  1
