# generated using pymatgen
data_Tb2Sm2YPb4
_symmetry_space_group_name_H-M   'P 1'
_cell_length_a   8.22038900
_cell_length_b   8.35223600
_cell_length_c   15.77423800
_cell_angle_alpha   90.00000000
_cell_angle_beta   90.00000000
_cell_angle_gamma   90.00000000
_symmetry_Int_Tables_number   1
_chemical_formula_structural   Tb2Sm2YPb4
_chemical_formula_sum   'Tb8 Sm8 Y4 Pb16'
_cell_volume   1083.03755365
_cell_formula_units_Z   4
loop_
 _symmetry_equiv_pos_site_id
 _symmetry_equiv_pos_as_xyz
  1  'x, y, z'
loop_
 _atom_site_type_symbol
 _atom_site_label
 _atom_site_symmetry_multiplicity
 _atom_site_fract_x
 _atom_site_fract_y
 _atom_site_fract_z
 _atom_site_occupancy
  Tb  Tb0  1  0.629408  0.158085  0.621421  1
  Tb  Tb1  1  0.129408  0.341915  0.878579  1
  Tb  Tb2  1  0.370592  0.841915  0.121421  1
  Tb  Tb3  1  0.870592  0.658085  0.378579  1
  Tb  Tb4  1  0.370592  0.841915  0.378579  1
  Tb  Tb5  1  0.870592  0.658085  0.121421  1
  Tb  Tb6  1  0.629408  0.158085  0.878579  1
  Tb  Tb7  1  0.129408  0.341915  0.621421  1
  Sm  Sm8  1  0.471948  0.678275  0.597956  1
  Sm  Sm9  1  0.971948  0.821725  0.902044  1
  Sm  Sm10  1  0.528052  0.321725  0.097956  1
  Sm  Sm11  1  0.028052  0.178275  0.402044  1
  Sm  Sm12  1  0.528052  0.321725  0.402044  1
  Sm  Sm13  1  0.028052  0.178275  0.097956  1
  Sm  Sm14  1  0.471948  0.678275  0.902044  1
  Sm  Sm15  1  0.971948  0.821725  0.597956  1
  Y  Y16  1  0.796625  0.494916  0.750000  1
  Y  Y17  1  0.296625  0.005084  0.750000  1
  Y  Y18  1  0.203375  0.505084  0.250000  1
  Y  Y19  1  0.703375  0.994916  0.250000  1
  Pb  Pb20  1  0.711417  0.963344  0.456494  1
  Pb  Pb21  1  0.211417  0.536656  0.043506  1
  Pb  Pb22  1  0.288583  0.036656  0.956494  1
  Pb  Pb23  1  0.788583  0.463344  0.543506  1
  Pb  Pb24  1  0.288583  0.036656  0.543506  1
  Pb  Pb25  1  0.788583  0.463344  0.956494  1
  Pb  Pb26  1  0.711417  0.963344  0.043506  1
  Pb  Pb27  1  0.211417  0.536656  0.456494  1
  Pb  Pb28  1  0.433123  0.375760  0.750000  1
  Pb  Pb29  1  0.933123  0.124240  0.750000  1
  Pb  Pb30  1  0.566877  0.624240  0.250000  1
  Pb  Pb31  1  0.066877  0.875760  0.250000  1
  Pb  Pb32  1  0.661437  0.847588  0.750000  1
  Pb  Pb33  1  0.161437  0.652412  0.750000  1
  Pb  Pb34  1  0.338563  0.152412  0.250000  1
  Pb  Pb35  1  0.838563  0.347588  0.250000  1
