# generated using pymatgen
data_Dy3Ho4CoSn23Ir5
_symmetry_space_group_name_H-M   'P 1'
_cell_length_a   9.83600615
_cell_length_b   9.86394797
_cell_length_c   10.06503523
_cell_angle_alpha   90.01032541
_cell_angle_beta   89.95658120
_cell_angle_gamma   120.09998411
_symmetry_Int_Tables_number   1
_chemical_formula_structural   Dy3Ho4CoSn23Ir5
_chemical_formula_sum   'Dy3 Ho4 Co1 Sn23 Ir5'
_cell_volume   844.84477513
_cell_formula_units_Z   1
loop_
 _symmetry_equiv_pos_site_id
 _symmetry_equiv_pos_as_xyz
  1  'x, y, z'
loop_
 _atom_site_type_symbol
 _atom_site_label
 _atom_site_symmetry_multiplicity
 _atom_site_fract_x
 _atom_site_fract_y
 _atom_site_fract_z
 _atom_site_occupancy
  Dy  Dy0  1  0.519359  0.040012  0.690738  1
  Dy  Dy1  1  0.039159  0.519581  0.307325  1
  Dy  Dy2  1  0.959483  0.479715  0.692301  1
  Ho  Ho3  1  0.006649  0.003245  0.004833  1
  Ho  Ho4  1  0.480695  0.519932  0.308140  1
  Ho  Ho5  1  0.519062  0.479423  0.690848  1
  Ho  Ho6  1  0.480715  0.960793  0.308086  1
  Co  Co7  1  0.661145  0.830367  0.800915  1
  Sn  Sn8  1  0.355510  0.000260  0.999152  1
  Sn  Sn9  1  0.649082  0.993648  0.994397  1
  Sn  Sn10  1  0.999730  0.352585  0.999839  1
  Sn  Sn11  1  0.999645  0.647067  0.999869  1
  Sn  Sn12  1  0.649063  0.655349  0.994352  1
  Sn  Sn13  1  0.355585  0.355293  0.999225  1
  Sn  Sn14  1  0.338672  0.669317  0.823648  1
  Sn  Sn15  1  0.665954  0.332986  0.173030  1
  Sn  Sn16  1  0.000032  0.999914  0.500574  1
  Sn  Sn17  1  0.780146  0.220815  0.458147  1
  Sn  Sn18  1  0.220264  0.778498  0.541687  1
  Sn  Sn19  1  0.780081  0.559340  0.458198  1
  Sn  Sn20  1  0.220614  0.441826  0.541845  1
  Sn  Sn21  1  0.442921  0.221580  0.457509  1
  Sn  Sn22  1  0.562594  0.780993  0.548312  1
  Sn  Sn23  1  0.334911  0.667457  0.118685  1
  Sn  Sn24  1  0.664618  0.332801  0.879990  1
  Sn  Sn25  1  0.117689  0.880068  0.284358  1
  Sn  Sn26  1  0.875936  0.110553  0.722527  1
  Sn  Sn27  1  0.117619  0.237677  0.284322  1
  Sn  Sn28  1  0.875594  0.765058  0.722470  1
  Sn  Sn29  1  0.760492  0.880283  0.284371  1
  Sn  Sn30  1  0.237463  0.118720  0.715570  1
  Ir  Ir31  1  0.828455  0.166832  0.197893  1
  Ir  Ir32  1  0.167740  0.830462  0.800055  1
  Ir  Ir33  1  0.828451  0.661634  0.197952  1
  Ir  Ir34  1  0.168183  0.337572  0.799996  1
  Ir  Ir35  1  0.336693  0.168346  0.198843  1
