# generated using pymatgen
data_Zr4CoPtN
_symmetry_space_group_name_H-M   'P 1'
_cell_length_a   8.72210431
_cell_length_b   8.72210458
_cell_length_c   8.72210500
_cell_angle_alpha   60.00000221
_cell_angle_beta   60.00000119
_cell_angle_gamma   60.00000619
_symmetry_Int_Tables_number   1
_chemical_formula_structural   Zr4CoPtN
_chemical_formula_sum   'Zr16 Co4 Pt4 N4'
_cell_volume   469.19017612
_cell_formula_units_Z   4
loop_
 _symmetry_equiv_pos_site_id
 _symmetry_equiv_pos_as_xyz
  1  'x, y, z'
loop_
 _atom_site_type_symbol
 _atom_site_label
 _atom_site_symmetry_multiplicity
 _atom_site_fract_x
 _atom_site_fract_y
 _atom_site_fract_z
 _atom_site_occupancy
  Zr  Zr0  1  0.076001  0.641333  0.641333  1
  Zr  Zr1  1  0.641333  0.076001  0.641333  1
  Zr  Zr2  1  0.641333  0.641333  0.076001  1
  Zr  Zr3  1  0.641333  0.641333  0.641333  1
  Zr  Zr4  1  0.815495  0.815495  0.184505  1
  Zr  Zr5  1  0.184505  0.184505  0.815495  1
  Zr  Zr6  1  0.815495  0.184505  0.815495  1
  Zr  Zr7  1  0.184505  0.815495  0.184505  1
  Zr  Zr8  1  0.184505  0.815495  0.815495  1
  Zr  Zr9  1  0.815495  0.184505  0.184505  1
  Zr  Zr10  1  0.434568  0.434568  0.065432  1
  Zr  Zr11  1  0.065432  0.065432  0.434568  1
  Zr  Zr12  1  0.434568  0.065432  0.434568  1
  Zr  Zr13  1  0.065432  0.434568  0.065432  1
  Zr  Zr14  1  0.065432  0.434568  0.434568  1
  Zr  Zr15  1  0.434568  0.065432  0.065432  1
  Co  Co16  1  0.442089  0.852637  0.852637  1
  Co  Co17  1  0.852637  0.442089  0.852637  1
  Co  Co18  1  0.852637  0.852637  0.442089  1
  Co  Co19  1  0.852637  0.852637  0.852637  1
  Pt  Pt20  1  0.753537  0.415487  0.415487  1
  Pt  Pt21  1  0.415487  0.753537  0.415487  1
  Pt  Pt22  1  0.415487  0.415487  0.753537  1
  Pt  Pt23  1  0.415487  0.415487  0.415487  1
  N  N24  1  0.623710  0.125430  0.125430  1
  N  N25  1  0.125430  0.623710  0.125430  1
  N  N26  1  0.125430  0.125430  0.623710  1
  N  N27  1  0.125430  0.125430  0.125430  1
