# generated using pymatgen
data_Tb4MnAl18IrPd4
_symmetry_space_group_name_H-M   'P 1'
_cell_length_a   7.60222538
_cell_length_b   7.60222583
_cell_length_c   9.49741400
_cell_angle_alpha   89.99912882
_cell_angle_beta   89.99912499
_cell_angle_gamma   119.53103535
_symmetry_Int_Tables_number   1
_chemical_formula_structural   Tb4MnAl18IrPd4
_chemical_formula_sum   'Tb4 Mn1 Al18 Ir1 Pd4'
_cell_volume   477.58477549
_cell_formula_units_Z   1
loop_
 _symmetry_equiv_pos_site_id
 _symmetry_equiv_pos_as_xyz
  1  'x, y, z'
loop_
 _atom_site_type_symbol
 _atom_site_label
 _atom_site_symmetry_multiplicity
 _atom_site_fract_x
 _atom_site_fract_y
 _atom_site_fract_z
 _atom_site_occupancy
  Tb  Tb0  1  0.994394  0.670212  0.249005  1
  Tb  Tb1  1  0.005606  0.329788  0.750995  1
  Tb  Tb2  1  0.670212  0.994394  0.249005  1
  Tb  Tb3  1  0.329788  0.005606  0.750995  1
  Mn  Mn4  1  0.000000  0.000000  0.000000  1
  Al  Al5  1  0.123265  0.123265  0.244755  1
  Al  Al6  1  0.876735  0.876735  0.755245  1
  Al  Al7  1  0.999995  0.324868  0.073668  1
  Al  Al8  1  0.000005  0.675132  0.926332  1
  Al  Al9  1  0.999180  0.668286  0.576695  1
  Al  Al10  1  0.331714  0.000820  0.423305  1
  Al  Al11  1  0.000820  0.331714  0.423305  1
  Al  Al12  1  0.668286  0.999180  0.576695  1
  Al  Al13  1  0.675132  0.000005  0.926332  1
  Al  Al14  1  0.324868  0.999995  0.073668  1
  Al  Al15  1  0.330920  0.330920  0.554453  1
  Al  Al16  1  0.669080  0.669080  0.445547  1
  Al  Al17  1  0.675950  0.675950  0.051609  1
  Al  Al18  1  0.324050  0.324050  0.948391  1
  Al  Al19  1  0.341426  0.546763  0.249339  1
  Al  Al20  1  0.658574  0.453237  0.750661  1
  Al  Al21  1  0.546763  0.341426  0.249339  1
  Al  Al22  1  0.453237  0.658574  0.750661  1
  Ir  Ir23  1  0.000000  0.000000  0.500000  1
  Pd  Pd24  1  0.672333  0.327667  0.000000  1
  Pd  Pd25  1  0.327667  0.672333  0.000000  1
  Pd  Pd26  1  0.327802  0.672198  0.500000  1
  Pd  Pd27  1  0.672198  0.327802  0.500000  1
