# generated using pymatgen
data_Pr2Zn4Ru
_symmetry_space_group_name_H-M   'P 1'
_cell_length_a   7.11656500
_cell_length_b   7.11656500
_cell_length_c   5.54111900
_cell_angle_alpha   90.00000000
_cell_angle_beta   90.00000000
_cell_angle_gamma   90.00000000
_symmetry_Int_Tables_number   1
_chemical_formula_structural   Pr2Zn4Ru
_chemical_formula_sum   'Pr4 Zn8 Ru2'
_cell_volume   280.63272790
_cell_formula_units_Z   2
loop_
 _symmetry_equiv_pos_site_id
 _symmetry_equiv_pos_as_xyz
  1  'x, y, z'
loop_
 _atom_site_type_symbol
 _atom_site_label
 _atom_site_symmetry_multiplicity
 _atom_site_fract_x
 _atom_site_fract_y
 _atom_site_fract_z
 _atom_site_occupancy
  Pr  Pr0  1  0.000000  0.500000  0.774547  1
  Pr  Pr1  1  0.000000  0.000000  0.000000  1
  Pr  Pr2  1  0.500000  0.000000  0.225453  1
  Pr  Pr3  1  0.500000  0.500000  0.000000  1
  Zn  Zn4  1  0.183928  0.683928  0.305945  1
  Zn  Zn5  1  0.816072  0.683928  0.305945  1
  Zn  Zn6  1  0.816072  0.316072  0.305945  1
  Zn  Zn7  1  0.316072  0.183928  0.694055  1
  Zn  Zn8  1  0.183928  0.316072  0.305945  1
  Zn  Zn9  1  0.683928  0.183928  0.694055  1
  Zn  Zn10  1  0.683928  0.816072  0.694055  1
  Zn  Zn11  1  0.316072  0.816072  0.694055  1
  Ru  Ru12  1  0.500000  0.500000  0.500000  1
  Ru  Ru13  1  0.000000  0.000000  0.500000  1
