# generated using pymatgen
data_TbErGe2(Ru2C)2
_symmetry_space_group_name_H-M   'P 1'
_cell_length_a   5.92089574
_cell_length_b   5.92089471
_cell_length_c   7.28558000
_cell_angle_alpha   90.00000000
_cell_angle_beta   90.00000000
_cell_angle_gamma   141.77037287
_symmetry_Int_Tables_number   1
_chemical_formula_structural   TbErGe2(Ru2C)2
_chemical_formula_sum   'Tb1 Er1 Ge2 Ru4 C2'
_cell_volume   158.05181436
_cell_formula_units_Z   1
loop_
 _symmetry_equiv_pos_site_id
 _symmetry_equiv_pos_as_xyz
  1  'x, y, z'
loop_
 _atom_site_type_symbol
 _atom_site_label
 _atom_site_symmetry_multiplicity
 _atom_site_fract_x
 _atom_site_fract_y
 _atom_site_fract_z
 _atom_site_occupancy
  Tb  Tb0  1  0.545342  0.454658  0.250000  1
  Er  Er1  1  0.455083  0.544917  0.750000  1
  Ge  Ge2  1  0.266688  0.733312  0.250000  1
  Ge  Ge3  1  0.733739  0.266261  0.750000  1
  Ru  Ru4  1  0.838297  0.161703  0.055966  1
  Ru  Ru5  1  0.161560  0.838440  0.942330  1
  Ru  Ru6  1  0.161560  0.838440  0.557670  1
  Ru  Ru7  1  0.838297  0.161703  0.444034  1
  C  C8  1  0.999717  0.000283  0.997728  1
  C  C9  1  0.999717  0.000283  0.502272  1
