# generated using pymatgen
data_Er20Zn6CoTc
_symmetry_space_group_name_H-M   'P 1'
_cell_length_a   9.25460900
_cell_length_b   9.25460919
_cell_length_c   9.53601700
_cell_angle_alpha   90.00000000
_cell_angle_beta   90.00000000
_cell_angle_gamma   119.99999576
_symmetry_Int_Tables_number   1
_chemical_formula_structural   Er20Zn6CoTc
_chemical_formula_sum   'Er20 Zn6 Co1 Tc1'
_cell_volume   707.31655882
_cell_formula_units_Z   1
loop_
 _symmetry_equiv_pos_site_id
 _symmetry_equiv_pos_as_xyz
  1  'x, y, z'
loop_
 _atom_site_type_symbol
 _atom_site_label
 _atom_site_symmetry_multiplicity
 _atom_site_fract_x
 _atom_site_fract_y
 _atom_site_fract_z
 _atom_site_occupancy
  Er  Er0  1  0.000000  0.000000  0.501087  1
  Er  Er1  1  0.000000  0.000000  0.998913  1
  Er  Er2  1  0.540972  0.459028  0.250000  1
  Er  Er3  1  0.540972  0.081947  0.250000  1
  Er  Er4  1  0.918053  0.459028  0.250000  1
  Er  Er5  1  0.458104  0.541896  0.750000  1
  Er  Er6  1  0.458104  0.916208  0.750000  1
  Er  Er7  1  0.083792  0.541896  0.750000  1
  Er  Er8  1  0.207244  0.792756  0.443293  1
  Er  Er9  1  0.207244  0.414489  0.443293  1
  Er  Er10  1  0.585511  0.792756  0.443293  1
  Er  Er11  1  0.789448  0.210552  0.561698  1
  Er  Er12  1  0.789448  0.578898  0.561698  1
  Er  Er13  1  0.421102  0.210552  0.561698  1
  Er  Er14  1  0.789448  0.210552  0.938302  1
  Er  Er15  1  0.789448  0.578898  0.938302  1
  Er  Er16  1  0.421102  0.210552  0.938302  1
  Er  Er17  1  0.207244  0.792756  0.056707  1
  Er  Er18  1  0.207244  0.414489  0.056707  1
  Er  Er19  1  0.585511  0.792756  0.056707  1
  Zn  Zn20  1  0.886031  0.113969  0.250000  1
  Zn  Zn21  1  0.886031  0.772063  0.250000  1
  Zn  Zn22  1  0.227937  0.113969  0.250000  1
  Zn  Zn23  1  0.113566  0.886434  0.750000  1
  Zn  Zn24  1  0.113566  0.227130  0.750000  1
  Zn  Zn25  1  0.772870  0.886434  0.750000  1
  Co  Co26  1  0.666667  0.333333  0.750000  1
  Tc  Tc27  1  0.333333  0.666667  0.250000  1
