# generated using pymatgen
data_Y4Tm4V(B8Rh)3
_symmetry_space_group_name_H-M   'P 1'
_cell_length_a   3.62727200
_cell_length_b   9.13712478
_cell_length_c   11.52274850
_cell_angle_alpha   90.23187197
_cell_angle_beta   90.00000000
_cell_angle_gamma   90.00000000
_symmetry_Int_Tables_number   1
_chemical_formula_structural   Y4Tm4V(B8Rh)3
_chemical_formula_sum   'Y4 Tm4 V1 B24 Rh3'
_cell_volume   381.89344647
_cell_formula_units_Z   1
loop_
 _symmetry_equiv_pos_site_id
 _symmetry_equiv_pos_as_xyz
  1  'x, y, z'
loop_
 _atom_site_type_symbol
 _atom_site_label
 _atom_site_symmetry_multiplicity
 _atom_site_fract_x
 _atom_site_fract_y
 _atom_site_fract_z
 _atom_site_occupancy
  Y  Y0  1  0.500000  0.318593  0.410883  1
  Y  Y1  1  0.500000  0.676752  0.584541  1
  Y  Y2  1  0.500000  0.178012  0.917688  1
  Y  Y3  1  0.500000  0.824823  0.087335  1
  Tm  Tm4  1  0.500000  0.443410  0.126291  1
  Tm  Tm5  1  0.500000  0.557143  0.872201  1
  Tm  Tm6  1  0.500000  0.055785  0.628792  1
  Tm  Tm7  1  0.500000  0.946406  0.372449  1
  V  V8  1  0.500000  0.139296  0.179341  1
  B  B9  1  0.000000  0.105833  0.472586  1
  B  B10  1  0.000000  0.893883  0.529601  1
  B  B11  1  0.000000  0.396917  0.970170  1
  B  B12  1  0.000000  0.606146  0.028253  1
  B  B13  1  0.000000  0.131678  0.316007  1
  B  B14  1  0.000000  0.867381  0.683669  1
  B  B15  1  0.000000  0.368252  0.816753  1
  B  B16  1  0.000000  0.632379  0.183909  1
  B  B17  1  0.000000  0.052101  0.066283  1
  B  B18  1  0.000000  0.946865  0.933381  1
  B  B19  1  0.000000  0.445280  0.565756  1
  B  B20  1  0.000000  0.553130  0.432904  1
  B  B21  1  0.000000  0.482593  0.286736  1
  B  B22  1  0.000000  0.517050  0.711995  1
  B  B23  1  0.000000  0.017028  0.787288  1
  B  B24  1  0.000000  0.981903  0.213787  1
  B  B25  1  0.000000  0.250526  0.080416  1
  B  B26  1  0.000000  0.750566  0.919095  1
  B  B27  1  0.000000  0.249508  0.579949  1
  B  B28  1  0.000000  0.750153  0.419821  1
  B  B29  1  0.000000  0.294411  0.235369  1
  B  B30  1  0.000000  0.705846  0.764128  1
  B  B31  1  0.000000  0.207198  0.736104  1
  B  B32  1  0.000000  0.793152  0.265938  1
  Rh  Rh33  1  0.500000  0.860174  0.819838  1
  Rh  Rh34  1  0.500000  0.360512  0.680030  1
  Rh  Rh35  1  0.500000  0.639314  0.320711  1
