# generated using pymatgen
data_Ca2Hf(AsPd)3
_symmetry_space_group_name_H-M   'P 1'
_cell_length_a   7.02126004
_cell_length_b   7.02125842
_cell_length_c   3.97362700
_cell_angle_alpha   90.00000000
_cell_angle_beta   90.00000000
_cell_angle_gamma   119.63284093
_symmetry_Int_Tables_number   1
_chemical_formula_structural   Ca2Hf(AsPd)3
_chemical_formula_sum   'Ca2 Hf1 As3 Pd3'
_cell_volume   170.27177422
_cell_formula_units_Z   1
loop_
 _symmetry_equiv_pos_site_id
 _symmetry_equiv_pos_as_xyz
  1  'x, y, z'
loop_
 _atom_site_type_symbol
 _atom_site_label
 _atom_site_symmetry_multiplicity
 _atom_site_fract_x
 _atom_site_fract_y
 _atom_site_fract_z
 _atom_site_occupancy
  Ca  Ca0  1  0.589354  0.995871  0.000000  1
  Ca  Ca1  1  0.995871  0.589354  0.000000  1
  Hf  Hf2  1  0.407263  0.407263  0.000000  1
  As  As3  1  0.337077  0.645329  0.500000  1
  As  As4  1  0.645329  0.337077  0.500000  1
  As  As5  1  0.025490  0.025490  0.000000  1
  Pd  Pd6  1  0.251505  0.991882  0.500000  1
  Pd  Pd7  1  0.991882  0.251505  0.500000  1
  Pd  Pd8  1  0.756229  0.756229  0.500000  1
