# generated using pymatgen
data_Sc3In3Ni2Au
_symmetry_space_group_name_H-M   'P 1'
_cell_length_a   7.45885500
_cell_length_b   7.45885309
_cell_length_c   3.52415300
_cell_angle_alpha   90.00000000
_cell_angle_beta   90.00000000
_cell_angle_gamma   120.00000402
_symmetry_Int_Tables_number   1
_chemical_formula_structural   Sc3In3Ni2Au
_chemical_formula_sum   'Sc3 In3 Ni2 Au1'
_cell_volume   169.79683356
_cell_formula_units_Z   1
loop_
 _symmetry_equiv_pos_site_id
 _symmetry_equiv_pos_as_xyz
  1  'x, y, z'
loop_
 _atom_site_type_symbol
 _atom_site_label
 _atom_site_symmetry_multiplicity
 _atom_site_fract_x
 _atom_site_fract_y
 _atom_site_fract_z
 _atom_site_occupancy
  Sc  Sc0  1  0.585886  0.978737  0.000000  1
  Sc  Sc1  1  0.392850  0.414114  0.000000  1
  Sc  Sc2  1  0.021263  0.607150  0.000000  1
  In  In3  1  0.737496  0.742014  0.500000  1
  In  In4  1  0.004519  0.262504  0.500000  1
  In  In5  1  0.257986  0.995481  0.500000  1
  Ni  Ni6  1  0.000000  0.000000  0.000000  1
  Ni  Ni7  1  0.333333  0.666667  0.500000  1
  Au  Au8  1  0.666667  0.333333  0.500000  1
