# generated using pymatgen
data_Pr6Zn17PPt6
_symmetry_space_group_name_H-M   'P 1'
_cell_length_a   9.26360539
_cell_length_b   9.26360507
_cell_length_c   9.26360600
_cell_angle_alpha   60.00000383
_cell_angle_beta   60.00000496
_cell_angle_gamma   60.00000011
_symmetry_Int_Tables_number   1
_chemical_formula_structural   Pr6Zn17PPt6
_chemical_formula_sum   'Pr6 Zn17 P1 Pt6'
_cell_volume   562.11501404
_cell_formula_units_Z   1
loop_
 _symmetry_equiv_pos_site_id
 _symmetry_equiv_pos_as_xyz
  1  'x, y, z'
loop_
 _atom_site_type_symbol
 _atom_site_label
 _atom_site_symmetry_multiplicity
 _atom_site_fract_x
 _atom_site_fract_y
 _atom_site_fract_z
 _atom_site_occupancy
  Pr  Pr0  1  0.720731  0.279269  0.279269  1
  Pr  Pr1  1  0.279269  0.720731  0.720731  1
  Pr  Pr2  1  0.279269  0.720731  0.279269  1
  Pr  Pr3  1  0.720731  0.279269  0.720731  1
  Pr  Pr4  1  0.279269  0.279269  0.720731  1
  Pr  Pr5  1  0.720731  0.720731  0.279269  1
  Zn  Zn6  1  0.128615  0.128615  0.128615  1
  Zn  Zn7  1  0.871385  0.871385  0.871385  1
  Zn  Zn8  1  0.128615  0.128615  0.614157  1
  Zn  Zn9  1  0.128615  0.614157  0.128615  1
  Zn  Zn10  1  0.871385  0.871385  0.385843  1
  Zn  Zn11  1  0.871385  0.385843  0.871385  1
  Zn  Zn12  1  0.614157  0.128615  0.128615  1
  Zn  Zn13  1  0.385843  0.871385  0.871385  1
  Zn  Zn14  1  0.329390  0.329390  0.329390  1
  Zn  Zn15  1  0.670610  0.670610  0.670610  1
  Zn  Zn16  1  0.329390  0.329390  0.011832  1
  Zn  Zn17  1  0.329390  0.011832  0.329390  1
  Zn  Zn18  1  0.670610  0.670610  0.988168  1
  Zn  Zn19  1  0.670610  0.988168  0.670610  1
  Zn  Zn20  1  0.011832  0.329390  0.329390  1
  Zn  Zn21  1  0.988168  0.670610  0.670610  1
  Zn  Zn22  1  0.000000  0.000000  0.000000  1
  P  P23  1  0.500000  0.500000  0.500000  1
  Pt  Pt24  1  0.500000  0.000000  0.000000  1
  Pt  Pt25  1  0.000000  0.500000  0.500000  1
  Pt  Pt26  1  0.000000  0.500000  0.000000  1
  Pt  Pt27  1  0.500000  0.000000  0.500000  1
  Pt  Pt28  1  0.000000  0.000000  0.500000  1
  Pt  Pt29  1  0.500000  0.500000  0.000000  1
