# generated using pymatgen
data_Eu2Fe5Co3B8
_symmetry_space_group_name_H-M   'P 1'
_cell_length_a   7.01741030
_cell_length_b   7.02097823
_cell_length_c   3.80395865
_cell_angle_alpha   89.98784086
_cell_angle_beta   90.10004474
_cell_angle_gamma   90.08922366
_symmetry_Int_Tables_number   1
_chemical_formula_structural   Eu2Fe5Co3B8
_chemical_formula_sum   'Eu2 Fe5 Co3 B8'
_cell_volume   187.41704490
_cell_formula_units_Z   1
loop_
 _symmetry_equiv_pos_site_id
 _symmetry_equiv_pos_as_xyz
  1  'x, y, z'
loop_
 _atom_site_type_symbol
 _atom_site_label
 _atom_site_symmetry_multiplicity
 _atom_site_fract_x
 _atom_site_fract_y
 _atom_site_fract_z
 _atom_site_occupancy
  Eu  Eu0  1  0.999789  0.999658  0.003232  1
  Eu  Eu1  1  0.500984  0.499523  0.503990  1
  Fe  Fe2  1  0.384409  0.130147  0.891866  1
  Fe  Fe3  1  0.615317  0.869703  0.891873  1
  Fe  Fe4  1  0.369518  0.884251  0.391631  1
  Fe  Fe5  1  0.631147  0.115048  0.392352  1
  Fe  Fe6  1  0.116005  0.367919  0.610023  1
  Co  Co7  1  0.885374  0.635187  0.608343  1
  Co  Co8  1  0.134294  0.616286  0.108130  1
  Co  Co9  1  0.864298  0.386396  0.108804  1
  B  B10  1  0.797423  0.665889  0.103647  1
  B  B11  1  0.200676  0.333031  0.106552  1
  B  B12  1  0.837287  0.294961  0.604309  1
  B  B13  1  0.166746  0.699455  0.604217  1
  B  B14  1  0.695971  0.834660  0.392316  1
  B  B15  1  0.301171  0.166257  0.393495  1
  B  B16  1  0.665375  0.197359  0.892935  1
  B  B17  1  0.334214  0.804270  0.892287  1
