# generated using pymatgen
data_SrCl26
_symmetry_space_group_name_H-M   'P 1'
_cell_length_a   10.39974547
_cell_length_b   13.67156570
_cell_length_c   8.87404100
_cell_angle_alpha   87.38399975
_cell_angle_beta   57.02700383
_cell_angle_gamma   76.57114338
_symmetry_Int_Tables_number   1
_chemical_formula_structural   SrCl26
_chemical_formula_sum   'Sr1 Cl26'
_cell_volume   1024.49577258
_cell_formula_units_Z   1
loop_
 _symmetry_equiv_pos_site_id
 _symmetry_equiv_pos_as_xyz
  1  'x, y, z'
loop_
 _atom_site_type_symbol
 _atom_site_label
 _atom_site_symmetry_multiplicity
 _atom_site_fract_x
 _atom_site_fract_y
 _atom_site_fract_z
 _atom_site_occupancy
  Sr  Sr0  1  0.000000  0.000000  0.000000  1
  Cl  Cl1  1  0.858456  0.725054  0.518519  1
  Cl  Cl2  1  0.339283  0.682878  0.416065  1
  Cl  Cl3  1  0.660717  0.317122  0.583935  1
  Cl  Cl4  1  0.141544  0.274946  0.481481  1
  Cl  Cl5  1  0.954000  0.343485  0.103338  1
  Cl  Cl6  1  0.263456  0.488261  0.048377  1
  Cl  Cl7  1  0.736544  0.511739  0.951623  1
  Cl  Cl8  1  0.046000  0.656515  0.896662  1
  Cl  Cl9  1  0.500000  0.000000  0.500000  1
  Cl  Cl10  1  0.000000  0.000000  0.500000  1
  Cl  Cl11  1  0.870965  0.092099  0.374728  1
  Cl  Cl12  1  0.316038  0.174307  0.272738  1
  Cl  Cl13  1  0.683962  0.825693  0.727262  1
  Cl  Cl14  1  0.129035  0.907901  0.625272  1
  Cl  Cl15  1  0.060612  0.528137  0.293967  1
  Cl  Cl16  1  0.452044  0.538608  0.315361  1
  Cl  Cl17  1  0.547956  0.461392  0.684639  1
  Cl  Cl18  1  0.939388  0.471863  0.706033  1
  Cl  Cl19  1  0.668747  0.970395  0.192423  1
  Cl  Cl20  1  0.174337  0.870684  0.173183  1
  Cl  Cl21  1  0.825663  0.129316  0.826817  1
  Cl  Cl22  1  0.331253  0.029605  0.807577  1
  Cl  Cl23  1  0.279195  0.781955  0.939766  1
  Cl  Cl24  1  0.881276  0.787670  0.041678  1
  Cl  Cl25  1  0.118724  0.212330  0.958322  1
  Cl  Cl26  1  0.720805  0.218045  0.060234  1
