# generated using pymatgen
data_Tb3Nd4Er3(In2Pd)4
_symmetry_space_group_name_H-M   'P 1'
_cell_length_a   3.68664600
_cell_length_b   8.28572711
_cell_length_c   18.41324952
_cell_angle_alpha   89.56923452
_cell_angle_beta   90.00000000
_cell_angle_gamma   90.00000000
_symmetry_Int_Tables_number   1
_chemical_formula_structural   Tb3Nd4Er3(In2Pd)4
_chemical_formula_sum   'Tb3 Nd4 Er3 In8 Pd4'
_cell_volume   562.44521644
_cell_formula_units_Z   1
loop_
 _symmetry_equiv_pos_site_id
 _symmetry_equiv_pos_as_xyz
  1  'x, y, z'
loop_
 _atom_site_type_symbol
 _atom_site_label
 _atom_site_symmetry_multiplicity
 _atom_site_fract_x
 _atom_site_fract_y
 _atom_site_fract_z
 _atom_site_occupancy
  Tb  Tb0  1  0.000000  0.764072  0.784354  1
  Tb  Tb1  1  0.000000  0.236515  0.216281  1
  Tb  Tb2  1  0.000000  0.619054  0.084403  1
  Nd  Nd3  1  0.000000  0.500197  0.500436  1
  Nd  Nd4  1  0.000000  0.999385  0.999405  1
  Nd  Nd5  1  0.000000  0.736121  0.285331  1
  Nd  Nd6  1  0.000000  0.264229  0.714450  1
  Er  Er7  1  0.000000  0.381159  0.914356  1
  Er  Er8  1  0.000000  0.880367  0.585500  1
  Er  Er9  1  0.000000  0.119748  0.414946  1
  In  In10  1  0.500000  0.698518  0.933422  1
  In  In11  1  0.500000  0.299264  0.065356  1
  In  In12  1  0.500000  0.806562  0.437483  1
  In  In13  1  0.500000  0.193277  0.562590  1
  In  In14  1  0.500000  0.592992  0.653782  1
  In  In15  1  0.500000  0.407577  0.347074  1
  In  In16  1  0.500000  0.917774  0.152650  1
  In  In17  1  0.500000  0.085141  0.846983  1
  Pd  Pd18  1  0.500000  0.516087  0.194554  1
  Pd  Pd19  1  0.500000  0.482116  0.806357  1
  Pd  Pd20  1  0.500000  0.970172  0.694767  1
  Pd  Pd21  1  0.500000  0.029674  0.305519  1
