# generated using pymatgen
data_Dy5Sc3As2(P5Ir8)2
_symmetry_space_group_name_H-M   'P 1'
_cell_length_a   12.95042600
_cell_length_b   12.93320812
_cell_length_c   3.97822200
_cell_angle_alpha   90.00000000
_cell_angle_beta   90.00000000
_cell_angle_gamma   120.04404857
_symmetry_Int_Tables_number   1
_chemical_formula_structural   Dy5Sc3As2(P5Ir8)2
_chemical_formula_sum   'Dy5 Sc3 As2 P10 Ir16'
_cell_volume   576.78907950
_cell_formula_units_Z   1
loop_
 _symmetry_equiv_pos_site_id
 _symmetry_equiv_pos_as_xyz
  1  'x, y, z'
loop_
 _atom_site_type_symbol
 _atom_site_label
 _atom_site_symmetry_multiplicity
 _atom_site_fract_x
 _atom_site_fract_y
 _atom_site_fract_z
 _atom_site_occupancy
  Dy  Dy0  1  0.333963  0.667464  0.500000  1
  Dy  Dy1  1  0.666500  0.332536  0.500000  1
  Dy  Dy2  1  0.000037  0.814457  0.000000  1
  Dy  Dy3  1  0.185580  0.185543  0.000000  1
  Dy  Dy4  1  0.810443  0.000000  0.000000  1
  Sc  Sc5  1  0.998388  0.440903  0.500000  1
  Sc  Sc6  1  0.557485  0.559097  0.500000  1
  Sc  Sc7  1  0.445953  0.000000  0.500000  1
  As  As8  1  0.000315  0.645051  0.500000  1
  As  As9  1  0.355264  0.354949  0.500000  1
  P  P10  1  0.645564  0.000000  0.500000  1
  P  P11  1  0.518041  0.689008  0.000000  1
  P  P12  1  0.314221  0.830713  0.000000  1
  P  P13  1  0.169765  0.482613  0.000000  1
  P  P14  1  0.483508  0.169287  0.000000  1
  P  P15  1  0.687151  0.517387  0.000000  1
  P  P16  1  0.829033  0.310992  0.000000  1
  P  P17  1  0.999125  0.176223  0.500000  1
  P  P18  1  0.822902  0.823777  0.500000  1
  P  P19  1  0.177401  0.000000  0.500000  1
  Ir  Ir20  1  0.510147  0.868437  0.000000  1
  Ir  Ir21  1  0.136715  0.642355  0.000000  1
  Ir  Ir22  1  0.357850  0.494972  0.000000  1
  Ir  Ir23  1  0.494361  0.357645  0.000000  1
  Ir  Ir24  1  0.862879  0.505028  0.000000  1
  Ir  Ir25  1  0.641711  0.131563  0.000000  1
  Ir  Ir26  1  0.997719  0.275346  0.000000  1
  Ir  Ir27  1  0.722373  0.724654  0.000000  1
  Ir  Ir28  1  0.276432  0.000000  0.000000  1
  Ir  Ir29  1  0.628312  0.808161  0.500000  1
  Ir  Ir30  1  0.201490  0.825583  0.500000  1
  Ir  Ir31  1  0.173692  0.374533  0.500000  1
  Ir  Ir32  1  0.375908  0.174417  0.500000  1
  Ir  Ir33  1  0.799159  0.625467  0.500000  1
  Ir  Ir34  1  0.820151  0.191839  0.500000  1
  Ir  Ir35  1  0.000460  0.000000  0.500000  1
