# generated using pymatgen
data_Sm2Ho2GeBr6
_symmetry_space_group_name_H-M   'P 1'
_cell_length_a   4.11615400
_cell_length_b   13.41295800
_cell_length_c   14.16845700
_cell_angle_alpha   90.00000000
_cell_angle_beta   90.00000000
_cell_angle_gamma   90.00000000
_symmetry_Int_Tables_number   1
_chemical_formula_structural   Sm2Ho2GeBr6
_chemical_formula_sum   'Sm4 Ho4 Ge2 Br12'
_cell_volume   782.23768753
_cell_formula_units_Z   2
loop_
 _symmetry_equiv_pos_site_id
 _symmetry_equiv_pos_as_xyz
  1  'x, y, z'
loop_
 _atom_site_type_symbol
 _atom_site_label
 _atom_site_symmetry_multiplicity
 _atom_site_fract_x
 _atom_site_fract_y
 _atom_site_fract_z
 _atom_site_occupancy
  Sm  Sm0  1  0.000000  0.120997  0.580671  1
  Sm  Sm1  1  0.000000  0.879003  0.419329  1
  Sm  Sm2  1  0.000000  0.620997  0.919329  1
  Sm  Sm3  1  0.000000  0.379003  0.080671  1
  Ho  Ho4  1  0.500000  0.117998  0.341190  1
  Ho  Ho5  1  0.500000  0.882002  0.658810  1
  Ho  Ho6  1  0.500000  0.617998  0.158810  1
  Ho  Ho7  1  0.500000  0.382002  0.841190  1
  Ge  Ge8  1  0.500000  0.000000  0.500000  1
  Ge  Ge9  1  0.500000  0.500000  0.000000  1
  Br  Br10  1  0.500000  0.240126  0.166617  1
  Br  Br11  1  0.500000  0.759874  0.833383  1
  Br  Br12  1  0.500000  0.740126  0.333383  1
  Br  Br13  1  0.500000  0.259874  0.666617  1
  Br  Br14  1  0.000000  0.253027  0.407275  1
  Br  Br15  1  0.000000  0.746973  0.592725  1
  Br  Br16  1  0.000000  0.753027  0.092725  1
  Br  Br17  1  0.000000  0.246973  0.907275  1
  Br  Br18  1  0.000000  0.006708  0.243532  1
  Br  Br19  1  0.000000  0.993292  0.756468  1
  Br  Br20  1  0.000000  0.506708  0.256468  1
  Br  Br21  1  0.000000  0.493292  0.743532  1
