# generated using pymatgen
data_TbTa8CdS16
_symmetry_space_group_name_H-M   'P 1'
_cell_length_a   6.69669100
_cell_length_b   6.69669079
_cell_length_c   13.96970000
_cell_angle_alpha   90.00000000
_cell_angle_beta   90.00000000
_cell_angle_gamma   120.00000596
_symmetry_Int_Tables_number   1
_chemical_formula_structural   TbTa8CdS16
_chemical_formula_sum   'Tb1 Ta8 Cd1 S16'
_cell_volume   542.54803154
_cell_formula_units_Z   1
loop_
 _symmetry_equiv_pos_site_id
 _symmetry_equiv_pos_as_xyz
  1  'x, y, z'
loop_
 _atom_site_type_symbol
 _atom_site_label
 _atom_site_symmetry_multiplicity
 _atom_site_fract_x
 _atom_site_fract_y
 _atom_site_fract_z
 _atom_site_occupancy
  Tb  Tb0  1  0.000000  0.000000  0.000000  1
  Ta  Ta1  1  0.505600  0.494400  0.751225  1
  Ta  Ta2  1  0.011200  0.505600  0.248775  1
  Ta  Ta3  1  0.494400  0.988800  0.248775  1
  Ta  Ta4  1  0.505600  0.011200  0.751225  1
  Ta  Ta5  1  0.988800  0.494400  0.751225  1
  Ta  Ta6  1  0.494400  0.505600  0.248775  1
  Ta  Ta7  1  0.000000  0.000000  0.754256  1
  Ta  Ta8  1  0.000000  0.000000  0.245744  1
  Cd  Cd9  1  0.000000  0.000000  0.500000  1
  S  S10  1  0.833609  0.166391  0.358613  1
  S  S11  1  0.833609  0.667219  0.358613  1
  S  S12  1  0.332781  0.166391  0.358613  1
  S  S13  1  0.660582  0.830291  0.863682  1
  S  S14  1  0.166391  0.332781  0.641387  1
  S  S15  1  0.169709  0.830291  0.863682  1
  S  S16  1  0.169709  0.339418  0.863682  1
  S  S17  1  0.830291  0.169709  0.136318  1
  S  S18  1  0.339418  0.169709  0.136318  1
  S  S19  1  0.667219  0.833609  0.641387  1
  S  S20  1  0.333333  0.666667  0.133401  1
  S  S21  1  0.666667  0.333333  0.637339  1
  S  S22  1  0.666667  0.333333  0.866599  1
  S  S23  1  0.333333  0.666667  0.362661  1
  S  S24  1  0.830291  0.660582  0.136318  1
  S  S25  1  0.166391  0.833609  0.641387  1
