# generated using pymatgen
data_Zr10Ga3HgBi4
_symmetry_space_group_name_H-M   'P 1'
_cell_length_a   8.75644497
_cell_length_b   8.76566801
_cell_length_c   5.94013900
_cell_angle_alpha   90.00000000
_cell_angle_beta   90.00000000
_cell_angle_gamma   119.79961043
_symmetry_Int_Tables_number   1
_chemical_formula_structural   Zr10Ga3HgBi4
_chemical_formula_sum   'Zr10 Ga3 Hg1 Bi4'
_cell_volume   395.65211933
_cell_formula_units_Z   1
loop_
 _symmetry_equiv_pos_site_id
 _symmetry_equiv_pos_as_xyz
  1  'x, y, z'
loop_
 _atom_site_type_symbol
 _atom_site_label
 _atom_site_symmetry_multiplicity
 _atom_site_fract_x
 _atom_site_fract_y
 _atom_site_fract_z
 _atom_site_occupancy
  Zr  Zr0  1  0.673629  0.333054  0.007592  1
  Zr  Zr1  1  0.325248  0.661245  0.006853  1
  Zr  Zr2  1  0.325248  0.661245  0.493147  1
  Zr  Zr3  1  0.673629  0.333054  0.492408  1
  Zr  Zr4  1  0.738660  0.737968  0.750000  1
  Zr  Zr5  1  0.257471  0.997768  0.750000  1
  Zr  Zr6  1  0.000447  0.259798  0.750000  1
  Zr  Zr7  1  0.260683  0.272238  0.250000  1
  Zr  Zr8  1  0.736986  0.020117  0.250000  1
  Zr  Zr9  1  0.008030  0.725114  0.250000  1
  Ga  Ga10  1  0.999870  0.997894  0.015086  1
  Ga  Ga11  1  0.999870  0.997894  0.484914  1
  Ga  Ga12  1  0.001871  0.388167  0.250000  1
  Hg  Hg13  1  0.383338  0.002725  0.250000  1
  Bi  Bi14  1  0.390858  0.387573  0.750000  1
  Bi  Bi15  1  0.604984  0.998174  0.750000  1
  Bi  Bi16  1  0.000209  0.605960  0.750000  1
  Bi  Bi17  1  0.618971  0.620012  0.250000  1
