# generated using pymatgen
data_Lu2Si7Ir12
_symmetry_space_group_name_H-M   'P 1'
_cell_length_a   9.74862400
_cell_length_b   9.74862360
_cell_length_c   3.86781300
_cell_angle_alpha   90.00000000
_cell_angle_beta   90.00000000
_cell_angle_gamma   120.00000813
_symmetry_Int_Tables_number   1
_chemical_formula_structural   Lu2Si7Ir12
_chemical_formula_sum   'Lu2 Si7 Ir12'
_cell_volume   318.33375161
_cell_formula_units_Z   1
loop_
 _symmetry_equiv_pos_site_id
 _symmetry_equiv_pos_as_xyz
  1  'x, y, z'
loop_
 _atom_site_type_symbol
 _atom_site_label
 _atom_site_symmetry_multiplicity
 _atom_site_fract_x
 _atom_site_fract_y
 _atom_site_fract_z
 _atom_site_occupancy
  Lu  Lu0  1  0.333333  0.666667  0.749806  1
  Lu  Lu1  1  0.666667  0.333333  0.250194  1
  Si  Si2  1  0.000000  0.000000  0.500000  1
  Si  Si3  1  0.289879  0.883649  0.248908  1
  Si  Si4  1  0.593770  0.710121  0.248908  1
  Si  Si5  1  0.116351  0.406230  0.248908  1
  Si  Si6  1  0.710121  0.116351  0.751092  1
  Si  Si7  1  0.406230  0.289879  0.751092  1
  Si  Si8  1  0.883649  0.593770  0.751092  1
  Ir  Ir9  1  0.261818  0.116595  0.252720  1
  Ir  Ir10  1  0.854778  0.738182  0.252720  1
  Ir  Ir11  1  0.883405  0.145222  0.252720  1
  Ir  Ir12  1  0.738182  0.883405  0.747280  1
  Ir  Ir13  1  0.145222  0.261818  0.747280  1
  Ir  Ir14  1  0.116595  0.854778  0.747280  1
  Ir  Ir15  1  0.063985  0.619116  0.249205  1
  Ir  Ir16  1  0.555132  0.936015  0.249205  1
  Ir  Ir17  1  0.380884  0.444868  0.249205  1
  Ir  Ir18  1  0.936015  0.380884  0.750795  1
  Ir  Ir19  1  0.444868  0.063985  0.750795  1
  Ir  Ir20  1  0.619116  0.555132  0.750795  1
