# generated using pymatgen
data_K2Si6MoO15
_symmetry_space_group_name_H-M   'P 1'
_cell_length_a   7.06655121
_cell_length_b   7.38625233
_cell_length_c   7.73492283
_cell_angle_alpha   99.32734934
_cell_angle_beta   106.46111628
_cell_angle_gamma   112.24260159
_symmetry_Int_Tables_number   1
_chemical_formula_structural   K2Si6MoO15
_chemical_formula_sum   'K2 Si6 Mo1 O15'
_cell_volume   341.47347744
_cell_formula_units_Z   1
loop_
 _symmetry_equiv_pos_site_id
 _symmetry_equiv_pos_as_xyz
  1  'x, y, z'
loop_
 _atom_site_type_symbol
 _atom_site_label
 _atom_site_symmetry_multiplicity
 _atom_site_fract_x
 _atom_site_fract_y
 _atom_site_fract_z
 _atom_site_occupancy
  K  K0  1  0.288709  0.715426  0.820923  1
  K  K1  1  0.711291  0.284574  0.179077  1
  Si  Si2  1  0.696460  0.814226  0.257207  1
  Si  Si3  1  0.303540  0.185774  0.742793  1
  Si  Si4  1  0.146919  0.833023  0.369922  1
  Si  Si5  1  0.853081  0.166977  0.630078  1
  Si  Si6  1  0.319108  0.502374  0.315468  1
  Si  Si7  1  0.680892  0.497626  0.684532  1
  Mo  Mo8  1  0.000000  0.000000  0.000000  1
  O  O9  1  0.453539  0.613500  0.188761  1
  O  O10  1  0.546461  0.386500  0.811239  1
  O  O11  1  0.210150  0.643767  0.393484  1
  O  O12  1  0.789850  0.356233  0.606516  1
  O  O13  1  0.878762  0.720694  0.807523  1
  O  O14  1  0.121238  0.279306  0.192477  1
  O  O15  1  0.884195  0.737278  0.344828  1
  O  O16  1  0.115805  0.262722  0.655172  1
  O  O17  1  0.722021  0.899107  0.082447  1
  O  O18  1  0.500000  0.500000  0.500000  1
  O  O19  1  0.294410  0.011297  0.574515  1
  O  O20  1  0.705590  0.988703  0.425485  1
  O  O21  1  0.819136  0.088364  0.806468  1
  O  O22  1  0.180864  0.911636  0.193532  1
  O  O23  1  0.277979  0.100893  0.917553  1
