# generated using pymatgen
data_Ni8Mo5W11C4
_symmetry_space_group_name_H-M   'P 1'
_cell_length_a   7.99925998
_cell_length_b   7.99925971
_cell_length_c   8.00129000
_cell_angle_alpha   59.99160367
_cell_angle_beta   59.99160478
_cell_angle_gamma   59.97011207
_symmetry_Int_Tables_number   1
_chemical_formula_structural   Ni8Mo5W11C4
_chemical_formula_sum   'Ni8 Mo5 W11 C4'
_cell_volume   361.90228798
_cell_formula_units_Z   1
loop_
 _symmetry_equiv_pos_site_id
 _symmetry_equiv_pos_as_xyz
  1  'x, y, z'
loop_
 _atom_site_type_symbol
 _atom_site_label
 _atom_site_symmetry_multiplicity
 _atom_site_fract_x
 _atom_site_fract_y
 _atom_site_fract_z
 _atom_site_occupancy
  Ni  Ni0  1  0.833293  0.833293  0.833501  1
  Ni  Ni1  1  0.833293  0.833293  0.499912  1
  Ni  Ni2  1  0.499777  0.833400  0.833411  1
  Ni  Ni3  1  0.833400  0.499777  0.833411  1
  Ni  Ni4  1  0.416648  0.416648  0.416400  1
  Ni  Ni5  1  0.416648  0.416648  0.750305  1
  Ni  Ni6  1  0.416617  0.749722  0.416831  1
  Ni  Ni7  1  0.749722  0.416617  0.416831  1
  Mo  Mo8  1  0.441251  0.058692  0.058546  1
  Mo  Mo9  1  0.058692  0.441251  0.441511  1
  Mo  Mo10  1  0.058692  0.441251  0.058546  1
  Mo  Mo11  1  0.058215  0.058215  0.441785  1
  Mo  Mo12  1  0.441251  0.058692  0.441511  1
  W  W13  1  0.441416  0.441416  0.058584  1
  W  W14  1  0.190197  0.810002  0.190428  1
  W  W15  1  0.810002  0.190197  0.809373  1
  W  W16  1  0.810002  0.190197  0.190428  1
  W  W17  1  0.190118  0.190118  0.809882  1
  W  W18  1  0.190197  0.810002  0.809373  1
  W  W19  1  0.810126  0.810126  0.189874  1
  W  W20  1  0.624909  0.624909  0.624998  1
  W  W21  1  0.624909  0.624909  0.125185  1
  W  W22  1  0.125092  0.624859  0.625025  1
  W  W23  1  0.624859  0.125092  0.625025  1
  C  C24  1  0.125026  0.125026  0.124904  1
  C  C25  1  0.125026  0.125026  0.625044  1
  C  C26  1  0.625276  0.125344  0.124690  1
  C  C27  1  0.125344  0.625276  0.124690  1
