# generated using pymatgen
data_Pr6Sc(ReC4)3
_symmetry_space_group_name_H-M   'P 1'
_cell_length_a   8.53350200
_cell_length_b   8.53350192
_cell_length_c   5.35215400
_cell_angle_alpha   90.00000000
_cell_angle_beta   90.00000000
_cell_angle_gamma   119.99999256
_symmetry_Int_Tables_number   1
_chemical_formula_structural   Pr6Sc(ReC4)3
_chemical_formula_sum   'Pr6 Sc1 Re3 C12'
_cell_volume   337.53114332
_cell_formula_units_Z   1
loop_
 _symmetry_equiv_pos_site_id
 _symmetry_equiv_pos_as_xyz
  1  'x, y, z'
loop_
 _atom_site_type_symbol
 _atom_site_label
 _atom_site_symmetry_multiplicity
 _atom_site_fract_x
 _atom_site_fract_y
 _atom_site_fract_z
 _atom_site_occupancy
  Pr  Pr0  1  0.613642  0.687462  0.751701  1
  Pr  Pr1  1  0.926179  0.613642  0.248299  1
  Pr  Pr2  1  0.687462  0.073821  0.248299  1
  Pr  Pr3  1  0.312538  0.926179  0.751701  1
  Pr  Pr4  1  0.073821  0.386358  0.751701  1
  Pr  Pr5  1  0.386358  0.312538  0.248299  1
  Sc  Sc6  1  0.000000  0.000000  0.000000  1
  Re  Re7  1  0.000000  0.000000  0.500000  1
  Re  Re8  1  0.666667  0.333333  0.749628  1
  Re  Re9  1  0.333333  0.666667  0.250372  1
  C  C10  1  0.956183  0.768097  0.734430  1
  C  C11  1  0.188085  0.956183  0.265570  1
  C  C12  1  0.768097  0.811915  0.265570  1
  C  C13  1  0.231903  0.188085  0.734430  1
  C  C14  1  0.811915  0.043817  0.734430  1
  C  C15  1  0.043817  0.231903  0.265570  1
  C  C16  1  0.861524  0.583866  0.740139  1
  C  C17  1  0.277657  0.861524  0.259861  1
  C  C18  1  0.583866  0.722343  0.259861  1
  C  C19  1  0.416134  0.277657  0.740139  1
  C  C20  1  0.138476  0.416134  0.259861  1
  C  C21  1  0.722343  0.138476  0.740139  1
