# generated using pymatgen
data_LaHo5Ta2O14
_symmetry_space_group_name_H-M   'P 1'
_cell_length_a   6.49699861
_cell_length_b   6.49699831
_cell_length_c   7.52901138
_cell_angle_alpha   89.86062598
_cell_angle_beta   90.13936945
_cell_angle_gamma   108.60625364
_symmetry_Int_Tables_number   1
_chemical_formula_structural   LaHo5Ta2O14
_chemical_formula_sum   'La1 Ho5 Ta2 O14'
_cell_volume   301.19503409
_cell_formula_units_Z   1
loop_
 _symmetry_equiv_pos_site_id
 _symmetry_equiv_pos_as_xyz
  1  'x, y, z'
loop_
 _atom_site_type_symbol
 _atom_site_label
 _atom_site_symmetry_multiplicity
 _atom_site_fract_x
 _atom_site_fract_y
 _atom_site_fract_z
 _atom_site_occupancy
  La  La0  1  0.509992  0.509992  0.500000  1
  Ho  Ho1  1  0.459316  0.459316  0.000000  1
  Ho  Ho2  1  0.999931  0.534686  0.239511  1
  Ho  Ho3  1  0.998212  0.466182  0.746646  1
  Ho  Ho4  1  0.534686  0.999931  0.760489  1
  Ho  Ho5  1  0.466182  0.998212  0.253354  1
  Ta  Ta6  1  0.000760  0.000760  0.500000  1
  Ta  Ta7  1  0.997174  0.997174  0.000000  1
  O  O8  1  0.932954  0.067641  0.749657  1
  O  O9  1  0.067641  0.932954  0.250343  1
  O  O10  1  0.357655  0.642676  0.237571  1
  O  O11  1  0.642676  0.357655  0.762429  1
  O  O12  1  0.366300  0.632807  0.762373  1
  O  O13  1  0.632807  0.366300  0.237627  1
  O  O14  1  0.327035  0.081267  0.974321  1
  O  O15  1  0.676134  0.928870  0.472292  1
  O  O16  1  0.314653  0.060575  0.541909  1
  O  O17  1  0.692740  0.952442  0.042838  1
  O  O18  1  0.060575  0.314653  0.458091  1
  O  O19  1  0.952442  0.692740  0.957162  1
  O  O20  1  0.928870  0.676134  0.527708  1
  O  O21  1  0.081267  0.327035  0.025679  1
