# generated using pymatgen
data_Tb18YThSn16
_symmetry_space_group_name_H-M   'P 1'
_cell_length_a   8.09860467
_cell_length_b   8.22361815
_cell_length_c   15.56432444
_cell_angle_alpha   90.07623575
_cell_angle_beta   89.79968463
_cell_angle_gamma   89.89209575
_symmetry_Int_Tables_number   1
_chemical_formula_structural   Tb18YThSn16
_chemical_formula_sum   'Tb18 Y1 Th1 Sn16'
_cell_volume   1036.57229844
_cell_formula_units_Z   1
loop_
 _symmetry_equiv_pos_site_id
 _symmetry_equiv_pos_as_xyz
  1  'x, y, z'
loop_
 _atom_site_type_symbol
 _atom_site_label
 _atom_site_symmetry_multiplicity
 _atom_site_fract_x
 _atom_site_fract_y
 _atom_site_fract_z
 _atom_site_occupancy
  Tb  Tb0  1  0.367044  0.835814  0.877809  1
  Tb  Tb1  1  0.868198  0.664072  0.621424  1
  Tb  Tb2  1  0.631613  0.163040  0.377948  1
  Tb  Tb3  1  0.133032  0.337077  0.122582  1
  Tb  Tb4  1  0.633073  0.163045  0.122409  1
  Tb  Tb5  1  0.132108  0.337259  0.378107  1
  Tb  Tb6  1  0.368220  0.836695  0.621950  1
  Tb  Tb7  1  0.867171  0.662854  0.877977  1
  Tb  Tb8  1  0.522748  0.322075  0.901961  1
  Tb  Tb9  1  0.022818  0.179007  0.598892  1
  Tb  Tb10  1  0.478471  0.678551  0.401936  1
  Tb  Tb11  1  0.979312  0.821302  0.098456  1
  Tb  Tb12  1  0.479734  0.678432  0.098029  1
  Tb  Tb13  1  0.978713  0.821065  0.401925  1
  Tb  Tb14  1  0.521393  0.322647  0.597203  1
  Tb  Tb15  1  0.198150  0.500874  0.749349  1
  Tb  Tb16  1  0.697976  0.997462  0.748861  1
  Tb  Tb17  1  0.801627  0.498018  0.250573  1
  Y  Y18  1  0.301716  0.001858  0.250043  1
  Th  Th19  1  0.017789  0.180254  0.903124  1
  Sn  Sn20  1  0.293333  0.035053  0.042374  1
  Sn  Sn21  1  0.791171  0.463989  0.458092  1
  Sn  Sn22  1  0.708962  0.965895  0.541885  1
  Sn  Sn23  1  0.209354  0.535370  0.957961  1
  Sn  Sn24  1  0.704584  0.961115  0.958917  1
  Sn  Sn25  1  0.208394  0.536579  0.541678  1
  Sn  Sn26  1  0.291414  0.036138  0.458301  1
  Sn  Sn27  1  0.792877  0.462115  0.041194  1
  Sn  Sn28  1  0.564758  0.619912  0.749791  1
  Sn  Sn29  1  0.065159  0.879524  0.751000  1
  Sn  Sn30  1  0.435066  0.380868  0.249942  1
  Sn  Sn31  1  0.934968  0.119197  0.250272  1
  Sn  Sn32  1  0.331279  0.147282  0.749878  1
  Sn  Sn33  1  0.826869  0.355717  0.748233  1
  Sn  Sn34  1  0.670642  0.852734  0.249911  1
  Sn  Sn35  1  0.170266  0.647114  0.250008  1
