# generated using pymatgen
data_Y3InHg2Pd3
_symmetry_space_group_name_H-M   'P 1'
_cell_length_a   7.82693543
_cell_length_b   7.76167585
_cell_length_c   3.76481500
_cell_angle_alpha   90.00000000
_cell_angle_beta   90.00000000
_cell_angle_gamma   119.72456348
_symmetry_Int_Tables_number   1
_chemical_formula_structural   Y3InHg2Pd3
_chemical_formula_sum   'Y3 In1 Hg2 Pd3'
_cell_volume   198.61873984
_cell_formula_units_Z   1
loop_
 _symmetry_equiv_pos_site_id
 _symmetry_equiv_pos_as_xyz
  1  'x, y, z'
loop_
 _atom_site_type_symbol
 _atom_site_label
 _atom_site_symmetry_multiplicity
 _atom_site_fract_x
 _atom_site_fract_y
 _atom_site_fract_z
 _atom_site_occupancy
  Y  Y0  1  0.406647  0.401400  0.500000  1
  Y  Y1  1  0.593353  0.994753  0.500000  1
  Y  Y2  1  0.000000  0.609690  0.500000  1
  In  In3  1  0.000000  0.263265  0.000000  1
  Hg  Hg4  1  0.728712  0.731341  0.000000  1
  Hg  Hg5  1  0.271288  0.002629  0.000000  1
  Pd  Pd6  1  0.676152  0.332083  0.000000  1
  Pd  Pd7  1  0.323848  0.655932  0.000000  1
  Pd  Pd8  1  0.000000  0.008906  0.500000  1
