# generated using pymatgen
data_Lu20Cd6IrRu
_symmetry_space_group_name_H-M   'P 1'
_cell_length_a   9.39938200
_cell_length_b   9.39938149
_cell_length_c   9.64612800
_cell_angle_alpha   90.00000000
_cell_angle_beta   90.00000000
_cell_angle_gamma   120.00000180
_symmetry_Int_Tables_number   1
_chemical_formula_structural   Lu20Cd6IrRu
_chemical_formula_sum   'Lu20 Cd6 Ir1 Ru1'
_cell_volume   738.04394378
_cell_formula_units_Z   1
loop_
 _symmetry_equiv_pos_site_id
 _symmetry_equiv_pos_as_xyz
  1  'x, y, z'
loop_
 _atom_site_type_symbol
 _atom_site_label
 _atom_site_symmetry_multiplicity
 _atom_site_fract_x
 _atom_site_fract_y
 _atom_site_fract_z
 _atom_site_occupancy
  Lu  Lu0  1  0.000000  0.000000  0.499739  1
  Lu  Lu1  1  0.000000  0.000000  0.000261  1
  Lu  Lu2  1  0.209296  0.790704  0.441524  1
  Lu  Lu3  1  0.209296  0.418592  0.441524  1
  Lu  Lu4  1  0.581408  0.790704  0.441524  1
  Lu  Lu5  1  0.790149  0.209851  0.558778  1
  Lu  Lu6  1  0.790149  0.580295  0.558778  1
  Lu  Lu7  1  0.419705  0.209851  0.558778  1
  Lu  Lu8  1  0.790149  0.209851  0.941222  1
  Lu  Lu9  1  0.790149  0.580295  0.941222  1
  Lu  Lu10  1  0.419705  0.209851  0.941222  1
  Lu  Lu11  1  0.209296  0.790704  0.058476  1
  Lu  Lu12  1  0.209296  0.418592  0.058476  1
  Lu  Lu13  1  0.581408  0.790704  0.058476  1
  Lu  Lu14  1  0.540660  0.459340  0.250000  1
  Lu  Lu15  1  0.540660  0.081319  0.250000  1
  Lu  Lu16  1  0.918681  0.459340  0.250000  1
  Lu  Lu17  1  0.459596  0.540404  0.750000  1
  Lu  Lu18  1  0.459596  0.919192  0.750000  1
  Lu  Lu19  1  0.080808  0.540404  0.750000  1
  Cd  Cd20  1  0.886119  0.113881  0.250000  1
  Cd  Cd21  1  0.886119  0.772238  0.250000  1
  Cd  Cd22  1  0.227762  0.113881  0.250000  1
  Cd  Cd23  1  0.113881  0.886119  0.750000  1
  Cd  Cd24  1  0.113881  0.227761  0.750000  1
  Cd  Cd25  1  0.772239  0.886119  0.750000  1
  Ir  Ir26  1  0.333333  0.666667  0.250000  1
  Ru  Ru27  1  0.666667  0.333333  0.750000  1
