# generated using pymatgen
data_Ca2Ho(Zn3Ni2)3
_symmetry_space_group_name_H-M   'P 1'
_cell_length_a   8.89573700
_cell_length_b   8.89573519
_cell_length_c   4.14234500
_cell_angle_alpha   90.00000000
_cell_angle_beta   90.00000000
_cell_angle_gamma   119.99999559
_symmetry_Int_Tables_number   1
_chemical_formula_structural   Ca2Ho(Zn3Ni2)3
_chemical_formula_sum   'Ca2 Ho1 Zn9 Ni6'
_cell_volume   283.88385791
_cell_formula_units_Z   1
loop_
 _symmetry_equiv_pos_site_id
 _symmetry_equiv_pos_as_xyz
  1  'x, y, z'
loop_
 _atom_site_type_symbol
 _atom_site_label
 _atom_site_symmetry_multiplicity
 _atom_site_fract_x
 _atom_site_fract_y
 _atom_site_fract_z
 _atom_site_occupancy
  Ca  Ca0  1  0.333333  0.666667  0.000000  1
  Ca  Ca1  1  0.666667  0.333333  0.000000  1
  Ho  Ho2  1  0.000000  0.000000  0.500000  1
  Zn  Zn3  1  0.500000  0.000000  0.500000  1
  Zn  Zn4  1  0.500000  0.500000  0.500000  1
  Zn  Zn5  1  0.000000  0.500000  0.500000  1
  Zn  Zn6  1  0.291526  0.000000  0.000000  1
  Zn  Zn7  1  0.291526  0.291526  0.000000  1
  Zn  Zn8  1  0.000000  0.708474  0.000000  1
  Zn  Zn9  1  0.000000  0.291526  0.000000  1
  Zn  Zn10  1  0.708474  0.708474  0.000000  1
  Zn  Zn11  1  0.708474  0.000000  0.000000  1
  Ni  Ni12  1  0.180276  0.360552  0.500000  1
  Ni  Ni13  1  0.819724  0.180276  0.500000  1
  Ni  Ni14  1  0.360552  0.180276  0.500000  1
  Ni  Ni15  1  0.639448  0.819724  0.500000  1
  Ni  Ni16  1  0.180276  0.819724  0.500000  1
  Ni  Ni17  1  0.819724  0.639448  0.500000  1
