# generated using pymatgen
data_Ti5SnIr7Rh3
_symmetry_space_group_name_H-M   'P 1'
_cell_length_a   4.03141600
_cell_length_b   5.48715542
_cell_length_c   10.91568383
_cell_angle_alpha   90.17575310
_cell_angle_beta   90.00000000
_cell_angle_gamma   90.00000000
_symmetry_Int_Tables_number   1
_chemical_formula_structural   Ti5SnIr7Rh3
_chemical_formula_sum   'Ti5 Sn1 Ir7 Rh3'
_cell_volume   241.46477297
_cell_formula_units_Z   1
loop_
 _symmetry_equiv_pos_site_id
 _symmetry_equiv_pos_as_xyz
  1  'x, y, z'
loop_
 _atom_site_type_symbol
 _atom_site_label
 _atom_site_symmetry_multiplicity
 _atom_site_fract_x
 _atom_site_fract_y
 _atom_site_fract_z
 _atom_site_occupancy
  Ti  Ti0  1  0.000000  0.500000  0.500000  1
  Ti  Ti1  1  0.500000  0.314730  0.145514  1
  Ti  Ti2  1  0.500000  0.685270  0.854486  1
  Ti  Ti3  1  0.500000  0.816411  0.360304  1
  Ti  Ti4  1  0.500000  0.183589  0.639696  1
  Sn  Sn5  1  0.000000  0.000000  0.000000  1
  Ir  Ir6  1  0.000000  0.000000  0.500000  1
  Ir  Ir7  1  0.000000  0.052235  0.253117  1
  Ir  Ir8  1  0.000000  0.947765  0.746883  1
  Ir  Ir9  1  0.000000  0.552068  0.255139  1
  Ir  Ir10  1  0.000000  0.447932  0.744861  1
  Ir  Ir11  1  0.500000  0.300537  0.391469  1
  Ir  Ir12  1  0.500000  0.699463  0.608531  1
  Rh  Rh13  1  0.000000  0.500000  0.000000  1
  Rh  Rh14  1  0.500000  0.785301  0.123115  1
  Rh  Rh15  1  0.500000  0.214699  0.876885  1
