# generated using pymatgen
data_Ce2Y2TlPd4Pb
_symmetry_space_group_name_H-M   'P 1'
_cell_length_a   7.95435272
_cell_length_b   7.88998172
_cell_length_c   3.72105700
_cell_angle_alpha   90.00000000
_cell_angle_beta   90.00000000
_cell_angle_gamma   89.92455154
_symmetry_Int_Tables_number   1
_chemical_formula_structural   Ce2Y2TlPd4Pb
_chemical_formula_sum   'Ce2 Y2 Tl1 Pd4 Pb1'
_cell_volume   233.53220926
_cell_formula_units_Z   1
loop_
 _symmetry_equiv_pos_site_id
 _symmetry_equiv_pos_as_xyz
  1  'x, y, z'
loop_
 _atom_site_type_symbol
 _atom_site_label
 _atom_site_symmetry_multiplicity
 _atom_site_fract_x
 _atom_site_fract_y
 _atom_site_fract_z
 _atom_site_occupancy
  Ce  Ce0  1  0.675144  0.170261  0.500000  1
  Ce  Ce1  1  0.172863  0.327069  0.500000  1
  Y  Y2  1  0.828870  0.675620  0.500000  1
  Y  Y3  1  0.325049  0.828046  0.500000  1
  Tl  Tl4  1  0.999965  0.994154  0.000000  1
  Pd  Pd5  1  0.875076  0.368710  0.000000  1
  Pd  Pd6  1  0.372783  0.128836  0.000000  1
  Pd  Pd7  1  0.624667  0.879768  0.000000  1
  Pd  Pd8  1  0.124057  0.621087  0.000000  1
  Pb  Pb9  1  0.501527  0.506448  0.000000  1
