# generated using pymatgen
data_TbHf7Ta6(Ti3Si8)2
_symmetry_space_group_name_H-M   'P 1'
_cell_length_a   6.84346005
_cell_length_b   6.85059206
_cell_length_c   12.61876124
_cell_angle_alpha   89.94530986
_cell_angle_beta   89.99730858
_cell_angle_gamma   89.95281244
_symmetry_Int_Tables_number   1
_chemical_formula_structural   TbHf7Ta6(Ti3Si8)2
_chemical_formula_sum   'Tb1 Hf7 Ta6 Ti6 Si16'
_cell_volume   591.58917735
_cell_formula_units_Z   1
loop_
 _symmetry_equiv_pos_site_id
 _symmetry_equiv_pos_as_xyz
  1  'x, y, z'
loop_
 _atom_site_type_symbol
 _atom_site_label
 _atom_site_symmetry_multiplicity
 _atom_site_fract_x
 _atom_site_fract_y
 _atom_site_fract_z
 _atom_site_occupancy
  Tb  Tb0  1  0.995665  0.660722  0.030815  1
  Hf  Hf1  1  0.342552  0.998546  0.470108  1
  Hf  Hf2  1  0.500394  0.843845  0.718353  1
  Hf  Hf3  1  0.498001  0.157806  0.221852  1
  Hf  Hf4  1  0.841556  0.501597  0.282050  1
  Hf  Hf5  1  0.159046  0.498325  0.779812  1
  Hf  Hf6  1  0.653247  0.001762  0.968097  1
  Hf  Hf7  1  0.998910  0.343130  0.530360  1
  Ta  Ta8  1  0.331598  0.327005  0.999369  1
  Ta  Ta9  1  0.171586  0.831076  0.251923  1
  Ta  Ta10  1  0.829511  0.170474  0.747911  1
  Ta  Ta11  1  0.670943  0.670462  0.499985  1
  Ta  Ta12  1  0.155674  0.003258  0.870535  1
  Ta  Ta13  1  0.496935  0.651727  0.124692  1
  Ti  Ti14  1  0.504287  0.347587  0.622273  1
  Ti  Ti15  1  0.652970  0.491797  0.874643  1
  Ti  Ti16  1  0.348417  0.504095  0.378534  1
  Ti  Ti17  1  0.847609  0.996819  0.374787  1
  Ti  Ti18  1  0.006022  0.152582  0.128511  1
  Ti  Ti19  1  0.995412  0.848033  0.625904  1
  Si  Si20  1  0.207669  0.135788  0.673696  1
  Si  Si21  1  0.370949  0.704838  0.924279  1
  Si  Si22  1  0.634663  0.293014  0.426380  1
  Si  Si23  1  0.704801  0.356689  0.073139  1
  Si  Si24  1  0.293388  0.634919  0.573836  1
  Si  Si25  1  0.791787  0.872035  0.181713  1
  Si  Si26  1  0.135174  0.206441  0.325216  1
  Si  Si27  1  0.859791  0.794345  0.818960  1
  Si  Si28  1  0.297993  0.957869  0.064798  1
  Si  Si29  1  0.544770  0.797905  0.316342  1
  Si  Si30  1  0.456327  0.206541  0.810428  1
  Si  Si31  1  0.796412  0.545254  0.685369  1
  Si  Si32  1  0.203390  0.450740  0.189734  1
  Si  Si33  1  0.703717  0.045524  0.562656  1
  Si  Si34  1  0.953084  0.292990  0.935812  1
  Si  Si35  1  0.045749  0.704464  0.437132  1
