# generated using pymatgen
data_K7Ce2(P2Se7)3
_symmetry_space_group_name_H-M   'P 1'
_cell_length_a   11.53330047
_cell_length_b   12.34944318
_cell_length_c   16.12956200
_cell_angle_alpha   86.77836666
_cell_angle_beta   75.66671922
_cell_angle_gamma   86.86872083
_symmetry_Int_Tables_number   1
_chemical_formula_structural   K7Ce2(P2Se7)3
_chemical_formula_sum   'K14 Ce4 P12 Se42'
_cell_volume   2220.33320958
_cell_formula_units_Z   2
loop_
 _symmetry_equiv_pos_site_id
 _symmetry_equiv_pos_as_xyz
  1  'x, y, z'
loop_
 _atom_site_type_symbol
 _atom_site_label
 _atom_site_symmetry_multiplicity
 _atom_site_fract_x
 _atom_site_fract_y
 _atom_site_fract_z
 _atom_site_occupancy
  K  K0  1  0.525254  0.994800  0.179083  1
  K  K1  1  0.416444  0.840952  0.589964  1
  K  K2  1  0.070501  0.166269  0.893572  1
  K  K3  1  0.642285  0.284979  0.993822  1
  K  K4  1  0.960740  0.978960  0.657926  1
  K  K5  1  0.276575  0.508705  0.749015  1
  K  K6  1  0.583556  0.159048  0.410036  1
  K  K7  1  0.723425  0.491295  0.250985  1
  K  K8  1  0.712856  0.299565  0.671875  1
  K  K9  1  0.357715  0.715021  0.006178  1
  K  K10  1  0.929499  0.833731  0.106428  1
  K  K11  1  0.039260  0.021040  0.342074  1
  K  K12  1  0.474746  0.005200  0.820917  1
  K  K13  1  0.287144  0.700435  0.328125  1
  Ce  Ce14  1  0.199505  0.364488  0.490087  1
  Ce  Ce15  1  0.145013  0.315362  0.147814  1
  Ce  Ce16  1  0.854987  0.684638  0.852186  1
  Ce  Ce17  1  0.800495  0.635512  0.509913  1
  P  P18  1  0.594109  0.657001  0.751648  1
  P  P19  1  0.228747  0.021097  0.083186  1
  P  P20  1  0.428039  0.217746  0.649212  1
  P  P21  1  0.918249  0.462926  0.990628  1
  P  P22  1  0.405891  0.342999  0.248352  1
  P  P23  1  0.078027  0.642587  0.593940  1
  P  P24  1  0.745958  0.852161  0.358452  1
  P  P25  1  0.921973  0.357413  0.406060  1
  P  P26  1  0.081751  0.537074  0.009372  1
  P  P27  1  0.571961  0.782254  0.350788  1
  P  P28  1  0.254042  0.147839  0.641548  1
  P  P29  1  0.771253  0.978903  0.916814  1
  Se  Se30  1  0.961834  0.499609  0.614311  1
  Se  Se31  1  0.735788  0.414287  0.464429  1
  Se  Se32  1  0.437634  0.350854  0.547587  1
  Se  Se33  1  0.267419  0.125266  0.503544  1
  Se  Se34  1  0.913889  0.285031  0.285009  1
  Se  Se35  1  0.010620  0.766655  0.509148  1
  Se  Se36  1  0.578420  0.253633  0.213402  1
  Se  Se37  1  0.594322  0.731433  0.220019  1
  Se  Se38  1  0.264212  0.585713  0.535571  1
  Se  Se39  1  0.429370  0.907786  0.388591  1
  Se  Se40  1  0.268565  0.894275  0.175320  1
  Se  Se41  1  0.406867  0.455907  0.351600  1
  Se  Se42  1  0.370405  0.427447  0.130091  1
  Se  Se43  1  0.732581  0.874734  0.496456  1
  Se  Se44  1  0.050259  0.099750  0.144121  1
  Se  Se45  1  0.421580  0.746367  0.786598  1
  Se  Se46  1  0.653980  0.834999  0.933226  1
  Se  Se47  1  0.086111  0.714969  0.714991  1
  Se  Se48  1  0.085422  0.692417  0.935079  1
  Se  Se49  1  0.122998  0.287918  0.674274  1
  Se  Se50  1  0.779840  0.048287  0.036216  1
  Se  Se51  1  0.771258  0.586549  0.031305  1
  Se  Se52  1  0.405678  0.268567  0.779981  1
  Se  Se53  1  0.949741  0.900250  0.855879  1
  Se  Se54  1  0.782237  0.996245  0.275354  1
  Se  Se55  1  0.629595  0.572553  0.869909  1
  Se  Se56  1  0.346020  0.165001  0.066774  1
  Se  Se57  1  0.228742  0.413451  0.968695  1
  Se  Se58  1  0.562366  0.649146  0.452413  1
  Se  Se59  1  0.760077  0.750588  0.692246  1
  Se  Se60  1  0.217763  0.003755  0.724646  1
  Se  Se61  1  0.038166  0.500391  0.385689  1
  Se  Se62  1  0.239923  0.249412  0.307754  1
  Se  Se63  1  0.949399  0.447901  0.851009  1
  Se  Se64  1  0.914578  0.307583  0.064921  1
  Se  Se65  1  0.570631  0.092214  0.611409  1
  Se  Se66  1  0.220160  0.951713  0.963784  1
  Se  Se67  1  0.731435  0.105725  0.824680  1
  Se  Se68  1  0.050601  0.552099  0.148991  1
  Se  Se69  1  0.593133  0.544093  0.648400  1
  Se  Se70  1  0.989380  0.233345  0.490852  1
  Se  Se71  1  0.877002  0.712082  0.325726  1
