# generated using pymatgen
data_TbNiP3Ir4
_symmetry_space_group_name_H-M   'P 1'
_cell_length_a   3.96281800
_cell_length_b   10.65735300
_cell_length_c   12.45014100
_cell_angle_alpha   90.00000000
_cell_angle_beta   90.00000000
_cell_angle_gamma   90.00000000
_symmetry_Int_Tables_number   1
_chemical_formula_structural   TbNiP3Ir4
_chemical_formula_sum   'Tb4 Ni4 P12 Ir16'
_cell_volume   525.80867612
_cell_formula_units_Z   4
loop_
 _symmetry_equiv_pos_site_id
 _symmetry_equiv_pos_as_xyz
  1  'x, y, z'
loop_
 _atom_site_type_symbol
 _atom_site_label
 _atom_site_symmetry_multiplicity
 _atom_site_fract_x
 _atom_site_fract_y
 _atom_site_fract_z
 _atom_site_occupancy
  Tb  Tb0  1  0.250000  0.588241  0.710376  1
  Tb  Tb1  1  0.250000  0.911759  0.210376  1
  Tb  Tb2  1  0.750000  0.411759  0.289624  1
  Tb  Tb3  1  0.750000  0.088241  0.789624  1
  Ni  Ni4  1  0.250000  0.463121  0.935642  1
  Ni  Ni5  1  0.250000  0.036879  0.435642  1
  Ni  Ni6  1  0.750000  0.536879  0.064358  1
  Ni  Ni7  1  0.750000  0.963121  0.564358  1
  P  P8  1  0.250000  0.419637  0.107000  1
  P  P9  1  0.250000  0.080363  0.607000  1
  P  P10  1  0.750000  0.580363  0.893000  1
  P  P11  1  0.750000  0.919637  0.393000  1
  P  P12  1  0.250000  0.271476  0.870737  1
  P  P13  1  0.250000  0.228524  0.370737  1
  P  P14  1  0.750000  0.728524  0.129263  1
  P  P15  1  0.750000  0.771476  0.629263  1
  P  P16  1  0.250000  0.592610  0.382431  1
  P  P17  1  0.250000  0.907390  0.882431  1
  P  P18  1  0.750000  0.407390  0.617569  1
  P  P19  1  0.750000  0.092610  0.117569  1
  Ir  Ir20  1  0.250000  0.718160  0.972002  1
  Ir  Ir21  1  0.250000  0.781840  0.472002  1
  Ir  Ir22  1  0.750000  0.281840  0.027998  1
  Ir  Ir23  1  0.750000  0.218160  0.527998  1
  Ir  Ir24  1  0.250000  0.406036  0.477781  1
  Ir  Ir25  1  0.250000  0.093964  0.977781  1
  Ir  Ir26  1  0.750000  0.593964  0.522219  1
  Ir  Ir27  1  0.750000  0.906036  0.022219  1
  Ir  Ir28  1  0.250000  0.226116  0.181527  1
  Ir  Ir29  1  0.250000  0.273884  0.681527  1
  Ir  Ir30  1  0.750000  0.773884  0.818473  1
  Ir  Ir31  1  0.750000  0.726116  0.318473  1
  Ir  Ir32  1  0.250000  0.887555  0.695146  1
  Ir  Ir33  1  0.250000  0.612445  0.195146  1
  Ir  Ir34  1  0.750000  0.112445  0.304854  1
  Ir  Ir35  1  0.750000  0.387555  0.804854  1
