# generated using pymatgen
data_Ti3Nb3Re2(Si3Ru2)2
_symmetry_space_group_name_H-M   'P 1'
_cell_length_a   7.47567335
_cell_length_b   7.46654513
_cell_length_c   7.47567319
_cell_angle_alpha   127.21018439
_cell_angle_beta   124.65136545
_cell_angle_gamma   80.04965283
_symmetry_Int_Tables_number   1
_chemical_formula_structural   Ti3Nb3Re2(Si3Ru2)2
_chemical_formula_sum   'Ti3 Nb3 Re2 Si6 Ru4'
_cell_volume   263.89831454
_cell_formula_units_Z   1
loop_
 _symmetry_equiv_pos_site_id
 _symmetry_equiv_pos_as_xyz
  1  'x, y, z'
loop_
 _atom_site_type_symbol
 _atom_site_label
 _atom_site_symmetry_multiplicity
 _atom_site_fract_x
 _atom_site_fract_y
 _atom_site_fract_z
 _atom_site_occupancy
  Ti  Ti0  1  0.440982  0.477729  0.536746  1
  Ti  Ti1  1  0.754908  0.921821  0.666914  1
  Ti  Ti2  1  0.557946  0.098042  0.040096  1
  Nb  Nb3  1  0.244890  0.911469  0.166578  1
  Nb  Nb4  1  0.962678  0.494685  0.032005  1
  Nb  Nb5  1  0.037539  0.067960  0.530421  1
  Re  Re6  1  0.506394  0.243667  0.750792  1
  Re  Re7  1  0.992875  0.243667  0.237273  1
  Si  Si8  1  0.778476  0.550954  0.272478  1
  Si  Si9  1  0.177274  0.159938  0.997336  1
  Si  Si10  1  0.662602  0.159938  0.482663  1
  Si  Si11  1  0.342562  0.820406  0.502480  1
  Si  Si12  1  0.222414  0.485972  0.763558  1
  Si  Si13  1  0.817927  0.820406  0.977844  1
  Ru  Ru14  1  0.836370  0.494459  0.585954  1
  Ru  Ru15  1  0.591152  0.748319  0.083811  1
  Ru  Ru16  1  0.408503  0.494459  0.158088  1
  Ru  Ru17  1  0.164508  0.748319  0.657168  1
