# generated using pymatgen
data_Cs4SbIr7S16
_symmetry_space_group_name_H-M   'P 1'
_cell_length_a   6.30628224
_cell_length_b   7.29654319
_cell_length_c   16.02582391
_cell_angle_alpha   89.91790052
_cell_angle_beta   90.15703278
_cell_angle_gamma   89.96807484
_symmetry_Int_Tables_number   1
_chemical_formula_structural   Cs4SbIr7S16
_chemical_formula_sum   'Cs4 Sb1 Ir7 S16'
_cell_volume   737.40959208
_cell_formula_units_Z   1
loop_
 _symmetry_equiv_pos_site_id
 _symmetry_equiv_pos_as_xyz
  1  'x, y, z'
loop_
 _atom_site_type_symbol
 _atom_site_label
 _atom_site_symmetry_multiplicity
 _atom_site_fract_x
 _atom_site_fract_y
 _atom_site_fract_z
 _atom_site_occupancy
  Cs  Cs0  1  0.352573  0.997139  0.996611  1
  Cs  Cs1  1  0.647427  0.502861  0.503389  1
  Cs  Cs2  1  0.030011  0.997544  0.503284  1
  Cs  Cs3  1  0.969989  0.502456  0.996716  1
  Sb  Sb4  1  0.500000  0.250000  0.250000  1
  Ir  Ir5  1  0.001370  0.998946  0.250409  1
  Ir  Ir6  1  0.001654  0.000059  0.750214  1
  Ir  Ir7  1  0.998630  0.501054  0.249591  1
  Ir  Ir8  1  0.998346  0.499941  0.749786  1
  Ir  Ir9  1  0.500000  0.750000  0.750000  1
  Ir  Ir10  1  0.500000  0.750000  0.250000  1
  Ir  Ir11  1  0.500000  0.250000  0.750000  1
  S  S12  1  0.856211  0.250601  0.328765  1
  S  S13  1  0.834459  0.750774  0.677478  1
  S  S14  1  0.165075  0.750201  0.175919  1
  S  S15  1  0.165501  0.250338  0.822669  1
  S  S16  1  0.143789  0.249399  0.171235  1
  S  S17  1  0.165541  0.749226  0.822522  1
  S  S18  1  0.834925  0.749799  0.324081  1
  S  S19  1  0.834499  0.249662  0.677331  1
  S  S20  1  0.680700  0.982598  0.172050  1
  S  S21  1  0.668466  0.999755  0.821442  1
  S  S22  1  0.319300  0.517402  0.327950  1
  S  S23  1  0.331534  0.500245  0.678558  1
  S  S24  1  0.325841  0.982459  0.327448  1
  S  S25  1  0.336541  0.000253  0.678648  1
  S  S26  1  0.674159  0.517541  0.172552  1
  S  S27  1  0.663459  0.499747  0.821352  1
