# generated using pymatgen
data_CaDy6Co6Sn23
_symmetry_space_group_name_H-M   'P 1'
_cell_length_a   9.73783800
_cell_length_b   9.73783879
_cell_length_c   9.96234700
_cell_angle_alpha   90.00000000
_cell_angle_beta   90.00000000
_cell_angle_gamma   119.99999731
_symmetry_Int_Tables_number   1
_chemical_formula_structural   CaDy6Co6Sn23
_chemical_formula_sum   'Ca1 Dy6 Co6 Sn23'
_cell_volume   818.12079929
_cell_formula_units_Z   1
loop_
 _symmetry_equiv_pos_site_id
 _symmetry_equiv_pos_as_xyz
  1  'x, y, z'
loop_
 _atom_site_type_symbol
 _atom_site_label
 _atom_site_symmetry_multiplicity
 _atom_site_fract_x
 _atom_site_fract_y
 _atom_site_fract_z
 _atom_site_occupancy
  Ca  Ca0  1  0.000000  0.000000  0.000000  1
  Dy  Dy1  1  0.479250  0.520750  0.305640  1
  Dy  Dy2  1  0.520750  0.479250  0.694360  1
  Dy  Dy3  1  0.479250  0.958500  0.305640  1
  Dy  Dy4  1  0.520750  0.041500  0.694360  1
  Dy  Dy5  1  0.041500  0.520750  0.305640  1
  Dy  Dy6  1  0.958500  0.479250  0.694360  1
  Co  Co7  1  0.831584  0.168416  0.198710  1
  Co  Co8  1  0.168416  0.831584  0.801290  1
  Co  Co9  1  0.831584  0.663167  0.198710  1
  Co  Co10  1  0.168416  0.336833  0.801290  1
  Co  Co11  1  0.336833  0.168416  0.198710  1
  Co  Co12  1  0.663167  0.831584  0.801290  1
  Sn  Sn13  1  0.345676  0.000000  0.000000  1
  Sn  Sn14  1  0.654324  0.000000  0.000000  1
  Sn  Sn15  1  0.000000  0.345676  0.000000  1
  Sn  Sn16  1  0.000000  0.654324  0.000000  1
  Sn  Sn17  1  0.654324  0.654324  0.000000  1
  Sn  Sn18  1  0.345676  0.345676  0.000000  1
  Sn  Sn19  1  0.333333  0.666667  0.816187  1
  Sn  Sn20  1  0.666667  0.333333  0.183813  1
  Sn  Sn21  1  0.000000  0.000000  0.500000  1
  Sn  Sn22  1  0.780997  0.219003  0.451771  1
  Sn  Sn23  1  0.219003  0.780997  0.548229  1
  Sn  Sn24  1  0.780997  0.561995  0.451771  1
  Sn  Sn25  1  0.219003  0.438005  0.548229  1
  Sn  Sn26  1  0.438005  0.219003  0.451771  1
  Sn  Sn27  1  0.561995  0.780997  0.548229  1
  Sn  Sn28  1  0.333333  0.666667  0.117976  1
  Sn  Sn29  1  0.666667  0.333333  0.882024  1
  Sn  Sn30  1  0.117330  0.882670  0.274555  1
  Sn  Sn31  1  0.882670  0.117330  0.725445  1
  Sn  Sn32  1  0.117330  0.234659  0.274555  1
  Sn  Sn33  1  0.882670  0.765341  0.725445  1
  Sn  Sn34  1  0.765341  0.882670  0.274555  1
  Sn  Sn35  1  0.234659  0.117330  0.725445  1
