# generated using pymatgen
data_Zr6Be14VNi8
_symmetry_space_group_name_H-M   'P 1'
_cell_length_a   7.84429187
_cell_length_b   7.84429150
_cell_length_c   7.84429200
_cell_angle_alpha   59.99999788
_cell_angle_beta   59.99999946
_cell_angle_gamma   59.99999806
_symmetry_Int_Tables_number   1
_chemical_formula_structural   Zr6Be14VNi8
_chemical_formula_sum   'Zr6 Be14 V1 Ni8'
_cell_volume   341.30779522
_cell_formula_units_Z   1
loop_
 _symmetry_equiv_pos_site_id
 _symmetry_equiv_pos_as_xyz
  1  'x, y, z'
loop_
 _atom_site_type_symbol
 _atom_site_label
 _atom_site_symmetry_multiplicity
 _atom_site_fract_x
 _atom_site_fract_y
 _atom_site_fract_z
 _atom_site_occupancy
  Zr  Zr0  1  0.706584  0.293416  0.293416  1
  Zr  Zr1  1  0.293416  0.706584  0.706584  1
  Zr  Zr2  1  0.293416  0.706584  0.293416  1
  Zr  Zr3  1  0.706584  0.293416  0.706584  1
  Zr  Zr4  1  0.293416  0.293416  0.706584  1
  Zr  Zr5  1  0.706584  0.706584  0.293416  1
  Be  Be6  1  0.322319  0.322319  0.322319  1
  Be  Be7  1  0.677681  0.677681  0.677681  1
  Be  Be8  1  0.322319  0.322319  0.033041  1
  Be  Be9  1  0.322319  0.033041  0.322319  1
  Be  Be10  1  0.677681  0.677681  0.966959  1
  Be  Be11  1  0.677681  0.966959  0.677681  1
  Be  Be12  1  0.033041  0.322319  0.322319  1
  Be  Be13  1  0.966959  0.677681  0.677681  1
  Be  Be14  1  0.500000  0.000000  0.000000  1
  Be  Be15  1  0.000000  0.500000  0.500000  1
  Be  Be16  1  0.000000  0.500000  0.000000  1
  Be  Be17  1  0.500000  0.000000  0.500000  1
  Be  Be18  1  0.000000  0.000000  0.500000  1
  Be  Be19  1  0.500000  0.500000  0.000000  1
  V  V20  1  0.000000  0.000000  0.000000  1
  Ni  Ni21  1  0.124691  0.124691  0.124691  1
  Ni  Ni22  1  0.875309  0.875309  0.875309  1
  Ni  Ni23  1  0.124691  0.124691  0.625926  1
  Ni  Ni24  1  0.124691  0.625926  0.124691  1
  Ni  Ni25  1  0.875309  0.875309  0.374074  1
  Ni  Ni26  1  0.875309  0.374074  0.875309  1
  Ni  Ni27  1  0.625926  0.124691  0.124691  1
  Ni  Ni28  1  0.374074  0.875309  0.875309  1
