# generated using pymatgen
data_Pa2MnCr3P7Rh8
_symmetry_space_group_name_H-M   'P 1'
_cell_length_a   3.79818347
_cell_length_b   9.53046683
_cell_length_c   9.64158000
_cell_angle_alpha   120.10515313
_cell_angle_beta   90.02843532
_cell_angle_gamma   89.98392159
_symmetry_Int_Tables_number   1
_chemical_formula_structural   Pa2MnCr3P7Rh8
_chemical_formula_sum   'Pa2 Mn1 Cr3 P7 Rh8'
_cell_volume   301.93103035
_cell_formula_units_Z   1
loop_
 _symmetry_equiv_pos_site_id
 _symmetry_equiv_pos_as_xyz
  1  'x, y, z'
loop_
 _atom_site_type_symbol
 _atom_site_label
 _atom_site_symmetry_multiplicity
 _atom_site_fract_x
 _atom_site_fract_y
 _atom_site_fract_z
 _atom_site_occupancy
  Pa  Pa0  1  0.261906  0.667659  0.332465  1
  Pa  Pa1  1  0.761819  0.331901  0.665299  1
  Mn  Mn2  1  0.261887  0.877268  0.157955  1
  Cr  Cr3  1  0.761941  0.108317  0.862125  1
  Cr  Cr4  1  0.761936  0.119283  0.223147  1
  Cr  Cr5  1  0.761826  0.768209  0.899683  1
  P  P6  1  0.262197  0.993672  0.010306  1
  P  P7  1  0.761892  0.892102  0.602922  1
  P  P8  1  0.761958  0.391842  0.285725  1
  P  P9  1  0.761918  0.724724  0.118737  1
  P  P10  1  0.261905  0.105571  0.394550  1
  P  P11  1  0.261732  0.594761  0.708343  1
  P  P12  1  0.261847  0.290810  0.885654  1
  Rh  Rh13  1  0.261896  0.849161  0.734751  1
  Rh  Rh14  1  0.261942  0.270428  0.115734  1
  Rh  Rh15  1  0.761780  0.616738  0.551674  1
  Rh  Rh16  1  0.761906  0.452500  0.065875  1
  Rh  Rh17  1  0.762008  0.943998  0.384381  1
  Rh  Rh18  1  0.261804  0.369037  0.444197  1
  Rh  Rh19  1  0.261823  0.561582  0.929630  1
  Rh  Rh20  1  0.262081  0.070437  0.626847  1
