# generated using pymatgen
data_CaLa2(PrRh)6
_symmetry_space_group_name_H-M   'P 1'
_cell_length_a   7.69191700
_cell_length_b   7.69191605
_cell_length_c   7.69191460
_cell_angle_alpha   70.68215209
_cell_angle_beta   70.68214582
_cell_angle_gamma   70.68215130
_symmetry_Int_Tables_number   1
_chemical_formula_structural   CaLa2(PrRh)6
_chemical_formula_sum   'Ca1 La2 Pr6 Rh6'
_cell_volume   392.57215427
_cell_formula_units_Z   1
loop_
 _symmetry_equiv_pos_site_id
 _symmetry_equiv_pos_as_xyz
  1  'x, y, z'
loop_
 _atom_site_type_symbol
 _atom_site_label
 _atom_site_symmetry_multiplicity
 _atom_site_fract_x
 _atom_site_fract_y
 _atom_site_fract_z
 _atom_site_occupancy
  Ca  Ca0  1  0.000000  0.000000  0.000000  1
  La  La1  1  0.798903  0.798903  0.798903  1
  La  La2  1  0.201097  0.201097  0.201097  1
  Pr  Pr3  1  0.161554  0.388701  0.666645  1
  Pr  Pr4  1  0.666645  0.161554  0.388701  1
  Pr  Pr5  1  0.388701  0.666645  0.161554  1
  Pr  Pr6  1  0.838446  0.611299  0.333355  1
  Pr  Pr7  1  0.333355  0.838446  0.611299  1
  Pr  Pr8  1  0.611299  0.333355  0.838446  1
  Rh  Rh9  1  0.958385  0.169196  0.578918  1
  Rh  Rh10  1  0.578918  0.958385  0.169196  1
  Rh  Rh11  1  0.169196  0.578918  0.958385  1
  Rh  Rh12  1  0.041615  0.830804  0.421082  1
  Rh  Rh13  1  0.421082  0.041615  0.830804  1
  Rh  Rh14  1  0.830804  0.421082  0.041615  1
