# generated using pymatgen
data_Cs2Mn2CdTe4
_symmetry_space_group_name_H-M   'P 1'
_cell_length_a   10.78560600
_cell_length_b   10.78743623
_cell_length_c   10.78581088
_cell_angle_alpha   143.74666920
_cell_angle_beta   105.21770217
_cell_angle_gamma   86.03990706
_symmetry_Int_Tables_number   1
_chemical_formula_structural   Cs2Mn2CdTe4
_chemical_formula_sum   'Cs4 Mn4 Cd2 Te8'
_cell_volume   693.35858427
_cell_formula_units_Z   2
loop_
 _symmetry_equiv_pos_site_id
 _symmetry_equiv_pos_as_xyz
  1  'x, y, z'
loop_
 _atom_site_type_symbol
 _atom_site_label
 _atom_site_symmetry_multiplicity
 _atom_site_fract_x
 _atom_site_fract_y
 _atom_site_fract_z
 _atom_site_occupancy
  Cs  Cs0  1  0.125140  0.236346  0.359942  1
  Cs  Cs1  1  0.374822  0.734734  0.111078  1
  Cs  Cs2  1  0.623595  0.263687  0.888833  1
  Cs  Cs3  1  0.876314  0.765246  0.640085  1
  Mn  Mn4  1  0.749721  0.250025  0.499630  1
  Mn  Mn5  1  0.250183  0.750019  0.500201  1
  Mn  Mn6  1  0.014560  0.249991  0.764569  1
  Mn  Mn7  1  0.485498  0.250000  0.235492  1
  Cd  Cd8  1  0.516493  0.749965  0.766479  1
  Cd  Cd9  1  0.983659  0.749947  0.233599  1
  Te  Te10  1  0.224467  0.087351  0.611482  1
  Te  Te11  1  0.275587  0.887616  0.863414  1
  Te  Te12  1  0.024128  0.412675  0.137168  1
  Te  Te13  1  0.475789  0.612421  0.387988  1
  Te  Te14  1  0.775910  0.931116  0.413267  1
  Te  Te15  1  0.724043  0.137754  0.155694  1
  Te  Te16  1  0.982140  0.568873  0.844799  1
  Te  Te17  1  0.517951  0.362234  0.586281  1
