# generated using pymatgen
data_Ca6Cu11Pd5N
_symmetry_space_group_name_H-M   'P 1'
_cell_length_a   7.92415513
_cell_length_b   7.95917838
_cell_length_c   7.95917795
_cell_angle_alpha   109.39110292
_cell_angle_beta   109.60104047
_cell_angle_gamma   109.60104884
_symmetry_Int_Tables_number   1
_chemical_formula_structural   Ca6Cu11Pd5N
_chemical_formula_sum   'Ca6 Cu11 Pd5 N1'
_cell_volume   385.56720603
_cell_formula_units_Z   1
loop_
 _symmetry_equiv_pos_site_id
 _symmetry_equiv_pos_as_xyz
  1  'x, y, z'
loop_
 _atom_site_type_symbol
 _atom_site_label
 _atom_site_symmetry_multiplicity
 _atom_site_fract_x
 _atom_site_fract_y
 _atom_site_fract_z
 _atom_site_occupancy
  Ca  Ca0  1  0.005450  0.268582  0.268582  1
  Ca  Ca1  1  0.270310  0.002040  0.268270  1
  Ca  Ca2  1  0.733460  0.000025  0.733434  1
  Ca  Ca3  1  0.733460  0.733434  0.000025  1
  Ca  Ca4  1  0.270310  0.268270  0.002040  1
  Ca  Ca5  1  0.005450  0.736867  0.736867  1
  Cu  Cu6  1  0.510251  0.507853  0.507853  1
  Cu  Cu7  1  0.510251  0.002397  0.002397  1
  Cu  Cu8  1  0.992270  0.496135  0.996135  1
  Cu  Cu9  1  0.992270  0.996135  0.496135  1
  Cu  Cu10  1  0.986506  0.330251  0.656255  1
  Cu  Cu11  1  0.986506  0.656255  0.330251  1
  Cu  Cu12  1  0.663852  0.666170  0.325658  1
  Cu  Cu13  1  0.663852  0.997682  0.338195  1
  Cu  Cu14  1  0.663852  0.338195  0.997682  1
  Cu  Cu15  1  0.663852  0.325658  0.666170  1
  Cu  Cu16  1  0.324852  0.662426  0.662426  1
  Pd  Pd17  1  0.683533  0.341767  0.341767  1
  Pd  Pd18  1  0.334797  0.992899  0.659413  1
  Pd  Pd19  1  0.334797  0.675383  0.341898  1
  Pd  Pd20  1  0.334797  0.341898  0.675383  1
  Pd  Pd21  1  0.334797  0.659413  0.992899  1
  N  N22  1  0.000528  0.000264  0.000264  1
