# generated using pymatgen
data_Hf9Nb(SiSb2)2
_symmetry_space_group_name_H-M   'P 1'
_cell_length_a   5.45304433
_cell_length_b   8.16832191
_cell_length_c   8.16832302
_cell_angle_alpha   83.60437745
_cell_angle_beta   70.49989992
_cell_angle_gamma   70.49989191
_symmetry_Int_Tables_number   1
_chemical_formula_structural   Hf9Nb(SiSb2)2
_chemical_formula_sum   'Hf9 Nb1 Si2 Sb4'
_cell_volume   323.29375932
_cell_formula_units_Z   1
loop_
 _symmetry_equiv_pos_site_id
 _symmetry_equiv_pos_as_xyz
  1  'x, y, z'
loop_
 _atom_site_type_symbol
 _atom_site_label
 _atom_site_symmetry_multiplicity
 _atom_site_fract_x
 _atom_site_fract_y
 _atom_site_fract_z
 _atom_site_occupancy
  Hf  Hf0  1  0.750000  0.500074  0.499926  1
  Hf  Hf1  1  0.072365  0.136553  0.717706  1
  Hf  Hf2  1  0.926928  0.863224  0.282217  1
  Hf  Hf3  1  0.791813  0.282316  0.136507  1
  Hf  Hf4  1  0.427635  0.282294  0.863447  1
  Hf  Hf5  1  0.209222  0.717788  0.863498  1
  Hf  Hf6  1  0.573072  0.717783  0.136776  1
  Hf  Hf7  1  0.708187  0.863493  0.717684  1
  Hf  Hf8  1  0.290778  0.136502  0.282212  1
  Nb  Nb9  1  0.250000  0.500046  0.499954  1
  Si  Si10  1  0.250000  0.999995  0.000005  1
  Si  Si11  1  0.750000  0.000023  0.999977  1
  Sb  Sb12  1  0.169461  0.499896  0.171043  1
  Sb  Sb13  1  0.839350  0.500120  0.829063  1
  Sb  Sb14  1  0.330539  0.828957  0.500104  1
  Sb  Sb15  1  0.660650  0.170937  0.499880  1
