# generated using pymatgen
data_Er12GaTc3
_symmetry_space_group_name_H-M   'P 1'
_cell_length_a   6.27777664
_cell_length_b   7.40030813
_cell_length_c   9.08236000
_cell_angle_alpha   90.00000000
_cell_angle_beta   90.00000000
_cell_angle_gamma   90.16468690
_symmetry_Int_Tables_number   1
_chemical_formula_structural   Er12GaTc3
_chemical_formula_sum   'Er12 Ga1 Tc3'
_cell_volume   421.94182889
_cell_formula_units_Z   1
loop_
 _symmetry_equiv_pos_site_id
 _symmetry_equiv_pos_as_xyz
  1  'x, y, z'
loop_
 _atom_site_type_symbol
 _atom_site_label
 _atom_site_symmetry_multiplicity
 _atom_site_fract_x
 _atom_site_fract_y
 _atom_site_fract_z
 _atom_site_occupancy
  Er  Er0  1  0.327819  0.675855  0.066455  1
  Er  Er1  1  0.164888  0.179582  0.435761  1
  Er  Er2  1  0.666608  0.311437  0.557372  1
  Er  Er3  1  0.843929  0.831668  0.940443  1
  Er  Er4  1  0.666608  0.311437  0.942628  1
  Er  Er5  1  0.843929  0.831668  0.559557  1
  Er  Er6  1  0.327819  0.675855  0.433545  1
  Er  Er7  1  0.164888  0.179582  0.064239  1
  Er  Er8  1  0.869661  0.542710  0.250000  1
  Er  Er9  1  0.623700  0.038119  0.250000  1
  Er  Er10  1  0.117191  0.454617  0.750000  1
  Er  Er11  1  0.372183  0.972555  0.750000  1
  Ga  Ga12  1  0.550949  0.609993  0.750000  1
  Tc  Tc13  1  0.038031  0.886011  0.250000  1
  Tc  Tc14  1  0.465772  0.384735  0.250000  1
  Tc  Tc15  1  0.956025  0.114176  0.750000  1
