# generated using pymatgen
data_HfSc3(Cr4Si5)2
_symmetry_space_group_name_H-M   'P 1'
_cell_length_a   9.23922627
_cell_length_b   9.23922662
_cell_length_c   9.23529721
_cell_angle_alpha   131.63122010
_cell_angle_beta   58.43965971
_cell_angle_gamma   149.21820536
_symmetry_Int_Tables_number   1
_chemical_formula_structural   HfSc3(Cr4Si5)2
_chemical_formula_sum   'Hf1 Sc3 Cr8 Si10'
_cell_volume   299.23901201
_cell_formula_units_Z   1
loop_
 _symmetry_equiv_pos_site_id
 _symmetry_equiv_pos_as_xyz
  1  'x, y, z'
loop_
 _atom_site_type_symbol
 _atom_site_label
 _atom_site_symmetry_multiplicity
 _atom_site_fract_x
 _atom_site_fract_y
 _atom_site_fract_z
 _atom_site_occupancy
  Hf  Hf0  1  0.141798  0.119002  0.260800  1
  Sc  Sc1  1  0.857992  0.881203  0.739197  1
  Sc  Sc2  1  0.357766  0.619301  0.977067  1
  Sc  Sc3  1  0.642212  0.379703  0.021917  1
  Cr  Cr4  1  0.559597  0.250997  0.309177  1
  Cr  Cr5  1  0.940063  0.249004  0.690117  1
  Cr  Cr6  1  0.441111  0.750052  0.690117  1
  Cr  Cr7  1  0.058178  0.749578  0.309179  1
  Cr  Cr8  1  0.437854  0.245396  0.683252  1
  Cr  Cr9  1  0.563042  0.753736  0.316781  1
  Cr  Cr10  1  0.062617  0.746678  0.809297  1
  Cr  Cr11  1  0.938114  0.253880  0.191995  1
  Si  Si12  1  0.063345  0.424953  0.488298  1
  Si  Si13  1  0.936041  0.577994  0.514036  1
  Si  Si14  1  0.436203  0.922114  0.358320  1
  Si  Si15  1  0.563633  0.077676  0.641309  1
  Si  Si16  1  0.289424  0.293701  0.583124  1
  Si  Si17  1  0.711420  0.707072  0.418493  1
  Si  Si18  1  0.211324  0.791419  0.002745  1
  Si  Si19  1  0.789126  0.207222  0.996347  1
  Si  Si20  1  0.250110  0.250197  0.999215  1
  Si  Si21  1  0.749017  0.749104  0.999215  1
