# generated using pymatgen
data_Tb2Sc3Si3Pd
_symmetry_space_group_name_H-M   'P 1'
_cell_length_a   6.92901100
_cell_length_b   7.58253200
_cell_length_c   13.89868300
_cell_angle_alpha   90.00000000
_cell_angle_beta   90.00000000
_cell_angle_gamma   90.00000000
_symmetry_Int_Tables_number   1
_chemical_formula_structural   Tb2Sc3Si3Pd
_chemical_formula_sum   'Tb8 Sc12 Si12 Pd4'
_cell_volume   730.22912769
_cell_formula_units_Z   4
loop_
 _symmetry_equiv_pos_site_id
 _symmetry_equiv_pos_as_xyz
  1  'x, y, z'
loop_
 _atom_site_type_symbol
 _atom_site_label
 _atom_site_symmetry_multiplicity
 _atom_site_fract_x
 _atom_site_fract_y
 _atom_site_fract_z
 _atom_site_occupancy
  Tb  Tb0  1  0.005007  0.181926  0.090440  1
  Tb  Tb1  1  0.994993  0.818074  0.909560  1
  Tb  Tb2  1  0.494993  0.681926  0.909560  1
  Tb  Tb3  1  0.994993  0.818074  0.590440  1
  Tb  Tb4  1  0.505007  0.318074  0.090440  1
  Tb  Tb5  1  0.005007  0.181926  0.409560  1
  Tb  Tb6  1  0.505007  0.318074  0.409560  1
  Tb  Tb7  1  0.494993  0.681926  0.590440  1
  Sc  Sc8  1  0.168330  0.508704  0.750000  1
  Sc  Sc9  1  0.831670  0.491296  0.250000  1
  Sc  Sc10  1  0.331670  0.008704  0.250000  1
  Sc  Sc11  1  0.668330  0.991296  0.750000  1
  Sc  Sc12  1  0.321658  0.165667  0.625803  1
  Sc  Sc13  1  0.678342  0.834333  0.374197  1
  Sc  Sc14  1  0.178342  0.665667  0.374197  1
  Sc  Sc15  1  0.678342  0.834333  0.125803  1
  Sc  Sc16  1  0.821658  0.334333  0.625803  1
  Sc  Sc17  1  0.321658  0.165667  0.874197  1
  Sc  Sc18  1  0.821658  0.334333  0.874197  1
  Sc  Sc19  1  0.178342  0.665667  0.125803  1
  Si  Si20  1  0.286761  0.866371  0.750000  1
  Si  Si21  1  0.713239  0.133629  0.250000  1
  Si  Si22  1  0.213239  0.366371  0.250000  1
  Si  Si23  1  0.786761  0.633629  0.750000  1
  Si  Si24  1  0.161182  0.464846  0.540620  1
  Si  Si25  1  0.838818  0.535154  0.459380  1
  Si  Si26  1  0.338818  0.964846  0.459380  1
  Si  Si27  1  0.838818  0.535154  0.040620  1
  Si  Si28  1  0.661182  0.035154  0.540620  1
  Si  Si29  1  0.161182  0.464846  0.959380  1
  Si  Si30  1  0.661182  0.035154  0.959380  1
  Si  Si31  1  0.338818  0.964846  0.040620  1
  Pd  Pd32  1  0.026503  0.107503  0.750000  1
  Pd  Pd33  1  0.973497  0.892497  0.250000  1
  Pd  Pd34  1  0.473497  0.607503  0.250000  1
  Pd  Pd35  1  0.526503  0.392497  0.750000  1
