# generated using pymatgen
data_Sm10Si16Pt
_symmetry_space_group_name_H-M   'P 1'
_cell_length_a   11.34670368
_cell_length_b   11.35329036
_cell_length_c   11.34670448
_cell_angle_alpha   144.73454834
_cell_angle_beta   136.47316306
_cell_angle_gamma   57.20075203
_symmetry_Int_Tables_number   1
_chemical_formula_structural   Sm10Si16Pt
_chemical_formula_sum   'Sm10 Si16 Pt1'
_cell_volume   576.54847942
_cell_formula_units_Z   1
loop_
 _symmetry_equiv_pos_site_id
 _symmetry_equiv_pos_as_xyz
  1  'x, y, z'
loop_
 _atom_site_type_symbol
 _atom_site_label
 _atom_site_symmetry_multiplicity
 _atom_site_fract_x
 _atom_site_fract_y
 _atom_site_fract_z
 _atom_site_occupancy
  Sm  Sm0  1  0.051765  0.564323  0.016472  1
  Sm  Sm1  1  0.351372  0.370366  0.521439  1
  Sm  Sm2  1  0.151749  0.164973  0.518083  1
  Sm  Sm3  1  0.451858  0.964280  0.016047  1
  Sm  Sm4  1  0.646891  0.164973  0.013225  1
  Sm  Sm5  1  0.948232  0.964280  0.512421  1
  Sm  Sm6  1  0.848928  0.370366  0.018996  1
  Sm  Sm7  1  0.547851  0.564323  0.512558  1
  Sm  Sm8  1  0.250325  0.764586  0.013267  1
  Sm  Sm9  1  0.751318  0.764586  0.514260  1
  Si  Si10  1  0.113001  0.063386  0.950384  1
  Si  Si11  1  0.798515  0.201339  0.402822  1
  Si  Si12  1  0.299785  0.899637  0.599853  1
  Si  Si13  1  0.400063  0.500305  0.100243  1
  Si  Si14  1  0.890497  0.843547  0.953049  1
  Si  Si15  1  0.102648  0.705742  0.603096  1
  Si  Si16  1  0.199801  0.600719  0.400917  1
  Si  Si17  1  0.698410  0.294937  0.596529  1
  Si  Si18  1  0.999805  0.432430  0.432623  1
  Si  Si19  1  0.708284  0.653962  0.945678  1
  Si  Si20  1  0.600302  0.702225  0.101921  1
  Si  Si21  1  0.001122  0.090775  0.089654  1
  Si  Si22  1  0.500894  0.407277  0.906383  1
  Si  Si23  1  0.291104  0.239343  0.948238  1
  Si  Si24  1  0.588421  0.038139  0.449716  1
  Si  Si25  1  0.408976  0.855809  0.446833  1
  Pt  Pt26  1  0.898085  0.502291  0.604205  1
