# generated using pymatgen
data_Nd2SmDy3Ta2O14
_symmetry_space_group_name_H-M   'P 1'
_cell_length_a   6.53776962
_cell_length_b   6.53585585
_cell_length_c   7.62240600
_cell_angle_alpha   90.00000000
_cell_angle_beta   90.00000000
_cell_angle_gamma   109.25395392
_symmetry_Int_Tables_number   1
_chemical_formula_structural   Nd2SmDy3Ta2O14
_chemical_formula_sum   'Nd2 Sm1 Dy3 Ta2 O14'
_cell_volume   307.48691191
_cell_formula_units_Z   1
loop_
 _symmetry_equiv_pos_site_id
 _symmetry_equiv_pos_as_xyz
  1  'x, y, z'
loop_
 _atom_site_type_symbol
 _atom_site_label
 _atom_site_symmetry_multiplicity
 _atom_site_fract_x
 _atom_site_fract_y
 _atom_site_fract_z
 _atom_site_occupancy
  Nd  Nd0  1  0.509420  0.509210  0.501289  1
  Nd  Nd1  1  0.509420  0.509210  0.998711  1
  Sm  Sm2  1  0.465897  0.001163  0.250000  1
  Dy  Dy3  1  0.002043  0.533573  0.250000  1
  Dy  Dy4  1  0.000196  0.465318  0.750000  1
  Dy  Dy5  1  0.534027  0.000948  0.750000  1
  Ta  Ta6  1  0.001161  0.000927  0.501525  1
  Ta  Ta7  1  0.001161  0.000927  0.998475  1
  O  O8  1  0.937569  0.067656  0.750000  1
  O  O9  1  0.059515  0.936936  0.250000  1
  O  O10  1  0.357537  0.636466  0.250000  1
  O  O11  1  0.644134  0.358126  0.750000  1
  O  O12  1  0.363176  0.634909  0.750000  1
  O  O13  1  0.640175  0.372133  0.250000  1
  O  O14  1  0.316461  0.068809  0.964002  1
  O  O15  1  0.676758  0.921980  0.475335  1
  O  O16  1  0.316461  0.068809  0.535998  1
  O  O17  1  0.676758  0.921980  0.024665  1
  O  O18  1  0.060023  0.315104  0.465253  1
  O  O19  1  0.934041  0.680358  0.967399  1
  O  O20  1  0.934041  0.680358  0.532601  1
  O  O21  1  0.060023  0.315104  0.034747  1
