# generated using pymatgen
data_LiHo5(InRh2)6
_symmetry_space_group_name_H-M   'P 1'
_cell_length_a   4.67395501
_cell_length_b   6.54550701
_cell_length_c   13.95836801
_cell_angle_alpha   89.99961461
_cell_angle_beta   89.99876130
_cell_angle_gamma   90.00624215
_symmetry_Int_Tables_number   1
_chemical_formula_structural   LiHo5(InRh2)6
_chemical_formula_sum   'Li1 Ho5 In6 Rh12'
_cell_volume   427.03400664
_cell_formula_units_Z   1
loop_
 _symmetry_equiv_pos_site_id
 _symmetry_equiv_pos_as_xyz
  1  'x, y, z'
loop_
 _atom_site_type_symbol
 _atom_site_label
 _atom_site_symmetry_multiplicity
 _atom_site_fract_x
 _atom_site_fract_y
 _atom_site_fract_z
 _atom_site_occupancy
  Li  Li0  1  0.500380  0.500016  0.833347  1
  Ho  Ho1  1  0.999911  0.999985  0.996513  1
  Ho  Ho2  1  0.499937  0.500009  0.163904  1
  Ho  Ho3  1  0.999886  0.999981  0.333340  1
  Ho  Ho4  1  0.500059  0.500004  0.502768  1
  Ho  Ho5  1  0.000042  0.999985  0.670174  1
  In  In6  1  0.000001  0.499989  0.993811  1
  In  In7  1  0.499818  0.000003  0.161665  1
  In  In8  1  0.000320  0.499980  0.333371  1
  In  In9  1  0.500005  0.000003  0.504943  1
  In  In10  1  0.000111  0.500016  0.672816  1
  In  In11  1  0.499609  0.000024  0.833311  1
  Rh  Rh12  1  0.499983  0.256744  0.995087  1
  Rh  Rh13  1  0.499972  0.743262  0.995096  1
  Rh  Rh14  1  0.999815  0.251209  0.165655  1
  Rh  Rh15  1  0.999814  0.748791  0.165654  1
  Rh  Rh16  1  0.499825  0.249289  0.333340  1
  Rh  Rh17  1  0.499881  0.750707  0.333337  1
  Rh  Rh18  1  0.000001  0.251207  0.501014  1
  Rh  Rh19  1  0.000008  0.748786  0.501021  1
  Rh  Rh20  1  0.500147  0.256768  0.671588  1
  Rh  Rh21  1  0.500131  0.743243  0.671577  1
  Rh  Rh22  1  0.000165  0.256121  0.833335  1
  Rh  Rh23  1  0.000184  0.743877  0.833333  1
