# generated using pymatgen
data_Mg8B24Ir3Ru
_symmetry_space_group_name_H-M   'P 1'
_cell_length_a   3.47520500
_cell_length_b   8.86132068
_cell_length_c   11.08934028
_cell_angle_alpha   90.04821636
_cell_angle_beta   90.00000000
_cell_angle_gamma   90.00000000
_symmetry_Int_Tables_number   1
_chemical_formula_structural   Mg8B24Ir3Ru
_chemical_formula_sum   'Mg8 B24 Ir3 Ru1'
_cell_volume   341.49506990
_cell_formula_units_Z   1
loop_
 _symmetry_equiv_pos_site_id
 _symmetry_equiv_pos_as_xyz
  1  'x, y, z'
loop_
 _atom_site_type_symbol
 _atom_site_label
 _atom_site_symmetry_multiplicity
 _atom_site_fract_x
 _atom_site_fract_y
 _atom_site_fract_z
 _atom_site_occupancy
  Mg  Mg0  1  0.000000  0.323670  0.414274  1
  Mg  Mg1  1  0.000000  0.679062  0.591047  1
  Mg  Mg2  1  0.000000  0.826060  0.081864  1
  Mg  Mg3  1  0.000000  0.170075  0.911872  1
  Mg  Mg4  1  0.000000  0.944835  0.373575  1
  Mg  Mg5  1  0.000000  0.053590  0.628870  1
  Mg  Mg6  1  0.000000  0.444207  0.125922  1
  Mg  Mg7  1  0.000000  0.557976  0.872732  1
  B  B8  1  0.500000  0.555344  0.435521  1
  B  B9  1  0.500000  0.444988  0.564487  1
  B  B10  1  0.500000  0.054919  0.064351  1
  B  B11  1  0.500000  0.945830  0.935257  1
  B  B12  1  0.500000  0.755166  0.420969  1
  B  B13  1  0.500000  0.244325  0.579115  1
  B  B14  1  0.500000  0.254937  0.078963  1
  B  B15  1  0.500000  0.743831  0.920485  1
  B  B16  1  0.500000  0.795477  0.261339  1
  B  B17  1  0.500000  0.204240  0.737882  1
  B  B18  1  0.500000  0.295346  0.238675  1
  B  B19  1  0.500000  0.704499  0.761669  1
  B  B20  1  0.500000  0.630337  0.180657  1
  B  B21  1  0.500000  0.369805  0.818927  1
  B  B22  1  0.500000  0.130253  0.319452  1
  B  B23  1  0.500000  0.869602  0.680952  1
  B  B24  1  0.500000  0.979819  0.211334  1
  B  B25  1  0.500000  0.020629  0.788337  1
  B  B26  1  0.500000  0.479781  0.288728  1
  B  B27  1  0.500000  0.520951  0.711175  1
  B  B28  1  0.500000  0.592246  0.024921  1
  B  B29  1  0.500000  0.406953  0.974301  1
  B  B30  1  0.500000  0.092381  0.474636  1
  B  B31  1  0.500000  0.907191  0.526038  1
  Ir  Ir32  1  0.000000  0.640667  0.319143  1
  Ir  Ir33  1  0.000000  0.359782  0.680170  1
  Ir  Ir34  1  0.000000  0.140869  0.180976  1
  Ru  Ru35  1  0.000000  0.860358  0.821385  1
