# generated using pymatgen
data_La2Pr3Er3(CdPt)2
_symmetry_space_group_name_H-M   'P 1'
_cell_length_a   9.93569911
_cell_length_b   9.93570028
_cell_length_c   9.93570000
_cell_angle_alpha   59.99999428
_cell_angle_beta   59.99999038
_cell_angle_gamma   59.99999748
_symmetry_Int_Tables_number   1
_chemical_formula_structural   La2Pr3Er3(CdPt)2
_chemical_formula_sum   'La4 Pr6 Er6 Cd4 Pt4'
_cell_volume   693.55407309
_cell_formula_units_Z   2
loop_
 _symmetry_equiv_pos_site_id
 _symmetry_equiv_pos_as_xyz
  1  'x, y, z'
loop_
 _atom_site_type_symbol
 _atom_site_label
 _atom_site_symmetry_multiplicity
 _atom_site_fract_x
 _atom_site_fract_y
 _atom_site_fract_z
 _atom_site_occupancy
  La  La0  1  0.352016  0.352016  0.352016  1
  La  La1  1  0.352016  0.352016  0.943951  1
  La  La2  1  0.352016  0.943951  0.352016  1
  La  La3  1  0.943951  0.352016  0.352016  1
  Pr  Pr4  1  0.936410  0.563590  0.563590  1
  Pr  Pr5  1  0.563590  0.936410  0.936410  1
  Pr  Pr6  1  0.563590  0.936410  0.563590  1
  Pr  Pr7  1  0.936410  0.563590  0.936410  1
  Pr  Pr8  1  0.563590  0.563590  0.936410  1
  Pr  Pr9  1  0.936410  0.936410  0.563590  1
  Er  Er10  1  0.815585  0.184415  0.184415  1
  Er  Er11  1  0.184415  0.815585  0.815585  1
  Er  Er12  1  0.184415  0.815585  0.184415  1
  Er  Er13  1  0.815585  0.184415  0.815585  1
  Er  Er14  1  0.184415  0.184415  0.815585  1
  Er  Er15  1  0.815585  0.815585  0.184415  1
  Cd  Cd16  1  0.580735  0.580735  0.580735  1
  Cd  Cd17  1  0.580735  0.580735  0.257794  1
  Cd  Cd18  1  0.580735  0.257794  0.580735  1
  Cd  Cd19  1  0.257794  0.580735  0.580735  1
  Pt  Pt20  1  0.139811  0.139811  0.139811  1
  Pt  Pt21  1  0.139811  0.139811  0.580566  1
  Pt  Pt22  1  0.139811  0.580566  0.139811  1
  Pt  Pt23  1  0.580566  0.139811  0.139811  1
