# generated using pymatgen
data_Dy8Ta10Ti2Si15P
_symmetry_space_group_name_H-M   'P 1'
_cell_length_a   7.03232900
_cell_length_b   7.03134766
_cell_length_c   12.96710456
_cell_angle_alpha   89.95196342
_cell_angle_beta   89.94959581
_cell_angle_gamma   90.00070046
_symmetry_Int_Tables_number   1
_chemical_formula_structural   Dy8Ta10Ti2Si15P
_chemical_formula_sum   'Dy8 Ta10 Ti2 Si15 P1'
_cell_volume   641.18070374
_cell_formula_units_Z   1
loop_
 _symmetry_equiv_pos_site_id
 _symmetry_equiv_pos_as_xyz
  1  'x, y, z'
loop_
 _atom_site_type_symbol
 _atom_site_label
 _atom_site_symmetry_multiplicity
 _atom_site_fract_x
 _atom_site_fract_y
 _atom_site_fract_z
 _atom_site_occupancy
  Dy  Dy0  1  0.998619  0.657568  0.032693  1
  Dy  Dy1  1  0.002130  0.345067  0.530891  1
  Dy  Dy2  1  0.657753  0.998222  0.967383  1
  Dy  Dy3  1  0.159099  0.503152  0.781674  1
  Dy  Dy4  1  0.842734  0.499244  0.283162  1
  Dy  Dy5  1  0.503267  0.159615  0.218306  1
  Dy  Dy6  1  0.498255  0.842304  0.717920  1
  Dy  Dy7  1  0.339820  0.999703  0.468494  1
  Ta  Ta8  1  0.342716  0.510477  0.376708  1
  Ta  Ta9  1  0.849436  0.991433  0.375530  1
  Ta  Ta10  1  0.007718  0.153566  0.126479  1
  Ta  Ta11  1  0.995684  0.846573  0.622226  1
  Ta  Ta12  1  0.509422  0.344656  0.624253  1
  Ta  Ta13  1  0.153370  0.007881  0.873844  1
  Ta  Ta14  1  0.671379  0.670971  0.499321  1
  Ta  Ta15  1  0.829635  0.170230  0.749732  1
  Ta  Ta16  1  0.168773  0.828581  0.251175  1
  Ta  Ta17  1  0.326199  0.326348  0.000071  1
  Ti  Ti18  1  0.493151  0.653076  0.124565  1
  Ti  Ti19  1  0.653510  0.493504  0.875599  1
  Si  Si20  1  0.952535  0.295415  0.935539  1
  Si  Si21  1  0.705821  0.044817  0.563851  1
  Si  Si22  1  0.208135  0.455091  0.185306  1
  Si  Si23  1  0.793483  0.545474  0.687176  1
  Si  Si24  1  0.454864  0.208224  0.814852  1
  Si  Si25  1  0.545639  0.793353  0.312475  1
  Si  Si26  1  0.295126  0.952502  0.064815  1
  Si  Si27  1  0.794675  0.865476  0.182126  1
  Si  Si28  1  0.300694  0.631634  0.570765  1
  Si  Si29  1  0.700807  0.368488  0.066511  1
  Si  Si30  1  0.632145  0.296046  0.431046  1
  Si  Si31  1  0.368155  0.700599  0.933774  1
  Si  Si32  1  0.133844  0.203692  0.317504  1
  Si  Si33  1  0.202793  0.133764  0.681878  1
  Si  Si34  1  0.865907  0.795800  0.816869  1
  P  P35  1  0.042703  0.707454  0.435483  1
