# generated using pymatgen
data_Sc5Co16Si7Rh
_symmetry_space_group_name_H-M   'P 1'
_cell_length_a   8.02865289
_cell_length_b   8.02865203
_cell_length_c   7.98882300
_cell_angle_alpha   60.16396462
_cell_angle_beta   60.16396813
_cell_angle_gamma   59.67205539
_symmetry_Int_Tables_number   1
_chemical_formula_structural   Sc5Co16Si7Rh
_chemical_formula_sum   'Sc5 Co16 Si7 Rh1'
_cell_volume   364.10933052
_cell_formula_units_Z   1
loop_
 _symmetry_equiv_pos_site_id
 _symmetry_equiv_pos_as_xyz
  1  'x, y, z'
loop_
 _atom_site_type_symbol
 _atom_site_label
 _atom_site_symmetry_multiplicity
 _atom_site_fract_x
 _atom_site_fract_y
 _atom_site_fract_z
 _atom_site_occupancy
  Sc  Sc0  1  0.297253  0.709486  0.290514  1
  Sc  Sc1  1  0.709486  0.297253  0.290514  1
  Sc  Sc2  1  0.283619  0.283619  0.716381  1
  Sc  Sc3  1  0.709486  0.297253  0.702747  1
  Sc  Sc4  1  0.297253  0.709486  0.702747  1
  Co  Co5  1  0.880674  0.880674  0.354027  1
  Co  Co6  1  0.879756  0.360635  0.879804  1
  Co  Co7  1  0.360635  0.879756  0.879804  1
  Co  Co8  1  0.880674  0.880674  0.884622  1
  Co  Co9  1  0.120196  0.120196  0.639365  1
  Co  Co10  1  0.115378  0.645973  0.119326  1
  Co  Co11  1  0.645973  0.115378  0.119326  1
  Co  Co12  1  0.120196  0.120196  0.120244  1
  Co  Co13  1  0.672419  0.672419  0.978423  1
  Co  Co14  1  0.670169  0.983579  0.673126  1
  Co  Co15  1  0.983579  0.670169  0.673126  1
  Co  Co16  1  0.672419  0.672419  0.676739  1
  Co  Co17  1  0.326874  0.326874  0.016421  1
  Co  Co18  1  0.323261  0.021577  0.327581  1
  Co  Co19  1  0.021577  0.323261  0.327581  1
  Co  Co20  1  0.326874  0.326874  0.329831  1
  Si  Si21  1  0.004781  0.004781  0.995219  1
  Si  Si22  1  0.997947  0.997947  0.502053  1
  Si  Si23  1  0.509141  0.993031  0.490859  1
  Si  Si24  1  0.993031  0.509141  0.490859  1
  Si  Si25  1  0.497947  0.497947  0.002053  1
  Si  Si26  1  0.993031  0.509141  0.006969  1
  Si  Si27  1  0.509141  0.993031  0.006969  1
  Rh  Rh28  1  0.697231  0.697231  0.302769  1
