# generated using pymatgen
data_KBaTcN3
_symmetry_space_group_name_H-M   'P 1'
_cell_length_a   6.69893213
_cell_length_b   6.69893071
_cell_length_c   13.30845300
_cell_angle_alpha   90.00000000
_cell_angle_beta   90.00000000
_cell_angle_gamma   126.98427747
_symmetry_Int_Tables_number   1
_chemical_formula_structural   KBaTcN3
_chemical_formula_sum   'K4 Ba4 Tc4 N12'
_cell_volume   477.06442670
_cell_formula_units_Z   4
loop_
 _symmetry_equiv_pos_site_id
 _symmetry_equiv_pos_as_xyz
  1  'x, y, z'
loop_
 _atom_site_type_symbol
 _atom_site_label
 _atom_site_symmetry_multiplicity
 _atom_site_fract_x
 _atom_site_fract_y
 _atom_site_fract_z
 _atom_site_occupancy
  K  K0  1  0.548855  0.451145  0.638193  1
  K  K1  1  0.451145  0.548855  0.361807  1
  K  K2  1  0.951145  0.048855  0.138193  1
  K  K3  1  0.048855  0.951145  0.861807  1
  Ba  Ba4  1  0.853057  0.146943  0.584744  1
  Ba  Ba5  1  0.146943  0.853057  0.415256  1
  Ba  Ba6  1  0.646943  0.353057  0.084744  1
  Ba  Ba7  1  0.353057  0.646943  0.915256  1
  Tc  Tc8  1  0.727782  0.272218  0.834124  1
  Tc  Tc9  1  0.272218  0.727782  0.165876  1
  Tc  Tc10  1  0.772218  0.227782  0.334124  1
  Tc  Tc11  1  0.227782  0.772218  0.665876  1
  N  N12  1  0.820613  0.179387  0.942929  1
  N  N13  1  0.179387  0.820613  0.057071  1
  N  N14  1  0.679387  0.320613  0.442929  1
  N  N15  1  0.320613  0.679387  0.557071  1
  N  N16  1  0.585269  0.414731  0.875209  1
  N  N17  1  0.414731  0.585269  0.124791  1
  N  N18  1  0.914731  0.085269  0.375209  1
  N  N19  1  0.085269  0.914731  0.624791  1
  N  N20  1  0.512173  0.987827  0.750000  1
  N  N21  1  0.987827  0.512173  0.250000  1
  N  N22  1  0.487827  0.012173  0.250000  1
  N  N23  1  0.012173  0.487827  0.750000  1
