# generated using pymatgen
data_Ca10PtRh
_symmetry_space_group_name_H-M   'P 1'
_cell_length_a   6.85923750
_cell_length_b   7.53396986
_cell_length_c   16.08642300
_cell_angle_alpha   90.00000000
_cell_angle_beta   90.00000000
_cell_angle_gamma   89.86935011
_symmetry_Int_Tables_number   1
_chemical_formula_structural   Ca10PtRh
_chemical_formula_sum   'Ca20 Pt2 Rh2'
_cell_volume   831.30056148
_cell_formula_units_Z   2
loop_
 _symmetry_equiv_pos_site_id
 _symmetry_equiv_pos_as_xyz
  1  'x, y, z'
loop_
 _atom_site_type_symbol
 _atom_site_label
 _atom_site_symmetry_multiplicity
 _atom_site_fract_x
 _atom_site_fract_y
 _atom_site_fract_z
 _atom_site_occupancy
  Ca  Ca0  1  0.354082  0.310504  0.062592  1
  Ca  Ca1  1  0.645918  0.689496  0.937408  1
  Ca  Ca2  1  0.853910  0.189747  0.937110  1
  Ca  Ca3  1  0.645918  0.689496  0.562592  1
  Ca  Ca4  1  0.146090  0.810253  0.062890  1
  Ca  Ca5  1  0.354082  0.310504  0.437408  1
  Ca  Ca6  1  0.146090  0.810253  0.437110  1
  Ca  Ca7  1  0.853910  0.189747  0.562890  1
  Ca  Ca8  1  0.154027  0.093246  0.250000  1
  Ca  Ca9  1  0.845973  0.906754  0.750000  1
  Ca  Ca10  1  0.659735  0.401396  0.750000  1
  Ca  Ca11  1  0.340265  0.598604  0.250000  1
  Ca  Ca12  1  0.322628  0.040069  0.643427  1
  Ca  Ca13  1  0.677372  0.959931  0.356573  1
  Ca  Ca14  1  0.825684  0.465028  0.356245  1
  Ca  Ca15  1  0.677372  0.959931  0.143427  1
  Ca  Ca16  1  0.174316  0.534972  0.643755  1
  Ca  Ca17  1  0.322628  0.040069  0.856573  1
  Ca  Ca18  1  0.174316  0.534972  0.856245  1
  Ca  Ca19  1  0.825684  0.465028  0.143755  1
  Pt  Pt20  1  0.538138  0.260410  0.250000  1
  Pt  Pt21  1  0.461862  0.739590  0.750000  1
  Rh  Rh22  1  0.037858  0.239843  0.750000  1
  Rh  Rh23  1  0.962142  0.760157  0.250000  1
