# generated using pymatgen
data_TbLu4(Sn3Os)6
_symmetry_space_group_name_H-M   'P 1'
_cell_length_a   9.84717637
_cell_length_b   9.84717613
_cell_length_c   9.84717700
_cell_angle_alpha   60.00000044
_cell_angle_beta   60.00000125
_cell_angle_gamma   60.00000585
_symmetry_Int_Tables_number   1
_chemical_formula_structural   TbLu4(Sn3Os)6
_chemical_formula_sum   'Tb1 Lu4 Sn18 Os6'
_cell_volume   675.18097089
_cell_formula_units_Z   1
loop_
 _symmetry_equiv_pos_site_id
 _symmetry_equiv_pos_as_xyz
  1  'x, y, z'
loop_
 _atom_site_type_symbol
 _atom_site_label
 _atom_site_symmetry_multiplicity
 _atom_site_fract_x
 _atom_site_fract_y
 _atom_site_fract_z
 _atom_site_occupancy
  Tb  Tb0  1  0.000000  0.000000  0.000000  1
  Lu  Lu1  1  0.372816  0.372817  0.881551  1
  Lu  Lu2  1  0.372817  0.881550  0.372816  1
  Lu  Lu3  1  0.881550  0.372817  0.372816  1
  Lu  Lu4  1  0.372817  0.372816  0.372816  1
  Sn  Sn5  1  0.593524  0.593524  0.219431  1
  Sn  Sn6  1  0.593524  0.219431  0.593524  1
  Sn  Sn7  1  0.219431  0.593524  0.593524  1
  Sn  Sn8  1  0.593524  0.593524  0.593524  1
  Sn  Sn9  1  0.750000  0.750000  0.750000  1
  Sn  Sn10  1  0.998338  0.351763  0.651563  1
  Sn  Sn11  1  0.998338  0.998338  0.651563  1
  Sn  Sn12  1  0.351763  0.998338  0.651563  1
  Sn  Sn13  1  0.998338  0.651563  0.351763  1
  Sn  Sn14  1  0.351763  0.651563  0.998338  1
  Sn  Sn15  1  0.998338  0.651563  0.998338  1
  Sn  Sn16  1  0.651563  0.998338  0.998338  1
  Sn  Sn17  1  0.651563  0.351763  0.998338  1
  Sn  Sn18  1  0.651563  0.998338  0.351763  1
  Sn  Sn19  1  0.351763  0.998338  0.998338  1
  Sn  Sn20  1  0.998338  0.998338  0.351763  1
  Sn  Sn21  1  0.998338  0.351763  0.998338  1
  Sn  Sn22  1  0.250000  0.250000  0.250000  1
  Os  Os23  1  0.256470  0.256470  0.743530  1
  Os  Os24  1  0.743530  0.256470  0.743530  1
  Os  Os25  1  0.256470  0.743530  0.743530  1
  Os  Os26  1  0.743530  0.743530  0.256470  1
  Os  Os27  1  0.256470  0.743530  0.256470  1
  Os  Os28  1  0.743530  0.256470  0.256470  1
