# generated using pymatgen
data_NaB12AsC
_symmetry_space_group_name_H-M   'P 1'
_cell_length_a   7.27952779
_cell_length_b   7.27952807
_cell_length_c   7.27952789
_cell_angle_alpha   132.68798638
_cell_angle_beta   110.60857047
_cell_angle_gamma   88.28160177
_symmetry_Int_Tables_number   1
_chemical_formula_structural   NaB12AsC
_chemical_formula_sum   'Na2 B24 As2 C2'
_cell_volume   252.90557063
_cell_formula_units_Z   2
loop_
 _symmetry_equiv_pos_site_id
 _symmetry_equiv_pos_as_xyz
  1  'x, y, z'
loop_
 _atom_site_type_symbol
 _atom_site_label
 _atom_site_symmetry_multiplicity
 _atom_site_fract_x
 _atom_site_fract_y
 _atom_site_fract_z
 _atom_site_occupancy
  Na  Na0  1  0.076042  0.742746  0.833297  1
  Na  Na1  1  0.909449  0.242746  0.166703  1
  B  B2  1  0.869721  0.833875  0.535847  1
  B  B3  1  0.298028  0.333875  0.464153  1
  B  B4  1  0.144825  0.167197  0.477627  1
  B  B5  1  0.689570  0.667197  0.522373  1
  B  B6  1  0.267951  0.088571  0.679380  1
  B  B7  1  0.409191  0.588571  0.320620  1
  B  B8  1  0.763717  0.915238  0.348479  1
  B  B9  1  0.566757  0.415238  0.651521  1
  B  B10  1  0.108857  0.783599  0.509748  1
  B  B11  1  0.273850  0.599109  0.490252  1
  B  B12  1  0.273850  0.283599  0.174742  1
  B  B13  1  0.108857  0.099109  0.825258  1
  B  B14  1  0.901581  0.220843  0.505430  1
  B  B15  1  0.715413  0.396151  0.494570  1
  B  B16  1  0.715413  0.720843  0.819262  1
  B  B17  1  0.901581  0.896151  0.180738  1
  B  B18  1  0.134803  0.824977  0.298732  1
  B  B19  1  0.526245  0.836071  0.701268  1
  B  B20  1  0.526245  0.324977  0.190174  1
  B  B21  1  0.134803  0.336071  0.809826  1
  B  B22  1  0.890427  0.161084  0.704033  1
  B  B23  1  0.457052  0.186394  0.295967  1
  B  B24  1  0.457052  0.661084  0.770658  1
  B  B25  1  0.890427  0.686394  0.229342  1
  As  As26  1  0.464300  0.829384  0.134917  1
  As  As27  1  0.694467  0.329384  0.865083  1
  C  C28  1  0.507849  0.137692  0.870157  1
  C  C29  1  0.267535  0.637692  0.129843  1
