# generated using pymatgen
data_Ho2Ga9Pd2Ru
_symmetry_space_group_name_H-M   'P 1'
_cell_length_a   7.63233870
_cell_length_b   7.63233895
_cell_length_c   9.55112500
_cell_angle_alpha   90.00000000
_cell_angle_beta   90.00000000
_cell_angle_gamma   119.55954806
_symmetry_Int_Tables_number   1
_chemical_formula_structural   Ho2Ga9Pd2Ru
_chemical_formula_sum   'Ho4 Ga18 Pd4 Ru2'
_cell_volume   483.96160448
_cell_formula_units_Z   2
loop_
 _symmetry_equiv_pos_site_id
 _symmetry_equiv_pos_as_xyz
  1  'x, y, z'
loop_
 _atom_site_type_symbol
 _atom_site_label
 _atom_site_symmetry_multiplicity
 _atom_site_fract_x
 _atom_site_fract_y
 _atom_site_fract_z
 _atom_site_occupancy
  Ho  Ho0  1  0.995858  0.669887  0.250000  1
  Ho  Ho1  1  0.004142  0.330113  0.750000  1
  Ho  Ho2  1  0.669887  0.995858  0.250000  1
  Ho  Ho3  1  0.330113  0.004142  0.750000  1
  Ga  Ga4  1  0.124506  0.124506  0.250000  1
  Ga  Ga5  1  0.875494  0.875494  0.750000  1
  Ga  Ga6  1  0.999106  0.330703  0.080880  1
  Ga  Ga7  1  0.000894  0.669297  0.919120  1
  Ga  Ga8  1  0.000894  0.669297  0.580880  1
  Ga  Ga9  1  0.330703  0.999106  0.419120  1
  Ga  Ga10  1  0.999106  0.330703  0.419120  1
  Ga  Ga11  1  0.669297  0.000894  0.580880  1
  Ga  Ga12  1  0.669297  0.000894  0.919120  1
  Ga  Ga13  1  0.330703  0.999106  0.080880  1
  Ga  Ga14  1  0.327284  0.327284  0.563243  1
  Ga  Ga15  1  0.672716  0.672716  0.436757  1
  Ga  Ga16  1  0.672716  0.672716  0.063243  1
  Ga  Ga17  1  0.327284  0.327284  0.936757  1
  Ga  Ga18  1  0.342345  0.547462  0.250000  1
  Ga  Ga19  1  0.657655  0.452538  0.750000  1
  Ga  Ga20  1  0.547462  0.342345  0.250000  1
  Ga  Ga21  1  0.452538  0.657655  0.750000  1
  Pd  Pd22  1  0.671708  0.328292  0.000000  1
  Pd  Pd23  1  0.328292  0.671708  0.000000  1
  Pd  Pd24  1  0.328292  0.671708  0.500000  1
  Pd  Pd25  1  0.671708  0.328292  0.500000  1
  Ru  Ru26  1  0.000000  0.000000  0.000000  1
  Ru  Ru27  1  0.000000  0.000000  0.500000  1
