# generated using pymatgen
data_DyEr11Ir3Os
_symmetry_space_group_name_H-M   'P 1'
_cell_length_a   6.36807719
_cell_length_b   7.26485901
_cell_length_c   9.04074200
_cell_angle_alpha   90.00000000
_cell_angle_beta   90.00000000
_cell_angle_gamma   89.96217800
_symmetry_Int_Tables_number   1
_chemical_formula_structural   DyEr11Ir3Os
_chemical_formula_sum   'Dy1 Er11 Ir3 Os1'
_cell_volume   418.25340979
_cell_formula_units_Z   1
loop_
 _symmetry_equiv_pos_site_id
 _symmetry_equiv_pos_as_xyz
  1  'x, y, z'
loop_
 _atom_site_type_symbol
 _atom_site_label
 _atom_site_symmetry_multiplicity
 _atom_site_fract_x
 _atom_site_fract_y
 _atom_site_fract_z
 _atom_site_occupancy
  Dy  Dy0  1  0.870687  0.534769  0.250000  1
  Er  Er1  1  0.329100  0.677253  0.062080  1
  Er  Er2  1  0.169670  0.176231  0.439950  1
  Er  Er3  1  0.673682  0.321591  0.564101  1
  Er  Er4  1  0.827870  0.825067  0.936234  1
  Er  Er5  1  0.673682  0.321591  0.935899  1
  Er  Er6  1  0.827870  0.825067  0.563766  1
  Er  Er7  1  0.329100  0.677253  0.437920  1
  Er  Er8  1  0.169670  0.176231  0.060050  1
  Er  Er9  1  0.628221  0.035317  0.250000  1
  Er  Er10  1  0.128226  0.464724  0.750000  1
  Er  Er11  1  0.371666  0.965168  0.750000  1
  Ir  Ir12  1  0.042663  0.884539  0.250000  1
  Ir  Ir13  1  0.455510  0.383320  0.250000  1
  Ir  Ir14  1  0.540488  0.615881  0.750000  1
  Os  Os15  1  0.961899  0.116000  0.750000  1
