# generated using pymatgen
data_Tb2Lu3Ga3Si
_symmetry_space_group_name_H-M   'P 1'
_cell_length_a   7.38734300
_cell_length_b   7.72100400
_cell_length_c   14.85441200
_cell_angle_alpha   90.00000000
_cell_angle_beta   90.00000000
_cell_angle_gamma   90.00000000
_symmetry_Int_Tables_number   1
_chemical_formula_structural   Tb2Lu3Ga3Si
_chemical_formula_sum   'Tb8 Lu12 Ga12 Si4'
_cell_volume   847.26156741
_cell_formula_units_Z   4
loop_
 _symmetry_equiv_pos_site_id
 _symmetry_equiv_pos_as_xyz
  1  'x, y, z'
loop_
 _atom_site_type_symbol
 _atom_site_label
 _atom_site_symmetry_multiplicity
 _atom_site_fract_x
 _atom_site_fract_y
 _atom_site_fract_z
 _atom_site_occupancy
  Tb  Tb0  1  0.013303  0.179863  0.096283  1
  Tb  Tb1  1  0.986697  0.820137  0.903717  1
  Tb  Tb2  1  0.486697  0.679863  0.903717  1
  Tb  Tb3  1  0.986697  0.820137  0.596283  1
  Tb  Tb4  1  0.513303  0.320137  0.096283  1
  Tb  Tb5  1  0.013303  0.179863  0.403717  1
  Tb  Tb6  1  0.513303  0.320137  0.403717  1
  Tb  Tb7  1  0.486697  0.679863  0.596283  1
  Lu  Lu8  1  0.162965  0.510587  0.750000  1
  Lu  Lu9  1  0.837035  0.489413  0.250000  1
  Lu  Lu10  1  0.337035  0.010587  0.250000  1
  Lu  Lu11  1  0.662965  0.989413  0.750000  1
  Lu  Lu12  1  0.328293  0.173189  0.621180  1
  Lu  Lu13  1  0.671707  0.826811  0.378820  1
  Lu  Lu14  1  0.171707  0.673189  0.378820  1
  Lu  Lu15  1  0.671707  0.826811  0.121180  1
  Lu  Lu16  1  0.828293  0.326811  0.621180  1
  Lu  Lu17  1  0.328293  0.173189  0.878820  1
  Lu  Lu18  1  0.828293  0.326811  0.878820  1
  Lu  Lu19  1  0.171707  0.673189  0.121180  1
  Ga  Ga20  1  0.035179  0.108367  0.750000  1
  Ga  Ga21  1  0.964821  0.891633  0.250000  1
  Ga  Ga22  1  0.464821  0.608367  0.250000  1
  Ga  Ga23  1  0.535179  0.391633  0.750000  1
  Ga  Ga24  1  0.159898  0.468013  0.540840  1
  Ga  Ga25  1  0.840102  0.531987  0.459160  1
  Ga  Ga26  1  0.340102  0.968013  0.459160  1
  Ga  Ga27  1  0.840102  0.531987  0.040840  1
  Ga  Ga28  1  0.659898  0.031987  0.540840  1
  Ga  Ga29  1  0.159898  0.468013  0.959160  1
  Ga  Ga30  1  0.659898  0.031987  0.959160  1
  Ga  Ga31  1  0.340102  0.968013  0.040840  1
  Si  Si32  1  0.280778  0.875295  0.750000  1
  Si  Si33  1  0.719222  0.124705  0.250000  1
  Si  Si34  1  0.219222  0.375295  0.250000  1
  Si  Si35  1  0.780778  0.624705  0.750000  1
