# generated using pymatgen
data_Yb3CeNpRu7
_symmetry_space_group_name_H-M   'P 1'
_cell_length_a   5.61856141
_cell_length_b   5.61856101
_cell_length_c   7.96906104
_cell_angle_alpha   89.99213404
_cell_angle_beta   90.00786652
_cell_angle_gamma   119.99283003
_symmetry_Int_Tables_number   1
_chemical_formula_structural   Yb3CeNpRu7
_chemical_formula_sum   'Yb3 Ce1 Np1 Ru7'
_cell_volume   217.88101313
_cell_formula_units_Z   1
loop_
 _symmetry_equiv_pos_site_id
 _symmetry_equiv_pos_as_xyz
  1  'x, y, z'
loop_
 _atom_site_type_symbol
 _atom_site_label
 _atom_site_symmetry_multiplicity
 _atom_site_fract_x
 _atom_site_fract_y
 _atom_site_fract_z
 _atom_site_occupancy
  Yb  Yb0  1  0.333330  0.666670  0.421638  1
  Yb  Yb1  1  0.333336  0.666664  0.057685  1
  Yb  Yb2  1  0.666667  0.333333  0.946245  1
  Ce  Ce3  1  0.666675  0.333325  0.573056  1
  Np  Np4  1  0.999997  0.000003  0.497234  1
  Ru  Ru5  1  0.000003  0.999997  0.002408  1
  Ru  Ru6  1  0.171094  0.342145  0.739656  1
  Ru  Ru7  1  0.171104  0.828896  0.739663  1
  Ru  Ru8  1  0.657855  0.828906  0.739656  1
  Ru  Ru9  1  0.828656  0.657367  0.260926  1
  Ru  Ru10  1  0.828652  0.171348  0.260905  1
  Ru  Ru11  1  0.342633  0.171344  0.260926  1
