# generated using pymatgen
data_CaPr3Nd3CoI12
_symmetry_space_group_name_H-M   'P 1'
_cell_length_a   9.94678922
_cell_length_b   10.08764276
_cell_length_c   10.07044099
_cell_angle_alpha   106.97384092
_cell_angle_beta   107.23475514
_cell_angle_gamma   106.81048126
_symmetry_Int_Tables_number   1
_chemical_formula_structural   CaPr3Nd3CoI12
_chemical_formula_sum   'Ca1 Pr3 Nd3 Co1 I12'
_cell_volume   841.36947395
_cell_formula_units_Z   1
loop_
 _symmetry_equiv_pos_site_id
 _symmetry_equiv_pos_as_xyz
  1  'x, y, z'
loop_
 _atom_site_type_symbol
 _atom_site_label
 _atom_site_symmetry_multiplicity
 _atom_site_fract_x
 _atom_site_fract_y
 _atom_site_fract_z
 _atom_site_occupancy
  Ca  Ca0  1  0.499978  0.500053  0.499943  1
  Pr  Pr1  1  0.290071  0.024878  0.094924  1
  Pr  Pr2  1  0.900135  0.695656  0.974177  1
  Pr  Pr3  1  0.710060  0.975415  0.905048  1
  Nd  Nd4  1  0.974410  0.900942  0.696772  1
  Nd  Nd5  1  0.025817  0.099809  0.303356  1
  Nd  Nd6  1  0.099479  0.302738  0.025869  1
  Co  Co7  1  0.000200  0.000473  0.000157  1
  I  I8  1  0.536066  0.616403  0.840388  1
  I  I9  1  0.462058  0.383443  0.158692  1
  I  I10  1  0.318518  0.926604  0.773531  1
  I  I11  1  0.383264  0.158504  0.461907  1
  I  I12  1  0.927176  0.775520  0.320020  1
  I  I13  1  0.681503  0.073437  0.226483  1
  I  I14  1  0.073164  0.225507  0.681848  1
  I  I15  1  0.773268  0.318632  0.926416  1
  I  I16  1  0.228370  0.680647  0.074006  1
  I  I17  1  0.843285  0.539497  0.616916  1
  I  I18  1  0.156464  0.460283  0.381427  1
  I  I19  1  0.616715  0.841558  0.538121  1
