# generated using pymatgen
data_NaNd6AuBr12
_symmetry_space_group_name_H-M   'P 1'
_cell_length_a   9.61359975
_cell_length_b   9.60586390
_cell_length_c   9.61091350
_cell_angle_alpha   107.10856548
_cell_angle_beta   107.16217227
_cell_angle_gamma   107.13756555
_symmetry_Int_Tables_number   1
_chemical_formula_structural   NaNd6AuBr12
_chemical_formula_sum   'Na1 Nd6 Au1 Br12'
_cell_volume   736.38885206
_cell_formula_units_Z   1
loop_
 _symmetry_equiv_pos_site_id
 _symmetry_equiv_pos_as_xyz
  1  'x, y, z'
loop_
 _atom_site_type_symbol
 _atom_site_label
 _atom_site_symmetry_multiplicity
 _atom_site_fract_x
 _atom_site_fract_y
 _atom_site_fract_z
 _atom_site_occupancy
  Na  Na0  1  0.500000  0.500000  0.500000  1
  Nd  Nd1  1  0.115750  0.328854  0.033171  1
  Nd  Nd2  1  0.328390  0.032690  0.115203  1
  Nd  Nd3  1  0.033055  0.115201  0.328669  1
  Nd  Nd4  1  0.966945  0.884800  0.671331  1
  Nd  Nd5  1  0.671610  0.967311  0.884797  1
  Nd  Nd6  1  0.884250  0.671146  0.966829  1
  Au  Au7  1  0.000000  0.000000  0.000000  1
  Br  Br8  1  0.216393  0.684429  0.070834  1
  Br  Br9  1  0.453196  0.372071  0.154815  1
  Br  Br10  1  0.684880  0.071300  0.216812  1
  Br  Br11  1  0.929705  0.782760  0.315507  1
  Br  Br12  1  0.154630  0.453046  0.371958  1
  Br  Br13  1  0.371930  0.154348  0.452952  1
  Br  Br14  1  0.628070  0.845652  0.547049  1
  Br  Br15  1  0.845370  0.546954  0.628042  1
  Br  Br16  1  0.070295  0.217240  0.684494  1
  Br  Br17  1  0.315120  0.928700  0.783188  1
  Br  Br18  1  0.546804  0.627929  0.845186  1
  Br  Br19  1  0.783607  0.315572  0.929166  1
