# generated using pymatgen
data_TbAl7Cu5
_symmetry_space_group_name_H-M   'P 1'
_cell_length_a   5.09585426
_cell_length_b   6.69615956
_cell_length_c   6.69616012
_cell_angle_alpha   97.53823935
_cell_angle_beta   112.36501656
_cell_angle_gamma   67.63498566
_symmetry_Int_Tables_number   1
_chemical_formula_structural   TbAl7Cu5
_chemical_formula_sum   'Tb1 Al7 Cu5'
_cell_volume   195.38409835
_cell_formula_units_Z   1
loop_
 _symmetry_equiv_pos_site_id
 _symmetry_equiv_pos_as_xyz
  1  'x, y, z'
loop_
 _atom_site_type_symbol
 _atom_site_label
 _atom_site_symmetry_multiplicity
 _atom_site_fract_x
 _atom_site_fract_y
 _atom_site_fract_z
 _atom_site_occupancy
  Tb  Tb0  1  0.000318  0.999682  0.000318  1
  Al  Al1  1  0.650070  0.349930  0.650070  1
  Al  Al2  1  0.345773  0.654227  0.345773  1
  Al  Al3  1  0.992596  0.355417  0.340608  1
  Al  Al4  1  0.992596  0.659392  0.644583  1
  Al  Al5  1  0.275295  0.224705  0.775295  1
  Al  Al6  1  0.506593  0.783283  0.796470  1
  Al  Al7  1  0.506593  0.203530  0.216717  1
  Cu  Cu8  1  0.499540  0.000582  0.503424  1
  Cu  Cu9  1  0.003302  0.000582  0.503424  1
  Cu  Cu10  1  0.499540  0.496576  0.999418  1
  Cu  Cu11  1  0.003302  0.496576  0.999418  1
  Cu  Cu12  1  0.724481  0.775519  0.224481  1
