# generated using pymatgen
data_YbDy2Ho(SiPt2)4
_symmetry_space_group_name_H-M   'P 1'
_cell_length_a   5.52557205
_cell_length_b   6.96168200
_cell_length_c   7.32341409
_cell_angle_alpha   90.00000000
_cell_angle_beta   89.99840021
_cell_angle_gamma   90.00000000
_symmetry_Int_Tables_number   1
_chemical_formula_structural   YbDy2Ho(SiPt2)4
_chemical_formula_sum   'Yb1 Dy2 Ho1 Si4 Pt8'
_cell_volume   281.71178720
_cell_formula_units_Z   1
loop_
 _symmetry_equiv_pos_site_id
 _symmetry_equiv_pos_as_xyz
  1  'x, y, z'
loop_
 _atom_site_type_symbol
 _atom_site_label
 _atom_site_symmetry_multiplicity
 _atom_site_fract_x
 _atom_site_fract_y
 _atom_site_fract_z
 _atom_site_occupancy
  Yb  Yb0  1  0.865982  0.250000  0.522941  1
  Dy  Dy1  1  0.133431  0.750000  0.475512  1
  Dy  Dy2  1  0.634404  0.250000  0.024912  1
  Ho  Ho3  1  0.366033  0.750000  0.976153  1
  Si  Si4  1  0.133230  0.250000  0.876823  1
  Si  Si5  1  0.367441  0.250000  0.380693  1
  Si  Si6  1  0.632615  0.750000  0.621350  1
  Si  Si7  1  0.866905  0.750000  0.121525  1
  Pt  Pt8  1  0.098779  0.051008  0.179089  1
  Pt  Pt9  1  0.098779  0.448992  0.179089  1
  Pt  Pt10  1  0.404566  0.050244  0.679135  1
  Pt  Pt11  1  0.404566  0.449756  0.679135  1
  Pt  Pt12  1  0.592901  0.550848  0.318796  1
  Pt  Pt13  1  0.592901  0.949152  0.318796  1
  Pt  Pt14  1  0.903734  0.551625  0.823025  1
  Pt  Pt15  1  0.903734  0.948375  0.823025  1
