# generated using pymatgen
data_TcBiF7
_symmetry_space_group_name_H-M   'P 1'
_cell_length_a   5.70524700
_cell_length_b   9.21849254
_cell_length_c   12.26089171
_cell_angle_alpha   61.87377501
_cell_angle_beta   90.00000000
_cell_angle_gamma   90.00000000
_symmetry_Int_Tables_number   1
_chemical_formula_structural   TcBiF7
_chemical_formula_sum   'Tc4 Bi4 F28'
_cell_volume   568.69743235
_cell_formula_units_Z   4
loop_
 _symmetry_equiv_pos_site_id
 _symmetry_equiv_pos_as_xyz
  1  'x, y, z'
loop_
 _atom_site_type_symbol
 _atom_site_label
 _atom_site_symmetry_multiplicity
 _atom_site_fract_x
 _atom_site_fract_y
 _atom_site_fract_z
 _atom_site_occupancy
  Tc  Tc0  1  0.757236  0.272734  0.958092  1
  Tc  Tc1  1  0.257236  0.727266  0.541908  1
  Tc  Tc2  1  0.242764  0.727266  0.041908  1
  Tc  Tc3  1  0.742764  0.272734  0.458092  1
  Bi  Bi4  1  0.760534  0.815517  0.761689  1
  Bi  Bi5  1  0.260534  0.184483  0.738311  1
  Bi  Bi6  1  0.239466  0.184483  0.238311  1
  Bi  Bi7  1  0.739466  0.815517  0.261689  1
  F  F8  1  0.439772  0.708668  0.918556  1
  F  F9  1  0.939772  0.291332  0.581444  1
  F  F10  1  0.560228  0.291332  0.081444  1
  F  F11  1  0.060228  0.708668  0.418556  1
  F  F12  1  0.453123  0.278994  0.544286  1
  F  F13  1  0.953123  0.721006  0.955714  1
  F  F14  1  0.546877  0.721006  0.455714  1
  F  F15  1  0.046877  0.278994  0.044286  1
  F  F16  1  0.769833  0.511550  0.861765  1
  F  F17  1  0.269833  0.488450  0.638235  1
  F  F18  1  0.230167  0.488450  0.138235  1
  F  F19  1  0.730167  0.511550  0.361765  1
  F  F20  1  0.757437  0.029300  0.053573  1
  F  F21  1  0.257437  0.970700  0.446427  1
  F  F22  1  0.242563  0.970700  0.946427  1
  F  F23  1  0.742563  0.029300  0.553573  1
  F  F24  1  0.977314  0.730013  0.634147  1
  F  F25  1  0.477314  0.269987  0.865853  1
  F  F26  1  0.022686  0.269987  0.365853  1
  F  F27  1  0.522686  0.730013  0.134147  1
  F  F28  1  0.051697  0.744867  0.169736  1
  F  F29  1  0.551697  0.255133  0.330264  1
  F  F30  1  0.948303  0.255133  0.830264  1
  F  F31  1  0.448303  0.744867  0.669736  1
  F  F32  1  0.408797  0.970165  0.229629  1
  F  F33  1  0.908797  0.029835  0.270371  1
  F  F34  1  0.591203  0.029835  0.770371  1
  F  F35  1  0.091203  0.970165  0.729629  1
