# generated using pymatgen
data_K9La2YSi12(O16F)2
_symmetry_space_group_name_H-M   'P 1'
_cell_length_a   6.93545453
_cell_length_b   11.52128611
_cell_length_c   11.53353900
_cell_angle_alpha   92.13656859
_cell_angle_beta   89.74344488
_cell_angle_gamma   99.55296966
_symmetry_Int_Tables_number   1
_chemical_formula_structural   K9La2YSi12(O16F)2
_chemical_formula_sum   'K9 La2 Y1 Si12 O32 F2'
_cell_volume   908.17828496
_cell_formula_units_Z   1
loop_
 _symmetry_equiv_pos_site_id
 _symmetry_equiv_pos_as_xyz
  1  'x, y, z'
loop_
 _atom_site_type_symbol
 _atom_site_label
 _atom_site_symmetry_multiplicity
 _atom_site_fract_x
 _atom_site_fract_y
 _atom_site_fract_z
 _atom_site_occupancy
  K  K0  1  0.260927  0.382177  0.016726  1
  K  K1  1  0.739073  0.617823  0.983274  1
  K  K2  1  0.166260  0.187941  0.779014  1
  K  K3  1  0.833740  0.812059  0.220986  1
  K  K4  1  0.161389  0.149866  0.212274  1
  K  K5  1  0.838611  0.850134  0.787726  1
  K  K6  1  0.500000  0.000000  0.000000  1
  K  K7  1  0.018243  0.673479  0.509626  1
  K  K8  1  0.981757  0.326521  0.490374  1
  La  La9  1  0.488425  0.512878  0.332420  1
  La  La10  1  0.511575  0.487122  0.667580  1
  Y  Y11  1  0.000000  0.000000  0.500000  1
  Si  Si12  1  0.558564  0.772807  0.511036  1
  Si  Si13  1  0.441436  0.227193  0.488964  1
  Si  Si14  1  0.336177  0.865174  0.310862  1
  Si  Si15  1  0.663823  0.134826  0.689138  1
  Si  Si16  1  0.657160  0.087255  0.304250  1
  Si  Si17  1  0.342840  0.912745  0.695750  1
  Si  Si18  1  0.690897  0.299653  0.159475  1
  Si  Si19  1  0.309103  0.700347  0.840525  1
  Si  Si20  1  0.983065  0.516333  0.257455  1
  Si  Si21  1  0.016935  0.483667  0.742545  1
  Si  Si22  1  0.282203  0.668694  0.116329  1
  Si  Si23  1  0.717797  0.331306  0.883671  1
  O  O24  1  0.533932  0.630578  0.517331  1
  O  O25  1  0.466068  0.369422  0.482669  1
  O  O26  1  0.493926  0.794909  0.374075  1
  O  O27  1  0.506074  0.205091  0.625925  1
  O  O28  1  0.387740  0.818852  0.593228  1
  O  O29  1  0.612260  0.181148  0.406772  1
  O  O30  1  0.773753  0.841310  0.542570  1
  O  O31  1  0.226247  0.158690  0.457430  1
  O  O32  1  0.146165  0.877266  0.385075  1
  O  O33  1  0.853835  0.122734  0.614925  1
  O  O34  1  0.272193  0.795410  0.185563  1
  O  O35  1  0.727807  0.204590  0.814437  1
  O  O36  1  0.455939  0.993942  0.270328  1
  O  O37  1  0.544061  0.006058  0.729672  1
  O  O38  1  0.702877  0.160644  0.184055  1
  O  O39  1  0.297123  0.839356  0.815945  1
  O  O40  1  0.841229  0.027503  0.334554  1
  O  O41  1  0.158771  0.972497  0.665446  1
  O  O42  1  0.892284  0.376793  0.218189  1
  O  O43  1  0.107716  0.623207  0.781811  1
  O  O44  1  0.721389  0.303724  0.020057  1
  O  O45  1  0.278611  0.696276  0.979943  1
  O  O46  1  0.493908  0.342009  0.203938  1
  O  O47  1  0.506092  0.657991  0.796062  1
  O  O48  1  0.152479  0.510742  0.351070  1
  O  O49  1  0.847521  0.489258  0.648930  1
  O  O50  1  0.819380  0.588565  0.307028  1
  O  O51  1  0.180620  0.411435  0.692972  1
  O  O52  1  0.071475  0.578733  0.135105  1
  O  O53  1  0.928525  0.421267  0.864895  1
  O  O54  1  0.463783  0.607984  0.150708  1
  O  O55  1  0.536217  0.392016  0.849292  1
  F  F56  1  0.243970  0.153763  0.995081  1
  F  F57  1  0.756030  0.846237  0.004919  1
