# generated using pymatgen
data_DyHo3Co16(P3W)4
_symmetry_space_group_name_H-M   'P 1'
_cell_length_a   3.70374100
_cell_length_b   10.41426001
_cell_length_c   11.85805601
_cell_angle_alpha   89.99644486
_cell_angle_beta   90.00000000
_cell_angle_gamma   90.00000000
_symmetry_Int_Tables_number   1
_chemical_formula_structural   DyHo3Co16(P3W)4
_chemical_formula_sum   'Dy1 Ho3 Co16 P12 W4'
_cell_volume   457.38563605
_cell_formula_units_Z   1
loop_
 _symmetry_equiv_pos_site_id
 _symmetry_equiv_pos_as_xyz
  1  'x, y, z'
loop_
 _atom_site_type_symbol
 _atom_site_label
 _atom_site_symmetry_multiplicity
 _atom_site_fract_x
 _atom_site_fract_y
 _atom_site_fract_z
 _atom_site_occupancy
  Dy  Dy0  1  0.750000  0.082778  0.795582  1
  Ho  Ho1  1  0.250000  0.582708  0.704455  1
  Ho  Ho2  1  0.250000  0.917272  0.204439  1
  Ho  Ho3  1  0.750000  0.417263  0.295544  1
  Co  Co4  1  0.250000  0.405163  0.488873  1
  Co  Co5  1  0.250000  0.094858  0.989078  1
  Co  Co6  1  0.750000  0.594823  0.511122  1
  Co  Co7  1  0.750000  0.905140  0.011175  1
  Co  Co8  1  0.250000  0.222402  0.177866  1
  Co  Co9  1  0.250000  0.277765  0.677796  1
  Co  Co10  1  0.750000  0.777542  0.822145  1
  Co  Co11  1  0.750000  0.722392  0.322126  1
  Co  Co12  1  0.250000  0.887267  0.699897  1
  Co  Co13  1  0.250000  0.612535  0.199984  1
  Co  Co14  1  0.750000  0.112561  0.299992  1
  Co  Co15  1  0.750000  0.387497  0.800019  1
  Co  Co16  1  0.250000  0.465647  0.933324  1
  Co  Co17  1  0.250000  0.034372  0.433289  1
  Co  Co18  1  0.750000  0.534352  0.066700  1
  Co  Co19  1  0.750000  0.965607  0.566571  1
  P  P20  1  0.250000  0.420041  0.115883  1
  P  P21  1  0.250000  0.079978  0.615664  1
  P  P22  1  0.750000  0.579953  0.884116  1
  P  P23  1  0.750000  0.920027  0.384080  1
  P  P24  1  0.250000  0.268810  0.864952  1
  P  P25  1  0.250000  0.231492  0.364844  1
  P  P26  1  0.750000  0.731475  0.135154  1
  P  P27  1  0.750000  0.768506  0.635180  1
  P  P28  1  0.250000  0.594574  0.390813  1
  P  P29  1  0.250000  0.905164  0.890939  1
  P  P30  1  0.750000  0.405398  0.609198  1
  P  P31  1  0.750000  0.094599  0.109167  1
  W  W32  1  0.250000  0.708723  0.987435  1
  W  W33  1  0.250000  0.791223  0.487413  1
  W  W34  1  0.750000  0.291300  0.012632  1
  W  W35  1  0.750000  0.208792  0.512553  1
