# generated using pymatgen
data_RbMo3(SeO6)2
_symmetry_space_group_name_H-M   'P 1'
_cell_length_a   7.39302000
_cell_length_b   7.39301309
_cell_length_c   12.64528600
_cell_angle_alpha   90.00000000
_cell_angle_beta   90.00000000
_cell_angle_gamma   120.00006430
_symmetry_Int_Tables_number   1
_chemical_formula_structural   RbMo3(SeO6)2
_chemical_formula_sum   'Rb2 Mo6 Se4 O24'
_cell_volume   598.55265694
_cell_formula_units_Z   2
loop_
 _symmetry_equiv_pos_site_id
 _symmetry_equiv_pos_as_xyz
  1  'x, y, z'
loop_
 _atom_site_type_symbol
 _atom_site_label
 _atom_site_symmetry_multiplicity
 _atom_site_fract_x
 _atom_site_fract_y
 _atom_site_fract_z
 _atom_site_occupancy
  Rb  Rb0  1  0.333334  0.666669  0.542403  1
  Rb  Rb1  1  0.666666  0.333331  0.042403  1
  Mo  Mo2  1  0.158537  0.331551  0.207878  1
  Mo  Mo3  1  0.173015  0.841464  0.207877  1
  Mo  Mo4  1  0.331552  0.173015  0.707878  1
  Mo  Mo5  1  0.841463  0.668449  0.707878  1
  Mo  Mo6  1  0.668448  0.826985  0.207878  1
  Mo  Mo7  1  0.826985  0.158536  0.707877  1
  Se  Se8  1  0.000000  0.000000  0.423973  1
  Se  Se9  1  0.333334  0.666667  0.989739  1
  Se  Se10  1  0.666666  0.333333  0.489739  1
  Se  Se11  1  0.000000  0.000000  0.923973  1
  O  O12  1  0.751853  0.862542  0.676432  1
  O  O13  1  0.889311  0.751853  0.176432  1
  O  O14  1  0.862541  0.110689  0.176433  1
  O  O15  1  0.137459  0.889311  0.676433  1
  O  O16  1  0.110689  0.248147  0.676432  1
  O  O17  1  0.248147  0.137458  0.176432  1
  O  O18  1  0.552198  0.088797  0.733655  1
  O  O19  1  0.463401  0.552196  0.233654  1
  O  O20  1  0.088796  0.536599  0.233655  1
  O  O21  1  0.911204  0.463401  0.733655  1
  O  O22  1  0.536599  0.447804  0.733654  1
  O  O23  1  0.447802  0.911203  0.233655  1
  O  O24  1  0.215999  0.796316  0.046224  1
  O  O25  1  0.419683  0.215998  0.546224  1
  O  O26  1  0.796315  0.580317  0.546224  1
  O  O27  1  0.203685  0.419683  0.046224  1
  O  O28  1  0.580317  0.784002  0.046224  1
  O  O29  1  0.784001  0.203684  0.546224  1
  O  O30  1  0.125441  0.878823  0.366010  1
  O  O31  1  0.246618  0.125442  0.866010  1
  O  O32  1  0.878824  0.753381  0.866010  1
  O  O33  1  0.121176  0.246619  0.366010  1
  O  O34  1  0.753382  0.874558  0.366010  1
  O  O35  1  0.874559  0.121177  0.866010  1
