# generated using pymatgen
data_Er9Lu(InSb)4
_symmetry_space_group_name_H-M   'P 1'
_cell_length_a   8.73707436
_cell_length_b   8.73707573
_cell_length_c   8.03801536
_cell_angle_alpha   90.01584377
_cell_angle_beta   90.01584443
_cell_angle_gamma   125.18155291
_symmetry_Int_Tables_number   1
_chemical_formula_structural   Er9Lu(InSb)4
_chemical_formula_sum   'Er9 Lu1 In4 Sb4'
_cell_volume   501.50880485
_cell_formula_units_Z   1
loop_
 _symmetry_equiv_pos_site_id
 _symmetry_equiv_pos_as_xyz
  1  'x, y, z'
loop_
 _atom_site_type_symbol
 _atom_site_label
 _atom_site_symmetry_multiplicity
 _atom_site_fract_x
 _atom_site_fract_y
 _atom_site_fract_z
 _atom_site_occupancy
  Er  Er0  1  0.031141  0.305470  0.334566  1
  Er  Er1  1  0.968859  0.694530  0.665434  1
  Er  Er2  1  0.468656  0.194220  0.834812  1
  Er  Er3  1  0.805780  0.531344  0.165188  1
  Er  Er4  1  0.531344  0.805780  0.165188  1
  Er  Er5  1  0.194220  0.468656  0.834812  1
  Er  Er6  1  0.694530  0.968859  0.665434  1
  Er  Er7  1  0.305470  0.031141  0.334566  1
  Er  Er8  1  0.500000  0.500000  0.500000  1
  Lu  Lu9  1  0.000000  0.000000  0.000000  1
  In  In10  1  0.369080  0.369080  0.129731  1
  In  In11  1  0.630920  0.630920  0.870269  1
  In  In12  1  0.130321  0.130321  0.630343  1
  In  In13  1  0.869679  0.869679  0.369657  1
  Sb  Sb14  1  0.797126  0.202874  0.000000  1
  Sb  Sb15  1  0.202874  0.797126  0.000000  1
  Sb  Sb16  1  0.703178  0.296822  0.500000  1
  Sb  Sb17  1  0.296822  0.703178  0.500000  1
