# generated using pymatgen
data_Y3Mg2ScPt3
_symmetry_space_group_name_H-M   'P 1'
_cell_length_a   7.38031700
_cell_length_b   7.44650524
_cell_length_c   4.13240400
_cell_angle_alpha   90.00000000
_cell_angle_beta   90.00000000
_cell_angle_gamma   119.70639948
_symmetry_Int_Tables_number   1
_chemical_formula_structural   Y3Mg2ScPt3
_chemical_formula_sum   'Y3 Mg2 Sc1 Pt3'
_cell_volume   197.25962297
_cell_formula_units_Z   1
loop_
 _symmetry_equiv_pos_site_id
 _symmetry_equiv_pos_as_xyz
  1  'x, y, z'
loop_
 _atom_site_type_symbol
 _atom_site_label
 _atom_site_symmetry_multiplicity
 _atom_site_fract_x
 _atom_site_fract_y
 _atom_site_fract_z
 _atom_site_occupancy
  Y  Y0  1  0.394517  0.000000  0.500000  1
  Y  Y1  1  0.011713  0.424091  0.500000  1
  Y  Y2  1  0.587623  0.575909  0.500000  1
  Mg  Mg3  1  0.248323  0.250096  0.000000  1
  Mg  Mg4  1  0.998226  0.749904  0.000000  1
  Sc  Sc5  1  0.757173  0.000000  0.000000  1
  Pt  Pt6  1  0.989572  0.000000  0.500000  1
  Pt  Pt7  1  0.667794  0.322736  0.000000  1
  Pt  Pt8  1  0.345057  0.677264  0.000000  1
