# generated using pymatgen
data_Sc2Be2BiRh5
_symmetry_space_group_name_H-M   'P 1'
_cell_length_a   9.50394900
_cell_length_b   9.50394900
_cell_length_c   3.35072200
_cell_angle_alpha   90.00000000
_cell_angle_beta   90.00000000
_cell_angle_gamma   90.00000000
_symmetry_Int_Tables_number   1
_chemical_formula_structural   Sc2Be2BiRh5
_chemical_formula_sum   'Sc4 Be4 Bi2 Rh10'
_cell_volume   302.65412078
_cell_formula_units_Z   2
loop_
 _symmetry_equiv_pos_site_id
 _symmetry_equiv_pos_as_xyz
  1  'x, y, z'
loop_
 _atom_site_type_symbol
 _atom_site_label
 _atom_site_symmetry_multiplicity
 _atom_site_fract_x
 _atom_site_fract_y
 _atom_site_fract_z
 _atom_site_occupancy
  Sc  Sc0  1  0.825946  0.325946  0.000000  1
  Sc  Sc1  1  0.325946  0.174054  0.000000  1
  Sc  Sc2  1  0.674054  0.825946  0.000000  1
  Sc  Sc3  1  0.174054  0.674054  0.000000  1
  Be  Be4  1  0.621262  0.121262  0.000000  1
  Be  Be5  1  0.121262  0.378738  0.000000  1
  Be  Be6  1  0.878738  0.621262  0.000000  1
  Be  Be7  1  0.378738  0.878738  0.000000  1
  Bi  Bi8  1  0.000000  0.000000  0.000000  1
  Bi  Bi9  1  0.500000  0.500000  0.000000  1
  Rh  Rh10  1  0.072985  0.219211  0.500000  1
  Rh  Rh11  1  0.219211  0.927015  0.500000  1
  Rh  Rh12  1  0.780789  0.072985  0.500000  1
  Rh  Rh13  1  0.927015  0.780789  0.500000  1
  Rh  Rh14  1  0.427015  0.719211  0.500000  1
  Rh  Rh15  1  0.572985  0.280789  0.500000  1
  Rh  Rh16  1  0.719211  0.572985  0.500000  1
  Rh  Rh17  1  0.280789  0.427015  0.500000  1
  Rh  Rh18  1  0.500000  0.000000  0.500000  1
  Rh  Rh19  1  0.000000  0.500000  0.500000  1
