# generated using pymatgen
data_Be5Nb6BRu6
_symmetry_space_group_name_H-M   'P 1'
_cell_length_a   7.28233766
_cell_length_b   7.28209558
_cell_length_c   7.28240835
_cell_angle_alpha   126.44363615
_cell_angle_beta   128.61133826
_cell_angle_gamma   77.40624288
_symmetry_Int_Tables_number   1
_chemical_formula_structural   Be5Nb6BRu6
_chemical_formula_sum   'Be5 Nb6 B1 Ru6'
_cell_volume   235.48737870
_cell_formula_units_Z   1
loop_
 _symmetry_equiv_pos_site_id
 _symmetry_equiv_pos_as_xyz
  1  'x, y, z'
loop_
 _atom_site_type_symbol
 _atom_site_label
 _atom_site_symmetry_multiplicity
 _atom_site_fract_x
 _atom_site_fract_y
 _atom_site_fract_z
 _atom_site_occupancy
  Be  Be0  1  0.750163  0.497064  0.246887  1
  Be  Be1  1  0.250040  0.496750  0.747014  1
  Be  Be2  1  0.333749  0.830080  0.497026  1
  Be  Be3  1  0.665939  0.163511  0.495932  1
  Be  Be4  1  0.832720  0.829769  0.996221  1
  Nb  Nb5  1  0.542415  0.090137  0.043899  1
  Nb  Nb6  1  0.451301  0.492254  0.536857  1
  Nb  Nb7  1  0.955433  0.491892  0.040411  1
  Nb  Nb8  1  0.045872  0.089845  0.547645  1
  Nb  Nb9  1  0.754478  0.908812  0.658009  1
  Nb  Nb10  1  0.250229  0.908088  0.154157  1
  B  B11  1  0.167341  0.163231  0.997210  1
  Ru  Ru12  1  0.500203  0.243990  0.743802  1
  Ru  Ru13  1  0.002494  0.245524  0.243173  1
  Ru  Ru14  1  0.126380  0.753618  0.627600  1
  Ru  Ru15  1  0.873365  0.494940  0.621399  1
  Ru  Ru16  1  0.625841  0.749365  0.123408  1
  Ru  Ru17  1  0.372037  0.493327  0.121552  1
