# generated using pymatgen
data_Nd16YHo3Sn16
_symmetry_space_group_name_H-M   'P 1'
_cell_length_a   8.23751500
_cell_length_b   8.39098200
_cell_length_c   15.91743700
_cell_angle_alpha   90.00000000
_cell_angle_beta   90.00000000
_cell_angle_gamma   90.00190203
_symmetry_Int_Tables_number   1
_chemical_formula_structural   Nd16YHo3Sn16
_chemical_formula_sum   'Nd16 Y1 Ho3 Sn16'
_cell_volume   1100.22661721
_cell_formula_units_Z   1
loop_
 _symmetry_equiv_pos_site_id
 _symmetry_equiv_pos_as_xyz
  1  'x, y, z'
loop_
 _atom_site_type_symbol
 _atom_site_label
 _atom_site_symmetry_multiplicity
 _atom_site_fract_x
 _atom_site_fract_y
 _atom_site_fract_z
 _atom_site_occupancy
  Nd  Nd0  1  0.017734  0.180914  0.401255  1
  Nd  Nd1  1  0.368234  0.837266  0.120686  1
  Nd  Nd2  1  0.131860  0.337122  0.620753  1
  Nd  Nd3  1  0.482229  0.680980  0.901221  1
  Nd  Nd4  1  0.867976  0.662960  0.120673  1
  Nd  Nd5  1  0.131860  0.337122  0.879247  1
  Nd  Nd6  1  0.482229  0.680980  0.598779  1
  Nd  Nd7  1  0.631864  0.162851  0.620728  1
  Nd  Nd8  1  0.867976  0.662960  0.379327  1
  Nd  Nd9  1  0.017734  0.180914  0.098745  1
  Nd  Nd10  1  0.982222  0.819024  0.901225  1
  Nd  Nd11  1  0.631864  0.162851  0.879272  1
  Nd  Nd12  1  0.517885  0.318971  0.098734  1
  Nd  Nd13  1  0.368234  0.837266  0.379314  1
  Nd  Nd14  1  0.982222  0.819024  0.598775  1
  Nd  Nd15  1  0.517885  0.318971  0.401266  1
  Y  Y16  1  0.199187  0.501918  0.250000  1
  Ho  Ho17  1  0.699302  0.997981  0.250000  1
  Ho  Ho18  1  0.300665  0.002003  0.750000  1
  Ho  Ho19  1  0.800659  0.497992  0.750000  1
  Sn  Sn20  1  0.791752  0.464683  0.543575  1
  Sn  Sn21  1  0.708246  0.964685  0.456453  1
  Sn  Sn22  1  0.675671  0.854212  0.750000  1
  Sn  Sn23  1  0.208260  0.535346  0.456581  1
  Sn  Sn24  1  0.291745  0.035323  0.956424  1
  Sn  Sn25  1  0.824230  0.354177  0.250000  1
  Sn  Sn26  1  0.791752  0.464683  0.956425  1
  Sn  Sn27  1  0.565235  0.616541  0.250000  1
  Sn  Sn28  1  0.208260  0.535346  0.043419  1
  Sn  Sn29  1  0.435013  0.383524  0.750000  1
  Sn  Sn30  1  0.175657  0.645790  0.750000  1
  Sn  Sn31  1  0.935010  0.116493  0.750000  1
  Sn  Sn32  1  0.291745  0.035323  0.543576  1
  Sn  Sn33  1  0.708246  0.964685  0.043547  1
  Sn  Sn34  1  0.324441  0.145496  0.250000  1
  Sn  Sn35  1  0.064916  0.883623  0.250000  1
