# generated using pymatgen
data_CeNd3Sm4(Se3N2)2
_symmetry_space_group_name_H-M   'P 1'
_cell_length_a   8.31997818
_cell_length_b   8.33785968
_cell_length_c   6.52732661
_cell_angle_alpha   90.19390145
_cell_angle_beta   90.21469156
_cell_angle_gamma   75.50448476
_symmetry_Int_Tables_number   1
_chemical_formula_structural   CeNd3Sm4(Se3N2)2
_chemical_formula_sum   'Ce1 Nd3 Sm4 Se6 N4'
_cell_volume   438.38739632
_cell_formula_units_Z   1
loop_
 _symmetry_equiv_pos_site_id
 _symmetry_equiv_pos_as_xyz
  1  'x, y, z'
loop_
 _atom_site_type_symbol
 _atom_site_label
 _atom_site_symmetry_multiplicity
 _atom_site_fract_x
 _atom_site_fract_y
 _atom_site_fract_z
 _atom_site_occupancy
  Ce  Ce0  1  0.814983  0.445014  0.529812  1
  Nd  Nd1  1  0.558442  0.188803  0.969304  1
  Nd  Nd2  1  0.190681  0.557718  0.468140  1
  Nd  Nd3  1  0.442390  0.811726  0.029442  1
  Sm  Sm4  1  0.243305  0.088033  0.575798  1
  Sm  Sm5  1  0.912087  0.758702  0.925530  1
  Sm  Sm6  1  0.756262  0.912521  0.424589  1
  Sm  Sm7  1  0.087489  0.241396  0.075054  1
  Se  Se8  1  0.752547  0.483941  0.032919  1
  Se  Se9  1  0.094670  0.904854  0.251260  1
  Se  Se10  1  0.515873  0.249088  0.464676  1
  Se  Se11  1  0.248634  0.516305  0.966690  1
  Se  Se12  1  0.905898  0.093432  0.749593  1
  Se  Se13  1  0.483990  0.750925  0.535592  1
  N  N14  1  0.077575  0.330161  0.417872  1
  N  N15  1  0.327014  0.083819  0.913669  1
  N  N16  1  0.914660  0.666919  0.583284  1
  N  N17  1  0.673499  0.916643  0.086777  1
