# generated using pymatgen
data_ZrSc(Ni2P)4
_symmetry_space_group_name_H-M   'P 1'
_cell_length_a   6.93624149
_cell_length_b   6.93624149
_cell_length_c   3.57663900
_cell_angle_alpha   90.00000000
_cell_angle_beta   90.00000000
_cell_angle_gamma   90.33413161
_symmetry_Int_Tables_number   1
_chemical_formula_structural   ZrSc(Ni2P)4
_chemical_formula_sum   'Zr1 Sc1 Ni8 P4'
_cell_volume   172.07434791
_cell_formula_units_Z   1
loop_
 _symmetry_equiv_pos_site_id
 _symmetry_equiv_pos_as_xyz
  1  'x, y, z'
loop_
 _atom_site_type_symbol
 _atom_site_label
 _atom_site_symmetry_multiplicity
 _atom_site_fract_x
 _atom_site_fract_y
 _atom_site_fract_z
 _atom_site_occupancy
  Zr  Zr0  1  0.500000  0.500000  0.000000  1
  Sc  Sc1  1  0.000000  0.000000  0.500000  1
  Ni  Ni2  1  0.331952  0.083189  0.000000  1
  Ni  Ni3  1  0.584142  0.164945  0.500000  1
  Ni  Ni4  1  0.415858  0.835055  0.500000  1
  Ni  Ni5  1  0.668048  0.916811  0.000000  1
  Ni  Ni6  1  0.164945  0.584142  0.500000  1
  Ni  Ni7  1  0.835055  0.415858  0.500000  1
  Ni  Ni8  1  0.083189  0.331952  0.000000  1
  Ni  Ni9  1  0.916811  0.668048  0.000000  1
  P  P10  1  0.777800  0.222200  0.000000  1
  P  P11  1  0.718763  0.718763  0.500000  1
  P  P12  1  0.281237  0.281237  0.500000  1
  P  P13  1  0.222200  0.777800  0.000000  1
