# generated using pymatgen
data_LuSc9(TlBi)3
_symmetry_space_group_name_H-M   'P 1'
_cell_length_a   8.56558400
_cell_length_b   8.60477421
_cell_length_c   6.25113700
_cell_angle_alpha   90.00000000
_cell_angle_beta   90.00000000
_cell_angle_gamma   119.84945327
_symmetry_Int_Tables_number   1
_chemical_formula_structural   LuSc9(TlBi)3
_chemical_formula_sum   'Lu1 Sc9 Tl3 Bi3'
_cell_volume   399.61606373
_cell_formula_units_Z   1
loop_
 _symmetry_equiv_pos_site_id
 _symmetry_equiv_pos_as_xyz
  1  'x, y, z'
loop_
 _atom_site_type_symbol
 _atom_site_label
 _atom_site_symmetry_multiplicity
 _atom_site_fract_x
 _atom_site_fract_y
 _atom_site_fract_z
 _atom_site_occupancy
  Lu  Lu0  1  0.230027  0.000000  0.250000  1
  Sc  Sc1  1  0.329631  0.667476  0.001817  1
  Sc  Sc2  1  0.662154  0.332524  0.498183  1
  Sc  Sc3  1  0.662154  0.332524  0.001817  1
  Sc  Sc4  1  0.329631  0.667476  0.498183  1
  Sc  Sc5  1  0.236881  0.230432  0.750000  1
  Sc  Sc6  1  0.006449  0.769568  0.750000  1
  Sc  Sc7  1  0.007744  0.242436  0.250000  1
  Sc  Sc8  1  0.765308  0.757564  0.250000  1
  Sc  Sc9  1  0.764240  0.000000  0.750000  1
  Tl  Tl10  1  0.994410  0.598121  0.250000  1
  Tl  Tl11  1  0.396288  0.401879  0.250000  1
  Tl  Tl12  1  0.397794  0.000000  0.750000  1
  Bi  Bi13  1  0.613428  0.000000  0.250000  1
  Bi  Bi14  1  0.606485  0.609111  0.750000  1
  Bi  Bi15  1  0.997373  0.390889  0.750000  1
