# generated using pymatgen
data_Rb4Na2TbErSb4
_symmetry_space_group_name_H-M   'P 1'
_cell_length_a   11.33420482
_cell_length_b   11.33420458
_cell_length_c   7.50729300
_cell_angle_alpha   90.00000000
_cell_angle_beta   90.00000000
_cell_angle_gamma   98.42297961
_symmetry_Int_Tables_number   1
_chemical_formula_structural   Rb4Na2TbErSb4
_chemical_formula_sum   'Rb8 Na4 Tb2 Er2 Sb8'
_cell_volume   954.01582013
_cell_formula_units_Z   2
loop_
 _symmetry_equiv_pos_site_id
 _symmetry_equiv_pos_as_xyz
  1  'x, y, z'
loop_
 _atom_site_type_symbol
 _atom_site_label
 _atom_site_symmetry_multiplicity
 _atom_site_fract_x
 _atom_site_fract_y
 _atom_site_fract_z
 _atom_site_occupancy
  Rb  Rb0  1  0.070304  0.429696  0.250000  1
  Rb  Rb1  1  0.429696  0.070304  0.750000  1
  Rb  Rb2  1  0.929220  0.570780  0.750000  1
  Rb  Rb3  1  0.570780  0.929220  0.250000  1
  Rb  Rb4  1  0.676730  0.323590  0.215470  1
  Rb  Rb5  1  0.823270  0.176410  0.715470  1
  Rb  Rb6  1  0.323590  0.676730  0.784530  1
  Rb  Rb7  1  0.176410  0.823270  0.284530  1
  Na  Na8  1  0.382302  0.382302  0.000000  1
  Na  Na9  1  0.117698  0.117698  0.500000  1
  Na  Na10  1  0.618159  0.618159  0.000000  1
  Na  Na11  1  0.881841  0.881841  0.500000  1
  Tb  Tb12  1  0.130566  0.130566  0.000000  1
  Tb  Tb13  1  0.369434  0.369434  0.500000  1
  Er  Er14  1  0.868874  0.868874  0.000000  1
  Er  Er15  1  0.631126  0.631126  0.500000  1
  Sb  Sb16  1  0.845710  0.654289  0.250000  1
  Sb  Sb17  1  0.654289  0.845710  0.750000  1
  Sb  Sb18  1  0.151738  0.348261  0.750000  1
  Sb  Sb19  1  0.348261  0.151738  0.250000  1
  Sb  Sb20  1  0.897656  0.098839  0.212014  1
  Sb  Sb21  1  0.602344  0.401161  0.712014  1
  Sb  Sb22  1  0.098839  0.897656  0.787986  1
  Sb  Sb23  1  0.401161  0.602344  0.287986  1
