# generated using pymatgen
data_Er16Cd4CuRu3
_symmetry_space_group_name_H-M   'P 1'
_cell_length_a   9.54594746
_cell_length_b   9.54594808
_cell_length_c   9.54594855
_cell_angle_alpha   60.03075224
_cell_angle_beta   60.03075215
_cell_angle_gamma   60.03074657
_symmetry_Int_Tables_number   1
_chemical_formula_structural   Er16Cd4CuRu3
_chemical_formula_sum   'Er16 Cd4 Cu1 Ru3'
_cell_volume   615.52375614
_cell_formula_units_Z   1
loop_
 _symmetry_equiv_pos_site_id
 _symmetry_equiv_pos_as_xyz
  1  'x, y, z'
loop_
 _atom_site_type_symbol
 _atom_site_label
 _atom_site_symmetry_multiplicity
 _atom_site_fract_x
 _atom_site_fract_y
 _atom_site_fract_z
 _atom_site_occupancy
  Er  Er0  1  0.597923  0.597923  0.597923  1
  Er  Er1  1  0.601129  0.601129  0.201694  1
  Er  Er2  1  0.601129  0.201694  0.601129  1
  Er  Er3  1  0.201694  0.601129  0.601129  1
  Er  Er4  1  0.054825  0.439365  0.439365  1
  Er  Er5  1  0.436860  0.061080  0.061080  1
  Er  Er6  1  0.439365  0.054825  0.439365  1
  Er  Er7  1  0.061080  0.436860  0.061080  1
  Er  Er8  1  0.439365  0.439365  0.054825  1
  Er  Er9  1  0.061080  0.061080  0.436860  1
  Er  Er10  1  0.188511  0.812313  0.812313  1
  Er  Er11  1  0.816818  0.188411  0.188411  1
  Er  Er12  1  0.812313  0.188511  0.812313  1
  Er  Er13  1  0.188411  0.816818  0.188411  1
  Er  Er14  1  0.812313  0.812313  0.188511  1
  Er  Er15  1  0.188411  0.188411  0.816818  1
  Cd  Cd16  1  0.830905  0.830905  0.830905  1
  Cd  Cd17  1  0.830842  0.830842  0.506763  1
  Cd  Cd18  1  0.830842  0.506763  0.830842  1
  Cd  Cd19  1  0.506763  0.830842  0.830842  1
  Cu  Cu20  1  0.392149  0.392149  0.392149  1
  Ru  Ru21  1  0.390868  0.390868  0.825538  1
  Ru  Ru22  1  0.390868  0.825538  0.390868  1
  Ru  Ru23  1  0.825538  0.390868  0.390868  1
