# generated using pymatgen
data_Sr2VClO3
_symmetry_space_group_name_H-M   'P 1'
_cell_length_a   5.68578255
_cell_length_b   5.66016820
_cell_length_c   14.37627806
_cell_angle_alpha   89.99261743
_cell_angle_beta   89.99492646
_cell_angle_gamma   89.30656855
_symmetry_Int_Tables_number   1
_chemical_formula_structural   Sr2VClO3
_chemical_formula_sum   'Sr8 V4 Cl4 O12'
_cell_volume   462.63047196
_cell_formula_units_Z   4
loop_
 _symmetry_equiv_pos_site_id
 _symmetry_equiv_pos_as_xyz
  1  'x, y, z'
loop_
 _atom_site_type_symbol
 _atom_site_label
 _atom_site_symmetry_multiplicity
 _atom_site_fract_x
 _atom_site_fract_y
 _atom_site_fract_z
 _atom_site_occupancy
  Sr  Sr0  1  0.250148  0.999804  0.342514  1
  Sr  Sr1  1  0.750107  0.499863  0.342133  1
  Sr  Sr2  1  0.750135  0.999793  0.658010  1
  Sr  Sr3  1  0.250125  0.499689  0.657302  1
  Sr  Sr4  1  0.250054  0.000087  0.095526  1
  Sr  Sr5  1  0.749630  0.500528  0.091861  1
  Sr  Sr6  1  0.750076  0.001265  0.908156  1
  Sr  Sr7  1  0.248942  0.500381  0.904557  1
  V  V8  1  0.249937  0.500050  0.208296  1
  V  V9  1  0.749622  0.500211  0.783815  1
  V  V10  1  0.750122  0.000004  0.216176  1
  V  V11  1  0.249894  0.000207  0.791989  1
  Cl  Cl12  1  0.750173  0.999784  0.419377  1
  Cl  Cl13  1  0.250093  0.499707  0.421680  1
  Cl  Cl14  1  0.250201  0.999640  0.578365  1
  Cl  Cl15  1  0.749997  0.499949  0.580406  1
  O  O16  1  0.249757  0.000298  0.924745  1
  O  O17  1  0.750623  0.499306  0.924061  1
  O  O18  1  0.749946  0.000210  0.075914  1
  O  O19  1  0.249977  0.500116  0.075440  1
  O  O20  1  0.498996  0.251526  0.231846  1
  O  O21  1  0.001065  0.748406  0.231817  1
  O  O22  1  0.502648  0.252400  0.769140  1
  O  O23  1  0.997394  0.747323  0.769052  1
  O  O24  1  0.501960  0.751614  0.230753  1
  O  O25  1  0.998271  0.248227  0.230823  1
  O  O26  1  0.497976  0.752049  0.768157  1
  O  O27  1  0.002131  0.247561  0.768087  1
