# generated using pymatgen
data_Pr5Si12Ni16Mo3
_symmetry_space_group_name_H-M   'P 1'
_cell_length_a   12.43481400
_cell_length_b   12.43481379
_cell_length_c   3.83684600
_cell_angle_alpha   90.00000000
_cell_angle_beta   90.00000000
_cell_angle_gamma   120.00000587
_symmetry_Int_Tables_number   1
_chemical_formula_structural   Pr5Si12Ni16Mo3
_chemical_formula_sum   'Pr5 Si12 Ni16 Mo3'
_cell_volume   513.78752357
_cell_formula_units_Z   1
loop_
 _symmetry_equiv_pos_site_id
 _symmetry_equiv_pos_as_xyz
  1  'x, y, z'
loop_
 _atom_site_type_symbol
 _atom_site_label
 _atom_site_symmetry_multiplicity
 _atom_site_fract_x
 _atom_site_fract_y
 _atom_site_fract_z
 _atom_site_occupancy
  Pr  Pr0  1  0.188938  0.188938  0.500000  1
  Pr  Pr1  1  0.811062  0.000000  0.500000  1
  Pr  Pr2  1  0.000000  0.811062  0.500000  1
  Pr  Pr3  1  0.333333  0.666667  0.000000  1
  Pr  Pr4  1  0.666667  0.333333  0.000000  1
  Si  Si5  1  0.813896  0.813896  0.000000  1
  Si  Si6  1  0.186104  0.000000  0.000000  1
  Si  Si7  1  0.000000  0.186104  0.000000  1
  Si  Si8  1  0.162999  0.473584  0.500000  1
  Si  Si9  1  0.526416  0.689414  0.500000  1
  Si  Si10  1  0.310586  0.837001  0.500000  1
  Si  Si11  1  0.689414  0.526416  0.500000  1
  Si  Si12  1  0.837001  0.310586  0.500000  1
  Si  Si13  1  0.473584  0.162999  0.500000  1
  Si  Si14  1  0.372005  0.372005  0.000000  1
  Si  Si15  1  0.627995  0.000000  0.000000  1
  Si  Si16  1  0.000000  0.627995  0.000000  1
  Ni  Ni17  1  0.722377  0.722377  0.500000  1
  Ni  Ni18  1  0.277623  0.000000  0.500000  1
  Ni  Ni19  1  0.000000  0.277623  0.500000  1
  Ni  Ni20  1  0.185196  0.379581  0.000000  1
  Ni  Ni21  1  0.620419  0.805615  0.000000  1
  Ni  Ni22  1  0.194385  0.814804  0.000000  1
  Ni  Ni23  1  0.805615  0.620419  0.000000  1
  Ni  Ni24  1  0.814804  0.194385  0.000000  1
  Ni  Ni25  1  0.379581  0.185196  0.000000  1
  Ni  Ni26  1  0.360517  0.481394  0.500000  1
  Ni  Ni27  1  0.518606  0.879123  0.500000  1
  Ni  Ni28  1  0.120877  0.639483  0.500000  1
  Ni  Ni29  1  0.879123  0.518606  0.500000  1
  Ni  Ni30  1  0.639483  0.120877  0.500000  1
  Ni  Ni31  1  0.481394  0.360517  0.500000  1
  Ni  Ni32  1  0.000000  0.000000  0.000000  1
  Mo  Mo33  1  0.567413  0.567413  0.000000  1
  Mo  Mo34  1  0.432587  0.000000  0.000000  1
  Mo  Mo35  1  0.000000  0.432587  0.000000  1
