# generated using pymatgen
data_Nb3GaRe2Si2W
_symmetry_space_group_name_H-M   'P 1'
_cell_length_a   7.00953564
_cell_length_b   6.97992453
_cell_length_c   3.30602300
_cell_angle_alpha   90.00000000
_cell_angle_beta   90.00000000
_cell_angle_gamma   120.18944897
_symmetry_Int_Tables_number   1
_chemical_formula_structural   Nb3GaRe2Si2W
_chemical_formula_sum   'Nb3 Ga1 Re2 Si2 W1'
_cell_volume   139.81193094
_cell_formula_units_Z   1
loop_
 _symmetry_equiv_pos_site_id
 _symmetry_equiv_pos_as_xyz
  1  'x, y, z'
loop_
 _atom_site_type_symbol
 _atom_site_label
 _atom_site_symmetry_multiplicity
 _atom_site_fract_x
 _atom_site_fract_y
 _atom_site_fract_z
 _atom_site_occupancy
  Nb  Nb0  1  0.409867  0.008062  0.500000  1
  Nb  Nb1  1  0.984367  0.389110  0.500000  1
  Nb  Nb2  1  0.604316  0.604693  0.500000  1
  Ga  Ga3  1  0.326844  0.662135  0.000000  1
  Re  Re4  1  0.992179  0.738988  0.000000  1
  Re  Re5  1  0.261909  0.253779  0.000000  1
  Si  Si6  1  0.664395  0.336847  0.000000  1
  Si  Si7  1  0.007871  0.000582  0.500000  1
  W  W8  1  0.748251  0.005805  0.000000  1
