# generated using pymatgen
data_Ho2LuCo8P6Os
_symmetry_space_group_name_H-M   'P 1'
_cell_length_a   3.69828400
_cell_length_b   10.45510200
_cell_length_c   12.19555000
_cell_angle_alpha   90.00000000
_cell_angle_beta   90.00000000
_cell_angle_gamma   90.00000000
_symmetry_Int_Tables_number   1
_chemical_formula_structural   Ho2LuCo8P6Os
_chemical_formula_sum   'Ho4 Lu2 Co16 P12 Os2'
_cell_volume   471.55236121
_cell_formula_units_Z   2
loop_
 _symmetry_equiv_pos_site_id
 _symmetry_equiv_pos_as_xyz
  1  'x, y, z'
loop_
 _atom_site_type_symbol
 _atom_site_label
 _atom_site_symmetry_multiplicity
 _atom_site_fract_x
 _atom_site_fract_y
 _atom_site_fract_z
 _atom_site_occupancy
  Ho  Ho0  1  0.000000  0.500000  0.525844  1
  Ho  Ho1  1  0.500000  0.000000  0.475203  1
  Ho  Ho2  1  0.500000  0.817263  0.206930  1
  Ho  Ho3  1  0.500000  0.182737  0.206930  1
  Lu  Lu4  1  0.000000  0.681767  0.792665  1
  Lu  Lu5  1  0.000000  0.318233  0.792665  1
  Co  Co6  1  0.500000  0.500000  0.704458  1
  Co  Co7  1  0.000000  0.000000  0.296106  1
  Co  Co8  1  0.000000  0.500000  0.985899  1
  Co  Co9  1  0.500000  0.000000  0.011706  1
  Co  Co10  1  0.500000  0.332947  0.988779  1
  Co  Co11  1  0.500000  0.667053  0.988779  1
  Co  Co12  1  0.000000  0.168034  0.008865  1
  Co  Co13  1  0.000000  0.831966  0.008865  1
  Co  Co14  1  0.500000  0.297790  0.431928  1
  Co  Co15  1  0.500000  0.702210  0.431928  1
  Co  Co16  1  0.000000  0.202536  0.570046  1
  Co  Co17  1  0.000000  0.797464  0.570046  1
  Co  Co18  1  0.500000  0.878142  0.708998  1
  Co  Co19  1  0.500000  0.121858  0.708998  1
  Co  Co20  1  0.000000  0.620869  0.292124  1
  Co  Co21  1  0.000000  0.379131  0.292124  1
  P  P22  1  0.500000  0.500000  0.879536  1
  P  P23  1  0.000000  0.000000  0.118491  1
  P  P24  1  0.500000  0.500000  0.352098  1
  P  P25  1  0.000000  0.000000  0.648421  1
  P  P26  1  0.500000  0.312531  0.617858  1
  P  P27  1  0.500000  0.687469  0.617858  1
  P  P28  1  0.000000  0.187953  0.384336  1
  P  P29  1  0.000000  0.812047  0.384336  1
  P  P30  1  0.500000  0.844947  0.891482  1
  P  P31  1  0.500000  0.155053  0.891482  1
  P  P32  1  0.000000  0.653359  0.107228  1
  P  P33  1  0.000000  0.346641  0.107228  1
  Os  Os34  1  0.500000  0.500000  0.159789  1
  Os  Os35  1  0.000000  0.000000  0.839971  1
