# generated using pymatgen
data_Sm3In3CuAgRh
_symmetry_space_group_name_H-M   'P 1'
_cell_length_a   7.74128800
_cell_length_b   7.74128744
_cell_length_c   3.97773700
_cell_angle_alpha   90.00000000
_cell_angle_beta   90.00000000
_cell_angle_gamma   119.99999383
_symmetry_Int_Tables_number   1
_chemical_formula_structural   Sm3In3CuAgRh
_chemical_formula_sum   'Sm3 In3 Cu1 Ag1 Rh1'
_cell_volume   206.43966336
_cell_formula_units_Z   1
loop_
 _symmetry_equiv_pos_site_id
 _symmetry_equiv_pos_as_xyz
  1  'x, y, z'
loop_
 _atom_site_type_symbol
 _atom_site_label
 _atom_site_symmetry_multiplicity
 _atom_site_fract_x
 _atom_site_fract_y
 _atom_site_fract_z
 _atom_site_occupancy
  Sm  Sm0  1  0.977911  0.397666  0.500000  1
  Sm  Sm1  1  0.602334  0.580245  0.500000  1
  Sm  Sm2  1  0.419755  0.022089  0.500000  1
  In  In3  1  0.248507  0.248569  0.000000  1
  In  In4  1  0.000062  0.751493  0.000000  1
  In  In5  1  0.751431  0.999938  0.000000  1
  Cu  Cu6  1  0.000000  0.000000  0.500000  1
  Ag  Ag7  1  0.333333  0.666667  0.000000  1
  Rh  Rh8  1  0.666667  0.333333  0.000000  1
