# generated using pymatgen
data_K2Ca3Ta2O9
_symmetry_space_group_name_H-M   'P 1'
_cell_length_a   8.80784537
_cell_length_b   8.80784482
_cell_length_c   8.80784548
_cell_angle_alpha   38.80329673
_cell_angle_beta   38.80330241
_cell_angle_gamma   38.80330322
_symmetry_Int_Tables_number   1
_chemical_formula_structural   K2Ca3Ta2O9
_chemical_formula_sum   'K2 Ca3 Ta2 O9'
_cell_volume   241.21771570
_cell_formula_units_Z   1
loop_
 _symmetry_equiv_pos_site_id
 _symmetry_equiv_pos_as_xyz
  1  'x, y, z'
loop_
 _atom_site_type_symbol
 _atom_site_label
 _atom_site_symmetry_multiplicity
 _atom_site_fract_x
 _atom_site_fract_y
 _atom_site_fract_z
 _atom_site_occupancy
  K  K0  1  0.206798  0.206798  0.206798  1
  K  K1  1  0.793202  0.793202  0.793202  1
  Ca  Ca2  1  0.369854  0.369854  0.369854  1
  Ca  Ca3  1  0.500000  0.500000  0.500000  1
  Ca  Ca4  1  0.630146  0.630146  0.630146  1
  Ta  Ta5  1  0.063009  0.063009  0.063009  1
  Ta  Ta6  1  0.936991  0.936991  0.936991  1
  O  O7  1  0.218776  0.308681  0.781206  1
  O  O8  1  0.691319  0.781224  0.218794  1
  O  O9  1  0.781206  0.218776  0.308681  1
  O  O10  1  0.218794  0.691319  0.781224  1
  O  O11  1  0.308681  0.781206  0.218776  1
  O  O12  1  0.260627  0.000000  0.739373  1
  O  O13  1  0.739373  0.260627  0.000000  1
  O  O14  1  0.000000  0.739373  0.260627  1
  O  O15  1  0.781224  0.218794  0.691319  1
