# generated using pymatgen
data_Cs8La3NpBr20
_symmetry_space_group_name_H-M   'P 1'
_cell_length_a   9.10178903
_cell_length_b   9.63892100
_cell_length_c   14.72179805
_cell_angle_alpha   90.00000000
_cell_angle_beta   90.00900764
_cell_angle_gamma   90.00000000
_symmetry_Int_Tables_number   1
_chemical_formula_structural   Cs8La3NpBr20
_chemical_formula_sum   'Cs8 La3 Np1 Br20'
_cell_volume   1291.56431103
_cell_formula_units_Z   1
loop_
 _symmetry_equiv_pos_site_id
 _symmetry_equiv_pos_as_xyz
  1  'x, y, z'
loop_
 _atom_site_type_symbol
 _atom_site_label
 _atom_site_symmetry_multiplicity
 _atom_site_fract_x
 _atom_site_fract_y
 _atom_site_fract_z
 _atom_site_occupancy
  Cs  Cs0  1  0.945574  0.005466  0.827487  1
  Cs  Cs1  1  0.054401  0.994376  0.172488  1
  Cs  Cs2  1  0.445465  0.994196  0.671595  1
  Cs  Cs3  1  0.054401  0.505624  0.172488  1
  Cs  Cs4  1  0.554781  0.005321  0.328458  1
  Cs  Cs5  1  0.945574  0.494534  0.827487  1
  Cs  Cs6  1  0.554781  0.494679  0.328458  1
  Cs  Cs7  1  0.445465  0.505804  0.671595  1
  La  La8  1  0.067541  0.250000  0.497257  1
  La  La9  1  0.431300  0.250000  0.996849  1
  La  La10  1  0.568736  0.750000  0.003030  1
  Np  Np11  1  0.934217  0.750000  0.501857  1
  Br  Br12  1  0.113705  0.750000  0.668160  1
  Br  Br13  1  0.884650  0.250000  0.329988  1
  Br  Br14  1  0.615300  0.250000  0.829748  1
  Br  Br15  1  0.384715  0.750000  0.170261  1
  Br  Br16  1  0.841998  0.039298  0.570324  1
  Br  Br17  1  0.155760  0.956038  0.430015  1
  Br  Br18  1  0.341621  0.957820  0.928764  1
  Br  Br19  1  0.155760  0.543962  0.430015  1
  Br  Br20  1  0.658359  0.042131  0.071232  1
  Br  Br21  1  0.841998  0.460702  0.570324  1
  Br  Br22  1  0.658359  0.457869  0.071232  1
  Br  Br23  1  0.341621  0.542180  0.928764  1
  Br  Br24  1  0.604977  0.750000  0.511775  1
  Br  Br25  1  0.398097  0.250000  0.487801  1
  Br  Br26  1  0.101283  0.250000  0.988034  1
  Br  Br27  1  0.898770  0.750000  0.012080  1
  Br  Br28  1  0.652202  0.750000  0.807538  1
  Br  Br29  1  0.347694  0.250000  0.192661  1
  Br  Br30  1  0.152251  0.250000  0.692262  1
  Br  Br31  1  0.848644  0.750000  0.309970  1
