# generated using pymatgen
data_Rb3Ba3GaAs4
_symmetry_space_group_name_H-M   'P 1'
_cell_length_a   10.70439300
_cell_length_b   10.70439302
_cell_length_c   8.05298300
_cell_angle_alpha   90.00000000
_cell_angle_beta   90.00000000
_cell_angle_gamma   120.00000304
_symmetry_Int_Tables_number   1
_chemical_formula_structural   Rb3Ba3GaAs4
_chemical_formula_sum   'Rb6 Ba6 Ga2 As8'
_cell_volume   799.11906513
_cell_formula_units_Z   2
loop_
 _symmetry_equiv_pos_site_id
 _symmetry_equiv_pos_as_xyz
  1  'x, y, z'
loop_
 _atom_site_type_symbol
 _atom_site_label
 _atom_site_symmetry_multiplicity
 _atom_site_fract_x
 _atom_site_fract_y
 _atom_site_fract_z
 _atom_site_occupancy
  Rb  Rb0  1  0.135271  0.864729  0.176073  1
  Rb  Rb1  1  0.270544  0.135271  0.676073  1
  Rb  Rb2  1  0.864729  0.729456  0.676073  1
  Rb  Rb3  1  0.135271  0.270544  0.176073  1
  Rb  Rb4  1  0.729456  0.864729  0.176073  1
  Rb  Rb5  1  0.864729  0.135271  0.676073  1
  Ba  Ba6  1  0.475927  0.951854  0.499264  1
  Ba  Ba7  1  0.524073  0.048146  0.999264  1
  Ba  Ba8  1  0.951854  0.475927  0.999264  1
  Ba  Ba9  1  0.475927  0.524073  0.499264  1
  Ba  Ba10  1  0.524073  0.475927  0.999264  1
  Ba  Ba11  1  0.048146  0.524073  0.499264  1
  Ga  Ga12  1  0.333333  0.666667  0.877791  1
  Ga  Ga13  1  0.666667  0.333333  0.377791  1
  As  As14  1  0.202468  0.797532  0.775706  1
  As  As15  1  0.404936  0.202468  0.275706  1
  As  As16  1  0.797532  0.595064  0.275706  1
  As  As17  1  0.202468  0.404936  0.775706  1
  As  As18  1  0.595064  0.797532  0.775706  1
  As  As19  1  0.797532  0.202468  0.275706  1
  As  As20  1  0.333333  0.666667  0.209763  1
  As  As21  1  0.666667  0.333333  0.709763  1
