# generated using pymatgen
data_YErTm3Sn4
_symmetry_space_group_name_H-M   'P 1'
_cell_length_a   7.97353900
_cell_length_b   8.10352300
_cell_length_c   15.31647000
_cell_angle_alpha   90.00000000
_cell_angle_beta   90.00000000
_cell_angle_gamma   90.00000000
_symmetry_Int_Tables_number   1
_chemical_formula_structural   YErTm3Sn4
_chemical_formula_sum   'Y4 Er4 Tm12 Sn16'
_cell_volume   989.65466574
_cell_formula_units_Z   4
loop_
 _symmetry_equiv_pos_site_id
 _symmetry_equiv_pos_as_xyz
  1  'x, y, z'
loop_
 _atom_site_type_symbol
 _atom_site_label
 _atom_site_symmetry_multiplicity
 _atom_site_fract_x
 _atom_site_fract_y
 _atom_site_fract_z
 _atom_site_occupancy
  Y  Y0  1  0.478534  0.679509  0.097102  1
  Y  Y1  1  0.978534  0.820491  0.402898  1
  Y  Y2  1  0.521466  0.320491  0.597102  1
  Y  Y3  1  0.021466  0.179509  0.902898  1
  Er  Er4  1  0.521613  0.320853  0.902769  1
  Er  Er5  1  0.021613  0.179147  0.597231  1
  Er  Er6  1  0.478387  0.679147  0.402769  1
  Er  Er7  1  0.978387  0.820853  0.097231  1
  Tm  Tm8  1  0.367457  0.836902  0.877228  1
  Tm  Tm9  1  0.867457  0.663098  0.622772  1
  Tm  Tm10  1  0.632543  0.163098  0.377228  1
  Tm  Tm11  1  0.132543  0.336902  0.122772  1
  Tm  Tm12  1  0.632483  0.163228  0.122671  1
  Tm  Tm13  1  0.132483  0.336772  0.377329  1
  Tm  Tm14  1  0.367517  0.836772  0.622671  1
  Tm  Tm15  1  0.867517  0.663228  0.877329  1
  Tm  Tm16  1  0.198234  0.503981  0.750012  1
  Tm  Tm17  1  0.698234  0.996019  0.749988  1
  Tm  Tm18  1  0.801766  0.496019  0.250012  1
  Tm  Tm19  1  0.301766  0.003981  0.249988  1
  Sn  Sn20  1  0.293312  0.036979  0.041778  1
  Sn  Sn21  1  0.793312  0.463021  0.458222  1
  Sn  Sn22  1  0.706688  0.963021  0.541778  1
  Sn  Sn23  1  0.206688  0.536979  0.958222  1
  Sn  Sn24  1  0.705930  0.962604  0.958603  1
  Sn  Sn25  1  0.205930  0.537396  0.541397  1
  Sn  Sn26  1  0.294070  0.037396  0.458603  1
  Sn  Sn27  1  0.794070  0.462604  0.041397  1
  Sn  Sn28  1  0.564489  0.619932  0.750069  1
  Sn  Sn29  1  0.064489  0.880068  0.749931  1
  Sn  Sn30  1  0.435511  0.380068  0.250069  1
  Sn  Sn31  1  0.935511  0.119932  0.249931  1
  Sn  Sn32  1  0.330995  0.148336  0.750269  1
  Sn  Sn33  1  0.830995  0.351664  0.749731  1
  Sn  Sn34  1  0.669005  0.851664  0.250269  1
  Sn  Sn35  1  0.169005  0.648336  0.249731  1
