# generated using pymatgen
data_Hf2TiNb2Ge(B2Ru5)2
_symmetry_space_group_name_H-M   'P 1'
_cell_length_a   9.37681700
_cell_length_b   9.37425345
_cell_length_c   3.05847400
_cell_angle_alpha   90.00000000
_cell_angle_beta   90.00000000
_cell_angle_gamma   89.93822563
_symmetry_Int_Tables_number   1
_chemical_formula_structural   Hf2TiNb2Ge(B2Ru5)2
_chemical_formula_sum   'Hf2 Ti1 Nb2 Ge1 B4 Ru10'
_cell_volume   268.84172418
_cell_formula_units_Z   1
loop_
 _symmetry_equiv_pos_site_id
 _symmetry_equiv_pos_as_xyz
  1  'x, y, z'
loop_
 _atom_site_type_symbol
 _atom_site_label
 _atom_site_symmetry_multiplicity
 _atom_site_fract_x
 _atom_site_fract_y
 _atom_site_fract_z
 _atom_site_occupancy
  Hf  Hf0  1  0.824903  0.676482  0.000000  1
  Hf  Hf1  1  0.175097  0.323518  0.000000  1
  Ti  Ti2  1  0.000000  0.000000  0.000000  1
  Nb  Nb3  1  0.322296  0.825966  0.000000  1
  Nb  Nb4  1  0.677704  0.174034  0.000000  1
  Ge  Ge5  1  0.500000  0.500000  0.000000  1
  B  B6  1  0.622275  0.875483  0.000000  1
  B  B7  1  0.377725  0.124517  0.000000  1
  B  B8  1  0.124591  0.622754  0.000000  1
  B  B9  1  0.875409  0.377246  0.000000  1
  Ru  Ru10  1  0.565197  0.715005  0.500000  1
  Ru  Ru11  1  0.434803  0.284995  0.500000  1
  Ru  Ru12  1  0.074231  0.784791  0.500000  1
  Ru  Ru13  1  0.925769  0.215209  0.500000  1
  Ru  Ru14  1  0.287983  0.572723  0.500000  1
  Ru  Ru15  1  0.712017  0.427277  0.500000  1
  Ru  Ru16  1  0.217644  0.068754  0.500000  1
  Ru  Ru17  1  0.782356  0.931246  0.500000  1
  Ru  Ru18  1  0.500000  0.000000  0.500000  1
  Ru  Ru19  1  0.000000  0.500000  0.500000  1
