# generated using pymatgen
data_HoTh2Mg3Ir2Pt
_symmetry_space_group_name_H-M   'P 1'
_cell_length_a   7.53586679
_cell_length_b   7.33221143
_cell_length_c   4.06916700
_cell_angle_alpha   90.00000000
_cell_angle_beta   90.00000000
_cell_angle_gamma   119.10996897
_symmetry_Int_Tables_number   1
_chemical_formula_structural   HoTh2Mg3Ir2Pt
_chemical_formula_sum   'Ho1 Th2 Mg3 Ir2 Pt1'
_cell_volume   196.43997675
_cell_formula_units_Z   1
loop_
 _symmetry_equiv_pos_site_id
 _symmetry_equiv_pos_as_xyz
  1  'x, y, z'
loop_
 _atom_site_type_symbol
 _atom_site_label
 _atom_site_symmetry_multiplicity
 _atom_site_fract_x
 _atom_site_fract_y
 _atom_site_fract_z
 _atom_site_occupancy
  Ho  Ho0  1  0.000000  0.409505  0.000000  1
  Th  Th1  1  0.578568  0.579713  0.000000  1
  Th  Th2  1  0.421432  0.001146  0.000000  1
  Mg  Mg3  1  0.000000  0.743707  0.500000  1
  Mg  Mg4  1  0.233389  0.242308  0.500000  1
  Mg  Mg5  1  0.766611  0.008919  0.500000  1
  Ir  Ir6  1  0.647884  0.331702  0.500000  1
  Ir  Ir7  1  0.352116  0.683820  0.500000  1
  Pt  Pt8  1  0.000000  0.999180  0.000000  1
