# generated using pymatgen
data_Y3Zr(Co5P3)4
_symmetry_space_group_name_H-M   'P 1'
_cell_length_a   3.64674100
_cell_length_b   10.25482741
_cell_length_c   11.72161446
_cell_angle_alpha   90.03223845
_cell_angle_beta   90.00000000
_cell_angle_gamma   90.00000000
_symmetry_Int_Tables_number   1
_chemical_formula_structural   Y3Zr(Co5P3)4
_chemical_formula_sum   'Y3 Zr1 Co20 P12'
_cell_volume   438.34962494
_cell_formula_units_Z   1
loop_
 _symmetry_equiv_pos_site_id
 _symmetry_equiv_pos_as_xyz
  1  'x, y, z'
loop_
 _atom_site_type_symbol
 _atom_site_label
 _atom_site_symmetry_multiplicity
 _atom_site_fract_x
 _atom_site_fract_y
 _atom_site_fract_z
 _atom_site_occupancy
  Y  Y0  1  0.750000  0.082547  0.797398  1
  Y  Y1  1  0.750000  0.417034  0.297024  1
  Y  Y2  1  0.250000  0.583120  0.702702  1
  Zr  Zr3  1  0.250000  0.918071  0.201134  1
  Co  Co4  1  0.250000  0.783376  0.492285  1
  Co  Co5  1  0.750000  0.216119  0.506871  1
  Co  Co6  1  0.750000  0.282386  0.009865  1
  Co  Co7  1  0.250000  0.717907  0.993058  1
  Co  Co8  1  0.250000  0.090228  0.990928  1
  Co  Co9  1  0.750000  0.906252  0.016204  1
  Co  Co10  1  0.750000  0.593464  0.511073  1
  Co  Co11  1  0.250000  0.406774  0.488383  1
  Co  Co12  1  0.250000  0.277893  0.676865  1
  Co  Co13  1  0.750000  0.724763  0.322079  1
  Co  Co14  1  0.750000  0.779414  0.824201  1
  Co  Co15  1  0.250000  0.220760  0.177351  1
  Co  Co16  1  0.250000  0.620205  0.199142  1
  Co  Co17  1  0.750000  0.382369  0.801980  1
  Co  Co18  1  0.750000  0.113535  0.298775  1
  Co  Co19  1  0.250000  0.882955  0.698123  1
  Co  Co20  1  0.250000  0.030029  0.428153  1
  Co  Co21  1  0.750000  0.967230  0.565569  1
  Co  Co22  1  0.750000  0.534525  0.068967  1
  Co  Co23  1  0.250000  0.468256  0.932486  1
  P  P24  1  0.250000  0.081026  0.610067  1
  P  P25  1  0.750000  0.918945  0.384068  1
  P  P26  1  0.750000  0.581680  0.888473  1
  P  P27  1  0.250000  0.419216  0.112327  1
  P  P28  1  0.250000  0.228782  0.370397  1
  P  P29  1  0.750000  0.771221  0.629627  1
  P  P30  1  0.750000  0.732504  0.131701  1
  P  P31  1  0.250000  0.270413  0.871426  1
  P  P32  1  0.250000  0.897709  0.891282  1
  P  P33  1  0.750000  0.099398  0.109866  1
  P  P34  1  0.750000  0.397516  0.608728  1
  P  P35  1  0.250000  0.602376  0.391424  1
