# generated using pymatgen
data_Sr6NdTh(Si3Pd)4
_symmetry_space_group_name_H-M   'P 1'
_cell_length_a   8.41411900
_cell_length_b   8.41411892
_cell_length_c   8.72672700
_cell_angle_alpha   90.00000000
_cell_angle_beta   90.00000000
_cell_angle_gamma   119.99999639
_symmetry_Int_Tables_number   1
_chemical_formula_structural   Sr6NdTh(Si3Pd)4
_chemical_formula_sum   'Sr6 Nd1 Th1 Si12 Pd4'
_cell_volume   535.05611669
_cell_formula_units_Z   1
loop_
 _symmetry_equiv_pos_site_id
 _symmetry_equiv_pos_as_xyz
  1  'x, y, z'
loop_
 _atom_site_type_symbol
 _atom_site_label
 _atom_site_symmetry_multiplicity
 _atom_site_fract_x
 _atom_site_fract_y
 _atom_site_fract_z
 _atom_site_occupancy
  Sr  Sr0  1  0.499440  0.500560  0.750000  1
  Sr  Sr1  1  0.500538  0.499462  0.250000  1
  Sr  Sr2  1  0.001120  0.500560  0.750000  1
  Sr  Sr3  1  0.998923  0.499462  0.250000  1
  Sr  Sr4  1  0.499440  0.998880  0.750000  1
  Sr  Sr5  1  0.500538  0.001077  0.250000  1
  Nd  Nd6  1  0.000000  0.000000  0.250000  1
  Th  Th7  1  0.000000  0.000000  0.750000  1
  Si  Si8  1  0.837059  0.162941  0.998723  1
  Si  Si9  1  0.162935  0.837065  0.999479  1
  Si  Si10  1  0.325882  0.162941  0.998723  1
  Si  Si11  1  0.162935  0.837065  0.500521  1
  Si  Si12  1  0.674129  0.837065  0.999479  1
  Si  Si13  1  0.837059  0.162941  0.501277  1
  Si  Si14  1  0.837059  0.674118  0.998723  1
  Si  Si15  1  0.674129  0.837065  0.500521  1
  Si  Si16  1  0.162935  0.325871  0.999479  1
  Si  Si17  1  0.325882  0.162941  0.501277  1
  Si  Si18  1  0.162935  0.325871  0.500521  1
  Si  Si19  1  0.837059  0.674118  0.501277  1
  Pd  Pd20  1  0.666667  0.333333  0.998219  1
  Pd  Pd21  1  0.333333  0.666667  0.001354  1
  Pd  Pd22  1  0.333333  0.666667  0.498646  1
  Pd  Pd23  1  0.666667  0.333333  0.501781  1
