# generated using pymatgen
data_Dy6Al24Ru6PtRh
_symmetry_space_group_name_H-M   'P 1'
_cell_length_a   8.82223967
_cell_length_b   8.82223957
_cell_length_c   9.55258418
_cell_angle_alpha   89.98071419
_cell_angle_beta   90.01928515
_cell_angle_gamma   119.55245866
_symmetry_Int_Tables_number   1
_chemical_formula_structural   Dy6Al24Ru6PtRh
_chemical_formula_sum   'Dy6 Al24 Ru6 Pt1 Rh1'
_cell_volume   646.77035725
_cell_formula_units_Z   1
loop_
 _symmetry_equiv_pos_site_id
 _symmetry_equiv_pos_as_xyz
  1  'x, y, z'
loop_
 _atom_site_type_symbol
 _atom_site_label
 _atom_site_symmetry_multiplicity
 _atom_site_fract_x
 _atom_site_fract_y
 _atom_site_fract_z
 _atom_site_occupancy
  Dy  Dy0  1  0.194551  0.805449  0.250564  1
  Dy  Dy1  1  0.189533  0.386378  0.250270  1
  Dy  Dy2  1  0.613622  0.810467  0.250270  1
  Dy  Dy3  1  0.805449  0.194551  0.749436  1
  Dy  Dy4  1  0.810467  0.613622  0.749730  1
  Dy  Dy5  1  0.386378  0.189533  0.749730  1
  Al  Al6  1  0.561766  0.438234  0.248311  1
  Al  Al7  1  0.560186  0.122751  0.250594  1
  Al  Al8  1  0.877249  0.439814  0.250594  1
  Al  Al9  1  0.438234  0.561766  0.751689  1
  Al  Al10  1  0.439814  0.877249  0.749406  1
  Al  Al11  1  0.122751  0.560186  0.749406  1
  Al  Al12  1  0.323510  0.158359  0.421905  1
  Al  Al13  1  0.836838  0.163162  0.422544  1
  Al  Al14  1  0.841641  0.676490  0.421905  1
  Al  Al15  1  0.676490  0.841641  0.578095  1
  Al  Al16  1  0.163162  0.836838  0.577456  1
  Al  Al17  1  0.158359  0.323510  0.578095  1
  Al  Al18  1  0.676181  0.838857  0.921715  1
  Al  Al19  1  0.163116  0.836884  0.922493  1
  Al  Al20  1  0.161143  0.323819  0.921715  1
  Al  Al21  1  0.323819  0.161143  0.078285  1
  Al  Al22  1  0.836884  0.163116  0.077507  1
  Al  Al23  1  0.838857  0.676181  0.078285  1
  Al  Al24  1  0.669195  0.330805  0.520267  1
  Al  Al25  1  0.330805  0.669195  0.479733  1
  Al  Al26  1  0.331991  0.668009  0.019071  1
  Al  Al27  1  0.668009  0.331991  0.980929  1
  Al  Al28  1  0.999154  0.000846  0.250032  1
  Al  Al29  1  0.000846  0.999154  0.749968  1
  Ru  Ru30  1  0.000000  0.000000  0.500000  1
  Ru  Ru31  1  0.000000  0.000000  0.000000  1
  Ru  Ru32  1  0.500000  0.000000  0.500000  1
  Ru  Ru33  1  0.000000  0.500000  0.500000  1
  Ru  Ru34  1  0.500000  0.000000  0.000000  1
  Ru  Ru35  1  0.000000  0.500000  0.000000  1
  Pt  Pt36  1  0.500000  0.500000  0.500000  1
  Rh  Rh37  1  0.500000  0.500000  0.000000  1
