# generated using pymatgen
data_Tm4Al10Si8Os5Rh
_symmetry_space_group_name_H-M   'P 1'
_cell_length_a   7.45815302
_cell_length_b   7.42423142
_cell_length_c   9.24219144
_cell_angle_alpha   90.04015842
_cell_angle_beta   90.13614466
_cell_angle_gamma   120.00406794
_symmetry_Int_Tables_number   1
_chemical_formula_structural   Tm4Al10Si8Os5Rh
_chemical_formula_sum   'Tm4 Al10 Si8 Os5 Rh1'
_cell_volume   443.16792442
_cell_formula_units_Z   1
loop_
 _symmetry_equiv_pos_site_id
 _symmetry_equiv_pos_as_xyz
  1  'x, y, z'
loop_
 _atom_site_type_symbol
 _atom_site_label
 _atom_site_symmetry_multiplicity
 _atom_site_fract_x
 _atom_site_fract_y
 _atom_site_fract_z
 _atom_site_occupancy
  Tm  Tm0  1  0.998134  0.668618  0.251857  1
  Tm  Tm1  1  0.001575  0.330460  0.747916  1
  Tm  Tm2  1  0.680946  0.006238  0.255251  1
  Tm  Tm3  1  0.320244  0.994163  0.745045  1
  Al  Al4  1  0.660223  0.994919  0.926490  1
  Al  Al5  1  0.341053  0.005339  0.072526  1
  Al  Al6  1  0.335997  0.337188  0.562627  1
  Al  Al7  1  0.661419  0.664506  0.437287  1
  Al  Al8  1  0.661955  0.665481  0.060756  1
  Al  Al9  1  0.338938  0.333763  0.939157  1
  Al  Al10  1  0.335465  0.548918  0.249184  1
  Al  Al11  1  0.666797  0.451938  0.750681  1
  Al  Al12  1  0.549022  0.338165  0.250669  1
  Al  Al13  1  0.450394  0.659784  0.749392  1
  Si  Si14  1  0.131445  0.126917  0.249423  1
  Si  Si15  1  0.869388  0.872728  0.750547  1
  Si  Si16  1  0.003072  0.330894  0.067506  1
  Si  Si17  1  0.997043  0.668350  0.933448  1
  Si  Si18  1  0.991913  0.665224  0.573362  1
  Si  Si19  1  0.334197  0.006802  0.421643  1
  Si  Si20  1  0.010464  0.337615  0.425487  1
  Si  Si21  1  0.662533  0.990621  0.579673  1
  Os  Os22  1  0.689535  0.335546  0.002458  1
  Os  Os23  1  0.311199  0.664058  0.997472  1
  Os  Os24  1  0.318388  0.681042  0.499554  1
  Os  Os25  1  0.000210  0.999882  0.000107  1
  Os  Os26  1  0.998702  0.000774  0.499938  1
  Rh  Rh27  1  0.679751  0.320067  0.500543  1
