# generated using pymatgen
data_Tb9LuSi5Ge
_symmetry_space_group_name_H-M   'P 1'
_cell_length_a   8.48672200
_cell_length_b   8.49012173
_cell_length_c   6.38518200
_cell_angle_alpha   89.99955107
_cell_angle_beta   89.99851258
_cell_angle_gamma   119.98508379
_symmetry_Int_Tables_number   1
_chemical_formula_structural   Tb9LuSi5Ge
_chemical_formula_sum   'Tb9 Lu1 Si5 Ge1'
_cell_volume   398.49517103
_cell_formula_units_Z   1
loop_
 _symmetry_equiv_pos_site_id
 _symmetry_equiv_pos_as_xyz
  1  'x, y, z'
loop_
 _atom_site_type_symbol
 _atom_site_label
 _atom_site_symmetry_multiplicity
 _atom_site_fract_x
 _atom_site_fract_y
 _atom_site_fract_z
 _atom_site_occupancy
  Tb  Tb0  1  0.667992  0.335037  0.499191  1
  Tb  Tb1  1  0.668022  0.334961  0.000742  1
  Tb  Tb2  1  0.333055  0.665068  0.499260  1
  Tb  Tb3  1  0.243614  0.999518  0.248743  1
  Tb  Tb4  1  0.243942  0.246031  0.751288  1
  Tb  Tb5  1  0.998895  0.754474  0.751170  1
  Tb  Tb6  1  0.000249  0.244460  0.248714  1
  Tb  Tb7  1  0.755300  0.756083  0.248760  1
  Tb  Tb8  1  0.756704  0.999533  0.751204  1
  Lu  Lu9  1  0.333063  0.664827  0.000848  1
  Si  Si10  1  0.604469  0.997561  0.246839  1
  Si  Si11  1  0.604225  0.606888  0.753211  1
  Si  Si12  1  0.002230  0.395586  0.753170  1
  Si  Si13  1  0.002712  0.607143  0.246819  1
  Si  Si14  1  0.393132  0.395321  0.246696  1
  Ge  Ge15  1  0.392392  0.997511  0.753346  1
