# generated using pymatgen
data_La7Nd13Si15Sb
_symmetry_space_group_name_H-M   'P 1'
_cell_length_a   7.95762962
_cell_length_b   7.95522646
_cell_length_c   15.27860000
_cell_angle_alpha   90.04309125
_cell_angle_beta   89.49949264
_cell_angle_gamma   90.18479132
_symmetry_Int_Tables_number   1
_chemical_formula_structural   La7Nd13Si15Sb
_chemical_formula_sum   'La7 Nd13 Si15 Sb1'
_cell_volume   967.16570070
_cell_formula_units_Z   1
loop_
 _symmetry_equiv_pos_site_id
 _symmetry_equiv_pos_as_xyz
  1  'x, y, z'
loop_
 _atom_site_type_symbol
 _atom_site_label
 _atom_site_symmetry_multiplicity
 _atom_site_fract_x
 _atom_site_fract_y
 _atom_site_fract_z
 _atom_site_occupancy
  La  La0  1  0.013469  0.368672  0.554469  1
  La  La1  1  0.626265  0.986961  0.950474  1
  La  La2  1  0.125783  0.513361  0.801689  1
  La  La3  1  0.864260  0.480913  0.292564  1
  La  La4  1  0.508980  0.122600  0.196007  1
  La  La5  1  0.491282  0.876932  0.701209  1
  La  La6  1  0.377211  0.013684  0.448332  1
  Nd  Nd7  1  0.376727  0.480149  0.372894  1
  Nd  Nd8  1  0.860346  0.025511  0.370708  1
  Nd  Nd9  1  0.981749  0.128771  0.123185  1
  Nd  Nd10  1  0.020023  0.873249  0.626929  1
  Nd  Nd11  1  0.630246  0.518476  0.874807  1
  Nd  Nd12  1  0.486758  0.369593  0.628990  1
  Nd  Nd13  1  0.516330  0.628586  0.124305  1
  Nd  Nd14  1  0.127619  0.982562  0.877794  1
  Nd  Nd15  1  0.990173  0.619916  0.051770  1
  Nd  Nd16  1  0.679318  0.692828  0.501399  1
  Nd  Nd17  1  0.812730  0.190807  0.751859  1
  Nd  Nd18  1  0.190573  0.811178  0.242844  1
  Nd  Nd19  1  0.309587  0.309830  0.999879  1
  Si  Si20  1  0.922951  0.289715  0.940358  1
  Si  Si21  1  0.717486  0.078632  0.560803  1
  Si  Si22  1  0.211849  0.423628  0.189951  1
  Si  Si23  1  0.792236  0.577385  0.690099  1
  Si  Si24  1  0.423812  0.212779  0.812371  1
  Si  Si25  1  0.574659  0.786565  0.308888  1
  Si  Si26  1  0.285293  0.922357  0.058102  1
  Si  Si27  1  0.833875  0.803772  0.798278  1
  Si  Si28  1  0.165889  0.196654  0.298257  1
  Si  Si29  1  0.801527  0.831992  0.197725  1
  Si  Si30  1  0.316207  0.665759  0.558375  1
  Si  Si31  1  0.699009  0.336044  0.049737  1
  Si  Si32  1  0.669572  0.306869  0.454478  1
  Si  Si33  1  0.330857  0.695126  0.951562  1
  Si  Si34  1  0.198809  0.167161  0.704108  1
  Sb  Sb35  1  0.066544  0.710981  0.434805  1
