# generated using pymatgen
data_Dy11Ni4SnHg8
_symmetry_space_group_name_H-M   'P 1'
_cell_length_a   3.67697000
_cell_length_b   12.78414552
_cell_length_c   12.78414609
_cell_angle_alpha   111.62699180
_cell_angle_beta   90.00000000
_cell_angle_gamma   90.00000000
_symmetry_Int_Tables_number   1
_chemical_formula_structural   Dy11Ni4SnHg8
_chemical_formula_sum   'Dy11 Ni4 Sn1 Hg8'
_cell_volume   558.63869580
_cell_formula_units_Z   1
loop_
 _symmetry_equiv_pos_site_id
 _symmetry_equiv_pos_as_xyz
  1  'x, y, z'
loop_
 _atom_site_type_symbol
 _atom_site_label
 _atom_site_symmetry_multiplicity
 _atom_site_fract_x
 _atom_site_fract_y
 _atom_site_fract_z
 _atom_site_occupancy
  Dy  Dy0  1  0.000000  0.915844  0.582163  1
  Dy  Dy1  1  0.000000  0.084156  0.417837  1
  Dy  Dy2  1  0.000000  0.582163  0.915844  1
  Dy  Dy3  1  0.000000  0.417837  0.084156  1
  Dy  Dy4  1  0.000000  0.166186  0.833814  1
  Dy  Dy5  1  0.000000  0.833814  0.166186  1
  Dy  Dy6  1  0.000000  0.372576  0.627424  1
  Dy  Dy7  1  0.000000  0.627424  0.372576  1
  Dy  Dy8  1  0.000000  0.691771  0.691771  1
  Dy  Dy9  1  0.000000  0.308229  0.308229  1
  Dy  Dy10  1  0.000000  0.000000  0.000000  1
  Ni  Ni11  1  0.500000  0.747442  0.548849  1
  Ni  Ni12  1  0.500000  0.252558  0.451151  1
  Ni  Ni13  1  0.500000  0.548849  0.747442  1
  Ni  Ni14  1  0.500000  0.451151  0.252558  1
  Sn  Sn15  1  0.500000  0.500000  0.500000  1
  Hg  Hg16  1  0.500000  0.155924  0.630514  1
  Hg  Hg17  1  0.500000  0.844076  0.369486  1
  Hg  Hg18  1  0.500000  0.630514  0.155924  1
  Hg  Hg19  1  0.500000  0.369486  0.844076  1
  Hg  Hg20  1  0.500000  0.929710  0.781512  1
  Hg  Hg21  1  0.500000  0.070290  0.218488  1
  Hg  Hg22  1  0.500000  0.781512  0.929710  1
  Hg  Hg23  1  0.500000  0.218488  0.070290  1
