# generated using pymatgen
data_La10Nd6Cd4RuPt3
_symmetry_space_group_name_H-M   'P 1'
_cell_length_a   10.14164186
_cell_length_b   10.14164185
_cell_length_c   10.14164109
_cell_angle_alpha   59.81181908
_cell_angle_beta   59.81181895
_cell_angle_gamma   59.81182213
_symmetry_Int_Tables_number   1
_chemical_formula_structural   La10Nd6Cd4RuPt3
_chemical_formula_sum   'La10 Nd6 Cd4 Ru1 Pt3'
_cell_volume   734.43049639
_cell_formula_units_Z   1
loop_
 _symmetry_equiv_pos_site_id
 _symmetry_equiv_pos_as_xyz
  1  'x, y, z'
loop_
 _atom_site_type_symbol
 _atom_site_label
 _atom_site_symmetry_multiplicity
 _atom_site_fract_x
 _atom_site_fract_y
 _atom_site_fract_z
 _atom_site_occupancy
  La  La0  1  0.349719  0.349719  0.349719  1
  La  La1  1  0.345866  0.345866  0.955218  1
  La  La2  1  0.345866  0.955218  0.345866  1
  La  La3  1  0.955218  0.345866  0.345866  1
  La  La4  1  0.816450  0.190306  0.190306  1
  La  La5  1  0.192297  0.806060  0.806060  1
  La  La6  1  0.190306  0.816450  0.190306  1
  La  La7  1  0.806060  0.192297  0.806060  1
  La  La8  1  0.190306  0.190306  0.816450  1
  La  La9  1  0.806060  0.806060  0.192297  1
  Nd  Nd10  1  0.935689  0.566681  0.566681  1
  Nd  Nd11  1  0.561648  0.934489  0.934489  1
  Nd  Nd12  1  0.566681  0.935689  0.566681  1
  Nd  Nd13  1  0.934489  0.561648  0.934489  1
  Nd  Nd14  1  0.566681  0.566681  0.935689  1
  Nd  Nd15  1  0.934489  0.934489  0.561648  1
  Cd  Cd16  1  0.580321  0.580321  0.580321  1
  Cd  Cd17  1  0.580999  0.580999  0.255854  1
  Cd  Cd18  1  0.580999  0.255854  0.580999  1
  Cd  Cd19  1  0.255854  0.580999  0.580999  1
  Ru  Ru20  1  0.141245  0.141245  0.141245  1
  Pt  Pt21  1  0.144044  0.144044  0.574669  1
  Pt  Pt22  1  0.144044  0.574669  0.144044  1
  Pt  Pt23  1  0.574669  0.144044  0.144044  1
