# generated using pymatgen
data_Ca3Nd7Sn8
_symmetry_space_group_name_H-M   'P 1'
_cell_length_a   8.07813508
_cell_length_b   8.52966535
_cell_length_c   16.14935471
_cell_angle_alpha   90.11621384
_cell_angle_beta   89.84498360
_cell_angle_gamma   89.85433851
_symmetry_Int_Tables_number   1
_chemical_formula_structural   Ca3Nd7Sn8
_chemical_formula_sum   'Ca6 Nd14 Sn16'
_cell_volume   1112.74175432
_cell_formula_units_Z   2
loop_
 _symmetry_equiv_pos_site_id
 _symmetry_equiv_pos_as_xyz
  1  'x, y, z'
loop_
 _atom_site_type_symbol
 _atom_site_label
 _atom_site_symmetry_multiplicity
 _atom_site_fract_x
 _atom_site_fract_y
 _atom_site_fract_z
 _atom_site_occupancy
  Ca  Ca0  1  0.996853  0.183617  0.406645  1
  Ca  Ca1  1  0.334766  0.829293  0.123072  1
  Ca  Ca2  1  0.165366  0.496496  0.248509  1
  Ca  Ca3  1  0.666350  0.007200  0.249555  1
  Ca  Ca4  1  0.334393  0.993261  0.750507  1
  Ca  Ca5  1  0.833630  0.504889  0.750638  1
  Nd  Nd6  1  0.164474  0.328375  0.623562  1
  Nd  Nd7  1  0.506013  0.682113  0.904296  1
  Nd  Nd8  1  0.836096  0.674418  0.124242  1
  Nd  Nd9  1  0.164698  0.325370  0.876136  1
  Nd  Nd10  1  0.507869  0.682759  0.596399  1
  Nd  Nd11  1  0.664516  0.173072  0.624629  1
  Nd  Nd12  1  0.837745  0.671664  0.376502  1
  Nd  Nd13  1  0.993381  0.181668  0.092478  1
  Nd  Nd14  1  0.006430  0.817318  0.903750  1
  Nd  Nd15  1  0.664711  0.171607  0.875959  1
  Nd  Nd16  1  0.489113  0.314886  0.095819  1
  Nd  Nd17  1  0.335133  0.831256  0.374212  1
  Nd  Nd18  1  0.007567  0.815489  0.597537  1
  Nd  Nd19  1  0.491765  0.317349  0.403435  1
  Sn  Sn20  1  0.823424  0.466193  0.539788  1
  Sn  Sn21  1  0.671255  0.963483  0.462752  1
  Sn  Sn22  1  0.705744  0.858440  0.750739  1
  Sn  Sn23  1  0.181124  0.543859  0.464424  1
  Sn  Sn24  1  0.326011  0.034045  0.961624  1
  Sn  Sn25  1  0.794378  0.363245  0.249249  1
  Sn  Sn26  1  0.823043  0.462524  0.963173  1
  Sn  Sn27  1  0.534388  0.600549  0.249984  1
  Sn  Sn28  1  0.173781  0.535807  0.037535  1
  Sn  Sn29  1  0.465029  0.394311  0.751075  1
  Sn  Sn30  1  0.203706  0.639660  0.750079  1
  Sn  Sn31  1  0.966556  0.105211  0.748615  1
  Sn  Sn32  1  0.328703  0.034213  0.538964  1
  Sn  Sn33  1  0.675582  0.961657  0.036104  1
  Sn  Sn34  1  0.291871  0.142417  0.248765  1
  Sn  Sn35  1  0.034537  0.892288  0.249246  1
