# generated using pymatgen
data_Ho5Tm3Pt4
_symmetry_space_group_name_H-M   'P 1'
_cell_length_a   4.75334700
_cell_length_b   7.11466424
_cell_length_c   8.70224512
_cell_angle_alpha   89.95663557
_cell_angle_beta   90.00000000
_cell_angle_gamma   90.00000000
_symmetry_Int_Tables_number   1
_chemical_formula_structural   Ho5Tm3Pt4
_chemical_formula_sum   'Ho5 Tm3 Pt4'
_cell_volume   294.29651324
_cell_formula_units_Z   1
loop_
 _symmetry_equiv_pos_site_id
 _symmetry_equiv_pos_as_xyz
  1  'x, y, z'
loop_
 _atom_site_type_symbol
 _atom_site_label
 _atom_site_symmetry_multiplicity
 _atom_site_fract_x
 _atom_site_fract_y
 _atom_site_fract_z
 _atom_site_occupancy
  Ho  Ho0  1  0.750000  0.644292  0.420604  1
  Ho  Ho1  1  0.250000  0.990514  0.330622  1
  Ho  Ho2  1  0.250000  0.488912  0.168519  1
  Ho  Ho3  1  0.750000  0.011359  0.670290  1
  Ho  Ho4  1  0.750000  0.510182  0.830564  1
  Tm  Tm5  1  0.250000  0.856346  0.921144  1
  Tm  Tm6  1  0.250000  0.355529  0.579551  1
  Tm  Tm7  1  0.750000  0.143580  0.078852  1
  Pt  Pt8  1  0.250000  0.255847  0.906815  1
  Pt  Pt9  1  0.250000  0.756964  0.594615  1
  Pt  Pt10  1  0.750000  0.744180  0.091331  1
  Pt  Pt11  1  0.750000  0.242294  0.407093  1
