# generated using pymatgen
data_Ca2Dy3Y(Si3Ru)8
_symmetry_space_group_name_H-M   'P 1'
_cell_length_a   10.16104286
_cell_length_b   10.16104352
_cell_length_c   8.16962740
_cell_angle_alpha   90.00572711
_cell_angle_beta   90.00572841
_cell_angle_gamma   132.62282138
_symmetry_Int_Tables_number   1
_chemical_formula_structural   Ca2Dy3Y(Si3Ru)8
_chemical_formula_sum   'Ca2 Dy3 Y1 Si24 Ru8'
_cell_volume   620.66149088
_cell_formula_units_Z   1
loop_
 _symmetry_equiv_pos_site_id
 _symmetry_equiv_pos_as_xyz
  1  'x, y, z'
loop_
 _atom_site_type_symbol
 _atom_site_label
 _atom_site_symmetry_multiplicity
 _atom_site_fract_x
 _atom_site_fract_y
 _atom_site_fract_z
 _atom_site_occupancy
  Ca  Ca0  1  0.501066  0.000912  0.749922  1
  Ca  Ca1  1  0.999088  0.498934  0.250078  1
  Dy  Dy2  1  0.000024  0.999976  0.000000  1
  Dy  Dy3  1  0.496537  0.996649  0.250050  1
  Dy  Dy4  1  0.003351  0.503463  0.749950  1
  Y  Y5  1  0.499999  0.500001  0.500000  1
  Si  Si6  1  0.794765  0.205235  0.500000  1
  Si  Si7  1  0.294153  0.705847  0.000000  1
  Si  Si8  1  0.205712  0.794288  0.500000  1
  Si  Si9  1  0.705400  0.294600  0.000000  1
  Si  Si10  1  0.330045  0.336185  0.833263  1
  Si  Si11  1  0.663815  0.669955  0.166737  1
  Si  Si12  1  0.169664  0.163678  0.332987  1
  Si  Si13  1  0.836322  0.830336  0.667013  1
  Si  Si14  1  0.121627  0.887643  0.727818  1
  Si  Si15  1  0.112357  0.878373  0.272182  1
  Si  Si16  1  0.609083  0.375337  0.227940  1
  Si  Si17  1  0.624663  0.390917  0.772060  1
  Si  Si18  1  0.875441  0.108794  0.271727  1
  Si  Si19  1  0.891206  0.124559  0.728273  1
  Si  Si20  1  0.387612  0.621988  0.772458  1
  Si  Si21  1  0.378012  0.612388  0.227542  1
  Si  Si22  1  0.344430  0.110781  0.503573  1
  Si  Si23  1  0.889219  0.655570  0.496427  1
  Si  Si24  1  0.388570  0.155383  0.006696  1
  Si  Si25  1  0.844617  0.611430  0.993304  1
  Si  Si26  1  0.655203  0.888364  0.492741  1
  Si  Si27  1  0.111636  0.344797  0.507259  1
  Si  Si28  1  0.610595  0.844253  0.997243  1
  Si  Si29  1  0.155747  0.389405  0.002757  1
  Ru  Ru30  1  0.669780  0.330220  0.500000  1
  Ru  Ru31  1  0.168610  0.831390  0.000000  1
  Ru  Ru32  1  0.331186  0.668814  0.500000  1
  Ru  Ru33  1  0.830432  0.169568  0.000000  1
  Ru  Ru34  1  0.126134  0.126690  0.626282  1
  Ru  Ru35  1  0.873310  0.873866  0.373718  1
  Ru  Ru36  1  0.373894  0.373305  0.126277  1
  Ru  Ru37  1  0.626695  0.626106  0.873723  1
