# generated using pymatgen
data_KIn2SnAu3
_symmetry_space_group_name_H-M   'P 1'
_cell_length_a   4.61800200
_cell_length_b   8.17308100
_cell_length_c   9.31404400
_cell_angle_alpha   90.00000000
_cell_angle_beta   90.00000000
_cell_angle_gamma   90.00000000
_symmetry_Int_Tables_number   1
_chemical_formula_structural   KIn2SnAu3
_chemical_formula_sum   'K2 In4 Sn2 Au6'
_cell_volume   351.54279793
_cell_formula_units_Z   2
loop_
 _symmetry_equiv_pos_site_id
 _symmetry_equiv_pos_as_xyz
  1  'x, y, z'
loop_
 _atom_site_type_symbol
 _atom_site_label
 _atom_site_symmetry_multiplicity
 _atom_site_fract_x
 _atom_site_fract_y
 _atom_site_fract_z
 _atom_site_occupancy
  K  K0  1  0.000000  0.500000  0.267610  1
  K  K1  1  0.500000  0.000000  0.733962  1
  In  In2  1  0.500000  0.196636  0.117690  1
  In  In3  1  0.500000  0.803364  0.117690  1
  In  In4  1  0.000000  0.000000  0.377083  1
  In  In5  1  0.500000  0.500000  0.620457  1
  Sn  Sn6  1  0.000000  0.695227  0.883436  1
  Sn  Sn7  1  0.000000  0.304773  0.883436  1
  Au  Au8  1  0.500000  0.786925  0.415372  1
  Au  Au9  1  0.000000  0.000000  0.045855  1
  Au  Au10  1  0.500000  0.500000  0.952350  1
  Au  Au11  1  0.000000  0.713951  0.584844  1
  Au  Au12  1  0.000000  0.286049  0.584844  1
  Au  Au13  1  0.500000  0.213075  0.415372  1
