# generated using pymatgen
data_Ho12Co5Sb
_symmetry_space_group_name_H-M   'P 1'
_cell_length_a   8.23669551
_cell_length_b   8.23676011
_cell_length_c   8.23669588
_cell_angle_alpha   110.87395776
_cell_angle_beta   110.69998113
_cell_angle_gamma   106.87034660
_symmetry_Int_Tables_number   1
_chemical_formula_structural   Ho12Co5Sb
_chemical_formula_sum   'Ho12 Co5 Sb1'
_cell_volume   429.51011659
_cell_formula_units_Z   1
loop_
 _symmetry_equiv_pos_site_id
 _symmetry_equiv_pos_as_xyz
  1  'x, y, z'
loop_
 _atom_site_type_symbol
 _atom_site_label
 _atom_site_symmetry_multiplicity
 _atom_site_fract_x
 _atom_site_fract_y
 _atom_site_fract_z
 _atom_site_occupancy
  Ho  Ho0  1  0.815450  0.710944  0.526398  1
  Ho  Ho1  1  0.184550  0.289056  0.473602  1
  Ho  Ho2  1  0.184547  0.710944  0.895494  1
  Ho  Ho3  1  0.815453  0.289056  0.104506  1
  Ho  Ho4  1  0.686555  0.379137  0.692583  1
  Ho  Ho5  1  0.313445  0.620863  0.307417  1
  Ho  Ho6  1  0.686554  0.993979  0.307425  1
  Ho  Ho7  1  0.313446  0.006021  0.692575  1
  Ho  Ho8  1  0.596254  0.790089  0.806169  1
  Ho  Ho9  1  0.403746  0.209911  0.193831  1
  Ho  Ho10  1  0.983920  0.790089  0.193835  1
  Ho  Ho11  1  0.016080  0.209911  0.806165  1
  Co  Co12  1  0.626599  0.000000  0.626599  1
  Co  Co13  1  0.373401  0.000000  0.373401  1
  Co  Co14  1  0.112638  0.612633  0.499994  1
  Co  Co15  1  0.887362  0.387367  0.500006  1
  Co  Co16  1  0.000000  0.000000  0.000000  1
  Sb  Sb17  1  0.500000  0.500000  0.000000  1
