# generated using pymatgen
data_Ca3(DyPb2)2
_symmetry_space_group_name_H-M   'P 1'
_cell_length_a   8.52211602
_cell_length_b   8.66093228
_cell_length_c   7.95856438
_cell_angle_alpha   90.08979016
_cell_angle_beta   106.86310572
_cell_angle_gamma   90.08602808
_symmetry_Int_Tables_number   1
_chemical_formula_structural   Ca3(DyPb2)2
_chemical_formula_sum   'Ca6 Dy4 Pb8'
_cell_volume   562.15694216
_cell_formula_units_Z   2
loop_
 _symmetry_equiv_pos_site_id
 _symmetry_equiv_pos_as_xyz
  1  'x, y, z'
loop_
 _atom_site_type_symbol
 _atom_site_label
 _atom_site_symmetry_multiplicity
 _atom_site_fract_x
 _atom_site_fract_y
 _atom_site_fract_z
 _atom_site_occupancy
  Ca  Ca0  1  0.314572  0.687755  0.441119  1
  Ca  Ca1  1  0.999264  0.000911  0.505171  1
  Ca  Ca2  1  0.682551  0.311576  0.557422  1
  Ca  Ca3  1  0.735825  0.834485  0.750740  1
  Ca  Ca4  1  0.260238  0.334942  0.748220  1
  Ca  Ca5  1  0.318951  0.810373  0.940227  1
  Dy  Dy6  1  0.001361  0.500967  0.997079  1
  Dy  Dy7  1  0.687787  0.193165  0.061990  1
  Dy  Dy8  1  0.745992  0.666797  0.250249  1
  Dy  Dy9  1  0.256022  0.164468  0.250262  1
  Pb  Pb10  1  0.014377  0.867023  0.136184  1
  Pb  Pb11  1  0.419782  0.461306  0.157079  1
  Pb  Pb12  1  0.582195  0.965113  0.336016  1
  Pb  Pb13  1  0.984717  0.367181  0.355843  1
  Pb  Pb14  1  0.004695  0.628348  0.632580  1
  Pb  Pb15  1  0.415542  0.037203  0.647924  1
  Pb  Pb16  1  0.595720  0.526730  0.858896  1
  Pb  Pb17  1  0.980411  0.141657  0.873003  1
