# generated using pymatgen
data_Ce4Dy4Lu2GaAgPb6
_symmetry_space_group_name_H-M   'P 1'
_cell_length_a   9.49145900
_cell_length_b   9.49256563
_cell_length_c   6.41563500
_cell_angle_alpha   90.00000000
_cell_angle_beta   90.00000000
_cell_angle_gamma   120.00386252
_symmetry_Int_Tables_number   1
_chemical_formula_structural   Ce4Dy4Lu2GaAgPb6
_chemical_formula_sum   'Ce4 Dy4 Lu2 Ga1 Ag1 Pb6'
_cell_volume   500.57592621
_cell_formula_units_Z   1
loop_
 _symmetry_equiv_pos_site_id
 _symmetry_equiv_pos_as_xyz
  1  'x, y, z'
loop_
 _atom_site_type_symbol
 _atom_site_label
 _atom_site_symmetry_multiplicity
 _atom_site_fract_x
 _atom_site_fract_y
 _atom_site_fract_z
 _atom_site_occupancy
  Ce  Ce0  1  0.666412  0.334032  0.499134  1
  Ce  Ce1  1  0.333588  0.667622  0.499134  1
  Ce  Ce2  1  0.333561  0.667812  0.000969  1
  Ce  Ce3  1  0.666439  0.334249  0.000969  1
  Dy  Dy4  1  0.000000  0.273016  0.255813  1
  Dy  Dy5  1  0.264510  0.264399  0.743441  1
  Dy  Dy6  1  0.735490  0.999889  0.743441  1
  Dy  Dy7  1  0.000000  0.731956  0.742790  1
  Lu  Lu8  1  0.723914  0.726686  0.255614  1
  Lu  Lu9  1  0.276086  0.002772  0.255614  1
  Ga  Ga10  1  0.000000  0.997252  0.486380  1
  Ag  Ag11  1  0.000000  0.994525  0.017871  1
  Pb  Pb12  1  0.373733  0.373364  0.247917  1
  Pb  Pb13  1  0.626267  0.999631  0.247917  1
  Pb  Pb14  1  0.000000  0.632730  0.248177  1
  Pb  Pb15  1  0.622742  0.623151  0.751312  1
  Pb  Pb16  1  0.377258  0.000409  0.751312  1
  Pb  Pb17  1  0.000000  0.376505  0.752196  1
