# generated using pymatgen
data_CaEr3(Si5Os3)2
_symmetry_space_group_name_H-M   'P 1'
_cell_length_a   8.15777315
_cell_length_b   8.13498308
_cell_length_c   5.77582945
_cell_angle_alpha   70.57022551
_cell_angle_beta   70.41489347
_cell_angle_gamma   94.05516212
_symmetry_Int_Tables_number   1
_chemical_formula_structural   CaEr3(Si5Os3)2
_chemical_formula_sum   'Ca1 Er3 Si10 Os6'
_cell_volume   333.32144031
_cell_formula_units_Z   1
loop_
 _symmetry_equiv_pos_site_id
 _symmetry_equiv_pos_as_xyz
  1  'x, y, z'
loop_
 _atom_site_type_symbol
 _atom_site_label
 _atom_site_symmetry_multiplicity
 _atom_site_fract_x
 _atom_site_fract_y
 _atom_site_fract_z
 _atom_site_occupancy
  Ca  Ca0  1  0.867744  0.602591  0.754467  1
  Er  Er1  1  0.399127  0.129741  0.746490  1
  Er  Er2  1  0.130244  0.400270  0.247063  1
  Er  Er3  1  0.602371  0.866613  0.255331  1
  Si  Si4  1  0.070900  0.261906  0.834407  1
  Si  Si5  1  0.737598  0.932854  0.666723  1
  Si  Si6  1  0.932139  0.738576  0.167432  1
  Si  Si7  1  0.262263  0.068392  0.333120  1
  Si  Si8  1  0.205559  0.792798  0.749675  1
  Si  Si9  1  0.791537  0.204882  0.254667  1
  Si  Si10  1  0.512422  0.488356  0.750137  1
  Si  Si11  1  0.487830  0.511301  0.246318  1
  Si  Si12  1  0.773994  0.223366  0.747260  1
  Si  Si13  1  0.224300  0.775349  0.251358  1
  Os  Os14  1  0.258044  0.542721  0.629480  1
  Os  Os15  1  0.454831  0.745135  0.869833  1
  Os  Os16  1  0.741863  0.456321  0.370128  1
  Os  Os17  1  0.544331  0.253268  0.129290  1
  Os  Os18  1  0.003703  0.001483  0.748052  1
  Os  Os19  1  0.999196  0.004076  0.248771  1
