# generated using pymatgen
data_Ba6PrTl(BO3)6
_symmetry_space_group_name_H-M   'P 1'
_cell_length_a   8.27214282
_cell_length_b   8.27214431
_cell_length_c   8.27214230
_cell_angle_alpha   105.77179514
_cell_angle_beta   105.77181088
_cell_angle_gamma   105.77180621
_symmetry_Int_Tables_number   1
_chemical_formula_structural   Ba6PrTl(BO3)6
_chemical_formula_sum   'Ba6 Pr1 Tl1 B6 O18'
_cell_volume   486.34188856
_cell_formula_units_Z   1
loop_
 _symmetry_equiv_pos_site_id
 _symmetry_equiv_pos_as_xyz
  1  'x, y, z'
loop_
 _atom_site_type_symbol
 _atom_site_label
 _atom_site_symmetry_multiplicity
 _atom_site_fract_x
 _atom_site_fract_y
 _atom_site_fract_z
 _atom_site_occupancy
  Ba  Ba0  1  0.348126  0.730107  0.837522  1
  Ba  Ba1  1  0.837522  0.348126  0.730107  1
  Ba  Ba2  1  0.730107  0.837522  0.348126  1
  Ba  Ba3  1  0.651874  0.269893  0.162478  1
  Ba  Ba4  1  0.162478  0.651874  0.269893  1
  Ba  Ba5  1  0.269893  0.162478  0.651874  1
  Pr  Pr6  1  0.000000  0.000000  0.000000  1
  Tl  Tl7  1  0.500000  0.500000  0.500000  1
  B  B8  1  0.705812  0.618545  0.954064  1
  B  B9  1  0.954064  0.705812  0.618545  1
  B  B10  1  0.618545  0.954064  0.705812  1
  B  B11  1  0.045936  0.294188  0.381455  1
  B  B12  1  0.381455  0.045936  0.294188  1
  B  B13  1  0.294188  0.381455  0.045936  1
  O  O14  1  0.064415  0.807846  0.555642  1
  O  O15  1  0.555642  0.064415  0.807846  1
  O  O16  1  0.430334  0.507813  0.212212  1
  O  O17  1  0.507813  0.212212  0.430334  1
  O  O18  1  0.212212  0.430334  0.507813  1
  O  O19  1  0.787788  0.569666  0.492187  1
  O  O20  1  0.569666  0.492187  0.787788  1
  O  O21  1  0.492187  0.787788  0.569666  1
  O  O22  1  0.272610  0.199231  0.993061  1
  O  O23  1  0.199231  0.993061  0.272610  1
  O  O24  1  0.993061  0.272610  0.199231  1
  O  O25  1  0.727390  0.800769  0.006939  1
  O  O26  1  0.800769  0.006939  0.727390  1
  O  O27  1  0.006939  0.727390  0.800769  1
  O  O28  1  0.192154  0.444358  0.935585  1
  O  O29  1  0.444358  0.935585  0.192154  1
  O  O30  1  0.935585  0.192154  0.444358  1
  O  O31  1  0.807846  0.555642  0.064415  1
