# generated using pymatgen
data_Sc8AlNi(B12Ir)2
_symmetry_space_group_name_H-M   'P 1'
_cell_length_a   3.43468800
_cell_length_b   8.90963273
_cell_length_c   11.19281413
_cell_angle_alpha   89.89250510
_cell_angle_beta   90.00000000
_cell_angle_gamma   90.00000000
_symmetry_Int_Tables_number   1
_chemical_formula_structural   Sc8AlNi(B12Ir)2
_chemical_formula_sum   'Sc8 Al1 Ni1 B24 Ir2'
_cell_volume   342.51975299
_cell_formula_units_Z   1
loop_
 _symmetry_equiv_pos_site_id
 _symmetry_equiv_pos_as_xyz
  1  'x, y, z'
loop_
 _atom_site_type_symbol
 _atom_site_label
 _atom_site_symmetry_multiplicity
 _atom_site_fract_x
 _atom_site_fract_y
 _atom_site_fract_z
 _atom_site_occupancy
  Sc  Sc0  1  0.500000  0.316439  0.411747  1
  Sc  Sc1  1  0.500000  0.686745  0.589686  1
  Sc  Sc2  1  0.500000  0.176978  0.916196  1
  Sc  Sc3  1  0.500000  0.823608  0.085002  1
  Sc  Sc4  1  0.500000  0.439433  0.127495  1
  Sc  Sc5  1  0.500000  0.556349  0.874039  1
  Sc  Sc6  1  0.500000  0.054524  0.626085  1
  Sc  Sc7  1  0.500000  0.946666  0.369608  1
  Al  Al8  1  0.500000  0.860941  0.820548  1
  Ni  Ni9  1  0.500000  0.141018  0.180927  1
  B  B10  1  0.000000  0.101875  0.470862  1
  B  B11  1  0.000000  0.899304  0.526801  1
  B  B12  1  0.000000  0.396935  0.973140  1
  B  B13  1  0.000000  0.600250  0.028185  1
  B  B14  1  0.000000  0.131399  0.317125  1
  B  B15  1  0.000000  0.869560  0.680593  1
  B  B16  1  0.000000  0.368767  0.818360  1
  B  B17  1  0.000000  0.630833  0.181088  1
  B  B18  1  0.000000  0.051968  0.064718  1
  B  B19  1  0.000000  0.948272  0.937092  1
  B  B20  1  0.000000  0.448381  0.564774  1
  B  B21  1  0.000000  0.553582  0.435880  1
  B  B22  1  0.000000  0.477739  0.287091  1
  B  B23  1  0.000000  0.522026  0.712779  1
  B  B24  1  0.000000  0.021718  0.787997  1
  B  B25  1  0.000000  0.982379  0.210503  1
  B  B26  1  0.000000  0.248780  0.079657  1
  B  B27  1  0.000000  0.747374  0.923416  1
  B  B28  1  0.000000  0.245989  0.578278  1
  B  B29  1  0.000000  0.754456  0.421607  1
  B  B30  1  0.000000  0.293426  0.237372  1
  B  B31  1  0.000000  0.703197  0.762905  1
  B  B32  1  0.000000  0.203793  0.736871  1
  B  B33  1  0.000000  0.796287  0.262364  1
  Ir  Ir34  1  0.500000  0.359827  0.678394  1
  Ir  Ir35  1  0.500000  0.639182  0.320813  1
