# generated using pymatgen
data_Y3TmBBr6
_symmetry_space_group_name_H-M   'P 1'
_cell_length_a   3.96453800
_cell_length_b   13.17594924
_cell_length_c   13.64574800
_cell_angle_alpha   89.77875148
_cell_angle_beta   90.00000000
_cell_angle_gamma   90.00000000
_symmetry_Int_Tables_number   1
_chemical_formula_structural   Y3TmBBr6
_chemical_formula_sum   'Y6 Tm2 B2 Br12'
_cell_volume   712.80150275
_cell_formula_units_Z   2
loop_
 _symmetry_equiv_pos_site_id
 _symmetry_equiv_pos_as_xyz
  1  'x, y, z'
loop_
 _atom_site_type_symbol
 _atom_site_label
 _atom_site_symmetry_multiplicity
 _atom_site_fract_x
 _atom_site_fract_y
 _atom_site_fract_z
 _atom_site_occupancy
  Y  Y0  1  0.000000  0.102130  0.081113  1
  Y  Y1  1  0.000000  0.897870  0.918887  1
  Y  Y2  1  0.500000  0.123306  0.855145  1
  Y  Y3  1  0.500000  0.876694  0.144855  1
  Y  Y4  1  0.500000  0.622226  0.643642  1
  Y  Y5  1  0.500000  0.377774  0.356358  1
  Tm  Tm6  1  0.000000  0.599699  0.420679  1
  Tm  Tm7  1  0.000000  0.400301  0.579321  1
  B  B8  1  0.500000  0.000000  0.000000  1
  B  B9  1  0.500000  0.500000  0.500000  1
  Br  Br10  1  0.500000  0.270772  0.680376  1
  Br  Br11  1  0.500000  0.729228  0.319624  1
  Br  Br12  1  0.500000  0.767388  0.816947  1
  Br  Br13  1  0.500000  0.232612  0.183053  1
  Br  Br14  1  0.000000  0.261852  0.930951  1
  Br  Br15  1  0.000000  0.738148  0.069049  1
  Br  Br16  1  0.000000  0.483383  0.240617  1
  Br  Br17  1  0.000000  0.516617  0.759383  1
  Br  Br18  1  0.000000  0.980415  0.261501  1
  Br  Br19  1  0.000000  0.019585  0.738499  1
  Br  Br20  1  0.000000  0.239861  0.434152  1
  Br  Br21  1  0.000000  0.760139  0.565848  1
