# generated using pymatgen
data_Ac3Pr(GeAu)4
_symmetry_space_group_name_H-M   'P 1'
_cell_length_a   4.57348700
_cell_length_b   4.57348855
_cell_length_c   16.65853000
_cell_angle_alpha   90.00000000
_cell_angle_beta   90.00000000
_cell_angle_gamma   119.99998158
_symmetry_Int_Tables_number   1
_chemical_formula_structural   Ac3Pr(GeAu)4
_chemical_formula_sum   'Ac3 Pr1 Ge4 Au4'
_cell_volume   301.76052894
_cell_formula_units_Z   1
loop_
 _symmetry_equiv_pos_site_id
 _symmetry_equiv_pos_as_xyz
  1  'x, y, z'
loop_
 _atom_site_type_symbol
 _atom_site_label
 _atom_site_symmetry_multiplicity
 _atom_site_fract_x
 _atom_site_fract_y
 _atom_site_fract_z
 _atom_site_occupancy
  Ac  Ac0  1  0.000000  0.000000  0.255387  1
  Ac  Ac1  1  0.000000  0.000000  0.744613  1
  Ac  Ac2  1  0.000000  0.000000  0.000000  1
  Pr  Pr3  1  0.000000  0.000000  0.500000  1
  Ge  Ge4  1  0.333333  0.666667  0.609230  1
  Ge  Ge5  1  0.666667  0.333333  0.390770  1
  Ge  Ge6  1  0.666667  0.333333  0.122905  1
  Ge  Ge7  1  0.333333  0.666667  0.877095  1
  Au  Au8  1  0.333333  0.666667  0.131442  1
  Au  Au9  1  0.666667  0.333333  0.868558  1
  Au  Au10  1  0.666667  0.333333  0.618513  1
  Au  Au11  1  0.333333  0.666667  0.381487  1
