# generated using pymatgen
data_Tm16ZnCo4Ag3
_symmetry_space_group_name_H-M   'P 1'
_cell_length_a   9.25756098
_cell_length_b   9.28067764
_cell_length_c   9.27863905
_cell_angle_alpha   59.99767957
_cell_angle_beta   59.91440470
_cell_angle_gamma   59.92215155
_symmetry_Int_Tables_number   1
_chemical_formula_structural   Tm16ZnCo4Ag3
_chemical_formula_sum   'Tm16 Zn1 Co4 Ag3'
_cell_volume   562.98962641
_cell_formula_units_Z   1
loop_
 _symmetry_equiv_pos_site_id
 _symmetry_equiv_pos_as_xyz
  1  'x, y, z'
loop_
 _atom_site_type_symbol
 _atom_site_label
 _atom_site_symmetry_multiplicity
 _atom_site_fract_x
 _atom_site_fract_y
 _atom_site_fract_z
 _atom_site_occupancy
  Tm  Tm0  1  0.347326  0.349121  0.349311  1
  Tm  Tm1  1  0.347384  0.349179  0.954187  1
  Tm  Tm2  1  0.347286  0.954296  0.349269  1
  Tm  Tm3  1  0.955545  0.348070  0.348251  1
  Tm  Tm4  1  0.812028  0.188271  0.188279  1
  Tm  Tm5  1  0.188155  0.811396  0.811205  1
  Tm  Tm6  1  0.188162  0.811327  0.189255  1
  Tm  Tm7  1  0.812094  0.188266  0.811372  1
  Tm  Tm8  1  0.188151  0.189235  0.811242  1
  Tm  Tm9  1  0.811985  0.811458  0.188281  1
  Tm  Tm10  1  0.937988  0.563412  0.563394  1
  Tm  Tm11  1  0.562051  0.937681  0.937686  1
  Tm  Tm12  1  0.562060  0.937676  0.562579  1
  Tm  Tm13  1  0.937992  0.563404  0.935207  1
  Tm  Tm14  1  0.562027  0.562569  0.937699  1
  Tm  Tm15  1  0.937977  0.935183  0.563416  1
  Zn  Zn16  1  0.262576  0.579140  0.579139  1
  Co  Co17  1  0.142355  0.141210  0.141199  1
  Co  Co18  1  0.142340  0.141235  0.575209  1
  Co  Co19  1  0.142386  0.575261  0.141182  1
  Co  Co20  1  0.574749  0.141761  0.141750  1
  Ag  Ag21  1  0.579136  0.582015  0.582032  1
  Ag  Ag22  1  0.579128  0.582013  0.256833  1
  Ag  Ag23  1  0.579126  0.256827  0.582026  1
