# generated using pymatgen
data_PrHo5CoCl10
_symmetry_space_group_name_H-M   'P 1'
_cell_length_a   7.10288055
_cell_length_b   8.87204026
_cell_length_c   8.86839618
_cell_angle_alpha   107.91362409
_cell_angle_beta   95.91694366
_cell_angle_gamma   106.46066373
_symmetry_Int_Tables_number   1
_chemical_formula_structural   PrHo5CoCl10
_chemical_formula_sum   'Pr1 Ho5 Co1 Cl10'
_cell_volume   498.76675110
_cell_formula_units_Z   1
loop_
 _symmetry_equiv_pos_site_id
 _symmetry_equiv_pos_as_xyz
  1  'x, y, z'
loop_
 _atom_site_type_symbol
 _atom_site_label
 _atom_site_symmetry_multiplicity
 _atom_site_fract_x
 _atom_site_fract_y
 _atom_site_fract_z
 _atom_site_occupancy
  Pr  Pr0  1  0.365086  0.944299  0.243554  1
  Ho  Ho1  1  0.861261  0.139827  0.184926  1
  Ho  Ho2  1  0.138848  0.861048  0.815256  1
  Ho  Ho3  1  0.530036  0.697419  0.898918  1
  Ho  Ho4  1  0.471100  0.301538  0.095656  1
  Ho  Ho5  1  0.630596  0.053150  0.765070  1
  Co  Co6  1  0.499357  0.998916  0.000640  1
  Cl  Cl7  1  0.753229  0.085806  0.457749  1
  Cl  Cl8  1  0.261937  0.920671  0.557567  1
  Cl  Cl9  1  0.942655  0.823989  0.071812  1
  Cl  Cl10  1  0.045135  0.171691  0.920772  1
  Cl  Cl11  1  0.278472  0.258224  0.337952  1
  Cl  Cl12  1  0.718603  0.755409  0.659878  1
  Cl  Cl13  1  0.590301  0.370462  0.834489  1
  Cl  Cl14  1  0.414112  0.617086  0.156577  1
  Cl  Cl15  1  0.843355  0.448469  0.273420  1
  Cl  Cl16  1  0.155918  0.551997  0.725765  1
