# generated using pymatgen
data_EuY6Ho13Pb16
_symmetry_space_group_name_H-M   'P 1'
_cell_length_a   8.20253161
_cell_length_b   8.28267236
_cell_length_c   15.61734400
_cell_angle_alpha   89.98124653
_cell_angle_beta   90.02214287
_cell_angle_gamma   89.89127026
_symmetry_Int_Tables_number   1
_chemical_formula_structural   EuY6Ho13Pb16
_chemical_formula_sum   'Eu1 Y6 Ho13 Pb16'
_cell_volume   1061.02284225
_cell_formula_units_Z   1
loop_
 _symmetry_equiv_pos_site_id
 _symmetry_equiv_pos_as_xyz
  1  'x, y, z'
loop_
 _atom_site_type_symbol
 _atom_site_label
 _atom_site_symmetry_multiplicity
 _atom_site_fract_x
 _atom_site_fract_y
 _atom_site_fract_z
 _atom_site_occupancy
  Eu  Eu0  1  0.030270  0.178680  0.904795  1
  Y  Y1  1  0.033251  0.177173  0.598519  1
  Y  Y2  1  0.465774  0.675808  0.400554  1
  Y  Y3  1  0.966120  0.821737  0.099441  1
  Y  Y4  1  0.466373  0.677369  0.099766  1
  Y  Y5  1  0.965625  0.823433  0.400394  1
  Y  Y6  1  0.532990  0.322773  0.597013  1
  Ho  Ho7  1  0.374380  0.843579  0.878036  1
  Ho  Ho8  1  0.874867  0.656785  0.619181  1
  Ho  Ho9  1  0.624461  0.157353  0.378124  1
  Ho  Ho10  1  0.126601  0.342738  0.120968  1
  Ho  Ho11  1  0.625214  0.158417  0.122568  1
  Ho  Ho12  1  0.124981  0.342517  0.379013  1
  Ho  Ho13  1  0.376224  0.842803  0.620974  1
  Ho  Ho14  1  0.875712  0.656888  0.878916  1
  Ho  Ho15  1  0.534762  0.325126  0.900989  1
  Ho  Ho16  1  0.208119  0.505173  0.749753  1
  Ho  Ho17  1  0.709087  0.995415  0.750161  1
  Ho  Ho18  1  0.792158  0.495559  0.249191  1
  Ho  Ho19  1  0.292247  0.004439  0.250854  1
  Pb  Pb20  1  0.290039  0.031366  0.046460  1
  Pb  Pb21  1  0.783436  0.463298  0.456305  1
  Pb  Pb22  1  0.716688  0.964622  0.542388  1
  Pb  Pb23  1  0.219625  0.539929  0.957707  1
  Pb  Pb24  1  0.709535  0.958622  0.959049  1
  Pb  Pb25  1  0.216644  0.536188  0.542556  1
  Pb  Pb26  1  0.283545  0.035217  0.457207  1
  Pb  Pb27  1  0.781794  0.465753  0.043524  1
  Pb  Pb28  1  0.570833  0.625460  0.749315  1
  Pb  Pb29  1  0.069972  0.872494  0.747490  1
  Pb  Pb30  1  0.429445  0.374020  0.251044  1
  Pb  Pb31  1  0.930632  0.126838  0.249921  1
  Pb  Pb32  1  0.349096  0.154448  0.749233  1
  Pb  Pb33  1  0.841270  0.348589  0.747653  1
  Pb  Pb34  1  0.654401  0.845957  0.250708  1
  Pb  Pb35  1  0.153831  0.653431  0.250234  1
