# generated using pymatgen
data_HoPa3In2(CoNi)2
_symmetry_space_group_name_H-M   'P 1'
_cell_length_a   7.45307875
_cell_length_b   7.45307982
_cell_length_c   3.51882200
_cell_angle_alpha   90.00000000
_cell_angle_beta   90.00000000
_cell_angle_gamma   92.10863044
_symmetry_Int_Tables_number   1
_chemical_formula_structural   HoPa3In2(CoNi)2
_chemical_formula_sum   'Ho1 Pa3 In2 Co2 Ni2'
_cell_volume   195.33254315
_cell_formula_units_Z   1
loop_
 _symmetry_equiv_pos_site_id
 _symmetry_equiv_pos_as_xyz
  1  'x, y, z'
loop_
 _atom_site_type_symbol
 _atom_site_label
 _atom_site_symmetry_multiplicity
 _atom_site_fract_x
 _atom_site_fract_y
 _atom_site_fract_z
 _atom_site_occupancy
  Ho  Ho0  1  0.829330  0.670670  0.500000  1
  Pa  Pa1  1  0.677358  0.176349  0.500000  1
  Pa  Pa2  1  0.323651  0.822642  0.500000  1
  Pa  Pa3  1  0.162030  0.337970  0.500000  1
  In  In4  1  0.506100  0.502839  0.000000  1
  In  In5  1  0.997161  0.993900  0.000000  1
  Co  Co6  1  0.152779  0.624219  0.000000  1
  Co  Co7  1  0.875781  0.347221  0.000000  1
  Ni  Ni8  1  0.608999  0.891001  0.000000  1
  Ni  Ni9  1  0.366812  0.133188  0.000000  1
