# generated using pymatgen
data_Th3AlCo3Sn2
_symmetry_space_group_name_H-M   'P 1'
_cell_length_a   7.29144827
_cell_length_b   7.29144901
_cell_length_c   4.03055400
_cell_angle_alpha   90.00000000
_cell_angle_beta   90.00000000
_cell_angle_gamma   120.56384315
_symmetry_Int_Tables_number   1
_chemical_formula_structural   Th3AlCo3Sn2
_chemical_formula_sum   'Th3 Al1 Co3 Sn2'
_cell_volume   184.51316522
_cell_formula_units_Z   1
loop_
 _symmetry_equiv_pos_site_id
 _symmetry_equiv_pos_as_xyz
  1  'x, y, z'
loop_
 _atom_site_type_symbol
 _atom_site_label
 _atom_site_symmetry_multiplicity
 _atom_site_fract_x
 _atom_site_fract_y
 _atom_site_fract_z
 _atom_site_occupancy
  Th  Th0  1  0.988240  0.582910  0.500000  1
  Th  Th1  1  0.428661  0.428661  0.500000  1
  Th  Th2  1  0.582910  0.988240  0.500000  1
  Al  Al3  1  0.762343  0.762343  0.000000  1
  Co  Co4  1  0.345890  0.668819  0.000000  1
  Co  Co5  1  0.983683  0.983683  0.500000  1
  Co  Co6  1  0.668819  0.345890  0.000000  1
  Sn  Sn7  1  0.997697  0.241756  0.000000  1
  Sn  Sn8  1  0.241756  0.997697  0.000000  1
