# generated using pymatgen
data_ScMnAsO6
_symmetry_space_group_name_H-M   'P 1'
_cell_length_a   4.90415383
_cell_length_b   4.90416439
_cell_length_c   4.60482238
_cell_angle_alpha   90.04615935
_cell_angle_beta   90.04638505
_cell_angle_gamma   119.97970739
_symmetry_Int_Tables_number   1
_chemical_formula_structural   ScMnAsO6
_chemical_formula_sum   'Sc1 Mn1 As1 O6'
_cell_volume   95.93140860
_cell_formula_units_Z   1
loop_
 _symmetry_equiv_pos_site_id
 _symmetry_equiv_pos_as_xyz
  1  'x, y, z'
loop_
 _atom_site_type_symbol
 _atom_site_label
 _atom_site_symmetry_multiplicity
 _atom_site_fract_x
 _atom_site_fract_y
 _atom_site_fract_z
 _atom_site_occupancy
  Sc  Sc0  1  0.517086  0.482898  0.500005  1
  Mn  Mn1  1  0.850451  0.149549  0.000004  1
  As  As2  1  0.183690  0.816314  0.000006  1
  O  O3  1  0.164970  0.121677  0.224653  1
  O  O4  1  0.879544  0.492524  0.225389  1
  O  O5  1  0.508337  0.836108  0.225108  1
  O  O6  1  0.163898  0.491667  0.774895  1
  O  O7  1  0.507479  0.120458  0.774616  1
  O  O8  1  0.878329  0.835033  0.775349  1
