# generated using pymatgen
data_Tb8Tm4ZnCo4Sn
_symmetry_space_group_name_H-M   'P 1'
_cell_length_a   8.30460292
_cell_length_b   8.30460323
_cell_length_c   8.30460305
_cell_angle_alpha   112.05863597
_cell_angle_beta   109.15165828
_cell_angle_gamma   107.24000457
_symmetry_Int_Tables_number   1
_chemical_formula_structural   Tb8Tm4ZnCo4Sn
_chemical_formula_sum   'Tb8 Tm4 Zn1 Co4 Sn1'
_cell_volume   440.10001269
_cell_formula_units_Z   1
loop_
 _symmetry_equiv_pos_site_id
 _symmetry_equiv_pos_as_xyz
  1  'x, y, z'
loop_
 _atom_site_type_symbol
 _atom_site_label
 _atom_site_symmetry_multiplicity
 _atom_site_fract_x
 _atom_site_fract_y
 _atom_site_fract_z
 _atom_site_occupancy
  Tb  Tb0  1  0.429715  0.228614  0.201101  1
  Tb  Tb1  1  0.570285  0.771386  0.798899  1
  Tb  Tb2  1  0.027513  0.228614  0.798899  1
  Tb  Tb3  1  0.972487  0.771386  0.201101  1
  Tb  Tb4  1  0.181852  0.283781  0.465633  1
  Tb  Tb5  1  0.818148  0.716219  0.534367  1
  Tb  Tb6  1  0.181852  0.716219  0.898070  1
  Tb  Tb7  1  0.818148  0.283781  0.101930  1
  Tm  Tm8  1  0.324519  0.637978  0.313457  1
  Tm  Tm9  1  0.675481  0.362022  0.686543  1
  Tm  Tm10  1  0.324519  0.011062  0.686543  1
  Tm  Tm11  1  0.675481  0.988938  0.313457  1
  Zn  Zn12  1  0.000000  0.000000  0.000000  1
  Co  Co13  1  0.348861  0.000000  0.348861  1
  Co  Co14  1  0.651139  0.000000  0.651139  1
  Co  Co15  1  0.114774  0.614774  0.500000  1
  Co  Co16  1  0.885226  0.385226  0.500000  1
  Sn  Sn17  1  0.500000  0.500000  0.000000  1
