# generated using pymatgen
data_Zr6Re5Si6Ir
_symmetry_space_group_name_H-M   'P 1'
_cell_length_a   7.76892515
_cell_length_b   7.80181413
_cell_length_c   7.77681759
_cell_angle_alpha   126.88969666
_cell_angle_beta   126.47938286
_cell_angle_gamma   78.68471917
_symmetry_Int_Tables_number   1
_chemical_formula_structural   Zr6Re5Si6Ir
_chemical_formula_sum   'Zr6 Re5 Si6 Ir1'
_cell_volume   293.51684268
_cell_formula_units_Z   1
loop_
 _symmetry_equiv_pos_site_id
 _symmetry_equiv_pos_as_xyz
  1  'x, y, z'
loop_
 _atom_site_type_symbol
 _atom_site_label
 _atom_site_symmetry_multiplicity
 _atom_site_fract_x
 _atom_site_fract_y
 _atom_site_fract_z
 _atom_site_occupancy
  Zr  Zr0  1  0.450508  0.661898  0.706130  1
  Zr  Zr1  1  0.544418  0.253116  0.205074  1
  Zr  Zr2  1  0.748845  0.843111  0.597218  1
  Zr  Zr3  1  0.247126  0.845968  0.094249  1
  Zr  Zr4  1  0.052478  0.252329  0.703137  1
  Zr  Zr5  1  0.954132  0.662906  0.212611  1
  Re  Re6  1  0.499172  0.504053  0.002026  1
  Re  Re7  1  0.000050  0.504905  0.507096  1
  Re  Re8  1  0.116632  0.253252  0.117588  1
  Re  Re9  1  0.874547  0.001011  0.129025  1
  Re  Re10  1  0.373972  0.003833  0.626955  1
  Si  Si11  1  0.254956  0.253654  0.496247  1
  Si  Si12  1  0.749944  0.253090  0.007111  1
  Si  Si13  1  0.330316  0.585448  0.250391  1
  Si  Si14  1  0.666581  0.920045  0.253936  1
  Si  Si15  1  0.165000  0.922198  0.755000  1
  Si  Si16  1  0.833308  0.585085  0.754477  1
  Ir  Ir17  1  0.638016  0.253703  0.641335  1
