# generated using pymatgen
data_Dy6Zn23C
_symmetry_space_group_name_H-M   'P 1'
_cell_length_a   8.96979806
_cell_length_b   8.96979696
_cell_length_c   8.96979700
_cell_angle_alpha   59.99999617
_cell_angle_beta   60.00000021
_cell_angle_gamma   59.99999397
_symmetry_Int_Tables_number   1
_chemical_formula_structural   Dy6Zn23C
_chemical_formula_sum   'Dy6 Zn23 C1'
_cell_volume   510.30857133
_cell_formula_units_Z   1
loop_
 _symmetry_equiv_pos_site_id
 _symmetry_equiv_pos_as_xyz
  1  'x, y, z'
loop_
 _atom_site_type_symbol
 _atom_site_label
 _atom_site_symmetry_multiplicity
 _atom_site_fract_x
 _atom_site_fract_y
 _atom_site_fract_z
 _atom_site_occupancy
  Dy  Dy0  1  0.695354  0.304646  0.304646  1
  Dy  Dy1  1  0.304646  0.695354  0.695354  1
  Dy  Dy2  1  0.304646  0.695354  0.304646  1
  Dy  Dy3  1  0.695354  0.304646  0.695354  1
  Dy  Dy4  1  0.304646  0.304646  0.695354  1
  Dy  Dy5  1  0.695354  0.695354  0.304646  1
  Zn  Zn6  1  0.122272  0.122272  0.122272  1
  Zn  Zn7  1  0.877728  0.877728  0.877728  1
  Zn  Zn8  1  0.122272  0.122272  0.633187  1
  Zn  Zn9  1  0.122272  0.633187  0.122272  1
  Zn  Zn10  1  0.877728  0.877728  0.366813  1
  Zn  Zn11  1  0.877728  0.366813  0.877728  1
  Zn  Zn12  1  0.633187  0.122272  0.122272  1
  Zn  Zn13  1  0.366813  0.877728  0.877728  1
  Zn  Zn14  1  0.500000  0.000000  0.000000  1
  Zn  Zn15  1  0.000000  0.500000  0.500000  1
  Zn  Zn16  1  0.000000  0.500000  0.000000  1
  Zn  Zn17  1  0.500000  0.000000  0.500000  1
  Zn  Zn18  1  0.000000  0.000000  0.500000  1
  Zn  Zn19  1  0.500000  0.500000  0.000000  1
  Zn  Zn20  1  0.327862  0.327862  0.327862  1
  Zn  Zn21  1  0.672138  0.672138  0.672138  1
  Zn  Zn22  1  0.327862  0.327862  0.016416  1
  Zn  Zn23  1  0.327862  0.016416  0.327862  1
  Zn  Zn24  1  0.672138  0.672138  0.983584  1
  Zn  Zn25  1  0.672138  0.983584  0.672138  1
  Zn  Zn26  1  0.016416  0.327862  0.327862  1
  Zn  Zn27  1  0.983584  0.672138  0.672138  1
  Zn  Zn28  1  0.000000  0.000000  0.000000  1
  C  C29  1  0.500000  0.500000  0.500000  1
