# generated using pymatgen
data_Tb5Pr4DySn8
_symmetry_space_group_name_H-M   'P 1'
_cell_length_a   8.17175400
_cell_length_b   8.33991400
_cell_length_c   15.72318700
_cell_angle_alpha   90.00000000
_cell_angle_beta   90.00000000
_cell_angle_gamma   90.00000000
_symmetry_Int_Tables_number   1
_chemical_formula_structural   Tb5Pr4DySn8
_chemical_formula_sum   'Tb10 Pr8 Dy2 Sn16'
_cell_volume   1071.56232581
_cell_formula_units_Z   2
loop_
 _symmetry_equiv_pos_site_id
 _symmetry_equiv_pos_as_xyz
  1  'x, y, z'
loop_
 _atom_site_type_symbol
 _atom_site_label
 _atom_site_symmetry_multiplicity
 _atom_site_fract_x
 _atom_site_fract_y
 _atom_site_fract_z
 _atom_site_occupancy
  Tb  Tb0  1  0.359662  0.835816  0.877239  1
  Tb  Tb1  1  0.859662  0.664184  0.622761  1
  Tb  Tb2  1  0.640300  0.164142  0.377188  1
  Tb  Tb3  1  0.140300  0.335858  0.122812  1
  Tb  Tb4  1  0.640300  0.164142  0.122812  1
  Tb  Tb5  1  0.140300  0.335858  0.377188  1
  Tb  Tb6  1  0.359662  0.835816  0.622761  1
  Tb  Tb7  1  0.859662  0.664184  0.877239  1
  Tb  Tb8  1  0.193955  0.501632  0.750000  1
  Tb  Tb9  1  0.693955  0.998368  0.750000  1
  Pr  Pr10  1  0.513214  0.321603  0.903047  1
  Pr  Pr11  1  0.013214  0.178397  0.596953  1
  Pr  Pr12  1  0.486844  0.678392  0.402963  1
  Pr  Pr13  1  0.986844  0.821608  0.097037  1
  Pr  Pr14  1  0.486844  0.678392  0.097037  1
  Pr  Pr15  1  0.986844  0.821608  0.402963  1
  Pr  Pr16  1  0.513214  0.321603  0.596953  1
  Pr  Pr17  1  0.013214  0.178397  0.903047  1
  Dy  Dy18  1  0.805938  0.498315  0.250000  1
  Dy  Dy19  1  0.305938  0.001685  0.250000  1
  Sn  Sn20  1  0.303923  0.040312  0.042185  1
  Sn  Sn21  1  0.803923  0.459688  0.457815  1
  Sn  Sn22  1  0.696001  0.959541  0.541932  1
  Sn  Sn23  1  0.196001  0.540459  0.958068  1
  Sn  Sn24  1  0.696001  0.959541  0.958068  1
  Sn  Sn25  1  0.196001  0.540459  0.541932  1
  Sn  Sn26  1  0.303923  0.040312  0.457815  1
  Sn  Sn27  1  0.803923  0.459688  0.042185  1
  Sn  Sn28  1  0.559769  0.622948  0.750000  1
  Sn  Sn29  1  0.059769  0.877052  0.750000  1
  Sn  Sn30  1  0.440674  0.376917  0.250000  1
  Sn  Sn31  1  0.940674  0.123083  0.250000  1
  Sn  Sn32  1  0.322188  0.142054  0.750000  1
  Sn  Sn33  1  0.822188  0.357946  0.750000  1
  Sn  Sn34  1  0.677585  0.857514  0.250000  1
  Sn  Sn35  1  0.177585  0.642486  0.250000  1
