# generated using pymatgen
data_HoU3PaGa15
_symmetry_space_group_name_H-M   'P 1'
_cell_length_a   12.48662583
_cell_length_b   12.48662589
_cell_length_c   12.48662405
_cell_angle_alpha   28.34239204
_cell_angle_beta   28.34239022
_cell_angle_gamma   28.34239017
_symmetry_Int_Tables_number   1
_chemical_formula_structural   HoU3PaGa15
_chemical_formula_sum   'Ho1 U3 Pa1 Ga15'
_cell_volume   387.73354059
_cell_formula_units_Z   1
loop_
 _symmetry_equiv_pos_site_id
 _symmetry_equiv_pos_as_xyz
  1  'x, y, z'
loop_
 _atom_site_type_symbol
 _atom_site_label
 _atom_site_symmetry_multiplicity
 _atom_site_fract_x
 _atom_site_fract_y
 _atom_site_fract_z
 _atom_site_occupancy
  Ho  Ho0  1  0.600018  0.600018  0.600018  1
  U  U1  1  0.131158  0.131158  0.131158  1
  U  U2  1  0.869626  0.869626  0.869626  1
  U  U3  1  0.400045  0.400045  0.400045  1
  Pa  Pa4  1  0.999083  0.999083  0.999083  1
  Ga  Ga5  1  0.428517  0.884908  0.884908  1
  Ga  Ga6  1  0.884908  0.884908  0.428517  1
  Ga  Ga7  1  0.884908  0.428517  0.884908  1
  Ga  Ga8  1  0.115243  0.569549  0.115243  1
  Ga  Ga9  1  0.115243  0.115243  0.569549  1
  Ga  Ga10  1  0.569549  0.115243  0.115243  1
  Ga  Ga11  1  0.130308  0.636046  0.636046  1
  Ga  Ga12  1  0.636046  0.636046  0.130308  1
  Ga  Ga13  1  0.636046  0.130308  0.636046  1
  Ga  Ga14  1  0.363682  0.873414  0.363682  1
  Ga  Ga15  1  0.363682  0.363682  0.873414  1
  Ga  Ga16  1  0.873414  0.363682  0.363682  1
  Ga  Ga17  1  0.498498  0.498498  0.001529  1
  Ga  Ga18  1  0.498498  0.001529  0.498498  1
  Ga  Ga19  1  0.001529  0.498498  0.498498  1
