# generated using pymatgen
data_Ho8ReOsI8
_symmetry_space_group_name_H-M   'P 1'
_cell_length_a   11.07739582
_cell_length_b   11.07739628
_cell_length_c   6.18554487
_cell_angle_alpha   89.22626949
_cell_angle_beta   89.22626816
_cell_angle_gamma   88.54123302
_symmetry_Int_Tables_number   1
_chemical_formula_structural   Ho8ReOsI8
_chemical_formula_sum   'Ho8 Re1 Os1 I8'
_cell_volume   758.63925399
_cell_formula_units_Z   1
loop_
 _symmetry_equiv_pos_site_id
 _symmetry_equiv_pos_as_xyz
  1  'x, y, z'
loop_
 _atom_site_type_symbol
 _atom_site_label
 _atom_site_symmetry_multiplicity
 _atom_site_fract_x
 _atom_site_fract_y
 _atom_site_fract_z
 _atom_site_occupancy
  Ho  Ho0  1  0.202610  0.915740  0.997009  1
  Ho  Ho1  1  0.797349  0.084269  0.004106  1
  Ho  Ho2  1  0.084260  0.797390  0.502991  1
  Ho  Ho3  1  0.915731  0.202651  0.495894  1
  Ho  Ho4  1  0.799302  0.920785  0.507162  1
  Ho  Ho5  1  0.200802  0.079231  0.491698  1
  Ho  Ho6  1  0.079215  0.200698  0.992838  1
  Ho  Ho7  1  0.920769  0.799198  0.008302  1
  Re  Re8  1  0.999967  0.000033  0.250000  1
  Os  Os9  1  0.999888  0.000112  0.750000  1
  I  I10  1  0.363775  0.840775  0.504131  1
  I  I11  1  0.636128  0.159112  0.496044  1
  I  I12  1  0.159225  0.636225  0.995869  1
  I  I13  1  0.840888  0.363872  0.003956  1
  I  I14  1  0.359580  0.150313  0.002775  1
  I  I15  1  0.640454  0.849630  0.997115  1
  I  I16  1  0.849687  0.640420  0.497225  1
  I  I17  1  0.150370  0.359546  0.502885  1
