# generated using pymatgen
data_Y5Co6
_symmetry_space_group_name_H-M   'P 1'
_cell_length_a   5.53064994
_cell_length_b   5.53064998
_cell_length_c   20.30035900
_cell_angle_alpha   90.00000000
_cell_angle_beta   90.00000000
_cell_angle_gamma   137.45378688
_symmetry_Int_Tables_number   1
_chemical_formula_structural   Y5Co6
_chemical_formula_sum   'Y10 Co12'
_cell_volume   419.87631223
_cell_formula_units_Z   2
loop_
 _symmetry_equiv_pos_site_id
 _symmetry_equiv_pos_as_xyz
  1  'x, y, z'
loop_
 _atom_site_type_symbol
 _atom_site_label
 _atom_site_symmetry_multiplicity
 _atom_site_fract_x
 _atom_site_fract_y
 _atom_site_fract_z
 _atom_site_occupancy
  Y  Y0  1  0.278721  0.721279  0.250000  1
  Y  Y1  1  0.281852  0.718148  0.065241  1
  Y  Y2  1  0.007157  0.992843  0.845673  1
  Y  Y3  1  0.721279  0.278721  0.750000  1
  Y  Y4  1  0.718148  0.281852  0.565241  1
  Y  Y5  1  0.992843  0.007157  0.345673  1
  Y  Y6  1  0.007157  0.992843  0.654327  1
  Y  Y7  1  0.718148  0.281852  0.934759  1
  Y  Y8  1  0.992843  0.007157  0.154327  1
  Y  Y9  1  0.281852  0.718148  0.434759  1
  Co  Co10  1  0.000000  0.000000  0.500000  1
  Co  Co11  1  0.000000  0.000000  0.000000  1
  Co  Co12  1  0.310347  0.689653  0.651958  1
  Co  Co13  1  0.569233  0.430767  0.446182  1
  Co  Co14  1  0.419276  0.580724  0.750000  1
  Co  Co15  1  0.430767  0.569233  0.946182  1
  Co  Co16  1  0.580724  0.419276  0.250000  1
  Co  Co17  1  0.430767  0.569233  0.553818  1
  Co  Co18  1  0.689653  0.310347  0.348042  1
  Co  Co19  1  0.689653  0.310347  0.151958  1
  Co  Co20  1  0.569233  0.430767  0.053818  1
  Co  Co21  1  0.310347  0.689653  0.848042  1
