# generated using pymatgen
data_YHo12Th7Sn16
_symmetry_space_group_name_H-M   'P 1'
_cell_length_a   8.11070583
_cell_length_b   8.21298722
_cell_length_c   15.50634979
_cell_angle_alpha   90.06579936
_cell_angle_beta   90.24788986
_cell_angle_gamma   89.90406421
_symmetry_Int_Tables_number   1
_chemical_formula_structural   YHo12Th7Sn16
_chemical_formula_sum   'Y1 Ho12 Th7 Sn16'
_cell_volume   1032.91460323
_cell_formula_units_Z   1
loop_
 _symmetry_equiv_pos_site_id
 _symmetry_equiv_pos_as_xyz
  1  'x, y, z'
loop_
 _atom_site_type_symbol
 _atom_site_label
 _atom_site_symmetry_multiplicity
 _atom_site_fract_x
 _atom_site_fract_y
 _atom_site_fract_z
 _atom_site_occupancy
  Y  Y0  1  0.522431  0.323470  0.901343  1
  Ho  Ho1  1  0.361558  0.835752  0.875958  1
  Ho  Ho2  1  0.860109  0.662680  0.624010  1
  Ho  Ho3  1  0.639033  0.163896  0.376420  1
  Ho  Ho4  1  0.136579  0.336322  0.123220  1
  Ho  Ho5  1  0.637830  0.164038  0.123440  1
  Ho  Ho6  1  0.139522  0.336592  0.376385  1
  Ho  Ho7  1  0.360675  0.837438  0.624591  1
  Ho  Ho8  1  0.862616  0.662926  0.876352  1
  Ho  Ho9  1  0.190418  0.498793  0.750335  1
  Ho  Ho10  1  0.691366  0.001166  0.750208  1
  Ho  Ho11  1  0.809310  0.501646  0.250086  1
  Ho  Ho12  1  0.308970  0.998052  0.250124  1
  Th  Th13  1  0.019002  0.179397  0.596809  1
  Th  Th14  1  0.481619  0.679387  0.403581  1
  Th  Th15  1  0.980431  0.821123  0.096220  1
  Th  Th16  1  0.481186  0.679248  0.096846  1
  Th  Th17  1  0.982068  0.820527  0.404069  1
  Th  Th18  1  0.517416  0.320120  0.595412  1
  Th  Th19  1  0.017909  0.177900  0.903793  1
  Sn  Sn20  1  0.298098  0.037678  0.043084  1
  Sn  Sn21  1  0.798910  0.461549  0.457929  1
  Sn  Sn22  1  0.701623  0.960417  0.541932  1
  Sn  Sn23  1  0.205497  0.536710  0.957291  1
  Sn  Sn24  1  0.699923  0.961641  0.957825  1
  Sn  Sn25  1  0.200496  0.540658  0.541364  1
  Sn  Sn26  1  0.299457  0.039278  0.457969  1
  Sn  Sn27  1  0.795548  0.459399  0.041528  1
  Sn  Sn28  1  0.557808  0.621181  0.749862  1
  Sn  Sn29  1  0.057804  0.878458  0.750414  1
  Sn  Sn30  1  0.441593  0.377311  0.250034  1
  Sn  Sn31  1  0.941436  0.122578  0.250009  1
  Sn  Sn32  1  0.327210  0.146511  0.751884  1
  Sn  Sn33  1  0.823580  0.356219  0.750275  1
  Sn  Sn34  1  0.675967  0.857596  0.249774  1
  Sn  Sn35  1  0.175003  0.642344  0.249624  1
