# generated using pymatgen
data_Tb5Tm(Si3Ru)8
_symmetry_space_group_name_H-M   'P 1'
_cell_length_a   10.12074757
_cell_length_b   10.12074724
_cell_length_c   8.15637937
_cell_angle_alpha   90.01399105
_cell_angle_beta   90.01399231
_cell_angle_gamma   132.47428805
_symmetry_Int_Tables_number   1
_chemical_formula_structural   Tb5Tm(Si3Ru)8
_chemical_formula_sum   'Tb5 Tm1 Si24 Ru8'
_cell_volume   616.21448146
_cell_formula_units_Z   1
loop_
 _symmetry_equiv_pos_site_id
 _symmetry_equiv_pos_as_xyz
  1  'x, y, z'
loop_
 _atom_site_type_symbol
 _atom_site_label
 _atom_site_symmetry_multiplicity
 _atom_site_fract_x
 _atom_site_fract_y
 _atom_site_fract_z
 _atom_site_occupancy
  Tb  Tb0  1  0.000000  0.000000  0.000000  1
  Tb  Tb1  1  0.502770  0.002694  0.749791  1
  Tb  Tb2  1  0.997306  0.497230  0.250209  1
  Tb  Tb3  1  0.497230  0.997306  0.250209  1
  Tb  Tb4  1  0.002694  0.502770  0.749791  1
  Tm  Tm5  1  0.500000  0.500000  0.500000  1
  Si  Si6  1  0.794590  0.205410  0.500000  1
  Si  Si7  1  0.294888  0.705112  0.000000  1
  Si  Si8  1  0.205410  0.794590  0.500000  1
  Si  Si9  1  0.705112  0.294888  0.000000  1
  Si  Si10  1  0.332735  0.332735  0.833110  1
  Si  Si11  1  0.667265  0.667265  0.166890  1
  Si  Si12  1  0.167149  0.167149  0.333250  1
  Si  Si13  1  0.832851  0.832851  0.666750  1
  Si  Si14  1  0.122168  0.887798  0.728414  1
  Si  Si15  1  0.112202  0.877832  0.271586  1
  Si  Si16  1  0.611401  0.377425  0.228981  1
  Si  Si17  1  0.622575  0.388599  0.771019  1
  Si  Si18  1  0.877832  0.112202  0.271586  1
  Si  Si19  1  0.887798  0.122168  0.728414  1
  Si  Si20  1  0.388599  0.622575  0.771019  1
  Si  Si21  1  0.377425  0.611401  0.228981  1
  Si  Si22  1  0.345735  0.112194  0.505644  1
  Si  Si23  1  0.887806  0.654265  0.494356  1
  Si  Si24  1  0.387952  0.154321  0.005546  1
  Si  Si25  1  0.845679  0.612048  0.994454  1
  Si  Si26  1  0.654265  0.887806  0.494356  1
  Si  Si27  1  0.112194  0.345735  0.505644  1
  Si  Si28  1  0.612048  0.845679  0.994454  1
  Si  Si29  1  0.154321  0.387952  0.005546  1
  Ru  Ru30  1  0.668224  0.331776  0.500000  1
  Ru  Ru31  1  0.169062  0.830938  0.000000  1
  Ru  Ru32  1  0.331776  0.668224  0.500000  1
  Ru  Ru33  1  0.830938  0.169062  0.000000  1
  Ru  Ru34  1  0.127372  0.127372  0.625629  1
  Ru  Ru35  1  0.872628  0.872628  0.374371  1
  Ru  Ru36  1  0.374641  0.374641  0.128253  1
  Ru  Ru37  1  0.625359  0.625359  0.871747  1
