# generated using pymatgen
data_TbY19(Bi2Ru)4
_symmetry_space_group_name_H-M   'P 1'
_cell_length_a   8.00083031
_cell_length_b   9.06333803
_cell_length_c   12.48979948
_cell_angle_alpha   89.99486744
_cell_angle_beta   89.98957818
_cell_angle_gamma   89.98485815
_symmetry_Int_Tables_number   1
_chemical_formula_structural   TbY19(Bi2Ru)4
_chemical_formula_sum   'Tb1 Y19 Bi8 Ru4'
_cell_volume   905.68813716
_cell_formula_units_Z   1
loop_
 _symmetry_equiv_pos_site_id
 _symmetry_equiv_pos_as_xyz
  1  'x, y, z'
loop_
 _atom_site_type_symbol
 _atom_site_label
 _atom_site_symmetry_multiplicity
 _atom_site_fract_x
 _atom_site_fract_y
 _atom_site_fract_z
 _atom_site_occupancy
  Tb  Tb0  1  0.174518  0.540475  0.936268  1
  Y  Y1  1  0.842566  0.749852  0.792202  1
  Y  Y2  1  0.157293  0.250046  0.207447  1
  Y  Y3  1  0.342682  0.250052  0.707459  1
  Y  Y4  1  0.657411  0.750048  0.292405  1
  Y  Y5  1  0.375035  0.749791  0.692275  1
  Y  Y6  1  0.624981  0.249847  0.307878  1
  Y  Y7  1  0.874771  0.250009  0.807467  1
  Y  Y8  1  0.124890  0.750224  0.192524  1
  Y  Y9  1  0.947306  0.750020  0.504043  1
  Y  Y10  1  0.052567  0.249968  0.495843  1
  Y  Y11  1  0.447364  0.250484  0.995849  1
  Y  Y12  1  0.552911  0.749630  0.003977  1
  Y  Y13  1  0.675306  0.040593  0.564952  1
  Y  Y14  1  0.324822  0.959212  0.435017  1
  Y  Y15  1  0.175270  0.959503  0.935258  1
  Y  Y16  1  0.324709  0.540705  0.435147  1
  Y  Y17  1  0.824928  0.040874  0.064624  1
  Y  Y18  1  0.675434  0.459313  0.564791  1
  Y  Y19  1  0.823906  0.459002  0.065133  1
  Bi  Bi20  1  0.569816  0.493274  0.827450  1
  Bi  Bi21  1  0.430672  0.506651  0.172578  1
  Bi  Bi22  1  0.069482  0.506552  0.672170  1
  Bi  Bi23  1  0.430869  0.993510  0.172109  1
  Bi  Bi24  1  0.930585  0.493334  0.327773  1
  Bi  Bi25  1  0.569238  0.006551  0.827778  1
  Bi  Bi26  1  0.930667  0.006688  0.327655  1
  Bi  Bi27  1  0.069521  0.993316  0.672270  1
  Ru  Ru28  1  0.572964  0.749946  0.510862  1
  Ru  Ru29  1  0.427121  0.249963  0.489270  1
  Ru  Ru30  1  0.073179  0.251025  0.988829  1
  Ru  Ru31  1  0.927220  0.749541  0.010697  1
