# generated using pymatgen
data_BaMnCd(PO4)2
_symmetry_space_group_name_H-M   'P 1'
_cell_length_a   5.77684675
_cell_length_b   7.06619336
_cell_length_c   9.86551483
_cell_angle_alpha   109.02686796
_cell_angle_beta   100.98299775
_cell_angle_gamma   98.02319415
_symmetry_Int_Tables_number   1
_chemical_formula_structural   BaMnCd(PO4)2
_chemical_formula_sum   'Ba2 Mn2 Cd2 P4 O16'
_cell_volume   364.80602159
_cell_formula_units_Z   2
loop_
 _symmetry_equiv_pos_site_id
 _symmetry_equiv_pos_as_xyz
  1  'x, y, z'
loop_
 _atom_site_type_symbol
 _atom_site_label
 _atom_site_symmetry_multiplicity
 _atom_site_fract_x
 _atom_site_fract_y
 _atom_site_fract_z
 _atom_site_occupancy
  Ba  Ba0  1  0.257573  0.805561  0.059936  1
  Ba  Ba1  1  0.742427  0.194439  0.940064  1
  Mn  Mn2  1  0.636165  0.839955  0.557121  1
  Mn  Mn3  1  0.363835  0.160045  0.442879  1
  Cd  Cd4  1  0.010394  0.418052  0.656587  1
  Cd  Cd5  1  0.989606  0.581948  0.343413  1
  P  P6  1  0.390252  0.425755  0.232548  1
  P  P7  1  0.609748  0.574245  0.767452  1
  P  P8  1  0.841087  0.036889  0.308313  1
  P  P9  1  0.158913  0.963111  0.691687  1
  O  O10  1  0.832011  0.547973  0.872505  1
  O  O11  1  0.624851  0.473917  0.183058  1
  O  O12  1  0.652010  0.791945  0.762692  1
  O  O13  1  0.961392  0.093156  0.675698  1
  O  O14  1  0.375149  0.526083  0.816942  1
  O  O15  1  0.021137  0.733308  0.592539  1
  O  O16  1  0.978863  0.266692  0.407461  1
  O  O17  1  0.249272  0.992001  0.854881  1
  O  O18  1  0.347991  0.208055  0.237308  1
  O  O19  1  0.750728  0.007999  0.145119  1
  O  O20  1  0.167989  0.452027  0.127495  1
  O  O21  1  0.404166  0.584454  0.389903  1
  O  O22  1  0.595834  0.415546  0.610097  1
  O  O23  1  0.628938  0.972236  0.373118  1
  O  O24  1  0.038608  0.906844  0.324302  1
  O  O25  1  0.371062  0.027764  0.626882  1
