# generated using pymatgen
data_Y7Sc(Si3Pt)4
_symmetry_space_group_name_H-M   'P 1'
_cell_length_a   8.12243211
_cell_length_b   8.12473619
_cell_length_c   8.12790400
_cell_angle_alpha   90.00000000
_cell_angle_beta   90.00000000
_cell_angle_gamma   120.00938105
_symmetry_Int_Tables_number   1
_chemical_formula_structural   Y7Sc(Si3Pt)4
_chemical_formula_sum   'Y7 Sc1 Si12 Pt4'
_cell_volume   464.47623084
_cell_formula_units_Z   1
loop_
 _symmetry_equiv_pos_site_id
 _symmetry_equiv_pos_as_xyz
  1  'x, y, z'
loop_
 _atom_site_type_symbol
 _atom_site_label
 _atom_site_symmetry_multiplicity
 _atom_site_fract_x
 _atom_site_fract_y
 _atom_site_fract_z
 _atom_site_occupancy
  Y  Y0  1  0.000022  0.000011  0.250000  1
  Y  Y1  1  0.999996  0.999998  0.750000  1
  Y  Y2  1  0.499233  0.500625  0.250000  1
  Y  Y3  1  0.500600  0.001202  0.750000  1
  Y  Y4  1  0.499233  0.998606  0.250000  1
  Y  Y5  1  0.500600  0.499400  0.750000  1
  Y  Y6  1  0.998791  0.499396  0.750000  1
  Sc  Sc7  1  0.001411  0.500705  0.250000  1
  Si  Si8  1  0.164956  0.331645  0.001596  1
  Si  Si9  1  0.668887  0.834443  0.999314  1
  Si  Si10  1  0.164956  0.331645  0.498404  1
  Si  Si11  1  0.331143  0.165572  0.000813  1
  Si  Si12  1  0.164956  0.833310  0.001596  1
  Si  Si13  1  0.668887  0.834443  0.500686  1
  Si  Si14  1  0.835038  0.668356  0.003076  1
  Si  Si15  1  0.331143  0.165572  0.499187  1
  Si  Si16  1  0.164956  0.833310  0.498404  1
  Si  Si17  1  0.835038  0.668356  0.496924  1
  Si  Si18  1  0.835038  0.166683  0.003076  1
  Si  Si19  1  0.835038  0.166683  0.496924  1
  Pt  Pt20  1  0.331751  0.665876  0.002655  1
  Pt  Pt21  1  0.331751  0.665876  0.497345  1
  Pt  Pt22  1  0.668287  0.334143  0.004830  1
  Pt  Pt23  1  0.668287  0.334143  0.495170  1
