# generated using pymatgen
data_YHo4Bi2Pt
_symmetry_space_group_name_H-M   'P 1'
_cell_length_a   8.05302200
_cell_length_b   9.01848600
_cell_length_c   12.37471100
_cell_angle_alpha   90.00000000
_cell_angle_beta   90.00000000
_cell_angle_gamma   90.00000000
_symmetry_Int_Tables_number   1
_chemical_formula_structural   YHo4Bi2Pt
_chemical_formula_sum   'Y4 Ho16 Bi8 Pt4'
_cell_volume   898.72657985
_cell_formula_units_Z   4
loop_
 _symmetry_equiv_pos_site_id
 _symmetry_equiv_pos_as_xyz
  1  'x, y, z'
loop_
 _atom_site_type_symbol
 _atom_site_label
 _atom_site_symmetry_multiplicity
 _atom_site_fract_x
 _atom_site_fract_y
 _atom_site_fract_z
 _atom_site_occupancy
  Y  Y0  1  0.165902  0.750000  0.211273  1
  Y  Y1  1  0.334098  0.750000  0.711273  1
  Y  Y2  1  0.834098  0.250000  0.788727  1
  Y  Y3  1  0.665902  0.250000  0.288727  1
  Ho  Ho4  1  0.452062  0.750000  0.999986  1
  Ho  Ho5  1  0.047938  0.750000  0.499986  1
  Ho  Ho6  1  0.547938  0.250000  0.000014  1
  Ho  Ho7  1  0.952062  0.250000  0.500014  1
  Ho  Ho8  1  0.627780  0.750000  0.303469  1
  Ho  Ho9  1  0.872220  0.750000  0.803469  1
  Ho  Ho10  1  0.372220  0.250000  0.696531  1
  Ho  Ho11  1  0.127780  0.250000  0.196531  1
  Ho  Ho12  1  0.822203  0.547683  0.066335  1
  Ho  Ho13  1  0.677797  0.952317  0.566335  1
  Ho  Ho14  1  0.177797  0.047683  0.933665  1
  Ho  Ho15  1  0.322203  0.452317  0.433665  1
  Ho  Ho16  1  0.177797  0.452317  0.933665  1
  Ho  Ho17  1  0.322203  0.047683  0.433665  1
  Ho  Ho18  1  0.822203  0.952317  0.066335  1
  Ho  Ho19  1  0.677797  0.547683  0.566335  1
  Bi  Bi20  1  0.932432  0.509490  0.327225  1
  Bi  Bi21  1  0.567568  0.990510  0.827225  1
  Bi  Bi22  1  0.067568  0.009490  0.672775  1
  Bi  Bi23  1  0.432432  0.490510  0.172775  1
  Bi  Bi24  1  0.067568  0.490510  0.672775  1
  Bi  Bi25  1  0.432432  0.009490  0.172775  1
  Bi  Bi26  1  0.932432  0.990510  0.327225  1
  Bi  Bi27  1  0.567568  0.509490  0.827225  1
  Pt  Pt28  1  0.419691  0.750000  0.486692  1
  Pt  Pt29  1  0.080309  0.750000  0.986692  1
  Pt  Pt30  1  0.580309  0.250000  0.513308  1
  Pt  Pt31  1  0.919691  0.250000  0.013308  1
