# generated using pymatgen
data_NaNdNiPt3
_symmetry_space_group_name_H-M   'P 1'
_cell_length_a   5.26116173
_cell_length_b   5.26116110
_cell_length_c   5.26116174
_cell_angle_alpha   62.56669229
_cell_angle_beta   62.56668635
_cell_angle_gamma   62.56669723
_symmetry_Int_Tables_number   1
_chemical_formula_structural   NaNdNiPt3
_chemical_formula_sum   'Na1 Nd1 Ni1 Pt3'
_cell_volume   108.86168509
_cell_formula_units_Z   1
loop_
 _symmetry_equiv_pos_site_id
 _symmetry_equiv_pos_as_xyz
  1  'x, y, z'
loop_
 _atom_site_type_symbol
 _atom_site_label
 _atom_site_symmetry_multiplicity
 _atom_site_fract_x
 _atom_site_fract_y
 _atom_site_fract_z
 _atom_site_occupancy
  Na  Na0  1  0.997494  0.997494  0.997494  1
  Nd  Nd1  1  0.249132  0.249132  0.249132  1
  Ni  Ni2  1  0.625870  0.625870  0.625870  1
  Pt  Pt3  1  0.626656  0.626656  0.124192  1
  Pt  Pt4  1  0.626656  0.124192  0.626656  1
  Pt  Pt5  1  0.124192  0.626656  0.626656  1
