# generated using pymatgen
data_Dy2YTm3NiI10
_symmetry_space_group_name_H-M   'P 1'
_cell_length_a   7.67987603
_cell_length_b   9.61662461
_cell_length_c   9.69411392
_cell_angle_alpha   106.86576287
_cell_angle_beta   96.68272266
_cell_angle_gamma   104.43658022
_symmetry_Int_Tables_number   1
_chemical_formula_structural   Dy2YTm3NiI10
_chemical_formula_sum   'Dy2 Y1 Tm3 Ni1 I10'
_cell_volume   649.62413076
_cell_formula_units_Z   1
loop_
 _symmetry_equiv_pos_site_id
 _symmetry_equiv_pos_as_xyz
  1  'x, y, z'
loop_
 _atom_site_type_symbol
 _atom_site_label
 _atom_site_symmetry_multiplicity
 _atom_site_fract_x
 _atom_site_fract_y
 _atom_site_fract_z
 _atom_site_occupancy
  Dy  Dy0  1  0.885402  0.957448  0.234281  1
  Dy  Dy1  1  0.112139  0.041178  0.764658  1
  Y  Y2  1  0.340527  0.120527  0.160978  1
  Tm  Tm3  1  0.031245  0.724530  0.917791  1
  Tm  Tm4  1  0.967552  0.274940  0.081140  1
  Tm  Tm5  1  0.665909  0.881406  0.841819  1
  Ni  Ni6  1  0.999533  0.999490  0.999634  1
  I  I7  1  0.654198  0.552933  0.728131  1
  I  I8  1  0.343216  0.450330  0.271549  1
  I  I9  1  0.740610  0.912930  0.539653  1
  I  I10  1  0.255776  0.085845  0.461742  1
  I  I11  1  0.083986  0.375172  0.822271  1
  I  I12  1  0.913718  0.624054  0.176364  1
  I  I13  1  0.453049  0.811608  0.090787  1
  I  I14  1  0.547262  0.185334  0.905987  1
  I  I15  1  0.232055  0.745243  0.660843  1
  I  I16  1  0.773825  0.257030  0.342371  1
