# generated using pymatgen
data_Nb2AlZn3
_symmetry_space_group_name_H-M   'P 1'
_cell_length_a   5.07142100
_cell_length_b   5.07142175
_cell_length_c   8.28491500
_cell_angle_alpha   90.00000000
_cell_angle_beta   90.00000000
_cell_angle_gamma   120.00000161
_symmetry_Int_Tables_number   1
_chemical_formula_structural   Nb2AlZn3
_chemical_formula_sum   'Nb4 Al2 Zn6'
_cell_volume   184.53471376
_cell_formula_units_Z   2
loop_
 _symmetry_equiv_pos_site_id
 _symmetry_equiv_pos_as_xyz
  1  'x, y, z'
loop_
 _atom_site_type_symbol
 _atom_site_label
 _atom_site_symmetry_multiplicity
 _atom_site_fract_x
 _atom_site_fract_y
 _atom_site_fract_z
 _atom_site_occupancy
  Nb  Nb0  1  0.333333  0.666667  0.434397  1
  Nb  Nb1  1  0.666667  0.333333  0.565603  1
  Nb  Nb2  1  0.666667  0.333333  0.934397  1
  Nb  Nb3  1  0.333333  0.666667  0.065603  1
  Al  Al4  1  0.000000  0.000000  0.500000  1
  Al  Al5  1  0.000000  0.000000  0.000000  1
  Zn  Zn6  1  0.827247  0.172753  0.250000  1
  Zn  Zn7  1  0.827247  0.654494  0.250000  1
  Zn  Zn8  1  0.345506  0.172753  0.250000  1
  Zn  Zn9  1  0.172753  0.827247  0.750000  1
  Zn  Zn10  1  0.172753  0.345506  0.750000  1
  Zn  Zn11  1  0.654494  0.827247  0.750000  1
