# generated using pymatgen
data_TbYb2Sm(Pt2O7)2
_symmetry_space_group_name_H-M   'P 1'
_cell_length_a   7.28492067
_cell_length_b   7.29740912
_cell_length_c   7.27968700
_cell_angle_alpha   60.08029877
_cell_angle_beta   60.02375792
_cell_angle_gamma   60.02382305
_symmetry_Int_Tables_number   1
_chemical_formula_structural   TbYb2Sm(Pt2O7)2
_chemical_formula_sum   'Tb1 Yb2 Sm1 Pt4 O14'
_cell_volume   273.91155785
_cell_formula_units_Z   1
loop_
 _symmetry_equiv_pos_site_id
 _symmetry_equiv_pos_as_xyz
  1  'x, y, z'
loop_
 _atom_site_type_symbol
 _atom_site_label
 _atom_site_symmetry_multiplicity
 _atom_site_fract_x
 _atom_site_fract_y
 _atom_site_fract_z
 _atom_site_occupancy
  Tb  Tb0  1  0.125000  0.625000  0.625000  1
  Yb  Yb1  1  0.625000  0.625000  0.125000  1
  Yb  Yb2  1  0.625000  0.625000  0.625000  1
  Sm  Sm3  1  0.625000  0.125000  0.625000  1
  Pt  Pt4  1  0.125000  0.125000  0.125000  1
  Pt  Pt5  1  0.625000  0.125000  0.125000  1
  Pt  Pt6  1  0.125000  0.625000  0.125000  1
  Pt  Pt7  1  0.125000  0.125000  0.625000  1
  O  O8  1  0.044916  0.459373  0.459742  1
  O  O9  1  0.792727  0.791750  0.207761  1
  O  O10  1  0.791166  0.208741  0.210033  1
  O  O11  1  0.458834  0.041259  0.459941  1
  O  O12  1  0.044916  0.459373  0.035970  1
  O  O13  1  0.755220  0.747916  0.748432  1
  O  O14  1  0.041708  0.035467  0.461413  1
  O  O15  1  0.205084  0.790627  0.214030  1
  O  O16  1  0.208292  0.214533  0.788587  1
  O  O17  1  0.494780  0.502084  0.501568  1
  O  O18  1  0.791166  0.208741  0.790059  1
  O  O19  1  0.458834  0.041259  0.039967  1
  O  O20  1  0.457273  0.458250  0.042239  1
  O  O21  1  0.205084  0.790627  0.790258  1
