# generated using pymatgen
data_Yb2Ce4HfNbSb10
_symmetry_space_group_name_H-M   'P 1'
_cell_length_a   9.44383520
_cell_length_b   9.43132496
_cell_length_c   6.24714345
_cell_angle_alpha   90.06025039
_cell_angle_beta   89.87965876
_cell_angle_gamma   120.04388149
_symmetry_Int_Tables_number   1
_chemical_formula_structural   Yb2Ce4HfNbSb10
_chemical_formula_sum   'Yb2 Ce4 Hf1 Nb1 Sb10'
_cell_volume   481.65941671
_cell_formula_units_Z   1
loop_
 _symmetry_equiv_pos_site_id
 _symmetry_equiv_pos_as_xyz
  1  'x, y, z'
loop_
 _atom_site_type_symbol
 _atom_site_label
 _atom_site_symmetry_multiplicity
 _atom_site_fract_x
 _atom_site_fract_y
 _atom_site_fract_z
 _atom_site_occupancy
  Yb  Yb0  1  0.614535  0.000000  0.251395  1
  Yb  Yb1  1  0.385465  0.000000  0.748605  1
  Ce  Ce2  1  0.003763  0.621257  0.250728  1
  Ce  Ce3  1  0.996237  0.378743  0.749272  1
  Ce  Ce4  1  0.382506  0.378743  0.250728  1
  Ce  Ce5  1  0.617494  0.621257  0.749272  1
  Hf  Hf6  1  0.000000  0.000000  0.500000  1
  Nb  Nb7  1  0.000000  0.000000  0.000000  1
  Sb  Sb8  1  0.260490  0.000000  0.245837  1
  Sb  Sb9  1  0.739510  0.000000  0.754163  1
  Sb  Sb10  1  0.000273  0.263148  0.246513  1
  Sb  Sb11  1  0.999727  0.736852  0.753487  1
  Sb  Sb12  1  0.737126  0.736852  0.246513  1
  Sb  Sb13  1  0.262874  0.263148  0.753487  1
  Sb  Sb14  1  0.330928  0.661858  0.000000  1
  Sb  Sb15  1  0.669072  0.338142  0.000000  1
  Sb  Sb16  1  0.668768  0.337534  0.500000  1
  Sb  Sb17  1  0.331232  0.662466  0.500000  1
