# generated using pymatgen
data_Y2Ta2NbCo9As7
_symmetry_space_group_name_H-M   'P 1'
_cell_length_a   3.81435900
_cell_length_b   9.54626717
_cell_length_c   9.55005800
_cell_angle_alpha   120.01335006
_cell_angle_beta   90.00000000
_cell_angle_gamma   90.00000000
_symmetry_Int_Tables_number   1
_chemical_formula_structural   Y2Ta2NbCo9As7
_chemical_formula_sum   'Y2 Ta2 Nb1 Co9 As7'
_cell_volume   301.11566688
_cell_formula_units_Z   1
loop_
 _symmetry_equiv_pos_site_id
 _symmetry_equiv_pos_as_xyz
  1  'x, y, z'
loop_
 _atom_site_type_symbol
 _atom_site_label
 _atom_site_symmetry_multiplicity
 _atom_site_fract_x
 _atom_site_fract_y
 _atom_site_fract_z
 _atom_site_occupancy
  Y  Y0  1  0.000000  0.667508  0.334070  1
  Y  Y1  1  0.500000  0.332874  0.667143  1
  Ta  Ta2  1  0.500000  0.775358  0.895639  1
  Ta  Ta3  1  0.500000  0.120957  0.224514  1
  Nb  Nb4  1  0.500000  0.102025  0.878098  1
  Co  Co5  1  0.000000  0.572894  0.937265  1
  Co  Co6  1  0.000000  0.363749  0.427740  1
  Co  Co7  1  0.000000  0.062154  0.633465  1
  Co  Co8  1  0.000000  0.878737  0.158599  1
  Co  Co9  1  0.000000  0.282964  0.124610  1
  Co  Co10  1  0.000000  0.839082  0.718655  1
  Co  Co11  1  0.500000  0.948157  0.383353  1
  Co  Co12  1  0.500000  0.436665  0.051870  1
  Co  Co13  1  0.500000  0.615682  0.564300  1
  As  As14  1  0.000000  0.000695  0.999631  1
  As  As15  1  0.500000  0.708016  0.124423  1
  As  As16  1  0.500000  0.417230  0.291658  1
  As  As17  1  0.500000  0.876837  0.584813  1
  As  As18  1  0.000000  0.578931  0.690464  1
  As  As19  1  0.000000  0.110927  0.420307  1
  As  As20  1  0.000000  0.308558  0.889380  1
