# generated using pymatgen
data_Er8CdCo2Hg
_symmetry_space_group_name_H-M   'P 1'
_cell_length_a   9.39014612
_cell_length_b   9.39014664
_cell_length_c   9.38198400
_cell_angle_alpha   60.02875130
_cell_angle_beta   60.02874946
_cell_angle_gamma   60.10351561
_symmetry_Int_Tables_number   1
_chemical_formula_structural   Er8CdCo2Hg
_chemical_formula_sum   'Er16 Cd2 Co4 Hg2'
_cell_volume   585.66855486
_cell_formula_units_Z   2
loop_
 _symmetry_equiv_pos_site_id
 _symmetry_equiv_pos_as_xyz
  1  'x, y, z'
loop_
 _atom_site_type_symbol
 _atom_site_label
 _atom_site_symmetry_multiplicity
 _atom_site_fract_x
 _atom_site_fract_y
 _atom_site_fract_z
 _atom_site_occupancy
  Er  Er0  1  0.346095  0.346095  0.344365  1
  Er  Er1  1  0.346095  0.346095  0.963445  1
  Er  Er2  1  0.348821  0.957839  0.346670  1
  Er  Er3  1  0.957839  0.348821  0.346670  1
  Er  Er4  1  0.810506  0.186612  0.189808  1
  Er  Er5  1  0.186612  0.810506  0.813074  1
  Er  Er6  1  0.186612  0.810506  0.189808  1
  Er  Er7  1  0.810506  0.186612  0.813074  1
  Er  Er8  1  0.187666  0.187666  0.812334  1
  Er  Er9  1  0.809718  0.809718  0.190282  1
  Er  Er10  1  0.938662  0.561258  0.562069  1
  Er  Er11  1  0.561258  0.938662  0.938011  1
  Er  Er12  1  0.561258  0.938662  0.562069  1
  Er  Er13  1  0.938662  0.561258  0.938011  1
  Er  Er14  1  0.561754  0.561754  0.938246  1
  Er  Er15  1  0.938900  0.938900  0.561100  1
  Cd  Cd16  1  0.581161  0.260736  0.579051  1
  Cd  Cd17  1  0.260736  0.581161  0.579051  1
  Co  Co18  1  0.140997  0.140997  0.141060  1
  Co  Co19  1  0.140997  0.140997  0.576946  1
  Co  Co20  1  0.140235  0.577717  0.141025  1
  Co  Co21  1  0.577717  0.140235  0.141025  1
  Hg  Hg22  1  0.583595  0.583595  0.585993  1
  Hg  Hg23  1  0.583595  0.583595  0.246815  1
