# generated using pymatgen
data_Rb6HoTe4Cl
_symmetry_space_group_name_H-M   'P 1'
_cell_length_a   12.01760100
_cell_length_b   12.01760009
_cell_length_c   8.58337100
_cell_angle_alpha   90.00000000
_cell_angle_beta   90.00000000
_cell_angle_gamma   119.99999974
_symmetry_Int_Tables_number   1
_chemical_formula_structural   Rb6HoTe4Cl
_chemical_formula_sum   'Rb12 Ho2 Te8 Cl2'
_cell_volume   1073.55437488
_cell_formula_units_Z   2
loop_
 _symmetry_equiv_pos_site_id
 _symmetry_equiv_pos_as_xyz
  1  'x, y, z'
loop_
 _atom_site_type_symbol
 _atom_site_label
 _atom_site_symmetry_multiplicity
 _atom_site_fract_x
 _atom_site_fract_y
 _atom_site_fract_z
 _atom_site_occupancy
  Rb  Rb0  1  0.122401  0.877599  0.516053  1
  Rb  Rb1  1  0.755197  0.877599  0.516053  1
  Rb  Rb2  1  0.951735  0.475867  0.318420  1
  Rb  Rb3  1  0.524133  0.475867  0.318420  1
  Rb  Rb4  1  0.877599  0.755197  0.016053  1
  Rb  Rb5  1  0.244803  0.122401  0.016053  1
  Rb  Rb6  1  0.524133  0.048265  0.318420  1
  Rb  Rb7  1  0.122401  0.244803  0.516053  1
  Rb  Rb8  1  0.877599  0.122401  0.016053  1
  Rb  Rb9  1  0.048265  0.524133  0.818420  1
  Rb  Rb10  1  0.475867  0.951735  0.818420  1
  Rb  Rb11  1  0.475867  0.524133  0.818420  1
  Ho  Ho12  1  0.666667  0.333333  0.709011  1
  Ho  Ho13  1  0.333333  0.666667  0.209011  1
  Te  Te14  1  0.400684  0.200342  0.600685  1
  Te  Te15  1  0.599316  0.799658  0.100685  1
  Te  Te16  1  0.666667  0.333333  0.049565  1
  Te  Te17  1  0.799658  0.599316  0.600685  1
  Te  Te18  1  0.200342  0.400684  0.100685  1
  Te  Te19  1  0.333333  0.666667  0.549565  1
  Te  Te20  1  0.200342  0.799658  0.100685  1
  Te  Te21  1  0.799658  0.200342  0.600685  1
  Cl  Cl22  1  0.000000  0.000000  0.276551  1
  Cl  Cl23  1  0.000000  0.000000  0.776551  1
