# generated using pymatgen
data_Nd2Ho8(BiSb)3
_symmetry_space_group_name_H-M   'P 1'
_cell_length_a   8.25168191
_cell_length_b   9.41897032
_cell_length_c   12.07610800
_cell_angle_alpha   90.00000000
_cell_angle_beta   90.00000000
_cell_angle_gamma   89.90373689
_symmetry_Int_Tables_number   1
_chemical_formula_structural   Nd2Ho8(BiSb)3
_chemical_formula_sum   'Nd4 Ho16 Bi6 Sb6'
_cell_volume   938.58213221
_cell_formula_units_Z   2
loop_
 _symmetry_equiv_pos_site_id
 _symmetry_equiv_pos_as_xyz
  1  'x, y, z'
loop_
 _atom_site_type_symbol
 _atom_site_label
 _atom_site_symmetry_multiplicity
 _atom_site_fract_x
 _atom_site_fract_y
 _atom_site_fract_z
 _atom_site_occupancy
  Nd  Nd0  1  0.169892  0.747059  0.224935  1
  Nd  Nd1  1  0.330108  0.752941  0.724935  1
  Nd  Nd2  1  0.825588  0.247412  0.775902  1
  Nd  Nd3  1  0.674412  0.252588  0.275902  1
  Ho  Ho4  1  0.815154  0.561041  0.065560  1
  Ho  Ho5  1  0.684846  0.938959  0.565560  1
  Ho  Ho6  1  0.188011  0.060882  0.935964  1
  Ho  Ho7  1  0.311989  0.439118  0.435964  1
  Ho  Ho8  1  0.186049  0.438455  0.936553  1
  Ho  Ho9  1  0.313951  0.061545  0.436553  1
  Ho  Ho10  1  0.812781  0.938787  0.062211  1
  Ho  Ho11  1  0.687219  0.561213  0.562211  1
  Ho  Ho12  1  0.474261  0.752403  0.001856  1
  Ho  Ho13  1  0.025739  0.747597  0.501856  1
  Ho  Ho14  1  0.526992  0.247474  0.995180  1
  Ho  Ho15  1  0.973008  0.252526  0.495180  1
  Ho  Ho16  1  0.663496  0.747541  0.291259  1
  Ho  Ho17  1  0.836504  0.752459  0.791259  1
  Ho  Ho18  1  0.340852  0.247769  0.710068  1
  Ho  Ho19  1  0.159148  0.252231  0.210068  1
  Bi  Bi20  1  0.064721  0.007252  0.671559  1
  Bi  Bi21  1  0.435279  0.492748  0.171559  1
  Bi  Bi22  1  0.064940  0.492577  0.672555  1
  Bi  Bi23  1  0.435060  0.007423  0.172555  1
  Bi  Bi24  1  0.935095  0.992879  0.327800  1
  Bi  Bi25  1  0.564905  0.507121  0.827800  1
  Sb  Sb26  1  0.403714  0.749926  0.467989  1
  Sb  Sb27  1  0.096286  0.750074  0.967989  1
  Sb  Sb28  1  0.596143  0.250234  0.531745  1
  Sb  Sb29  1  0.903857  0.249766  0.031745  1
  Sb  Sb30  1  0.935764  0.507909  0.328865  1
  Sb  Sb31  1  0.564236  0.992091  0.828865  1
