# generated using pymatgen
data_Tb2B8IrRh
_symmetry_space_group_name_H-M   'P 1'
_cell_length_a   7.01999982
_cell_length_b   7.02000113
_cell_length_c   7.01999977
_cell_angle_alpha   111.74567611
_cell_angle_beta   111.54693257
_cell_angle_gamma   105.20356970
_symmetry_Int_Tables_number   1
_chemical_formula_structural   Tb2B8IrRh
_chemical_formula_sum   'Tb4 B16 Ir2 Rh2'
_cell_volume   265.21309364
_cell_formula_units_Z   2
loop_
 _symmetry_equiv_pos_site_id
 _symmetry_equiv_pos_as_xyz
  1  'x, y, z'
loop_
 _atom_site_type_symbol
 _atom_site_label
 _atom_site_symmetry_multiplicity
 _atom_site_fract_x
 _atom_site_fract_y
 _atom_site_fract_z
 _atom_site_occupancy
  Tb  Tb0  1  0.214912  0.214912  0.000000  1
  Tb  Tb1  1  0.785088  0.785088  0.000000  1
  Tb  Tb2  1  0.749464  0.249464  0.500000  1
  Tb  Tb3  1  0.250536  0.750536  0.500000  1
  B  B4  1  0.107195  0.264295  0.371490  1
  B  B5  1  0.892805  0.735705  0.628510  1
  B  B6  1  0.892805  0.264295  0.157101  1
  B  B7  1  0.107195  0.735705  0.842899  1
  B  B8  1  0.735976  0.892785  0.628761  1
  B  B9  1  0.264024  0.107215  0.371239  1
  B  B10  1  0.735976  0.107215  0.843190  1
  B  B11  1  0.264024  0.892785  0.156810  1
  B  B12  1  0.414024  0.414590  0.525611  1
  B  B13  1  0.888980  0.888414  0.474389  1
  B  B14  1  0.585976  0.111586  0.000567  1
  B  B15  1  0.111020  0.585410  0.999433  1
  B  B16  1  0.585976  0.585410  0.474389  1
  B  B17  1  0.111020  0.111586  0.525611  1
  B  B18  1  0.888980  0.414590  0.000567  1
  B  B19  1  0.414024  0.888414  0.999433  1
  Ir  Ir20  1  0.740339  0.500000  0.240339  1
  Ir  Ir21  1  0.259661  0.500000  0.759661  1
  Rh  Rh22  1  0.500000  0.259124  0.759124  1
  Rh  Rh23  1  0.500000  0.740876  0.240876  1
