# generated using pymatgen
data_Pr5Rh3
_symmetry_space_group_name_H-M   'P 1'
_cell_length_a   11.33346700
_cell_length_b   11.33346700
_cell_length_c   6.65795000
_cell_angle_alpha   90.00000000
_cell_angle_beta   90.00000000
_cell_angle_gamma   90.00000000
_symmetry_Int_Tables_number   1
_chemical_formula_structural   Pr5Rh3
_chemical_formula_sum   'Pr20 Rh12'
_cell_volume   855.19686112
_cell_formula_units_Z   4
loop_
 _symmetry_equiv_pos_site_id
 _symmetry_equiv_pos_as_xyz
  1  'x, y, z'
loop_
 _atom_site_type_symbol
 _atom_site_label
 _atom_site_symmetry_multiplicity
 _atom_site_fract_x
 _atom_site_fract_y
 _atom_site_fract_z
 _atom_site_occupancy
  Pr  Pr0  1  0.292104  0.091565  0.382224  1
  Pr  Pr1  1  0.292104  0.908435  0.882224  1
  Pr  Pr2  1  0.707896  0.091565  0.882224  1
  Pr  Pr3  1  0.707896  0.908435  0.382224  1
  Pr  Pr4  1  0.591565  0.792104  0.882224  1
  Pr  Pr5  1  0.591565  0.207896  0.382224  1
  Pr  Pr6  1  0.408435  0.792104  0.382224  1
  Pr  Pr7  1  0.408435  0.207896  0.882224  1
  Pr  Pr8  1  0.207896  0.408435  0.617776  1
  Pr  Pr9  1  0.207896  0.591565  0.117776  1
  Pr  Pr10  1  0.792104  0.408435  0.117776  1
  Pr  Pr11  1  0.792104  0.591565  0.617776  1
  Pr  Pr12  1  0.908435  0.707896  0.117776  1
  Pr  Pr13  1  0.908435  0.292104  0.617776  1
  Pr  Pr14  1  0.091565  0.707896  0.617776  1
  Pr  Pr15  1  0.091565  0.292104  0.117776  1
  Pr  Pr16  1  0.000000  0.000000  0.500000  1
  Pr  Pr17  1  0.000000  0.000000  0.000000  1
  Pr  Pr18  1  0.500000  0.500000  0.000000  1
  Pr  Pr19  1  0.500000  0.500000  0.500000  1
  Rh  Rh20  1  0.845565  0.154435  0.250000  1
  Rh  Rh21  1  0.845565  0.845565  0.750000  1
  Rh  Rh22  1  0.154435  0.154435  0.750000  1
  Rh  Rh23  1  0.154435  0.845565  0.250000  1
  Rh  Rh24  1  0.654435  0.345565  0.750000  1
  Rh  Rh25  1  0.654435  0.654435  0.250000  1
  Rh  Rh26  1  0.345565  0.345565  0.250000  1
  Rh  Rh27  1  0.345565  0.654435  0.750000  1
  Rh  Rh28  1  0.500000  0.000000  0.118948  1
  Rh  Rh29  1  0.500000  0.000000  0.618948  1
  Rh  Rh30  1  0.000000  0.500000  0.881052  1
  Rh  Rh31  1  0.000000  0.500000  0.381052  1
