# generated using pymatgen
data_La15YCd4Os3Ru
_symmetry_space_group_name_H-M   'P 1'
_cell_length_a   10.04428657
_cell_length_b   10.13602212
_cell_length_c   10.07173008
_cell_angle_alpha   59.67162528
_cell_angle_beta   60.08554823
_cell_angle_gamma   59.56346533
_symmetry_Int_Tables_number   1
_chemical_formula_structural   La15YCd4Os3Ru
_chemical_formula_sum   'La15 Y1 Cd4 Os3 Ru1'
_cell_volume   721.30134086
_cell_formula_units_Z   1
loop_
 _symmetry_equiv_pos_site_id
 _symmetry_equiv_pos_as_xyz
  1  'x, y, z'
loop_
 _atom_site_type_symbol
 _atom_site_label
 _atom_site_symmetry_multiplicity
 _atom_site_fract_x
 _atom_site_fract_y
 _atom_site_fract_z
 _atom_site_occupancy
  La  La0  1  0.444808  0.441110  0.057399  1
  La  La1  1  0.058274  0.062414  0.440484  1
  La  La2  1  0.442037  0.060587  0.058251  1
  La  La3  1  0.842634  0.848143  0.842722  1
  La  La4  1  0.691142  0.310198  0.314991  1
  La  La5  1  0.057511  0.440116  0.443381  1
  La  La6  1  0.313402  0.685758  0.690766  1
  La  La7  1  0.313871  0.311541  0.691721  1
  La  La8  1  0.847184  0.845237  0.459967  1
  La  La9  1  0.690239  0.685901  0.314034  1
  La  La10  1  0.460037  0.845387  0.848071  1
  La  La11  1  0.055476  0.444605  0.058701  1
  La  La12  1  0.842785  0.462869  0.842734  1
  La  La13  1  0.445214  0.055590  0.446268  1
  La  La14  1  0.310067  0.689562  0.312601  1
  Y  Y15  1  0.690872  0.308879  0.691121  1
  Cd  Cd16  1  0.077881  0.763307  0.078266  1
  Cd  Cd17  1  0.074724  0.080597  0.763680  1
  Cd  Cd18  1  0.763681  0.080385  0.075105  1
  Cd  Cd19  1  0.078092  0.079730  0.078596  1
  Os  Os20  1  0.635699  0.085466  0.635901  1
  Os  Os21  1  0.634609  0.642419  0.635869  1
  Os  Os22  1  0.637339  0.635659  0.086740  1
  Ru  Ru23  1  0.092421  0.634542  0.632630  1
