# generated using pymatgen
data_Tm20IrRu3Pt8
_symmetry_space_group_name_H-M   'P 1'
_cell_length_a   10.83448800
_cell_length_b   10.83448800
_cell_length_c   6.33989600
_cell_angle_alpha   90.00000000
_cell_angle_beta   90.00000000
_cell_angle_gamma   90.00000000
_symmetry_Int_Tables_number   1
_chemical_formula_structural   Tm20IrRu3Pt8
_chemical_formula_sum   'Tm20 Ir1 Ru3 Pt8'
_cell_volume   744.21585745
_cell_formula_units_Z   1
loop_
 _symmetry_equiv_pos_site_id
 _symmetry_equiv_pos_as_xyz
  1  'x, y, z'
loop_
 _atom_site_type_symbol
 _atom_site_label
 _atom_site_symmetry_multiplicity
 _atom_site_fract_x
 _atom_site_fract_y
 _atom_site_fract_z
 _atom_site_occupancy
  Tm  Tm0  1  0.296823  0.085791  0.372773  1
  Tm  Tm1  1  0.297044  0.914196  0.872616  1
  Tm  Tm2  1  0.702956  0.085804  0.872616  1
  Tm  Tm3  1  0.703177  0.914209  0.372773  1
  Tm  Tm4  1  0.585804  0.797044  0.872616  1
  Tm  Tm5  1  0.585791  0.203177  0.372773  1
  Tm  Tm6  1  0.414209  0.796823  0.372773  1
  Tm  Tm7  1  0.414196  0.202956  0.872616  1
  Tm  Tm8  1  0.204402  0.413268  0.628286  1
  Tm  Tm9  1  0.204193  0.586851  0.125912  1
  Tm  Tm10  1  0.795807  0.413149  0.125912  1
  Tm  Tm11  1  0.795598  0.586732  0.628286  1
  Tm  Tm12  1  0.913149  0.704193  0.125912  1
  Tm  Tm13  1  0.913268  0.295598  0.628286  1
  Tm  Tm14  1  0.086732  0.704402  0.628286  1
  Tm  Tm15  1  0.086851  0.295807  0.125912  1
  Tm  Tm16  1  0.000000  0.000000  0.499994  1
  Tm  Tm17  1  0.000000  0.000000  0.999833  1
  Tm  Tm18  1  0.500000  0.500000  0.999833  1
  Tm  Tm19  1  0.500000  0.500000  0.499994  1
  Ir  Ir20  1  0.000000  0.500000  0.377580  1
  Ru  Ru21  1  0.500000  0.000000  0.124760  1
  Ru  Ru22  1  0.500000  0.000000  0.624485  1
  Ru  Ru23  1  0.000000  0.500000  0.875871  1
  Pt  Pt24  1  0.846574  0.153600  0.249973  1
  Pt  Pt25  1  0.846714  0.846143  0.749853  1
  Pt  Pt26  1  0.153286  0.153857  0.749853  1
  Pt  Pt27  1  0.153426  0.846400  0.249973  1
  Pt  Pt28  1  0.653857  0.346714  0.749853  1
  Pt  Pt29  1  0.653600  0.653426  0.249973  1
  Pt  Pt30  1  0.346400  0.346574  0.249973  1
  Pt  Pt31  1  0.346143  0.653286  0.749853  1
