# generated using pymatgen
data_Tm2Lu3Co19(Si5P)2
_symmetry_space_group_name_H-M   'P 1'
_cell_length_a   12.05916600
_cell_length_b   12.08523138
_cell_length_c   3.68252000
_cell_angle_alpha   90.00000000
_cell_angle_beta   90.00000000
_cell_angle_gamma   119.92867937
_symmetry_Int_Tables_number   1
_chemical_formula_structural   Tm2Lu3Co19(Si5P)2
_chemical_formula_sum   'Tm2 Lu3 Co19 Si10 P2'
_cell_volume   465.11426206
_cell_formula_units_Z   1
loop_
 _symmetry_equiv_pos_site_id
 _symmetry_equiv_pos_as_xyz
  1  'x, y, z'
loop_
 _atom_site_type_symbol
 _atom_site_label
 _atom_site_symmetry_multiplicity
 _atom_site_fract_x
 _atom_site_fract_y
 _atom_site_fract_z
 _atom_site_occupancy
  Tm  Tm0  1  0.332802  0.666331  0.500000  1
  Tm  Tm1  1  0.666472  0.333669  0.500000  1
  Lu  Lu2  1  0.184658  0.000000  0.000000  1
  Lu  Lu3  1  0.000817  0.185282  0.000000  1
  Lu  Lu4  1  0.815534  0.814718  0.000000  1
  Co  Co5  1  0.196860  0.372540  0.500000  1
  Co  Co6  1  0.623964  0.820548  0.500000  1
  Co  Co7  1  0.175749  0.803561  0.500000  1
  Co  Co8  1  0.824320  0.627460  0.500000  1
  Co  Co9  1  0.803416  0.179452  0.500000  1
  Co  Co10  1  0.372189  0.196439  0.500000  1
  Co  Co11  1  0.557716  0.000000  0.500000  1
  Co  Co12  1  0.000668  0.557851  0.500000  1
  Co  Co13  1  0.442819  0.442149  0.500000  1
  Co  Co14  1  0.124175  0.478506  0.000000  1
  Co  Co15  1  0.521353  0.644324  0.000000  1
  Co  Co16  1  0.354083  0.876139  0.000000  1
  Co  Co17  1  0.645669  0.521494  0.000000  1
  Co  Co18  1  0.877028  0.355676  0.000000  1
  Co  Co19  1  0.477943  0.123861  0.000000  1
  Co  Co20  1  0.719367  0.000000  0.000000  1
  Co  Co21  1  0.999845  0.722882  0.000000  1
  Co  Co22  1  0.276963  0.277118  0.000000  1
  Co  Co23  1  0.004462  0.000000  0.500000  1
  Si  Si24  1  0.368843  0.000000  0.500000  1
  Si  Si25  1  0.000334  0.369078  0.500000  1
  Si  Si26  1  0.631255  0.630922  0.500000  1
  Si  Si27  1  0.319204  0.478501  0.000000  1
  Si  Si28  1  0.520956  0.839325  0.000000  1
  Si  Si29  1  0.159616  0.680992  0.000000  1
  Si  Si30  1  0.840702  0.521499  0.000000  1
  Si  Si31  1  0.681631  0.160675  0.000000  1
  Si  Si32  1  0.478623  0.319008  0.000000  1
  Si  Si33  1  0.819424  0.000000  0.500000  1
  P  P34  1  0.999733  0.818927  0.500000  1
  P  P35  1  0.180806  0.181073  0.500000  1
