# generated using pymatgen
data_Pr4Nd4Sc12Si15Hg
_symmetry_space_group_name_H-M   'P 1'
_cell_length_a   7.28482713
_cell_length_b   7.53718660
_cell_length_c   14.34478508
_cell_angle_alpha   89.96485006
_cell_angle_beta   89.65579926
_cell_angle_gamma   90.20730027
_symmetry_Int_Tables_number   1
_chemical_formula_structural   Pr4Nd4Sc12Si15Hg
_chemical_formula_sum   'Pr4 Nd4 Sc12 Si15 Hg1'
_cell_volume   787.61104322
_cell_formula_units_Z   1
loop_
 _symmetry_equiv_pos_site_id
 _symmetry_equiv_pos_as_xyz
  1  'x, y, z'
loop_
 _atom_site_type_symbol
 _atom_site_label
 _atom_site_symmetry_multiplicity
 _atom_site_fract_x
 _atom_site_fract_y
 _atom_site_fract_z
 _atom_site_occupancy
  Pr  Pr0  1  0.988135  0.834093  0.598253  1
  Pr  Pr1  1  0.987059  0.827972  0.903306  1
  Pr  Pr2  1  0.512106  0.327415  0.097304  1
  Pr  Pr3  1  0.012707  0.172616  0.098021  1
  Nd  Nd4  1  0.008304  0.169318  0.397617  1
  Nd  Nd5  1  0.512998  0.325745  0.397985  1
  Nd  Nd6  1  0.487550  0.673110  0.902697  1
  Nd  Nd7  1  0.495452  0.678779  0.601014  1
  Sc  Sc8  1  0.341273  0.168952  0.628979  1
  Sc  Sc9  1  0.665776  0.824286  0.373081  1
  Sc  Sc10  1  0.663063  0.001090  0.752100  1
  Sc  Sc11  1  0.168153  0.677933  0.371076  1
  Sc  Sc12  1  0.829382  0.323356  0.876396  1
  Sc  Sc13  1  0.822500  0.324398  0.626053  1
  Sc  Sc14  1  0.839042  0.502403  0.249884  1
  Sc  Sc15  1  0.339698  0.996638  0.248620  1
  Sc  Sc16  1  0.328433  0.174456  0.876074  1
  Sc  Sc17  1  0.169682  0.676167  0.124805  1
  Sc  Sc18  1  0.670839  0.823895  0.124237  1
  Sc  Sc19  1  0.161346  0.497934  0.754903  1
  Si  Si20  1  0.286891  0.881024  0.751507  1
  Si  Si21  1  0.464943  0.625141  0.248407  1
  Si  Si22  1  0.035524  0.128499  0.751326  1
  Si  Si23  1  0.534869  0.377364  0.751975  1
  Si  Si24  1  0.964090  0.875227  0.248601  1
  Si  Si25  1  0.710669  0.117665  0.248429  1
  Si  Si26  1  0.849087  0.536846  0.039619  1
  Si  Si27  1  0.349037  0.962106  0.039850  1
  Si  Si28  1  0.151200  0.463100  0.961235  1
  Si  Si29  1  0.651876  0.039711  0.537297  1
  Si  Si30  1  0.346234  0.960928  0.459831  1
  Si  Si31  1  0.837662  0.541619  0.457637  1
  Si  Si32  1  0.789793  0.617543  0.751948  1
  Si  Si33  1  0.211343  0.381831  0.249289  1
  Si  Si34  1  0.650089  0.036389  0.960208  1
  Hg  Hg35  1  0.163193  0.454451  0.540438  1
