# generated using pymatgen
data_Eu6Fe2N7
_symmetry_space_group_name_H-M   'P 1'
_cell_length_a   6.67075995
_cell_length_b   6.67076013
_cell_length_c   6.67076000
_cell_angle_alpha   66.96699868
_cell_angle_beta   66.96700732
_cell_angle_gamma   66.96701128
_symmetry_Int_Tables_number   1
_chemical_formula_structural   Eu6Fe2N7
_chemical_formula_sum   'Eu6 Fe2 N7'
_cell_volume   241.25396587
_cell_formula_units_Z   1
loop_
 _symmetry_equiv_pos_site_id
 _symmetry_equiv_pos_as_xyz
  1  'x, y, z'
loop_
 _atom_site_type_symbol
 _atom_site_label
 _atom_site_symmetry_multiplicity
 _atom_site_fract_x
 _atom_site_fract_y
 _atom_site_fract_z
 _atom_site_occupancy
  Eu  Eu0  1  0.348443  0.172072  0.734802  1
  Eu  Eu1  1  0.172072  0.734802  0.348443  1
  Eu  Eu2  1  0.734802  0.348443  0.172072  1
  Eu  Eu3  1  0.651557  0.827928  0.265198  1
  Eu  Eu4  1  0.827928  0.265198  0.651557  1
  Eu  Eu5  1  0.265198  0.651557  0.827928  1
  Fe  Fe6  1  0.250568  0.250568  0.250568  1
  Fe  Fe7  1  0.749432  0.749432  0.749432  1
  N  N8  1  0.241391  0.021983  0.495488  1
  N  N9  1  0.021983  0.495488  0.241391  1
  N  N10  1  0.495488  0.241391  0.021983  1
  N  N11  1  0.758609  0.978017  0.504512  1
  N  N12  1  0.978017  0.504512  0.758609  1
  N  N13  1  0.504512  0.758609  0.978017  1
  N  N14  1  0.500000  0.500000  0.500000  1
