# generated using pymatgen
data_Dy5Er2(TmSn2)3
_symmetry_space_group_name_H-M   'P 1'
_cell_length_a   8.92339800
_cell_length_b   8.91790396
_cell_length_c   6.48376200
_cell_angle_alpha   90.00134812
_cell_angle_beta   89.99874335
_cell_angle_gamma   120.01975522
_symmetry_Int_Tables_number   1
_chemical_formula_structural   Dy5Er2(TmSn2)3
_chemical_formula_sum   'Dy5 Er2 Tm3 Sn6'
_cell_volume   446.74969336
_cell_formula_units_Z   1
loop_
 _symmetry_equiv_pos_site_id
 _symmetry_equiv_pos_as_xyz
  1  'x, y, z'
loop_
 _atom_site_type_symbol
 _atom_site_label
 _atom_site_symmetry_multiplicity
 _atom_site_fract_x
 _atom_site_fract_y
 _atom_site_fract_z
 _atom_site_occupancy
  Dy  Dy0  1  0.000138  0.761265  0.749955  1
  Dy  Dy1  1  0.000040  0.238822  0.250056  1
  Dy  Dy2  1  0.761264  0.761111  0.250061  1
  Dy  Dy3  1  0.760771  0.000049  0.749936  1
  Dy  Dy4  1  0.238907  0.238660  0.749931  1
  Er  Er5  1  0.239100  0.000052  0.250052  1
  Er  Er6  1  0.333341  0.666753  0.000111  1
  Tm  Tm7  1  0.333316  0.666669  0.499934  1
  Tm  Tm8  1  0.666640  0.333311  0.000074  1
  Tm  Tm9  1  0.666634  0.333322  0.499921  1
  Sn  Sn10  1  0.396212  0.000220  0.749802  1
  Sn  Sn11  1  0.395777  0.394975  0.250197  1
  Sn  Sn12  1  0.000369  0.604801  0.250191  1
  Sn  Sn13  1  0.999816  0.395952  0.749778  1
  Sn  Sn14  1  0.604103  0.603821  0.749801  1
  Sn  Sn15  1  0.603574  0.000216  0.250201  1
