# generated using pymatgen
data_Y17Lu3(Al2In)4
_symmetry_space_group_name_H-M   'P 1'
_cell_length_a   7.87116400
_cell_length_b   7.87116400
_cell_length_c   14.63451500
_cell_angle_alpha   90.00000000
_cell_angle_beta   90.00000000
_cell_angle_gamma   90.00000000
_symmetry_Int_Tables_number   1
_chemical_formula_structural   Y17Lu3(Al2In)4
_chemical_formula_sum   'Y17 Lu3 Al8 In4'
_cell_volume   906.68463615
_cell_formula_units_Z   1
loop_
 _symmetry_equiv_pos_site_id
 _symmetry_equiv_pos_as_xyz
  1  'x, y, z'
loop_
 _atom_site_type_symbol
 _atom_site_label
 _atom_site_symmetry_multiplicity
 _atom_site_fract_x
 _atom_site_fract_y
 _atom_site_fract_z
 _atom_site_occupancy
  Y  Y0  1  0.500000  0.000000  0.741157  1
  Y  Y1  1  0.674949  0.661793  0.605552  1
  Y  Y2  1  0.673796  0.337010  0.105989  1
  Y  Y3  1  0.826205  0.837017  0.393909  1
  Y  Y4  1  0.173376  0.836379  0.894566  1
  Y  Y5  1  0.325051  0.338207  0.605552  1
  Y  Y6  1  0.326204  0.662990  0.105989  1
  Y  Y7  1  0.173795  0.162983  0.393909  1
  Y  Y8  1  0.826624  0.163621  0.894566  1
  Y  Y9  1  0.662983  0.326205  0.393909  1
  Y  Y10  1  0.336379  0.326624  0.894566  1
  Y  Y11  1  0.161793  0.825051  0.605552  1
  Y  Y12  1  0.837010  0.826204  0.105989  1
  Y  Y13  1  0.337017  0.673795  0.393909  1
  Y  Y14  1  0.663621  0.673376  0.894566  1
  Y  Y15  1  0.838207  0.174949  0.605552  1
  Y  Y16  1  0.162990  0.173796  0.105989  1
  Lu  Lu17  1  0.000000  0.500000  0.757908  1
  Lu  Lu18  1  0.000000  0.500000  0.257763  1
  Lu  Lu19  1  0.500000  0.000000  0.242247  1
  Al  Al20  1  0.878453  0.876067  0.750215  1
  Al  Al21  1  0.876727  0.123307  0.250016  1
  Al  Al22  1  0.623307  0.623273  0.250016  1
  Al  Al23  1  0.376067  0.621547  0.750215  1
  Al  Al24  1  0.121547  0.123933  0.750215  1
  Al  Al25  1  0.123273  0.876693  0.250016  1
  Al  Al26  1  0.376693  0.376727  0.250016  1
  Al  Al27  1  0.623933  0.378453  0.750215  1
  In  In28  1  0.000000  0.500000  0.495676  1
  In  In29  1  0.000000  0.500000  0.995818  1
  In  In30  1  0.500000  0.000000  0.503339  1
  In  In31  1  0.500000  0.000000  0.005101  1
