# generated using pymatgen
data_Sm5HoU4O20
_symmetry_space_group_name_H-M   'P 1'
_cell_length_a   6.70959408
_cell_length_b   7.61018397
_cell_length_c   8.52155271
_cell_angle_alpha   101.28349731
_cell_angle_beta   97.68523110
_cell_angle_gamma   107.20436378
_symmetry_Int_Tables_number   1
_chemical_formula_structural   Sm5HoU4O20
_chemical_formula_sum   'Sm5 Ho1 U4 O20'
_cell_volume   399.00072260
_cell_formula_units_Z   1
loop_
 _symmetry_equiv_pos_site_id
 _symmetry_equiv_pos_as_xyz
  1  'x, y, z'
loop_
 _atom_site_type_symbol
 _atom_site_label
 _atom_site_symmetry_multiplicity
 _atom_site_fract_x
 _atom_site_fract_y
 _atom_site_fract_z
 _atom_site_occupancy
  Sm  Sm0  1  0.613966  0.704016  0.699463  1
  Sm  Sm1  1  0.386034  0.295984  0.300537  1
  Sm  Sm2  1  0.198278  0.897195  0.892059  1
  Sm  Sm3  1  0.000000  0.500000  0.500000  1
  Sm  Sm4  1  0.801722  0.102805  0.107941  1
  Ho  Ho5  1  0.000000  0.000000  0.500000  1
  U  U6  1  0.402065  0.804525  0.302452  1
  U  U7  1  0.198559  0.399933  0.899429  1
  U  U8  1  0.801441  0.600067  0.100571  1
  U  U9  1  0.597935  0.195475  0.697548  1
  O  O10  1  0.439815  0.533415  0.135369  1
  O  O11  1  0.556310  0.990706  0.838834  1
  O  O12  1  0.269383  0.147480  0.742694  1
  O  O13  1  0.360326  0.597252  0.440252  1
  O  O14  1  0.054835  0.732442  0.330649  1
  O  O15  1  0.443690  0.009294  0.161166  1
  O  O16  1  0.149844  0.186821  0.030246  1
  O  O17  1  0.560185  0.466585  0.864631  1
  O  O18  1  0.854509  0.339549  0.949028  1
  O  O19  1  0.255748  0.603700  0.761346  1
  O  O20  1  0.954635  0.777308  0.648459  1
  O  O21  1  0.352607  0.059424  0.455354  1
  O  O22  1  0.647393  0.940576  0.544646  1
  O  O23  1  0.045365  0.222692  0.351541  1
  O  O24  1  0.744252  0.396300  0.238654  1
  O  O25  1  0.145491  0.660451  0.050972  1
  O  O26  1  0.850156  0.813179  0.969754  1
  O  O27  1  0.945165  0.267558  0.669351  1
  O  O28  1  0.639674  0.402748  0.559748  1
  O  O29  1  0.730617  0.852520  0.257306  1
