# generated using pymatgen
data_Ho7ErSc11Si16Tc
_symmetry_space_group_name_H-M   'P 1'
_cell_length_a   6.99946002
_cell_length_b   7.33512302
_cell_length_c   13.85110308
_cell_angle_alpha   89.98892067
_cell_angle_beta   90.00533697
_cell_angle_gamma   90.14381641
_symmetry_Int_Tables_number   1
_chemical_formula_structural   Ho7ErSc11Si16Tc
_chemical_formula_sum   'Ho7 Er1 Sc11 Si16 Tc1'
_cell_volume   711.13969753
_cell_formula_units_Z   1
loop_
 _symmetry_equiv_pos_site_id
 _symmetry_equiv_pos_as_xyz
  1  'x, y, z'
loop_
 _atom_site_type_symbol
 _atom_site_label
 _atom_site_symmetry_multiplicity
 _atom_site_fract_x
 _atom_site_fract_y
 _atom_site_fract_z
 _atom_site_occupancy
  Ho  Ho0  1  0.012952  0.178294  0.093171  1
  Ho  Ho1  1  0.992002  0.818082  0.900682  1
  Ho  Ho2  1  0.487194  0.672736  0.902622  1
  Ho  Ho3  1  0.992000  0.818055  0.599281  1
  Ho  Ho4  1  0.512513  0.322971  0.095316  1
  Ho  Ho5  1  0.012949  0.178280  0.406856  1
  Ho  Ho6  1  0.512499  0.322982  0.404725  1
  Er  Er7  1  0.487013  0.672917  0.597606  1
  Sc  Sc8  1  0.843261  0.496427  0.250003  1
  Sc  Sc9  1  0.343730  0.004163  0.249999  1
  Sc  Sc10  1  0.655153  0.994838  0.749956  1
  Sc  Sc11  1  0.324456  0.177893  0.627605  1
  Sc  Sc12  1  0.673412  0.824338  0.374378  1
  Sc  Sc13  1  0.173453  0.674103  0.376767  1
  Sc  Sc14  1  0.673437  0.824402  0.125660  1
  Sc  Sc15  1  0.826303  0.331228  0.628717  1
  Sc  Sc16  1  0.324410  0.177853  0.872358  1
  Sc  Sc17  1  0.826381  0.331160  0.871222  1
  Sc  Sc18  1  0.173420  0.674101  0.123261  1
  Si  Si19  1  0.027007  0.117567  0.749979  1
  Si  Si20  1  0.974599  0.887061  0.250002  1
  Si  Si21  1  0.470510  0.615076  0.250013  1
  Si  Si22  1  0.516515  0.395710  0.749900  1
  Si  Si23  1  0.284055  0.859911  0.749888  1
  Si  Si24  1  0.718747  0.130767  0.249999  1
  Si  Si25  1  0.216139  0.370256  0.249998  1
  Si  Si26  1  0.792406  0.630195  0.749913  1
  Si  Si27  1  0.155674  0.466630  0.548081  1
  Si  Si28  1  0.842684  0.535584  0.463301  1
  Si  Si29  1  0.346010  0.964987  0.462945  1
  Si  Si30  1  0.842752  0.535571  0.036726  1
  Si  Si31  1  0.657690  0.034203  0.540053  1
  Si  Si32  1  0.155371  0.466457  0.951958  1
  Si  Si33  1  0.657761  0.034416  0.959980  1
  Si  Si34  1  0.345944  0.965159  0.037112  1
  Tc  Tc35  1  0.149601  0.495629  0.749967  1
