# generated using pymatgen
data_Cs3Ca(USe3)2
_symmetry_space_group_name_H-M   'P 1'
_cell_length_a   7.51452494
_cell_length_b   7.51426043
_cell_length_c   8.72876385
_cell_angle_alpha   81.78285823
_cell_angle_beta   81.78109608
_cell_angle_gamma   120.00506117
_symmetry_Int_Tables_number   1
_chemical_formula_structural   Cs3Ca(USe3)2
_chemical_formula_sum   'Cs3 Ca1 U2 Se6'
_cell_volume   409.00798462
_cell_formula_units_Z   1
loop_
 _symmetry_equiv_pos_site_id
 _symmetry_equiv_pos_as_xyz
  1  'x, y, z'
loop_
 _atom_site_type_symbol
 _atom_site_label
 _atom_site_symmetry_multiplicity
 _atom_site_fract_x
 _atom_site_fract_y
 _atom_site_fract_z
 _atom_site_occupancy
  Cs  Cs0  1  0.661064  0.338935  0.499998  1
  Cs  Cs1  1  0.338936  0.661065  0.500002  1
  Cs  Cs2  1  0.000000  0.000000  0.500000  1
  Ca  Ca3  1  0.500000  0.500000  0.000000  1
  U  U4  1  0.832652  0.167306  0.999993  1
  U  U5  1  0.167348  0.832694  0.000007  1
  Se  Se6  1  0.783926  0.783924  0.184415  1
  Se  Se7  1  0.216074  0.216076  0.815585  1
  Se  Se8  1  0.437323  0.091312  0.187784  1
  Se  Se9  1  0.562677  0.908688  0.812216  1
  Se  Se10  1  0.908672  0.562672  0.812239  1
  Se  Se11  1  0.091328  0.437328  0.187761  1
