# generated using pymatgen
data_Sm6TmCoBr12
_symmetry_space_group_name_H-M   'P 1'
_cell_length_a   9.38041984
_cell_length_b   9.38042033
_cell_length_c   9.38042025
_cell_angle_alpha   106.94724486
_cell_angle_beta   106.94724699
_cell_angle_gamma   106.94725612
_symmetry_Int_Tables_number   1
_chemical_formula_structural   Sm6TmCoBr12
_chemical_formula_sum   'Sm6 Tm1 Co1 Br12'
_cell_volume   688.39159520
_cell_formula_units_Z   1
loop_
 _symmetry_equiv_pos_site_id
 _symmetry_equiv_pos_as_xyz
  1  'x, y, z'
loop_
 _atom_site_type_symbol
 _atom_site_label
 _atom_site_symmetry_multiplicity
 _atom_site_fract_x
 _atom_site_fract_y
 _atom_site_fract_z
 _atom_site_occupancy
  Sm  Sm0  1  0.305090  0.099109  0.022340  1
  Sm  Sm1  1  0.099109  0.022340  0.305090  1
  Sm  Sm2  1  0.022340  0.305090  0.099109  1
  Sm  Sm3  1  0.694910  0.900891  0.977660  1
  Sm  Sm4  1  0.900891  0.977660  0.694910  1
  Sm  Sm5  1  0.977660  0.694910  0.900891  1
  Tm  Tm6  1  0.500000  0.500000  0.500000  1
  Co  Co7  1  0.000000  0.000000  0.000000  1
  Br  Br8  1  0.222764  0.070910  0.679957  1
  Br  Br9  1  0.070910  0.679957  0.222764  1
  Br  Br10  1  0.679957  0.222764  0.070910  1
  Br  Br11  1  0.777236  0.929090  0.320043  1
  Br  Br12  1  0.929090  0.320043  0.777236  1
  Br  Br13  1  0.320043  0.777236  0.929090  1
  Br  Br14  1  0.390542  0.464510  0.177105  1
  Br  Br15  1  0.464510  0.177105  0.390542  1
  Br  Br16  1  0.177105  0.390542  0.464510  1
  Br  Br17  1  0.609458  0.535490  0.822895  1
  Br  Br18  1  0.535490  0.822895  0.609458  1
  Br  Br19  1  0.822895  0.609458  0.535490  1
