# generated using pymatgen
data_MgNbRuF12
_symmetry_space_group_name_H-M   'P 1'
_cell_length_a   5.53051986
_cell_length_b   11.20441015
_cell_length_c   5.54292629
_cell_angle_alpha   58.41546088
_cell_angle_beta   57.97487971
_cell_angle_gamma   58.40344747
_symmetry_Int_Tables_number   1
_chemical_formula_structural   MgNbRuF12
_chemical_formula_sum   'Mg1 Nb1 Ru1 F12'
_cell_volume   233.20908546
_cell_formula_units_Z   1
loop_
 _symmetry_equiv_pos_site_id
 _symmetry_equiv_pos_as_xyz
  1  'x, y, z'
loop_
 _atom_site_type_symbol
 _atom_site_label
 _atom_site_symmetry_multiplicity
 _atom_site_fract_x
 _atom_site_fract_y
 _atom_site_fract_z
 _atom_site_occupancy
  Mg  Mg0  1  0.497167  0.747819  0.505709  1
  Nb  Nb1  1  0.000361  0.007738  0.989518  1
  Ru  Ru2  1  0.992866  0.500512  0.006090  1
  F  F3  1  0.350263  0.060799  0.768639  1
  F  F4  1  0.325624  0.580774  0.757434  1
  F  F5  1  0.134900  0.390520  0.324575  1
  F  F6  1  0.167390  0.871267  0.328967  1
  F  F7  1  0.225235  0.345923  0.852666  1
  F  F8  1  0.244051  0.831803  0.840449  1
  F  F9  1  0.862784  0.111509  0.664101  1
  F  F10  1  0.840079  0.624999  0.670133  1
  F  F11  1  0.662026  0.436810  0.232001  1
  F  F12  1  0.682754  0.909944  0.251073  1
  F  F13  1  0.759589  0.161259  0.152550  1
  F  F14  1  0.754910  0.668323  0.156095  1
