# generated using pymatgen
data_Ho7Er3Si16Pd
_symmetry_space_group_name_H-M   'P 1'
_cell_length_a   11.05322265
_cell_length_b   11.06320125
_cell_length_c   11.05258648
_cell_angle_alpha   144.77330526
_cell_angle_beta   136.44453084
_cell_angle_gamma   57.17595922
_symmetry_Int_Tables_number   1
_chemical_formula_structural   Ho7Er3Si16Pd
_chemical_formula_sum   'Ho7 Er3 Si16 Pd1'
_cell_volume   532.92798627
_cell_formula_units_Z   1
loop_
 _symmetry_equiv_pos_site_id
 _symmetry_equiv_pos_as_xyz
  1  'x, y, z'
loop_
 _atom_site_type_symbol
 _atom_site_label
 _atom_site_symmetry_multiplicity
 _atom_site_fract_x
 _atom_site_fract_y
 _atom_site_fract_z
 _atom_site_occupancy
  Ho  Ho0  1  0.451478  0.962989  0.014717  1
  Ho  Ho1  1  0.645874  0.166330  0.014460  1
  Ho  Ho2  1  0.948352  0.963071  0.511530  1
  Ho  Ho3  1  0.849661  0.371249  0.019179  1
  Ho  Ho4  1  0.547560  0.563632  0.511851  1
  Ho  Ho5  1  0.249176  0.763339  0.010983  1
  Ho  Ho6  1  0.752343  0.763381  0.514166  1
  Er  Er7  1  0.051831  0.563562  0.016198  1
  Er  Er8  1  0.351986  0.371392  0.521722  1
  Er  Er9  1  0.151687  0.166283  0.520263  1
  Si  Si10  1  0.118387  0.079006  0.961055  1
  Si  Si11  1  0.798484  0.182698  0.384705  1
  Si  Si12  1  0.300214  0.899130  0.598349  1
  Si  Si13  1  0.399505  0.500996  0.100790  1
  Si  Si14  1  0.884889  0.847882  0.963888  1
  Si  Si15  1  0.104368  0.708813  0.604751  1
  Si  Si16  1  0.200486  0.584648  0.384165  1
  Si  Si17  1  0.697998  0.293651  0.595619  1
  Si  Si18  1  0.000146  0.433125  0.433560  1
  Si  Si19  1  0.714361  0.667666  0.953581  1
  Si  Si20  1  0.600428  0.701938  0.101126  1
  Si  Si21  1  0.000598  0.085379  0.085183  1
  Si  Si22  1  0.500609  0.391815  0.890343  1
  Si  Si23  1  0.285290  0.241172  0.955233  1
  Si  Si24  1  0.582827  0.040930  0.457661  1
  Si  Si25  1  0.414926  0.872111  0.456594  1
  Pd  Pd26  1  0.896534  0.502730  0.607244  1
