# generated using pymatgen
data_Sm5V3(P3Ir4)4
_symmetry_space_group_name_H-M   'P 1'
_cell_length_a   12.72363700
_cell_length_b   12.72363686
_cell_length_c   3.94165000
_cell_angle_alpha   90.00000000
_cell_angle_beta   90.00000000
_cell_angle_gamma   119.99999776
_symmetry_Int_Tables_number   1
_chemical_formula_structural   Sm5V3(P3Ir4)4
_chemical_formula_sum   'Sm5 V3 P12 Ir16'
_cell_volume   552.62590088
_cell_formula_units_Z   1
loop_
 _symmetry_equiv_pos_site_id
 _symmetry_equiv_pos_as_xyz
  1  'x, y, z'
loop_
 _atom_site_type_symbol
 _atom_site_label
 _atom_site_symmetry_multiplicity
 _atom_site_fract_x
 _atom_site_fract_y
 _atom_site_fract_z
 _atom_site_occupancy
  Sm  Sm0  1  0.333333  0.666667  0.500000  1
  Sm  Sm1  1  0.666667  0.333333  0.500000  1
  Sm  Sm2  1  0.000000  0.810254  0.000000  1
  Sm  Sm3  1  0.189746  0.189746  0.000000  1
  Sm  Sm4  1  0.810254  0.000000  0.000000  1
  V  V5  1  0.000000  0.449190  0.500000  1
  V  V6  1  0.550810  0.550810  0.500000  1
  V  V7  1  0.449190  0.000000  0.500000  1
  P  P8  1  0.000000  0.633053  0.500000  1
  P  P9  1  0.366947  0.366947  0.500000  1
  P  P10  1  0.633053  0.000000  0.500000  1
  P  P11  1  0.517623  0.683954  0.000000  1
  P  P12  1  0.316046  0.833667  0.000000  1
  P  P13  1  0.166333  0.482377  0.000000  1
  P  P14  1  0.482377  0.166333  0.000000  1
  P  P15  1  0.683954  0.517623  0.000000  1
  P  P16  1  0.833667  0.316046  0.000000  1
  P  P17  1  0.000000  0.177723  0.500000  1
  P  P18  1  0.822277  0.822277  0.500000  1
  P  P19  1  0.177723  0.000000  0.500000  1
  Ir  Ir20  1  0.509953  0.869163  0.000000  1
  Ir  Ir21  1  0.130837  0.640792  0.000000  1
  Ir  Ir22  1  0.359208  0.490047  0.000000  1
  Ir  Ir23  1  0.490047  0.359208  0.000000  1
  Ir  Ir24  1  0.869163  0.509953  0.000000  1
  Ir  Ir25  1  0.640792  0.130837  0.000000  1
  Ir  Ir26  1  0.000000  0.285016  0.000000  1
  Ir  Ir27  1  0.714984  0.714984  0.000000  1
  Ir  Ir28  1  0.285016  0.000000  0.000000  1
  Ir  Ir29  1  0.623269  0.801967  0.500000  1
  Ir  Ir30  1  0.198033  0.821302  0.500000  1
  Ir  Ir31  1  0.178698  0.376731  0.500000  1
  Ir  Ir32  1  0.376731  0.178698  0.500000  1
  Ir  Ir33  1  0.801967  0.623269  0.500000  1
  Ir  Ir34  1  0.821302  0.198033  0.500000  1
  Ir  Ir35  1  0.000000  0.000000  0.500000  1
