# generated using pymatgen
data_DyHo(TmS2)2
_symmetry_space_group_name_H-M   'P 1'
_cell_length_a   12.71312459
_cell_length_b   12.71312423
_cell_length_c   12.71312500
_cell_angle_alpha   17.46555710
_cell_angle_beta   17.46556219
_cell_angle_gamma   17.46555681
_symmetry_Int_Tables_number   1
_chemical_formula_structural   DyHo(TmS2)2
_chemical_formula_sum   'Dy1 Ho1 Tm2 S4'
_cell_volume   161.53362460
_cell_formula_units_Z   1
loop_
 _symmetry_equiv_pos_site_id
 _symmetry_equiv_pos_as_xyz
  1  'x, y, z'
loop_
 _atom_site_type_symbol
 _atom_site_label
 _atom_site_symmetry_multiplicity
 _atom_site_fract_x
 _atom_site_fract_y
 _atom_site_fract_z
 _atom_site_occupancy
  Dy  Dy0  1  0.000000  0.000000  0.000000  1
  Ho  Ho1  1  0.500000  0.500000  0.500000  1
  Tm  Tm2  1  0.249222  0.249222  0.249222  1
  Tm  Tm3  1  0.750778  0.750778  0.750778  1
  S  S4  1  0.376485  0.376485  0.376485  1
  S  S5  1  0.124854  0.124854  0.124854  1
  S  S6  1  0.623515  0.623515  0.623515  1
  S  S7  1  0.875146  0.875146  0.875146  1
