# generated using pymatgen
data_PrB(Rh2Pb)3
_symmetry_space_group_name_H-M   'P 1'
_cell_length_a   5.87159900
_cell_length_b   5.87159884
_cell_length_c   14.01973900
_cell_angle_alpha   90.00000000
_cell_angle_beta   90.00000000
_cell_angle_gamma   119.99999526
_symmetry_Int_Tables_number   1
_chemical_formula_structural   PrB(Rh2Pb)3
_chemical_formula_sum   'Pr2 B2 Rh12 Pb6'
_cell_volume   418.58469509
_cell_formula_units_Z   2
loop_
 _symmetry_equiv_pos_site_id
 _symmetry_equiv_pos_as_xyz
  1  'x, y, z'
loop_
 _atom_site_type_symbol
 _atom_site_label
 _atom_site_symmetry_multiplicity
 _atom_site_fract_x
 _atom_site_fract_y
 _atom_site_fract_z
 _atom_site_occupancy
  Pr  Pr0  1  0.333333  0.666667  0.402204  1
  Pr  Pr1  1  0.666667  0.333333  0.902204  1
  B  B2  1  0.000000  0.000000  0.502212  1
  B  B3  1  0.000000  0.000000  0.002212  1
  Rh  Rh4  1  0.334723  0.167362  0.412907  1
  Rh  Rh5  1  0.832638  0.167362  0.412907  1
  Rh  Rh6  1  0.832638  0.665277  0.412907  1
  Rh  Rh7  1  0.167362  0.334723  0.912907  1
  Rh  Rh8  1  0.662125  0.831062  0.590494  1
  Rh  Rh9  1  0.665277  0.832638  0.912907  1
  Rh  Rh10  1  0.337875  0.168938  0.090494  1
  Rh  Rh11  1  0.168938  0.337875  0.590494  1
  Rh  Rh12  1  0.168938  0.831062  0.590494  1
  Rh  Rh13  1  0.831062  0.168938  0.090494  1
  Rh  Rh14  1  0.831062  0.662125  0.090494  1
  Rh  Rh15  1  0.167362  0.832638  0.912907  1
  Pb  Pb16  1  0.000000  0.000000  0.752345  1
  Pb  Pb17  1  0.000000  0.000000  0.252345  1
  Pb  Pb18  1  0.333333  0.666667  0.753198  1
  Pb  Pb19  1  0.666667  0.333333  0.253198  1
  Pb  Pb20  1  0.666667  0.333333  0.579837  1
  Pb  Pb21  1  0.333333  0.666667  0.079837  1
