# generated using pymatgen
data_Tb3Dy17(IrPt5)2
_symmetry_space_group_name_H-M   'P 1'
_cell_length_a   11.05372802
_cell_length_b   11.05263706
_cell_length_c   6.42367603
_cell_angle_alpha   89.98970579
_cell_angle_beta   89.99761236
_cell_angle_gamma   89.99434972
_symmetry_Int_Tables_number   1
_chemical_formula_structural   Tb3Dy17(IrPt5)2
_chemical_formula_sum   'Tb3 Dy17 Ir2 Pt10'
_cell_volume   784.79875137
_cell_formula_units_Z   1
loop_
 _symmetry_equiv_pos_site_id
 _symmetry_equiv_pos_as_xyz
  1  'x, y, z'
loop_
 _atom_site_type_symbol
 _atom_site_label
 _atom_site_symmetry_multiplicity
 _atom_site_fract_x
 _atom_site_fract_y
 _atom_site_fract_z
 _atom_site_occupancy
  Tb  Tb0  1  0.292504  0.088774  0.376980  1
  Tb  Tb1  1  0.292500  0.911232  0.876938  1
  Tb  Tb2  1  0.707477  0.088678  0.877052  1
  Dy  Dy3  1  0.707267  0.911240  0.377228  1
  Dy  Dy4  1  0.588692  0.792533  0.877218  1
  Dy  Dy5  1  0.588639  0.207425  0.377208  1
  Dy  Dy6  1  0.411541  0.792475  0.377184  1
  Dy  Dy7  1  0.411390  0.207541  0.877211  1
  Dy  Dy8  1  0.204851  0.412104  0.623386  1
  Dy  Dy9  1  0.204873  0.587938  0.123403  1
  Dy  Dy10  1  0.795152  0.412067  0.123372  1
  Dy  Dy11  1  0.795137  0.587950  0.623351  1
  Dy  Dy12  1  0.912053  0.704835  0.123372  1
  Dy  Dy13  1  0.912114  0.295196  0.623251  1
  Dy  Dy14  1  0.087867  0.704808  0.623307  1
  Dy  Dy15  1  0.087871  0.295208  0.123291  1
  Dy  Dy16  1  0.999875  0.999955  0.500553  1
  Dy  Dy17  1  0.999957  0.999984  0.000653  1
  Dy  Dy18  1  0.500005  0.500018  0.000638  1
  Dy  Dy19  1  0.500008  0.499994  0.500617  1
  Ir  Ir20  1  0.999993  0.500004  0.878028  1
  Ir  Ir21  1  0.999988  0.500022  0.378077  1
  Pt  Pt22  1  0.846076  0.153022  0.250335  1
  Pt  Pt23  1  0.845985  0.846909  0.749785  1
  Pt  Pt24  1  0.153849  0.153192  0.750253  1
  Pt  Pt25  1  0.153873  0.846818  0.250243  1
  Pt  Pt26  1  0.652833  0.346143  0.749786  1
  Pt  Pt27  1  0.652915  0.654087  0.249896  1
  Pt  Pt28  1  0.347146  0.346147  0.249772  1
  Pt  Pt29  1  0.347165  0.653860  0.749778  1
  Pt  Pt30  1  0.500176  0.999934  0.119112  1
  Pt  Pt31  1  0.500229  0.999905  0.618726  1
