# generated using pymatgen
data_Zr8ScRe4Ni
_symmetry_space_group_name_H-M   'P 1'
_cell_length_a   8.71711069
_cell_length_b   8.68188292
_cell_length_c   8.52783600
_cell_angle_alpha   90.00000000
_cell_angle_beta   90.00000000
_cell_angle_gamma   119.86640329
_symmetry_Int_Tables_number   1
_chemical_formula_structural   Zr8ScRe4Ni
_chemical_formula_sum   'Zr16 Sc2 Re8 Ni2'
_cell_volume   559.67903041
_cell_formula_units_Z   2
loop_
 _symmetry_equiv_pos_site_id
 _symmetry_equiv_pos_as_xyz
  1  'x, y, z'
loop_
 _atom_site_type_symbol
 _atom_site_label
 _atom_site_symmetry_multiplicity
 _atom_site_fract_x
 _atom_site_fract_y
 _atom_site_fract_z
 _atom_site_occupancy
  Zr  Zr0  1  0.198642  0.803088  0.443192  1
  Zr  Zr1  1  0.198642  0.395553  0.443192  1
  Zr  Zr2  1  0.604233  0.802116  0.442516  1
  Zr  Zr3  1  0.802414  0.197420  0.556601  1
  Zr  Zr4  1  0.802414  0.604994  0.556601  1
  Zr  Zr5  1  0.395097  0.197549  0.556021  1
  Zr  Zr6  1  0.802414  0.197420  0.943399  1
  Zr  Zr7  1  0.802414  0.604994  0.943399  1
  Zr  Zr8  1  0.395097  0.197549  0.943979  1
  Zr  Zr9  1  0.198642  0.803088  0.056808  1
  Zr  Zr10  1  0.198642  0.395553  0.056808  1
  Zr  Zr11  1  0.604233  0.802116  0.057484  1
  Zr  Zr12  1  0.916213  0.458107  0.250000  1
  Zr  Zr13  1  0.458021  0.542913  0.750000  1
  Zr  Zr14  1  0.458021  0.915107  0.750000  1
  Zr  Zr15  1  0.083404  0.541702  0.750000  1
  Sc  Sc16  1  0.542374  0.458073  0.250000  1
  Sc  Sc17  1  0.542374  0.084302  0.250000  1
  Re  Re18  1  0.891237  0.108294  0.250000  1
  Re  Re19  1  0.891237  0.782942  0.250000  1
  Re  Re20  1  0.216030  0.108014  0.250000  1
  Re  Re21  1  0.107537  0.891805  0.750000  1
  Re  Re22  1  0.107537  0.215732  0.750000  1
  Re  Re23  1  0.784083  0.892042  0.750000  1
  Re  Re24  1  0.000299  0.000149  0.498794  1
  Re  Re25  1  0.000299  0.000149  0.001206  1
  Ni  Ni26  1  0.332451  0.666226  0.250000  1
  Ni  Ni27  1  0.666000  0.332999  0.750000  1
