# generated using pymatgen
data_La13Pr3Co2(TcHg2)2
_symmetry_space_group_name_H-M   'P 1'
_cell_length_a   10.00587574
_cell_length_b   9.93538607
_cell_length_c   10.00587513
_cell_angle_alpha   59.94825086
_cell_angle_beta   60.90535214
_cell_angle_gamma   59.94825297
_symmetry_Int_Tables_number   1
_chemical_formula_structural   La13Pr3Co2(TcHg2)2
_chemical_formula_sum   'La13 Pr3 Co2 Tc2 Hg4'
_cell_volume   707.48740936
_cell_formula_units_Z   1
loop_
 _symmetry_equiv_pos_site_id
 _symmetry_equiv_pos_as_xyz
  1  'x, y, z'
loop_
 _atom_site_type_symbol
 _atom_site_label
 _atom_site_symmetry_multiplicity
 _atom_site_fract_x
 _atom_site_fract_y
 _atom_site_fract_z
 _atom_site_occupancy
  La  La0  1  0.685473  0.691659  0.308958  1
  La  La1  1  0.157658  0.151433  0.541507  1
  La  La2  1  0.308958  0.691659  0.685473  1
  La  La3  1  0.158741  0.149798  0.158741  1
  La  La4  1  0.541507  0.151433  0.157658  1
  La  La5  1  0.307700  0.691644  0.307700  1
  La  La6  1  0.310194  0.311136  0.686386  1
  La  La7  1  0.687857  0.310517  0.687857  1
  La  La8  1  0.936263  0.558246  0.556694  1
  La  La9  1  0.556694  0.558246  0.936263  1
  La  La10  1  0.156880  0.540218  0.156880  1
  La  La11  1  0.686386  0.311136  0.310194  1
  La  La12  1  0.942625  0.556871  0.942625  1
  Pr  Pr13  1  0.933709  0.939755  0.562485  1
  Pr  Pr14  1  0.560059  0.939629  0.560059  1
  Pr  Pr15  1  0.562485  0.939755  0.933709  1
  Co  Co16  1  0.366272  0.914832  0.366272  1
  Co  Co17  1  0.366011  0.356364  0.366011  1
  Tc  Tc18  1  0.904647  0.367148  0.368774  1
  Tc  Tc19  1  0.368774  0.367148  0.904647  1
  Hg  Hg20  1  0.248258  0.918653  0.916381  1
  Hg  Hg21  1  0.917035  0.919219  0.917035  1
  Hg  Hg22  1  0.916381  0.918653  0.248258  1
  Hg  Hg23  1  0.919428  0.244849  0.919428  1
