# generated using pymatgen
data_ErSc2Bi3(SbO7)2
_symmetry_space_group_name_H-M   'P 1'
_cell_length_a   6.37845535
_cell_length_b   6.54886509
_cell_length_c   7.52169031
_cell_angle_alpha   106.76465537
_cell_angle_beta   89.59514235
_cell_angle_gamma   99.04284189
_symmetry_Int_Tables_number   1
_chemical_formula_structural   ErSc2Bi3(SbO7)2
_chemical_formula_sum   'Er1 Sc2 Bi3 Sb2 O14'
_cell_volume   296.85688554
_cell_formula_units_Z   1
loop_
 _symmetry_equiv_pos_site_id
 _symmetry_equiv_pos_as_xyz
  1  'x, y, z'
loop_
 _atom_site_type_symbol
 _atom_site_label
 _atom_site_symmetry_multiplicity
 _atom_site_fract_x
 _atom_site_fract_y
 _atom_site_fract_z
 _atom_site_occupancy
  Er  Er0  1  0.261794  0.541422  0.884353  1
  Sc  Sc1  1  0.533566  0.992839  0.750109  1
  Sc  Sc2  1  0.466379  0.004729  0.251277  1
  Bi  Bi3  1  0.739628  0.466937  0.112447  1
  Bi  Bi4  1  0.731004  0.459893  0.612947  1
  Bi  Bi5  1  0.260155  0.536073  0.387031  1
  Sb  Sb6  1  0.002431  0.005320  0.502610  1
  Sb  Sb7  1  0.004069  0.001914  0.999845  1
  O  O8  1  0.443573  0.669149  0.166404  1
  O  O9  1  0.535239  0.326547  0.822361  1
  O  O10  1  0.300164  0.940239  0.946950  1
  O  O11  1  0.704063  0.044586  0.054379  1
  O  O12  1  0.296559  0.936332  0.522937  1
  O  O13  1  0.705526  0.064306  0.476894  1
  O  O14  1  0.525254  0.339792  0.341385  1
  O  O15  1  0.464064  0.657070  0.667039  1
  O  O16  1  0.939708  0.676346  0.946174  1
  O  O17  1  0.083739  0.321592  0.043818  1
  O  O18  1  0.092265  0.321928  0.621735  1
  O  O19  1  0.909846  0.686875  0.386920  1
  O  O20  1  0.884709  0.957080  0.740017  1
  O  O21  1  0.116267  0.049032  0.262367  1
