# generated using pymatgen
data_Ti9Nb(SiSn3)2
_symmetry_space_group_name_H-M   'P 1'
_cell_length_a   8.25091200
_cell_length_b   8.25091079
_cell_length_c   5.54503400
_cell_angle_alpha   90.00000000
_cell_angle_beta   90.00000000
_cell_angle_gamma   120.00000485
_symmetry_Int_Tables_number   1
_chemical_formula_structural   Ti9Nb(SiSn3)2
_chemical_formula_sum   'Ti9 Nb1 Si2 Sn6'
_cell_volume   326.91787749
_cell_formula_units_Z   1
loop_
 _symmetry_equiv_pos_site_id
 _symmetry_equiv_pos_as_xyz
  1  'x, y, z'
loop_
 _atom_site_type_symbol
 _atom_site_label
 _atom_site_symmetry_multiplicity
 _atom_site_fract_x
 _atom_site_fract_y
 _atom_site_fract_z
 _atom_site_occupancy
  Ti  Ti0  1  0.333333  0.666667  0.000000  1
  Ti  Ti1  1  0.333333  0.666667  0.500000  1
  Ti  Ti2  1  0.666667  0.333333  0.500000  1
  Ti  Ti3  1  0.742398  0.741868  0.750347  1
  Ti  Ti4  1  0.258132  0.000530  0.750347  1
  Ti  Ti5  1  0.999470  0.257602  0.750347  1
  Ti  Ti6  1  0.258132  0.257602  0.249653  1
  Ti  Ti7  1  0.742398  0.000530  0.249653  1
  Ti  Ti8  1  0.999470  0.741868  0.249653  1
  Nb  Nb9  1  0.666667  0.333333  0.000000  1
  Si  Si10  1  0.000000  0.000000  0.000000  1
  Si  Si11  1  0.000000  0.000000  0.500000  1
  Sn  Sn12  1  0.392674  0.394539  0.748626  1
  Sn  Sn13  1  0.605461  0.998134  0.748626  1
  Sn  Sn14  1  0.001866  0.607326  0.748626  1
  Sn  Sn15  1  0.605461  0.607326  0.251374  1
  Sn  Sn16  1  0.392674  0.998134  0.251374  1
  Sn  Sn17  1  0.001866  0.394539  0.251374  1
