# generated using pymatgen
data_Tb5Dy(Ho2Sn3)2
_symmetry_space_group_name_H-M   'P 1'
_cell_length_a   8.98476300
_cell_length_b   8.98051040
_cell_length_c   6.54629500
_cell_angle_alpha   90.00026971
_cell_angle_beta   89.99945446
_cell_angle_gamma   120.01565466
_symmetry_Int_Tables_number   1
_chemical_formula_structural   Tb5Dy(Ho2Sn3)2
_chemical_formula_sum   'Tb5 Dy1 Ho4 Sn6'
_cell_volume   457.36751966
_cell_formula_units_Z   1
loop_
 _symmetry_equiv_pos_site_id
 _symmetry_equiv_pos_as_xyz
  1  'x, y, z'
loop_
 _atom_site_type_symbol
 _atom_site_label
 _atom_site_symmetry_multiplicity
 _atom_site_fract_x
 _atom_site_fract_y
 _atom_site_fract_z
 _atom_site_occupancy
  Tb  Tb0  1  0.000077  0.761109  0.749997  1
  Tb  Tb1  1  0.000073  0.238948  0.249999  1
  Tb  Tb2  1  0.761125  0.761052  0.249999  1
  Tb  Tb3  1  0.760897  0.000000  0.750005  1
  Tb  Tb4  1  0.238967  0.238891  0.749997  1
  Dy  Dy5  1  0.239048  0.000000  0.250000  1
  Ho  Ho6  1  0.333317  0.666700  0.499972  1
  Ho  Ho7  1  0.666624  0.333299  0.000031  1
  Ho  Ho8  1  0.666619  0.333300  0.499972  1
  Ho  Ho9  1  0.333324  0.666701  0.000031  1
  Sn  Sn10  1  0.395689  0.000000  0.750000  1
  Sn  Sn11  1  0.395603  0.395492  0.250000  1
  Sn  Sn12  1  0.000111  0.604508  0.250000  1
  Sn  Sn13  1  0.000003  0.395670  0.750000  1
  Sn  Sn14  1  0.604332  0.604330  0.750000  1
  Sn  Sn15  1  0.604191  0.000000  0.249999  1
