# generated using pymatgen
data_Dy6Si4IrRh5
_symmetry_space_group_name_H-M   'P 1'
_cell_length_a   5.53873292
_cell_length_b   7.54500961
_cell_length_c   14.85673700
_cell_angle_alpha   90.00000000
_cell_angle_beta   90.00000000
_cell_angle_gamma   90.09542964
_symmetry_Int_Tables_number   1
_chemical_formula_structural   Dy6Si4IrRh5
_chemical_formula_sum   'Dy12 Si8 Ir2 Rh10'
_cell_volume   620.85910493
_cell_formula_units_Z   2
loop_
 _symmetry_equiv_pos_site_id
 _symmetry_equiv_pos_as_xyz
  1  'x, y, z'
loop_
 _atom_site_type_symbol
 _atom_site_label
 _atom_site_symmetry_multiplicity
 _atom_site_fract_x
 _atom_site_fract_y
 _atom_site_fract_z
 _atom_site_occupancy
  Dy  Dy0  1  0.895550  0.831260  0.750000  1
  Dy  Dy1  1  0.867016  0.524150  0.391390  1
  Dy  Dy2  1  0.366587  0.972627  0.608422  1
  Dy  Dy3  1  0.132984  0.475850  0.891390  1
  Dy  Dy4  1  0.633413  0.027374  0.108422  1
  Dy  Dy5  1  0.104450  0.168740  0.250000  1
  Dy  Dy6  1  0.132984  0.475850  0.608610  1
  Dy  Dy7  1  0.633413  0.027374  0.391578  1
  Dy  Dy8  1  0.391279  0.669426  0.250000  1
  Dy  Dy9  1  0.366587  0.972627  0.891578  1
  Dy  Dy10  1  0.608721  0.330574  0.750000  1
  Dy  Dy11  1  0.867016  0.524150  0.108610  1
  Si  Si12  1  0.624803  0.624557  0.896279  1
  Si  Si13  1  0.875043  0.124424  0.603170  1
  Si  Si14  1  0.124957  0.875576  0.103170  1
  Si  Si15  1  0.124957  0.875576  0.396830  1
  Si  Si16  1  0.624803  0.624557  0.603721  1
  Si  Si17  1  0.875043  0.124424  0.896830  1
  Si  Si18  1  0.375197  0.375443  0.103721  1
  Si  Si19  1  0.375197  0.375443  0.396279  1
  Ir  Ir20  1  0.407876  0.679741  0.750000  1
  Ir  Ir21  1  0.592124  0.320259  0.250000  1
  Rh  Rh22  1  0.597879  0.331902  0.961773  1
  Rh  Rh23  1  0.100193  0.167592  0.462354  1
  Rh  Rh24  1  0.100193  0.167592  0.037646  1
  Rh  Rh25  1  0.899807  0.832408  0.962354  1
  Rh  Rh26  1  0.899807  0.832408  0.537646  1
  Rh  Rh27  1  0.907152  0.818871  0.250000  1
  Rh  Rh28  1  0.597879  0.331902  0.538227  1
  Rh  Rh29  1  0.402121  0.668098  0.461773  1
  Rh  Rh30  1  0.092848  0.181129  0.750000  1
  Rh  Rh31  1  0.402121  0.668098  0.038227  1
