# generated using pymatgen
data_CsK11(SiS3)4
_symmetry_space_group_name_H-M   'P 1'
_cell_length_a   9.63890781
_cell_length_b   9.59814042
_cell_length_c   8.72829900
_cell_angle_alpha   86.24317072
_cell_angle_beta   84.65357502
_cell_angle_gamma   81.97782462
_symmetry_Int_Tables_number   1
_chemical_formula_structural   CsK11(SiS3)4
_chemical_formula_sum   'Cs1 K11 Si4 S12'
_cell_volume   794.99261479
_cell_formula_units_Z   1
loop_
 _symmetry_equiv_pos_site_id
 _symmetry_equiv_pos_as_xyz
  1  'x, y, z'
loop_
 _atom_site_type_symbol
 _atom_site_label
 _atom_site_symmetry_multiplicity
 _atom_site_fract_x
 _atom_site_fract_y
 _atom_site_fract_z
 _atom_site_occupancy
  Cs  Cs0  1  0.231907  0.250072  0.274635  1
  K  K1  1  0.749053  0.757942  0.239017  1
  K  K2  1  0.758334  0.749298  0.739456  1
  K  K3  1  0.251677  0.241529  0.764896  1
  K  K4  1  0.165419  0.651770  0.623878  1
  K  K5  1  0.349399  0.835947  0.878222  1
  K  K6  1  0.828147  0.356744  0.372855  1
  K  K7  1  0.654739  0.158399  0.122766  1
  K  K8  1  0.581291  0.418349  0.752499  1
  K  K9  1  0.419581  0.579371  0.248347  1
  K  K10  1  0.081829  0.916603  0.251078  1
  K  K11  1  0.919110  0.082439  0.744895  1
  Si  Si12  1  0.579402  0.075345  0.540595  1
  Si  Si13  1  0.921404  0.425910  0.956074  1
  Si  Si14  1  0.428819  0.917421  0.463601  1
  Si  Si15  1  0.073178  0.581222  0.036182  1
  S  S16  1  0.572184  0.066126  0.789049  1
  S  S17  1  0.936532  0.429246  0.707242  1
  S  S18  1  0.433302  0.923064  0.215159  1
  S  S19  1  0.058064  0.584685  0.284775  1
  S  S20  1  0.511275  0.288369  0.458521  1
  S  S21  1  0.709243  0.499478  0.044852  1
  S  S22  1  0.503373  0.706638  0.547462  1
  S  S23  1  0.286092  0.508989  0.948222  1
  S  S24  1  0.790367  0.011376  0.443101  1
  S  S25  1  0.980185  0.213631  0.044946  1
  S  S26  1  0.218093  0.979146  0.564273  1
  S  S27  1  0.008000  0.790889  0.943401  1
