# generated using pymatgen
data_TbHoZr2(Al8Pt3)3
_symmetry_space_group_name_H-M   'P 1'
_cell_length_a   7.49936386
_cell_length_b   7.50833216
_cell_length_c   13.06003853
_cell_angle_alpha   84.53633072
_cell_angle_beta   78.99964724
_cell_angle_gamma   59.94503073
_symmetry_Int_Tables_number   1
_chemical_formula_structural   TbHoZr2(Al8Pt3)3
_chemical_formula_sum   'Tb1 Ho1 Zr2 Al24 Pt9'
_cell_volume   624.81030855
_cell_formula_units_Z   1
loop_
 _symmetry_equiv_pos_site_id
 _symmetry_equiv_pos_as_xyz
  1  'x, y, z'
loop_
 _atom_site_type_symbol
 _atom_site_label
 _atom_site_symmetry_multiplicity
 _atom_site_fract_x
 _atom_site_fract_y
 _atom_site_fract_z
 _atom_site_occupancy
  Tb  Tb0  1  0.733412  0.498675  0.808193  1
  Ho  Ho1  1  0.266296  0.501236  0.192469  1
  Zr  Zr2  1  0.393996  0.167613  0.809532  1
  Zr  Zr3  1  0.605962  0.832545  0.190478  1
  Al  Al4  1  0.681218  0.836419  0.944156  1
  Al  Al5  1  0.318600  0.164012  0.056469  1
  Al  Al6  1  0.146028  0.832964  0.562783  1
  Al  Al7  1  0.854071  0.166975  0.436995  1
  Al  Al8  1  0.479707  0.166898  0.560898  1
  Al  Al9  1  0.520379  0.833086  0.438850  1
  Al  Al10  1  0.220267  0.163432  0.327608  1
  Al  Al11  1  0.779929  0.836609  0.671900  1
  Al  Al12  1  0.436563  0.504550  0.671845  1
  Al  Al13  1  0.563475  0.495462  0.327643  1
  Al  Al14  1  0.111206  0.160090  0.670574  1
  Al  Al15  1  0.889130  0.839759  0.328892  1
  Al  Al16  1  0.352740  0.496850  0.942908  1
  Al  Al17  1  0.646482  0.503325  0.057947  1
  Al  Al18  1  0.018508  0.167477  0.951717  1
  Al  Al19  1  0.981609  0.832188  0.048968  1
  Al  Al20  1  0.186799  0.499570  0.440287  1
  Al  Al21  1  0.813322  0.500415  0.559488  1
  Al  Al22  1  0.733787  0.159201  0.183721  1
  Al  Al23  1  0.265685  0.841297  0.816257  1
  Al  Al24  1  0.066127  0.626974  0.815068  1
  Al  Al25  1  0.934469  0.372984  0.184922  1
  Al  Al26  1  0.851095  0.040372  0.815674  1
  Al  Al27  1  0.148952  0.958953  0.184304  1
  Pt  Pt28  1  0.120320  0.491001  0.638822  1
  Pt  Pt29  1  0.880110  0.509078  0.360870  1
  Pt  Pt30  1  0.656686  0.172979  0.999798  1
  Pt  Pt31  1  0.343152  0.827060  0.000463  1
  Pt  Pt32  1  0.537018  0.166738  0.361429  1
  Pt  Pt33  1  0.462773  0.833494  0.638221  1
  Pt  Pt34  1  0.778345  0.175871  0.637435  1
  Pt  Pt35  1  0.221870  0.823711  0.362252  1
  Pt  Pt36  1  0.999905  0.500137  0.000163  1
