# generated using pymatgen
data_Pr(AsPd2)2
_symmetry_space_group_name_H-M   'P 1'
_cell_length_a   7.84284900
_cell_length_b   7.84284900
_cell_length_c   4.09639500
_cell_angle_alpha   90.00000000
_cell_angle_beta   90.00000000
_cell_angle_gamma   90.00000000
_symmetry_Int_Tables_number   1
_chemical_formula_structural   Pr(AsPd2)2
_chemical_formula_sum   'Pr2 As4 Pd8'
_cell_volume   251.97040523
_cell_formula_units_Z   2
loop_
 _symmetry_equiv_pos_site_id
 _symmetry_equiv_pos_as_xyz
  1  'x, y, z'
loop_
 _atom_site_type_symbol
 _atom_site_label
 _atom_site_symmetry_multiplicity
 _atom_site_fract_x
 _atom_site_fract_y
 _atom_site_fract_z
 _atom_site_occupancy
  Pr  Pr0  1  0.500000  0.500000  0.000000  1
  Pr  Pr1  1  0.000000  0.000000  0.500000  1
  As  As2  1  0.780420  0.219580  0.000000  1
  As  As3  1  0.219580  0.780420  0.000000  1
  As  As4  1  0.280421  0.280421  0.500000  1
  As  As5  1  0.719579  0.719579  0.500000  1
  Pd  Pd6  1  0.341729  0.089977  0.000000  1
  Pd  Pd7  1  0.089977  0.341729  0.000000  1
  Pd  Pd8  1  0.910023  0.658272  0.000000  1
  Pd  Pd9  1  0.658272  0.910023  0.000000  1
  Pd  Pd10  1  0.589977  0.158272  0.500000  1
  Pd  Pd11  1  0.841728  0.410024  0.500000  1
  Pd  Pd12  1  0.158272  0.589977  0.500000  1
  Pd  Pd13  1  0.410024  0.841728  0.500000  1
