# generated using pymatgen
data_Sc7Ti3(Sb3S)2
_symmetry_space_group_name_H-M   'P 1'
_cell_length_a   8.36693600
_cell_length_b   8.36693676
_cell_length_c   6.00998000
_cell_angle_alpha   90.00000000
_cell_angle_beta   90.00000000
_cell_angle_gamma   119.99999701
_symmetry_Int_Tables_number   1
_chemical_formula_structural   Sc7Ti3(Sb3S)2
_chemical_formula_sum   'Sc7 Ti3 Sb6 S2'
_cell_volume   364.36495948
_cell_formula_units_Z   1
loop_
 _symmetry_equiv_pos_site_id
 _symmetry_equiv_pos_as_xyz
  1  'x, y, z'
loop_
 _atom_site_type_symbol
 _atom_site_label
 _atom_site_symmetry_multiplicity
 _atom_site_fract_x
 _atom_site_fract_y
 _atom_site_fract_z
 _atom_site_occupancy
  Sc  Sc0  1  0.746908  0.748051  0.248783  1
  Sc  Sc1  1  0.251949  0.998857  0.248783  1
  Sc  Sc2  1  0.001143  0.253092  0.248783  1
  Sc  Sc3  1  0.251949  0.253092  0.751217  1
  Sc  Sc4  1  0.746908  0.998857  0.751217  1
  Sc  Sc5  1  0.001143  0.748051  0.751217  1
  Sc  Sc6  1  0.666667  0.333333  0.500000  1
  Ti  Ti7  1  0.333333  0.666667  0.500000  1
  Ti  Ti8  1  0.333333  0.666667  0.000000  1
  Ti  Ti9  1  0.666667  0.333333  0.000000  1
  Sb  Sb10  1  0.398801  0.401848  0.246577  1
  Sb  Sb11  1  0.598152  0.996953  0.246577  1
  Sb  Sb12  1  0.003047  0.601199  0.246577  1
  Sb  Sb13  1  0.598152  0.601199  0.753423  1
  Sb  Sb14  1  0.398801  0.996953  0.753423  1
  Sb  Sb15  1  0.003047  0.401848  0.753423  1
  S  S16  1  0.000000  0.000000  0.500000  1
  S  S17  1  0.000000  0.000000  0.000000  1
