# generated using pymatgen
data_Nd2Ge7Rh12
_symmetry_space_group_name_H-M   'P 1'
_cell_length_a   10.01777900
_cell_length_b   10.01777966
_cell_length_c   3.96724300
_cell_angle_alpha   90.00000000
_cell_angle_beta   90.00000000
_cell_angle_gamma   120.00000773
_symmetry_Int_Tables_number   1
_chemical_formula_structural   Nd2Ge7Rh12
_chemical_formula_sum   'Nd2 Ge7 Rh12'
_cell_volume   344.79608201
_cell_formula_units_Z   1
loop_
 _symmetry_equiv_pos_site_id
 _symmetry_equiv_pos_as_xyz
  1  'x, y, z'
loop_
 _atom_site_type_symbol
 _atom_site_label
 _atom_site_symmetry_multiplicity
 _atom_site_fract_x
 _atom_site_fract_y
 _atom_site_fract_z
 _atom_site_occupancy
  Nd  Nd0  1  0.333333  0.666667  0.749057  1
  Nd  Nd1  1  0.666667  0.333333  0.250943  1
  Ge  Ge2  1  0.000000  0.000000  0.500000  1
  Ge  Ge3  1  0.886493  0.598630  0.750879  1
  Ge  Ge4  1  0.401370  0.287863  0.750879  1
  Ge  Ge5  1  0.712137  0.113507  0.750879  1
  Ge  Ge6  1  0.113507  0.401370  0.249121  1
  Ge  Ge7  1  0.598630  0.712137  0.249121  1
  Ge  Ge8  1  0.287863  0.886493  0.249121  1
  Rh  Rh9  1  0.617701  0.558502  0.751261  1
  Rh  Rh10  1  0.441498  0.059200  0.751261  1
  Rh  Rh11  1  0.940800  0.382299  0.751261  1
  Rh  Rh12  1  0.382299  0.441498  0.248739  1
  Rh  Rh13  1  0.558502  0.940800  0.248739  1
  Rh  Rh14  1  0.059200  0.617701  0.248739  1
  Rh  Rh15  1  0.118352  0.856212  0.747378  1
  Rh  Rh16  1  0.143788  0.262140  0.747378  1
  Rh  Rh17  1  0.737860  0.881648  0.747378  1
  Rh  Rh18  1  0.881648  0.143788  0.252622  1
  Rh  Rh19  1  0.856212  0.737860  0.252622  1
  Rh  Rh20  1  0.262140  0.118352  0.252622  1
