# generated using pymatgen
data_Tb5Dy11Cd4FeNi3
_symmetry_space_group_name_H-M   'P 1'
_cell_length_a   9.56003270
_cell_length_b   9.56111448
_cell_length_c   9.56111404
_cell_angle_alpha   59.80585906
_cell_angle_beta   59.81442264
_cell_angle_gamma   59.81441822
_symmetry_Int_Tables_number   1
_chemical_formula_structural   Tb5Dy11Cd4FeNi3
_chemical_formula_sum   'Tb5 Dy11 Cd4 Fe1 Ni3'
_cell_volume   615.31825757
_cell_formula_units_Z   1
loop_
 _symmetry_equiv_pos_site_id
 _symmetry_equiv_pos_as_xyz
  1  'x, y, z'
loop_
 _atom_site_type_symbol
 _atom_site_label
 _atom_site_symmetry_multiplicity
 _atom_site_fract_x
 _atom_site_fract_y
 _atom_site_fract_z
 _atom_site_occupancy
  Tb  Tb0  1  0.597520  0.597941  0.597941  1
  Tb  Tb1  1  0.597320  0.597409  0.206111  1
  Tb  Tb2  1  0.597320  0.206111  0.597409  1
  Tb  Tb3  1  0.206218  0.597442  0.597442  1
  Tb  Tb4  1  0.065847  0.437948  0.437948  1
  Dy  Dy5  1  0.436899  0.061789  0.061789  1
  Dy  Dy6  1  0.438244  0.065411  0.437921  1
  Dy  Dy7  1  0.061806  0.436934  0.061527  1
  Dy  Dy8  1  0.438244  0.437921  0.065411  1
  Dy  Dy9  1  0.061806  0.061527  0.436934  1
  Dy  Dy10  1  0.186445  0.814530  0.814530  1
  Dy  Dy11  1  0.809408  0.187971  0.187971  1
  Dy  Dy12  1  0.814378  0.186460  0.814584  1
  Dy  Dy13  1  0.187978  0.809579  0.187847  1
  Dy  Dy14  1  0.814378  0.814584  0.186460  1
  Dy  Dy15  1  0.187978  0.187847  0.809579  1
  Cd  Cd16  1  0.829733  0.829684  0.829684  1
  Cd  Cd17  1  0.830375  0.830531  0.505903  1
  Cd  Cd18  1  0.830375  0.505903  0.830531  1
  Cd  Cd19  1  0.505917  0.830393  0.830393  1
  Fe  Fe20  1  0.392800  0.392908  0.392908  1
  Ni  Ni21  1  0.391901  0.391941  0.825325  1
  Ni  Ni22  1  0.391901  0.825325  0.391941  1
  Ni  Ni23  1  0.825209  0.391913  0.391913  1
