# generated using pymatgen
data_Pr2RuN3
_symmetry_space_group_name_H-M   'P 1'
_cell_length_a   3.60969290
_cell_length_b   3.81526818
_cell_length_c   7.07841165
_cell_angle_alpha   105.63452842
_cell_angle_beta   104.77235659
_cell_angle_gamma   90.00000506
_symmetry_Int_Tables_number   1
_chemical_formula_structural   Pr2RuN3
_chemical_formula_sum   'Pr2 Ru1 N3'
_cell_volume   90.52618814
_cell_formula_units_Z   1
loop_
 _symmetry_equiv_pos_site_id
 _symmetry_equiv_pos_as_xyz
  1  'x, y, z'
loop_
 _atom_site_type_symbol
 _atom_site_label
 _atom_site_symmetry_multiplicity
 _atom_site_fract_x
 _atom_site_fract_y
 _atom_site_fract_z
 _atom_site_occupancy
  Pr  Pr0  1  0.649770  0.649771  0.299545  1
  Pr  Pr1  1  0.350229  0.350229  0.700456  1
  Ru  Ru2  1  0.000000  0.000000  0.000000  1
  N  N3  1  0.000001  0.499999  0.999999  1
  N  N4  1  0.162754  0.162754  0.325508  1
  N  N5  1  0.837245  0.837245  0.674492  1
