# generated using pymatgen
data_CaYb(InPt)2
_symmetry_space_group_name_H-M   'P 1'
_cell_length_a   4.40970800
_cell_length_b   7.28707700
_cell_length_c   8.45089900
_cell_angle_alpha   90.00000000
_cell_angle_beta   90.00000000
_cell_angle_gamma   90.00000000
_symmetry_Int_Tables_number   1
_chemical_formula_structural   CaYb(InPt)2
_chemical_formula_sum   'Ca2 Yb2 In4 Pt4'
_cell_volume   271.56018909
_cell_formula_units_Z   2
loop_
 _symmetry_equiv_pos_site_id
 _symmetry_equiv_pos_as_xyz
  1  'x, y, z'
loop_
 _atom_site_type_symbol
 _atom_site_label
 _atom_site_symmetry_multiplicity
 _atom_site_fract_x
 _atom_site_fract_y
 _atom_site_fract_z
 _atom_site_occupancy
  Ca  Ca0  1  0.750000  0.970104  0.677641  1
  Ca  Ca1  1  0.750000  0.470104  0.822359  1
  Yb  Yb2  1  0.250000  0.030728  0.322284  1
  Yb  Yb3  1  0.250000  0.530728  0.177716  1
  In  In4  1  0.750000  0.350742  0.434182  1
  In  In5  1  0.250000  0.148841  0.935908  1
  In  In6  1  0.750000  0.850742  0.065818  1
  In  In7  1  0.250000  0.648841  0.564092  1
  Pt  Pt8  1  0.750000  0.234549  0.126431  1
  Pt  Pt9  1  0.750000  0.734549  0.373569  1
  Pt  Pt10  1  0.250000  0.765036  0.878003  1
  Pt  Pt11  1  0.250000  0.265036  0.621997  1
