# generated using pymatgen
data_Er12Fe2Co2BiRh
_symmetry_space_group_name_H-M   'P 1'
_cell_length_a   8.25139251
_cell_length_b   8.25140443
_cell_length_c   8.25139363
_cell_angle_alpha   111.00888931
_cell_angle_beta   111.83301083
_cell_angle_gamma   105.63948929
_symmetry_Int_Tables_number   1
_chemical_formula_structural   Er12Fe2Co2BiRh
_chemical_formula_sum   'Er12 Fe2 Co2 Bi1 Rh1'
_cell_volume   431.01277650
_cell_formula_units_Z   1
loop_
 _symmetry_equiv_pos_site_id
 _symmetry_equiv_pos_as_xyz
  1  'x, y, z'
loop_
 _atom_site_type_symbol
 _atom_site_label
 _atom_site_symmetry_multiplicity
 _atom_site_fract_x
 _atom_site_fract_y
 _atom_site_fract_z
 _atom_site_occupancy
  Er  Er0  1  0.285348  0.185347  0.470693  1
  Er  Er1  1  0.714652  0.814653  0.529307  1
  Er  Er2  1  0.285345  0.814653  0.100002  1
  Er  Er3  1  0.714655  0.185347  0.899998  1
  Er  Er4  1  0.619494  0.310920  0.308549  1
  Er  Er5  1  0.380506  0.689080  0.691451  1
  Er  Er6  1  0.002372  0.310920  0.691427  1
  Er  Er7  1  0.997628  0.689080  0.308573  1
  Er  Er8  1  0.211352  0.409921  0.198569  1
  Er  Er9  1  0.788648  0.590079  0.801431  1
  Er  Er10  1  0.211361  0.012803  0.801442  1
  Er  Er11  1  0.788639  0.987197  0.198558  1
  Fe  Fe12  1  0.000007  0.383104  0.383097  1
  Fe  Fe13  1  0.999993  0.616896  0.616903  1
  Co  Co14  1  0.389694  0.889687  0.499992  1
  Co  Co15  1  0.610306  0.110313  0.500008  1
  Bi  Bi16  1  0.500000  0.500000  0.000000  1
  Rh  Rh17  1  0.000000  0.000000  0.000000  1
