# generated using pymatgen
data_Ho16MgCd3Co3Ni
_symmetry_space_group_name_H-M   'P 1'
_cell_length_a   9.46964540
_cell_length_b   9.50654211
_cell_length_c   9.51300563
_cell_angle_alpha   60.04827348
_cell_angle_beta   60.00231275
_cell_angle_gamma   59.92149701
_symmetry_Int_Tables_number   1
_chemical_formula_structural   Ho16MgCd3Co3Ni
_chemical_formula_sum   'Ho16 Mg1 Cd3 Co3 Ni1'
_cell_volume   605.43331655
_cell_formula_units_Z   1
loop_
 _symmetry_equiv_pos_site_id
 _symmetry_equiv_pos_as_xyz
  1  'x, y, z'
loop_
 _atom_site_type_symbol
 _atom_site_label
 _atom_site_symmetry_multiplicity
 _atom_site_fract_x
 _atom_site_fract_y
 _atom_site_fract_z
 _atom_site_occupancy
  Ho  Ho0  1  0.937647  0.938118  0.561089  1
  Ho  Ho1  1  0.815239  0.187774  0.186487  1
  Ho  Ho2  1  0.937238  0.563803  0.562346  1
  Ho  Ho3  1  0.938415  0.561869  0.936881  1
  Ho  Ho4  1  0.816555  0.809219  0.185078  1
  Ho  Ho5  1  0.342198  0.345799  0.347255  1
  Ho  Ho6  1  0.560191  0.938710  0.936562  1
  Ho  Ho7  1  0.561582  0.938347  0.563717  1
  Ho  Ho8  1  0.186623  0.811386  0.810933  1
  Ho  Ho9  1  0.188241  0.189271  0.809807  1
  Ho  Ho10  1  0.346019  0.350118  0.957728  1
  Ho  Ho11  1  0.344312  0.961835  0.349615  1
  Ho  Ho12  1  0.814987  0.187894  0.806495  1
  Ho  Ho13  1  0.561535  0.564395  0.937025  1
  Ho  Ho14  1  0.187317  0.811763  0.187006  1
  Ho  Ho15  1  0.964670  0.345147  0.346692  1
  Mg  Mg16  1  0.574795  0.575451  0.272972  1
  Cd  Cd17  1  0.254694  0.581471  0.581589  1
  Cd  Cd18  1  0.580015  0.580786  0.581038  1
  Cd  Cd19  1  0.580914  0.256139  0.581048  1
  Co  Co20  1  0.144129  0.141715  0.140140  1
  Co  Co21  1  0.143509  0.576595  0.140389  1
  Co  Co22  1  0.142947  0.140869  0.576974  1
  Ni  Ni23  1  0.576234  0.141529  0.141139  1
