# generated using pymatgen
data_Hf4CoMoIr2
_symmetry_space_group_name_H-M   'P 1'
_cell_length_a   6.57219000
_cell_length_b   4.58659600
_cell_length_c   9.14378200
_cell_angle_alpha   90.00000000
_cell_angle_beta   90.00008500
_cell_angle_gamma   90.00000000
_symmetry_Int_Tables_number   1
_chemical_formula_structural   Hf4CoMoIr2
_chemical_formula_sum   'Hf8 Co2 Mo2 Ir4'
_cell_volume   275.62998507
_cell_formula_units_Z   2
loop_
 _symmetry_equiv_pos_site_id
 _symmetry_equiv_pos_as_xyz
  1  'x, y, z'
loop_
 _atom_site_type_symbol
 _atom_site_label
 _atom_site_symmetry_multiplicity
 _atom_site_fract_x
 _atom_site_fract_y
 _atom_site_fract_z
 _atom_site_occupancy
  Hf  Hf0  1  0.001688  0.749999  0.122925  1
  Hf  Hf1  1  0.498310  0.749999  0.122926  1
  Hf  Hf2  1  0.998312  0.249999  0.377074  1
  Hf  Hf3  1  0.501688  0.249999  0.377076  1
  Hf  Hf4  1  0.501167  0.749999  0.626974  1
  Hf  Hf5  1  0.998832  0.749999  0.626974  1
  Hf  Hf6  1  0.498835  0.249999  0.873025  1
  Hf  Hf7  1  0.001168  0.249999  0.873027  1
  Co  Co8  1  0.750001  0.249999  0.627374  1
  Co  Co9  1  0.249999  0.749999  0.872627  1
  Mo  Mo10  1  0.750000  0.249999  0.122431  1
  Mo  Mo11  1  0.250000  0.749999  0.377570  1
  Ir  Ir12  1  0.250001  0.249999  0.121626  1
  Ir  Ir13  1  0.750001  0.749999  0.378374  1
  Ir  Ir14  1  0.249999  0.249999  0.628810  1
  Ir  Ir15  1  0.749999  0.749999  0.871190  1
