# generated using pymatgen
data_Sc8Ti2Re9Si16Os
_symmetry_space_group_name_H-M   'P 1'
_cell_length_a   6.63867831
_cell_length_b   6.61465712
_cell_length_c   12.60790839
_cell_angle_alpha   89.99713794
_cell_angle_beta   90.39438995
_cell_angle_gamma   90.17083709
_symmetry_Int_Tables_number   1
_chemical_formula_structural   Sc8Ti2Re9Si16Os
_chemical_formula_sum   'Sc8 Ti2 Re9 Si16 Os1'
_cell_volume   553.63021803
_cell_formula_units_Z   1
loop_
 _symmetry_equiv_pos_site_id
 _symmetry_equiv_pos_as_xyz
  1  'x, y, z'
loop_
 _atom_site_type_symbol
 _atom_site_label
 _atom_site_symmetry_multiplicity
 _atom_site_fract_x
 _atom_site_fract_y
 _atom_site_fract_z
 _atom_site_occupancy
  Sc  Sc0  1  0.005731  0.660341  0.031312  1
  Sc  Sc1  1  0.986546  0.343852  0.533253  1
  Sc  Sc2  1  0.340977  0.989215  0.469282  1
  Sc  Sc3  1  0.156172  0.488403  0.779701  1
  Sc  Sc4  1  0.841446  0.508847  0.282571  1
  Sc  Sc5  1  0.493792  0.159804  0.218690  1
  Sc  Sc6  1  0.512911  0.845356  0.718262  1
  Sc  Sc7  1  0.661056  0.009138  0.967365  1
  Ti  Ti8  1  0.161119  0.838883  0.251690  1
  Ti  Ti9  1  0.341710  0.338930  0.998069  1
  Re  Re10  1  0.016027  0.801754  0.638800  1
  Re  Re11  1  0.000120  0.177350  0.133661  1
  Re  Re12  1  0.820448  0.013339  0.363809  1
  Re  Re13  1  0.306155  0.505286  0.385980  1
  Re  Re14  1  0.677017  0.509770  0.887655  1
  Re  Re15  1  0.484459  0.303697  0.609771  1
  Re  Re16  1  0.500339  0.677074  0.115148  1
  Re  Re17  1  0.195554  0.000158  0.864503  1
  Re  Re18  1  0.837293  0.165555  0.750589  1
  Si  Si19  1  0.017796  0.728570  0.446263  1
  Si  Si20  1  0.616769  0.304760  0.426162  1
  Si  Si21  1  0.372961  0.703603  0.927054  1
  Si  Si22  1  0.195536  0.116009  0.676201  1
  Si  Si23  1  0.303196  0.615765  0.573062  1
  Si  Si24  1  0.705784  0.371690  0.073265  1
  Si  Si25  1  0.795984  0.871321  0.177808  1
  Si  Si26  1  0.128535  0.203718  0.322976  1
  Si  Si27  1  0.974381  0.279842  0.938263  1
  Si  Si28  1  0.731056  0.020208  0.558188  1
  Si  Si29  1  0.215499  0.474580  0.191196  1
  Si  Si30  1  0.767071  0.519512  0.692028  1
  Si  Si31  1  0.480481  0.226628  0.803718  1
  Si  Si32  1  0.527376  0.780546  0.310425  1
  Si  Si33  1  0.285400  0.974310  0.058598  1
  Si  Si34  1  0.881022  0.803391  0.824030  1
  Os  Os35  1  0.662283  0.668797  0.500650  1
