# generated using pymatgen
data_Na12V5Fe3P8(O8F3)4
_symmetry_space_group_name_H-M   'P 1'
_cell_length_a   9.16654900
_cell_length_b   9.19762600
_cell_length_c   10.92377900
_cell_angle_alpha   90.00000000
_cell_angle_beta   90.00000000
_cell_angle_gamma   90.00000000
_symmetry_Int_Tables_number   1
_chemical_formula_structural   Na12V5Fe3P8(O8F3)4
_chemical_formula_sum   'Na12 V5 Fe3 P8 O32 F12'
_cell_volume   920.98915373
_cell_formula_units_Z   1
loop_
 _symmetry_equiv_pos_site_id
 _symmetry_equiv_pos_as_xyz
  1  'x, y, z'
loop_
 _atom_site_type_symbol
 _atom_site_label
 _atom_site_symmetry_multiplicity
 _atom_site_fract_x
 _atom_site_fract_y
 _atom_site_fract_z
 _atom_site_occupancy
  Na  Na0  1  0.029914  0.284277  0.499591  1
  Na  Na1  1  0.048459  0.808372  0.999588  1
  Na  Na2  1  0.242755  0.513104  0.999313  1
  Na  Na3  1  0.257399  0.011583  0.499054  1
  Na  Na4  1  0.454041  0.308241  0.499670  1
  Na  Na5  1  0.467849  0.784015  0.999149  1
  Na  Na6  1  0.533482  0.216498  0.000443  1
  Na  Na7  1  0.549553  0.692908  0.499071  1
  Na  Na8  1  0.742721  0.984350  0.499664  1
  Na  Na9  1  0.757329  0.484366  0.000568  1
  Na  Na10  1  0.951012  0.193156  0.000261  1
  Na  Na11  1  0.965912  0.716212  0.498947  1
  V  V12  1  0.250844  0.745372  0.685672  1
  V  V13  1  0.749158  0.254555  0.313805  1
  V  V14  1  0.749174  0.254417  0.686219  1
  V  V15  1  0.750683  0.754741  0.186034  1
  V  V16  1  0.750845  0.754483  0.814111  1
  Fe  Fe17  1  0.248929  0.245223  0.187418  1
  Fe  Fe18  1  0.249099  0.244945  0.812703  1
  Fe  Fe19  1  0.251015  0.745119  0.312255  1
  P  P20  1  0.000502  0.000468  0.743388  1
  P  P21  1  0.000916  0.000247  0.256889  1
  P  P22  1  0.499521  0.499729  0.757632  1
  P  P23  1  0.499057  0.500169  0.242898  1
  P  P24  1  0.499460  0.000534  0.747628  1
  P  P25  1  0.498987  0.000352  0.252580  1
  P  P26  1  0.000627  0.499666  0.753213  1
  P  P27  1  0.001036  0.500266  0.247126  1
  O  O28  1  0.092002  0.598981  0.332978  1
  O  O29  1  0.091294  0.599115  0.667281  1
  O  O30  1  0.091617  0.097828  0.169677  1
  O  O31  1  0.091704  0.097793  0.830338  1
  O  O32  1  0.098869  0.406588  0.162424  1
  O  O33  1  0.098119  0.906312  0.658758  1
  O  O34  1  0.098708  0.406266  0.837632  1
  O  O35  1  0.098366  0.906041  0.341421  1
  O  O36  1  0.400822  0.907464  0.662907  1
  O  O37  1  0.401323  0.906694  0.337346  1
  O  O38  1  0.401619  0.405826  0.158402  1
  O  O39  1  0.401661  0.405364  0.841537  1
  O  O40  1  0.408419  0.597549  0.330251  1
  O  O41  1  0.408997  0.597632  0.670090  1
  O  O42  1  0.407949  0.099327  0.166941  1
  O  O43  1  0.408468  0.099265  0.833306  1
  O  O44  1  0.590437  0.900848  0.167243  1
  O  O45  1  0.590638  0.900289  0.832336  1
  O  O46  1  0.590469  0.402309  0.329839  1
  O  O47  1  0.590617  0.402215  0.670357  1
  O  O48  1  0.597278  0.594015  0.158590  1
  O  O49  1  0.597181  0.593902  0.841891  1
  O  O50  1  0.598279  0.093286  0.662991  1
  O  O51  1  0.598057  0.093437  0.337021  1
  O  O52  1  0.901920  0.593363  0.162920  1
  O  O53  1  0.901492  0.593148  0.836975  1
  O  O54  1  0.902736  0.094238  0.658616  1
  O  O55  1  0.902825  0.094158  0.341423  1
  O  O56  1  0.909570  0.902420  0.170044  1
  O  O57  1  0.908938  0.903061  0.830231  1
  O  O58  1  0.909525  0.400611  0.332439  1
  O  O59  1  0.909551  0.400335  0.667530  1
  F  F60  1  0.250327  0.239050  0.367334  1
  F  F61  1  0.250391  0.239227  0.632918  1
  F  F62  1  0.246719  0.248171  0.999901  1
  F  F63  1  0.253404  0.748620  0.498093  1
  F  F64  1  0.249723  0.739231  0.133196  1
  F  F65  1  0.249683  0.737428  0.871622  1
  F  F66  1  0.750096  0.262153  0.129069  1
  F  F67  1  0.750103  0.262264  0.870963  1
  F  F68  1  0.746483  0.251204  0.500058  1
  F  F69  1  0.753607  0.751089  0.000078  1
  F  F70  1  0.749953  0.762247  0.371049  1
  F  F71  1  0.749783  0.762267  0.629090  1
