# generated using pymatgen
data_Nd16Er4BiPb15
_symmetry_space_group_name_H-M   'P 1'
_cell_length_a   8.37052588
_cell_length_b   8.48443315
_cell_length_c   16.15810214
_cell_angle_alpha   90.04185127
_cell_angle_beta   90.12842733
_cell_angle_gamma   90.04248947
_symmetry_Int_Tables_number   1
_chemical_formula_structural   Nd16Er4BiPb15
_chemical_formula_sum   'Nd16 Er4 Bi1 Pb15'
_cell_volume   1147.53145262
_cell_formula_units_Z   1
loop_
 _symmetry_equiv_pos_site_id
 _symmetry_equiv_pos_as_xyz
  1  'x, y, z'
loop_
 _atom_site_type_symbol
 _atom_site_label
 _atom_site_symmetry_multiplicity
 _atom_site_fract_x
 _atom_site_fract_y
 _atom_site_fract_z
 _atom_site_occupancy
  Nd  Nd0  1  0.377290  0.841538  0.879946  1
  Nd  Nd1  1  0.875925  0.657394  0.619750  1
  Nd  Nd2  1  0.623876  0.156861  0.380441  1
  Nd  Nd3  1  0.122308  0.344582  0.119778  1
  Nd  Nd4  1  0.625969  0.158393  0.119273  1
  Nd  Nd5  1  0.124487  0.342372  0.380129  1
  Nd  Nd6  1  0.376003  0.843241  0.619562  1
  Nd  Nd7  1  0.876216  0.657491  0.880272  1
  Nd  Nd8  1  0.535532  0.324206  0.898764  1
  Nd  Nd9  1  0.034147  0.177444  0.600364  1
  Nd  Nd10  1  0.466477  0.677215  0.399647  1
  Nd  Nd11  1  0.962701  0.822071  0.101126  1
  Nd  Nd12  1  0.465971  0.675337  0.100723  1
  Nd  Nd13  1  0.966122  0.822718  0.399616  1
  Nd  Nd14  1  0.533896  0.322377  0.600405  1
  Nd  Nd15  1  0.032486  0.177907  0.898551  1
  Er  Er16  1  0.208786  0.503188  0.749612  1
  Er  Er17  1  0.708307  0.996394  0.749868  1
  Er  Er18  1  0.790898  0.496691  0.250513  1
  Er  Er19  1  0.291314  0.003012  0.251946  1
  Bi  Bi20  1  0.280555  0.030143  0.046907  1
  Pb  Pb21  1  0.781754  0.468844  0.453716  1
  Pb  Pb22  1  0.718668  0.968466  0.546336  1
  Pb  Pb23  1  0.219289  0.529731  0.953939  1
  Pb  Pb24  1  0.720428  0.969150  0.953862  1
  Pb  Pb25  1  0.218272  0.531159  0.546206  1
  Pb  Pb26  1  0.281602  0.031344  0.453810  1
  Pb  Pb27  1  0.781310  0.470266  0.046214  1
  Pb  Pb28  1  0.570163  0.625418  0.749730  1
  Pb  Pb29  1  0.070426  0.874187  0.750402  1
  Pb  Pb30  1  0.430245  0.374501  0.249352  1
  Pb  Pb31  1  0.929839  0.125494  0.249806  1
  Pb  Pb32  1  0.343272  0.153871  0.750063  1
  Pb  Pb33  1  0.843315  0.346579  0.749634  1
  Pb  Pb34  1  0.656111  0.846240  0.249842  1
  Pb  Pb35  1  0.156044  0.654176  0.249895  1
