# generated using pymatgen
data_Li2Pr3AgSn4Hg
_symmetry_space_group_name_H-M   'P 1'
_cell_length_a   8.96573820
_cell_length_b   8.96856271
_cell_length_c   8.96856349
_cell_angle_alpha   149.32168400
_cell_angle_beta   131.15835291
_cell_angle_gamma   58.79218900
_symmetry_Int_Tables_number   1
_chemical_formula_structural   Li2Pr3AgSn4Hg
_chemical_formula_sum   'Li2 Pr3 Ag1 Sn4 Hg1'
_cell_volume   274.86496989
_cell_formula_units_Z   1
loop_
 _symmetry_equiv_pos_site_id
 _symmetry_equiv_pos_as_xyz
  1  'x, y, z'
loop_
 _atom_site_type_symbol
 _atom_site_label
 _atom_site_symmetry_multiplicity
 _atom_site_fract_x
 _atom_site_fract_y
 _atom_site_fract_z
 _atom_site_occupancy
  Li  Li0  1  0.860461  0.671981  0.188480  1
  Li  Li1  1  0.141896  0.326153  0.815742  1
  Pr  Pr2  1  0.503012  0.000021  0.502988  1
  Pr  Pr3  1  0.858613  0.872133  0.986479  1
  Pr  Pr4  1  0.134678  0.129468  0.005210  1
  Ag  Ag5  1  0.516360  0.336095  0.180265  1
  Sn  Sn6  1  0.276903  0.784950  0.491953  1
  Sn  Sn7  1  0.732386  0.217743  0.514642  1
  Sn  Sn8  1  0.812235  0.505329  0.306906  1
  Sn  Sn9  1  0.184862  0.490402  0.694460  1
  Hg  Hg10  1  0.478598  0.665724  0.812875  1
