# generated using pymatgen
data_Yb2HoTh(Al8Pt3)3
_symmetry_space_group_name_H-M   'P 1'
_cell_length_a   7.54781974
_cell_length_b   7.56912335
_cell_length_c   13.25359803
_cell_angle_alpha   84.57030284
_cell_angle_beta   79.11913358
_cell_angle_gamma   59.94608014
_symmetry_Int_Tables_number   1
_chemical_formula_structural   Yb2HoTh(Al8Pt3)3
_chemical_formula_sum   'Yb2 Ho1 Th1 Al24 Pt9'
_cell_volume   643.60059221
_cell_formula_units_Z   1
loop_
 _symmetry_equiv_pos_site_id
 _symmetry_equiv_pos_as_xyz
  1  'x, y, z'
loop_
 _atom_site_type_symbol
 _atom_site_label
 _atom_site_symmetry_multiplicity
 _atom_site_fract_x
 _atom_site_fract_y
 _atom_site_fract_z
 _atom_site_occupancy
  Yb  Yb0  1  0.605595  0.831117  0.193682  1
  Yb  Yb1  1  0.733712  0.499187  0.807621  1
  Ho  Ho2  1  0.266441  0.501547  0.193355  1
  Th  Th3  1  0.395041  0.167219  0.807576  1
  Al  Al4  1  0.687074  0.830824  0.948114  1
  Al  Al5  1  0.315289  0.166351  0.058529  1
  Al  Al6  1  0.147260  0.832387  0.559934  1
  Al  Al7  1  0.853794  0.168024  0.437856  1
  Al  Al8  1  0.480859  0.166332  0.556492  1
  Al  Al9  1  0.520663  0.832565  0.440240  1
  Al  Al10  1  0.217624  0.164854  0.329239  1
  Al  Al11  1  0.787752  0.830229  0.666906  1
  Al  Al12  1  0.438508  0.510648  0.667274  1
  Al  Al13  1  0.563042  0.494179  0.329017  1
  Al  Al14  1  0.106548  0.160256  0.665514  1
  Al  Al15  1  0.889854  0.839961  0.330670  1
  Al  Al16  1  0.351372  0.502954  0.947223  1
  Al  Al17  1  0.646200  0.501359  0.055882  1
  Al  Al18  1  0.011776  0.167217  0.957711  1
  Al  Al19  1  0.983842  0.831031  0.048881  1
  Al  Al20  1  0.186110  0.499736  0.440758  1
  Al  Al21  1  0.813371  0.500645  0.558416  1
  Al  Al22  1  0.732826  0.166643  0.183233  1
  Al  Al23  1  0.264035  0.833298  0.816911  1
  Al  Al24  1  0.059219  0.634796  0.815782  1
  Al  Al25  1  0.939317  0.368935  0.184437  1
  Al  Al26  1  0.858755  0.040189  0.816614  1
  Al  Al27  1  0.143401  0.957552  0.183777  1
  Pt  Pt28  1  0.121675  0.491176  0.638001  1
  Pt  Pt29  1  0.880520  0.507459  0.361537  1
  Pt  Pt30  1  0.657041  0.171490  0.999977  1
  Pt  Pt31  1  0.342291  0.829655  0.000204  1
  Pt  Pt32  1  0.537757  0.167208  0.361275  1
  Pt  Pt33  1  0.461567  0.834442  0.637762  1
  Pt  Pt34  1  0.778074  0.174263  0.636756  1
  Pt  Pt35  1  0.220561  0.825301  0.362776  1
  Pt  Pt36  1  0.001233  0.498972  0.000070  1
