# generated using pymatgen
data_LuU(FeGe)2
_symmetry_space_group_name_H-M   'P 1'
_cell_length_a   6.96837724
_cell_length_b   4.38588800
_cell_length_c   6.82328312
_cell_angle_alpha   90.00000000
_cell_angle_beta   94.94058221
_cell_angle_gamma   90.00000000
_symmetry_Int_Tables_number   1
_chemical_formula_structural   LuU(FeGe)2
_chemical_formula_sum   'Lu2 U2 Fe4 Ge4'
_cell_volume   207.76193247
_cell_formula_units_Z   2
loop_
 _symmetry_equiv_pos_site_id
 _symmetry_equiv_pos_as_xyz
  1  'x, y, z'
loop_
 _atom_site_type_symbol
 _atom_site_label
 _atom_site_symmetry_multiplicity
 _atom_site_fract_x
 _atom_site_fract_y
 _atom_site_fract_z
 _atom_site_occupancy
  Lu  Lu0  1  0.026106  0.249999  0.722130  1
  Lu  Lu1  1  0.973895  0.750001  0.277870  1
  U  U2  1  0.515719  0.249999  0.802427  1
  U  U3  1  0.484283  0.750001  0.197574  1
  Fe  Fe4  1  0.739144  0.249999  0.036803  1
  Fe  Fe5  1  0.260857  0.750001  0.963196  1
  Fe  Fe6  1  0.368018  0.249999  0.474988  1
  Fe  Fe7  1  0.631981  0.750001  0.525013  1
  Ge  Ge8  1  0.715179  0.249999  0.398962  1
  Ge  Ge9  1  0.284821  0.750001  0.601038  1
  Ge  Ge10  1  0.192001  0.249999  0.118200  1
  Ge  Ge11  1  0.808000  0.750001  0.881800  1
