# generated using pymatgen
data_Nd4HoZr5(Si5Ir2)4
_symmetry_space_group_name_H-M   'P 1'
_cell_length_a   12.59217400
_cell_length_b   12.59217400
_cell_length_c   4.21821900
_cell_angle_alpha   90.00000000
_cell_angle_beta   90.00000000
_cell_angle_gamma   90.00000000
_symmetry_Int_Tables_number   1
_chemical_formula_structural   Nd4HoZr5(Si5Ir2)4
_chemical_formula_sum   'Nd4 Ho1 Zr5 Si20 Ir8'
_cell_volume   668.85280989
_cell_formula_units_Z   1
loop_
 _symmetry_equiv_pos_site_id
 _symmetry_equiv_pos_as_xyz
  1  'x, y, z'
loop_
 _atom_site_type_symbol
 _atom_site_label
 _atom_site_symmetry_multiplicity
 _atom_site_fract_x
 _atom_site_fract_y
 _atom_site_fract_z
 _atom_site_occupancy
  Nd  Nd0  1  0.884394  0.384749  0.500000  1
  Nd  Nd1  1  0.115606  0.615251  0.500000  1
  Nd  Nd2  1  0.384749  0.115606  0.500000  1
  Nd  Nd3  1  0.615251  0.884394  0.500000  1
  Ho  Ho4  1  0.000000  0.000000  0.000000  1
  Zr  Zr5  1  0.500000  0.500000  0.000000  1
  Zr  Zr6  1  0.676180  0.177006  0.500000  1
  Zr  Zr7  1  0.323820  0.822994  0.500000  1
  Zr  Zr8  1  0.177006  0.323820  0.500000  1
  Zr  Zr9  1  0.822994  0.676180  0.500000  1
  Si  Si10  1  0.567665  0.069200  0.000000  1
  Si  Si11  1  0.432335  0.930800  0.000000  1
  Si  Si12  1  0.069200  0.432335  0.000000  1
  Si  Si13  1  0.930800  0.567665  0.000000  1
  Si  Si14  1  0.663596  0.700364  0.000000  1
  Si  Si15  1  0.336404  0.299636  0.000000  1
  Si  Si16  1  0.162331  0.801351  0.000000  1
  Si  Si17  1  0.837669  0.198649  0.000000  1
  Si  Si18  1  0.299636  0.663596  0.000000  1
  Si  Si19  1  0.700364  0.336404  0.000000  1
  Si  Si20  1  0.198649  0.162331  0.000000  1
  Si  Si21  1  0.801351  0.837669  0.000000  1
  Si  Si22  1  0.653070  0.508698  0.500000  1
  Si  Si23  1  0.346930  0.491302  0.500000  1
  Si  Si24  1  0.156274  0.991059  0.500000  1
  Si  Si25  1  0.843726  0.008941  0.500000  1
  Si  Si26  1  0.491302  0.653070  0.500000  1
  Si  Si27  1  0.508698  0.346930  0.500000  1
  Si  Si28  1  0.008941  0.156274  0.500000  1
  Si  Si29  1  0.991059  0.843726  0.500000  1
  Ir  Ir30  1  0.740278  0.523435  0.000000  1
  Ir  Ir31  1  0.259722  0.476565  0.000000  1
  Ir  Ir32  1  0.243712  0.976535  0.000000  1
  Ir  Ir33  1  0.756288  0.023465  0.000000  1
  Ir  Ir34  1  0.476565  0.740278  0.000000  1
  Ir  Ir35  1  0.523435  0.259722  0.000000  1
  Ir  Ir36  1  0.023465  0.243712  0.000000  1
  Ir  Ir37  1  0.976535  0.756288  0.000000  1
