# generated using pymatgen
data_Eu3Ta3Mn2O14
_symmetry_space_group_name_H-M   'P 1'
_cell_length_a   7.25637642
_cell_length_b   7.28281998
_cell_length_c   7.40947587
_cell_angle_alpha   118.15581547
_cell_angle_beta   61.79745267
_cell_angle_gamma   118.17302931
_symmetry_Int_Tables_number   1
_chemical_formula_structural   Eu3Ta3Mn2O14
_chemical_formula_sum   'Eu3 Ta3 Mn2 O14'
_cell_volume   288.18378539
_cell_formula_units_Z   1
loop_
 _symmetry_equiv_pos_site_id
 _symmetry_equiv_pos_as_xyz
  1  'x, y, z'
loop_
 _atom_site_type_symbol
 _atom_site_label
 _atom_site_symmetry_multiplicity
 _atom_site_fract_x
 _atom_site_fract_y
 _atom_site_fract_z
 _atom_site_occupancy
  Eu  Eu0  1  0.999987  0.499998  0.999989  1
  Eu  Eu1  1  0.500004  0.999977  0.999996  1
  Eu  Eu2  1  0.499989  0.499998  0.500019  1
  Ta  Ta3  1  0.500055  0.999944  0.499994  1
  Ta  Ta4  1  0.999984  0.500062  0.499972  1
  Ta  Ta5  1  0.999977  0.999966  0.000032  1
  Mn  Mn6  1  0.499870  0.500036  0.000129  1
  Mn  Mn7  1  0.999940  0.999959  0.500015  1
  O  O8  1  0.611730  0.386770  0.118866  1
  O  O9  1  0.388238  0.613211  0.881154  1
  O  O10  1  0.072510  0.318166  0.186684  1
  O  O11  1  0.680510  0.931485  0.186826  1
  O  O12  1  0.681642  0.316974  0.559818  1
  O  O13  1  0.927584  0.681839  0.813244  1
  O  O14  1  0.319472  0.068486  0.813138  1
  O  O15  1  0.318395  0.682957  0.440065  1
  O  O16  1  0.678986  0.927071  0.576519  1
  O  O17  1  0.075039  0.326639  0.580559  1
  O  O18  1  0.087772  0.910312  0.151025  1
  O  O19  1  0.321072  0.072995  0.423474  1
  O  O20  1  0.925024  0.673419  0.419488  1
  O  O21  1  0.912219  0.089736  0.848996  1
