# generated using pymatgen
data_AsSe31
_symmetry_space_group_name_H-M   'P 1'
_cell_length_a   13.35111295
_cell_length_b   15.64743863
_cell_length_c   5.73776075
_cell_angle_alpha   94.22308354
_cell_angle_beta   84.66299523
_cell_angle_gamma   91.03805040
_symmetry_Int_Tables_number   1
_chemical_formula_structural   AsSe31
_chemical_formula_sum   'As1 Se31'
_cell_volume   1190.16619239
_cell_formula_units_Z   1
loop_
 _symmetry_equiv_pos_site_id
 _symmetry_equiv_pos_as_xyz
  1  'x, y, z'
loop_
 _atom_site_type_symbol
 _atom_site_label
 _atom_site_symmetry_multiplicity
 _atom_site_fract_x
 _atom_site_fract_y
 _atom_site_fract_z
 _atom_site_occupancy
  As  As0  1  0.910559  0.835194  0.931221  1
  Se  Se1  1  0.077084  0.675034  0.035164  1
  Se  Se2  1  0.100797  0.532052  0.895654  1
  Se  Se3  1  0.942561  0.413840  0.459725  1
  Se  Se4  1  0.052424  0.531539  0.500419  1
  Se  Se5  1  0.468444  0.932600  0.568390  1
  Se  Se6  1  0.332870  0.022433  0.652428  1
  Se  Se7  1  0.599700  0.060468  0.097100  1
  Se  Se8  1  0.514676  0.929952  0.155853  1
  Se  Se9  1  0.839766  0.969578  0.810282  1
  Se  Se10  1  0.180487  0.925107  0.621317  1
  Se  Se11  1  0.403159  0.273924  0.217620  1
  Se  Se12  1  0.554143  0.626785  0.200668  1
  Se  Se13  1  0.729173  0.424354  0.913003  1
  Se  Se14  1  0.368622  0.485576  0.615212  1
  Se  Se15  1  0.000804  0.173154  0.227140  1
  Se  Se16  1  0.928115  0.859445  0.338428  1
  Se  Se17  1  0.234232  0.278912  0.103150  1
  Se  Se18  1  0.745439  0.748813  0.023366  1
  Se  Se19  1  0.263144  0.773465  0.573533  1
  Se  Se20  1  0.794690  0.238519  0.461575  1
  Se  Se21  1  0.156385  0.196876  0.414967  1
  Se  Se22  1  0.741129  0.794832  0.424251  1
  Se  Se23  1  0.241763  0.739156  0.954023  1
  Se  Se24  1  0.730619  0.264402  0.836233  1
  Se  Se25  1  0.769260  0.040699  0.164768  1
  Se  Se26  1  0.106442  0.927641  0.994519  1
  Se  Se27  1  0.436039  0.344257  0.580981  1
  Se  Se28  1  0.568738  0.720837  0.533722  1
  Se  Se29  1  0.773570  0.463762  0.537612  1
  Se  Se30  1  0.393303  0.557122  0.271641  1
  Se  Se31  1  0.041864  0.239672  0.886034  1
