# generated using pymatgen
data_NdHo2(P2Ir3)3
_symmetry_space_group_name_H-M   'P 1'
_cell_length_a   3.98470900
_cell_length_b   11.19287500
_cell_length_c   12.86660300
_cell_angle_alpha   90.00000000
_cell_angle_beta   90.00000000
_cell_angle_gamma   90.00000000
_symmetry_Int_Tables_number   1
_chemical_formula_structural   NdHo2(P2Ir3)3
_chemical_formula_sum   'Nd2 Ho4 P12 Ir18'
_cell_volume   573.85499387
_cell_formula_units_Z   2
loop_
 _symmetry_equiv_pos_site_id
 _symmetry_equiv_pos_as_xyz
  1  'x, y, z'
loop_
 _atom_site_type_symbol
 _atom_site_label
 _atom_site_symmetry_multiplicity
 _atom_site_fract_x
 _atom_site_fract_y
 _atom_site_fract_z
 _atom_site_occupancy
  Nd  Nd0  1  0.000000  0.500000  0.523213  1
  Nd  Nd1  1  0.500000  0.000000  0.476787  1
  Ho  Ho2  1  0.500000  0.814926  0.203735  1
  Ho  Ho3  1  0.500000  0.185074  0.203735  1
  Ho  Ho4  1  0.000000  0.685074  0.796265  1
  Ho  Ho5  1  0.000000  0.314926  0.796265  1
  P  P6  1  0.500000  0.313875  0.618671  1
  P  P7  1  0.500000  0.686125  0.618671  1
  P  P8  1  0.000000  0.186125  0.381329  1
  P  P9  1  0.000000  0.813875  0.381329  1
  P  P10  1  0.500000  0.500000  0.876761  1
  P  P11  1  0.000000  0.000000  0.123239  1
  P  P12  1  0.500000  0.845247  0.894087  1
  P  P13  1  0.500000  0.154753  0.894087  1
  P  P14  1  0.000000  0.654753  0.105913  1
  P  P15  1  0.000000  0.345247  0.105913  1
  P  P16  1  0.500000  0.500000  0.357178  1
  P  P17  1  0.000000  0.000000  0.642822  1
  Ir  Ir18  1  0.000000  0.500000  0.970793  1
  Ir  Ir19  1  0.500000  0.000000  0.029207  1
  Ir  Ir20  1  0.500000  0.292574  0.428782  1
  Ir  Ir21  1  0.500000  0.707426  0.428782  1
  Ir  Ir22  1  0.000000  0.207426  0.571218  1
  Ir  Ir23  1  0.000000  0.792574  0.571218  1
  Ir  Ir24  1  0.500000  0.869483  0.715077  1
  Ir  Ir25  1  0.500000  0.130517  0.715077  1
  Ir  Ir26  1  0.000000  0.630517  0.284923  1
  Ir  Ir27  1  0.000000  0.369483  0.284923  1
  Ir  Ir28  1  0.500000  0.336566  0.002221  1
  Ir  Ir29  1  0.500000  0.663434  0.002221  1
  Ir  Ir30  1  0.000000  0.163434  0.997779  1
  Ir  Ir31  1  0.000000  0.836566  0.997779  1
  Ir  Ir32  1  0.500000  0.500000  0.180678  1
  Ir  Ir33  1  0.000000  0.000000  0.819322  1
  Ir  Ir34  1  0.500000  0.500000  0.702755  1
  Ir  Ir35  1  0.000000  0.000000  0.297245  1
