# generated using pymatgen
data_Tb4TcI4
_symmetry_space_group_name_H-M   'P 1'
_cell_length_a   11.32037726
_cell_length_b   11.32037905
_cell_length_c   6.23641500
_cell_angle_alpha   90.00383950
_cell_angle_beta   90.00383956
_cell_angle_gamma   89.95998515
_symmetry_Int_Tables_number   1
_chemical_formula_structural   Tb4TcI4
_chemical_formula_sum   'Tb8 Tc2 I8'
_cell_volume   799.20238089
_cell_formula_units_Z   2
loop_
 _symmetry_equiv_pos_site_id
 _symmetry_equiv_pos_as_xyz
  1  'x, y, z'
loop_
 _atom_site_type_symbol
 _atom_site_label
 _atom_site_symmetry_multiplicity
 _atom_site_fract_x
 _atom_site_fract_y
 _atom_site_fract_z
 _atom_site_occupancy
  Tb  Tb0  1  0.800868  0.081835  0.000391  1
  Tb  Tb1  1  0.081835  0.800868  0.500391  1
  Tb  Tb2  1  0.081625  0.198890  0.000306  1
  Tb  Tb3  1  0.198890  0.081625  0.500306  1
  Tb  Tb4  1  0.918375  0.801110  0.999694  1
  Tb  Tb5  1  0.918165  0.199132  0.499609  1
  Tb  Tb6  1  0.199132  0.918165  0.999609  1
  Tb  Tb7  1  0.801110  0.918375  0.499694  1
  Tc  Tc8  1  0.000063  0.999937  0.250000  1
  Tc  Tc9  1  0.999937  0.000063  0.750000  1
  I  I10  1  0.642896  0.150123  0.496880  1
  I  I11  1  0.850207  0.642978  0.503137  1
  I  I12  1  0.357022  0.149793  0.996863  1
  I  I13  1  0.149793  0.357022  0.496863  1
  I  I14  1  0.642978  0.850207  0.003137  1
  I  I15  1  0.357104  0.849877  0.503120  1
  I  I16  1  0.150123  0.642896  0.996880  1
  I  I17  1  0.849877  0.357104  0.003120  1
