# generated using pymatgen
data_Pr5HoTl4In2O18
_symmetry_space_group_name_H-M   'P 1'
_cell_length_a   6.67063805
_cell_length_b   6.66786496
_cell_length_c   12.56269338
_cell_angle_alpha   90.01815854
_cell_angle_beta   90.00913290
_cell_angle_gamma   120.02513964
_symmetry_Int_Tables_number   1
_chemical_formula_structural   Pr5HoTl4In2O18
_chemical_formula_sum   'Pr5 Ho1 Tl4 In2 O18'
_cell_volume   483.79061607
_cell_formula_units_Z   1
loop_
 _symmetry_equiv_pos_site_id
 _symmetry_equiv_pos_as_xyz
  1  'x, y, z'
loop_
 _atom_site_type_symbol
 _atom_site_label
 _atom_site_symmetry_multiplicity
 _atom_site_fract_x
 _atom_site_fract_y
 _atom_site_fract_z
 _atom_site_occupancy
  Pr  Pr0  1  0.334811  0.673629  0.231699  1
  Pr  Pr1  1  0.998059  0.000406  0.264469  1
  Pr  Pr2  1  0.002147  0.000008  0.768104  1
  Pr  Pr3  1  0.338434  0.672869  0.728129  1
  Pr  Pr4  1  0.665543  0.327027  0.729622  1
  Ho  Ho5  1  0.660171  0.325110  0.228368  1
  Tl  Tl6  1  0.996497  0.663409  0.493221  1
  Tl  Tl7  1  0.998930  0.335247  0.997533  1
  Tl  Tl8  1  0.336353  0.333794  0.493294  1
  Tl  Tl9  1  0.665580  0.663150  0.997612  1
  In  In10  1  0.335462  0.001722  0.998202  1
  In  In11  1  0.667807  0.003219  0.493839  1
  O  O12  1  0.001045  0.692186  0.666255  1
  O  O13  1  0.985116  0.627634  0.322768  1
  O  O14  1  0.001488  0.359904  0.826672  1
  O  O15  1  0.987461  0.310668  0.170167  1
  O  O16  1  0.334109  0.682016  0.029149  1
  O  O17  1  0.984940  0.000194  0.461341  1
  O  O18  1  0.015123  0.000208  0.968328  1
  O  O19  1  0.347932  0.681942  0.521191  1
  O  O20  1  0.307614  0.309200  0.666283  1
  O  O21  1  0.371544  0.358228  0.322820  1
  O  O22  1  0.316614  0.011490  0.169919  1
  O  O23  1  0.641269  0.640409  0.826757  1
  O  O24  1  0.689048  0.676339  0.170261  1
  O  O25  1  0.362427  0.000039  0.828238  1
  O  O26  1  0.666060  0.318300  0.528005  1
  O  O27  1  0.652891  0.318660  0.030208  1
  O  O28  1  0.639282  0.014479  0.324183  1
  O  O29  1  0.696243  0.998513  0.666108  1
