# generated using pymatgen
data_CeY3Ge6Ir7
_symmetry_space_group_name_H-M   'P 1'
_cell_length_a   7.30468892
_cell_length_b   7.30468898
_cell_length_c   7.31553700
_cell_angle_alpha   109.50131235
_cell_angle_beta   109.50131250
_cell_angle_gamma   109.44111579
_symmetry_Int_Tables_number   1
_chemical_formula_structural   CeY3Ge6Ir7
_chemical_formula_sum   'Ce1 Y3 Ge6 Ir7'
_cell_volume   300.37676475
_cell_formula_units_Z   1
loop_
 _symmetry_equiv_pos_site_id
 _symmetry_equiv_pos_as_xyz
  1  'x, y, z'
loop_
 _atom_site_type_symbol
 _atom_site_label
 _atom_site_symmetry_multiplicity
 _atom_site_fract_x
 _atom_site_fract_y
 _atom_site_fract_z
 _atom_site_occupancy
  Ce  Ce0  1  0.000000  0.000000  0.500000  1
  Y  Y1  1  0.000000  0.500000  0.000000  1
  Y  Y2  1  0.500000  0.000000  0.000000  1
  Y  Y3  1  0.500000  0.500000  0.500000  1
  Ge  Ge4  1  0.679470  0.679470  0.997314  1
  Ge  Ge5  1  0.320530  0.000000  0.317844  1
  Ge  Ge6  1  0.000000  0.320530  0.317844  1
  Ge  Ge7  1  0.320530  0.320530  0.002686  1
  Ge  Ge8  1  0.679470  0.000000  0.682156  1
  Ge  Ge9  1  0.000000  0.679470  0.682156  1
  Ir  Ir10  1  0.750632  0.249368  0.500000  1
  Ir  Ir11  1  0.750632  0.501265  0.250632  1
  Ir  Ir12  1  0.498735  0.249368  0.749368  1
  Ir  Ir13  1  0.249368  0.498735  0.749368  1
  Ir  Ir14  1  0.249368  0.750632  0.500000  1
  Ir  Ir15  1  0.501265  0.750632  0.250632  1
  Ir  Ir16  1  0.000000  0.000000  0.000000  1
