# generated using pymatgen
data_LuZr2PdF15
_symmetry_space_group_name_H-M   'P 1'
_cell_length_a   8.06785866
_cell_length_b   8.06785893
_cell_length_c   8.06816956
_cell_angle_alpha   79.86756834
_cell_angle_beta   79.86756840
_cell_angle_gamma   100.08379253
_symmetry_Int_Tables_number   1
_chemical_formula_structural   LuZr2PdF15
_chemical_formula_sum   'Lu2 Zr4 Pd2 F30'
_cell_volume   497.27071343
_cell_formula_units_Z   2
loop_
 _symmetry_equiv_pos_site_id
 _symmetry_equiv_pos_as_xyz
  1  'x, y, z'
loop_
 _atom_site_type_symbol
 _atom_site_label
 _atom_site_symmetry_multiplicity
 _atom_site_fract_x
 _atom_site_fract_y
 _atom_site_fract_z
 _atom_site_occupancy
  Lu  Lu0  1  0.677080  0.322920  0.750000  1
  Lu  Lu1  1  0.322920  0.677080  0.250000  1
  Zr  Zr2  1  0.823153  0.748727  0.327124  1
  Zr  Zr3  1  0.251273  0.176847  0.172876  1
  Zr  Zr4  1  0.176847  0.251273  0.672876  1
  Zr  Zr5  1  0.748727  0.823153  0.827124  1
  Pd  Pd6  1  0.249447  0.750553  0.750000  1
  Pd  Pd7  1  0.750553  0.249447  0.250000  1
  F  F8  1  0.149870  0.186715  0.945704  1
  F  F9  1  0.688909  0.561599  0.846868  1
  F  F10  1  0.044709  0.653158  0.313447  1
  F  F11  1  0.653158  0.044709  0.813447  1
  F  F12  1  0.561599  0.688909  0.346868  1
  F  F13  1  0.186715  0.149870  0.445704  1
  F  F14  1  0.850130  0.813285  0.054296  1
  F  F15  1  0.311091  0.438401  0.153132  1
  F  F16  1  0.955291  0.346842  0.686553  1
  F  F17  1  0.346842  0.955291  0.186553  1
  F  F18  1  0.438401  0.311091  0.653132  1
  F  F19  1  0.813285  0.850130  0.554296  1
  F  F20  1  0.967652  0.032348  0.750000  1
  F  F21  1  0.540140  0.751749  0.030781  1
  F  F22  1  0.248251  0.459860  0.469219  1
  F  F23  1  0.459860  0.248251  0.969219  1
  F  F24  1  0.751749  0.540140  0.530781  1
  F  F25  1  0.032348  0.967652  0.250000  1
  F  F26  1  0.213929  0.727437  0.999191  1
  F  F27  1  0.227419  0.499736  0.788114  1
  F  F28  1  0.998468  0.714040  0.773720  1
  F  F29  1  0.714040  0.998468  0.273720  1
  F  F30  1  0.499736  0.227419  0.288114  1
  F  F31  1  0.727437  0.213929  0.499191  1
  F  F32  1  0.786071  0.272563  0.000809  1
  F  F33  1  0.772581  0.500264  0.211886  1
  F  F34  1  0.001532  0.285960  0.226280  1
  F  F35  1  0.285960  0.001532  0.726280  1
  F  F36  1  0.500264  0.772581  0.711886  1
  F  F37  1  0.272563  0.786071  0.500809  1
