# generated using pymatgen
data_CsBHBr3
_symmetry_space_group_name_H-M   'P 1'
_cell_length_a   6.06063000
_cell_length_b   6.06062940
_cell_length_c   6.06062978
_cell_angle_alpha   75.12291260
_cell_angle_beta   75.12291283
_cell_angle_gamma   75.12291418
_symmetry_Int_Tables_number   1
_chemical_formula_structural   CsBHBr3
_chemical_formula_sum   'Cs1 B1 H1 Br3'
_cell_volume   203.55439488
_cell_formula_units_Z   1
loop_
 _symmetry_equiv_pos_site_id
 _symmetry_equiv_pos_as_xyz
  1  'x, y, z'
loop_
 _atom_site_type_symbol
 _atom_site_label
 _atom_site_symmetry_multiplicity
 _atom_site_fract_x
 _atom_site_fract_y
 _atom_site_fract_z
 _atom_site_occupancy
  Cs  Cs0  1  0.973134  0.973134  0.973134  1
  B  B1  1  0.491951  0.491951  0.491951  1
  H  H2  1  0.399609  0.399609  0.399609  1
  Br  Br3  1  0.394123  0.394123  0.847060  1
  Br  Br4  1  0.394123  0.847060  0.394123  1
  Br  Br5  1  0.847060  0.394123  0.394123  1
