# generated using pymatgen
data_BeNi5Mo6C
_symmetry_space_group_name_H-M   'P 1'
_cell_length_a   7.65543372
_cell_length_b   7.67469750
_cell_length_c   7.67469751
_cell_angle_alpha   60.29867030
_cell_angle_beta   60.08299503
_cell_angle_gamma   60.08299884
_symmetry_Int_Tables_number   1
_chemical_formula_structural   BeNi5Mo6C
_chemical_formula_sum   'Be2 Ni10 Mo12 C2'
_cell_volume   319.95890161
_cell_formula_units_Z   2
loop_
 _symmetry_equiv_pos_site_id
 _symmetry_equiv_pos_as_xyz
  1  'x, y, z'
loop_
 _atom_site_type_symbol
 _atom_site_label
 _atom_site_symmetry_multiplicity
 _atom_site_fract_x
 _atom_site_fract_y
 _atom_site_fract_z
 _atom_site_occupancy
  Be  Be0  1  0.625000  0.125000  0.125000  1
  Be  Be1  1  0.125000  0.125000  0.125000  1
  Ni  Ni2  1  0.334681  0.325256  0.005382  1
  Ni  Ni3  1  0.340502  0.326755  0.326755  1
  Ni  Ni4  1  0.244012  0.923245  0.923245  1
  Ni  Ni5  1  0.909498  0.923245  0.923245  1
  Ni  Ni6  1  0.005988  0.326755  0.326755  1
  Ni  Ni7  1  0.334681  0.005382  0.325256  1
  Ni  Ni8  1  0.125000  0.625000  0.125000  1
  Ni  Ni9  1  0.125000  0.125000  0.625000  1
  Ni  Ni10  1  0.915319  0.924744  0.244618  1
  Ni  Ni11  1  0.915319  0.244618  0.924744  1
  Mo  Mo12  1  0.300612  0.699388  0.699388  1
  Mo  Mo13  1  0.698430  0.698075  0.301962  1
  Mo  Mo14  1  0.698430  0.301962  0.698075  1
  Mo  Mo15  1  0.301533  0.698075  0.301962  1
  Mo  Mo16  1  0.551570  0.948038  0.551925  1
  Mo  Mo17  1  0.551837  0.948163  0.948163  1
  Mo  Mo18  1  0.949388  0.550612  0.550612  1
  Mo  Mo19  1  0.948467  0.551925  0.948038  1
  Mo  Mo20  1  0.301533  0.301962  0.698075  1
  Mo  Mo21  1  0.551570  0.551925  0.948038  1
  Mo  Mo22  1  0.948467  0.948038  0.551925  1
  Mo  Mo23  1  0.698163  0.301837  0.301837  1
  C  C24  1  0.498692  0.501308  0.501308  1
  C  C25  1  0.751308  0.748692  0.748692  1
