# generated using pymatgen
data_Ac3Pr(MgIr)4
_symmetry_space_group_name_H-M   'P 1'
_cell_length_a   4.30145100
_cell_length_b   7.48707286
_cell_length_c   8.88912157
_cell_angle_alpha   89.87137950
_cell_angle_beta   90.00000000
_cell_angle_gamma   90.00000000
_symmetry_Int_Tables_number   1
_chemical_formula_structural   Ac3Pr(MgIr)4
_chemical_formula_sum   'Ac3 Pr1 Mg4 Ir4'
_cell_volume   286.27590162
_cell_formula_units_Z   1
loop_
 _symmetry_equiv_pos_site_id
 _symmetry_equiv_pos_as_xyz
  1  'x, y, z'
loop_
 _atom_site_type_symbol
 _atom_site_label
 _atom_site_symmetry_multiplicity
 _atom_site_fract_x
 _atom_site_fract_y
 _atom_site_fract_z
 _atom_site_occupancy
  Ac  Ac0  1  0.250000  0.038339  0.319100  1
  Ac  Ac1  1  0.750000  0.960408  0.681249  1
  Ac  Ac2  1  0.250000  0.538959  0.177090  1
  Pr  Pr3  1  0.750000  0.457951  0.820590  1
  Mg  Mg4  1  0.250000  0.135227  0.942432  1
  Mg  Mg5  1  0.750000  0.869851  0.052764  1
  Mg  Mg6  1  0.250000  0.626132  0.560079  1
  Mg  Mg7  1  0.750000  0.372025  0.448877  1
  Ir  Ir8  1  0.750000  0.242939  0.121017  1
  Ir  Ir9  1  0.250000  0.756491  0.873392  1
  Ir  Ir10  1  0.750000  0.739763  0.375035  1
  Ir  Ir11  1  0.250000  0.261914  0.628376  1
