# generated using pymatgen
data_NaInSnBr6
_symmetry_space_group_name_H-M   'P 1'
_cell_length_a   7.80176113
_cell_length_b   7.80167668
_cell_length_c   7.80129000
_cell_angle_alpha   55.99895677
_cell_angle_beta   55.99840952
_cell_angle_gamma   55.99741429
_symmetry_Int_Tables_number   1
_chemical_formula_structural   NaInSnBr6
_chemical_formula_sum   'Na1 In1 Sn1 Br6'
_cell_volume   304.63407812
_cell_formula_units_Z   1
loop_
 _symmetry_equiv_pos_site_id
 _symmetry_equiv_pos_as_xyz
  1  'x, y, z'
loop_
 _atom_site_type_symbol
 _atom_site_label
 _atom_site_symmetry_multiplicity
 _atom_site_fract_x
 _atom_site_fract_y
 _atom_site_fract_z
 _atom_site_occupancy
  Na  Na0  1  0.669870  0.669873  0.669870  1
  In  In1  1  0.999609  0.999550  0.999605  1
  Sn  Sn2  1  0.330854  0.330883  0.330858  1
  Br  Br3  1  0.227489  0.619310  0.911366  1
  Br  Br4  1  0.619296  0.911380  0.227464  1
  Br  Br5  1  0.911384  0.227474  0.619261  1
  Br  Br6  1  0.772891  0.381360  0.087299  1
  Br  Br7  1  0.381358  0.087253  0.772919  1
  Br  Br8  1  0.087252  0.772916  0.381359  1
