# generated using pymatgen
data_Ho8AlZnPd23
_symmetry_space_group_name_H-M   'P 1'
_cell_length_a   8.24379200
_cell_length_b   8.35542200
_cell_length_c   8.39321500
_cell_angle_alpha   90.00000000
_cell_angle_beta   90.00000000
_cell_angle_gamma   90.00000000
_symmetry_Int_Tables_number   1
_chemical_formula_structural   Ho8AlZnPd23
_chemical_formula_sum   'Ho8 Al1 Zn1 Pd23'
_cell_volume   578.12767949
_cell_formula_units_Z   1
loop_
 _symmetry_equiv_pos_site_id
 _symmetry_equiv_pos_as_xyz
  1  'x, y, z'
loop_
 _atom_site_type_symbol
 _atom_site_label
 _atom_site_symmetry_multiplicity
 _atom_site_fract_x
 _atom_site_fract_y
 _atom_site_fract_z
 _atom_site_occupancy
  Ho  Ho0  1  0.251758  0.245741  0.261174  1
  Ho  Ho1  1  0.747451  0.746459  0.748515  1
  Ho  Ho2  1  0.747451  0.746459  0.251485  1
  Ho  Ho3  1  0.747451  0.253541  0.748515  1
  Ho  Ho4  1  0.251758  0.245741  0.738826  1
  Ho  Ho5  1  0.251758  0.754259  0.261174  1
  Ho  Ho6  1  0.251758  0.754259  0.738826  1
  Ho  Ho7  1  0.747451  0.253541  0.251485  1
  Al  Al8  1  0.997112  0.000000  0.000000  1
  Zn  Zn9  1  0.269090  0.500000  0.000000  1
  Pd  Pd10  1  0.743196  0.500000  0.000000  1
  Pd  Pd11  1  0.997436  0.258444  0.500000  1
  Pd  Pd12  1  0.491284  0.263278  0.000000  1
  Pd  Pd13  1  0.997436  0.741556  0.500000  1
  Pd  Pd14  1  0.491284  0.736722  0.000000  1
  Pd  Pd15  1  0.501101  0.000000  0.259965  1
  Pd  Pd16  1  0.258331  0.000000  0.500000  1
  Pd  Pd17  1  0.501101  0.000000  0.740035  1
  Pd  Pd18  1  0.740383  0.000000  0.500000  1
  Pd  Pd19  1  0.004456  0.500000  0.259741  1
  Pd  Pd20  1  0.004456  0.500000  0.740259  1
  Pd  Pd21  1  0.252403  0.500000  0.500000  1
  Pd  Pd22  1  0.746851  0.500000  0.500000  1
  Pd  Pd23  1  0.501890  0.253497  0.500000  1
  Pd  Pd24  1  0.501890  0.746503  0.500000  1
  Pd  Pd25  1  0.493241  0.500000  0.251629  1
  Pd  Pd26  1  0.493241  0.500000  0.748371  1
  Pd  Pd27  1  0.288007  0.000000  0.000000  1
  Pd  Pd28  1  0.706578  0.000000  0.000000  1
  Pd  Pd29  1  0.013999  0.291864  0.000000  1
  Pd  Pd30  1  0.013999  0.708136  0.000000  1
  Pd  Pd31  1  0.997199  0.000000  0.286445  1
  Pd  Pd32  1  0.997199  0.000000  0.713555  1
