# generated using pymatgen
data_PrRhF7
_symmetry_space_group_name_H-M   'P 1'
_cell_length_a   5.71051500
_cell_length_b   9.18640210
_cell_length_c   12.26106520
_cell_angle_alpha   62.14678657
_cell_angle_beta   90.00000000
_cell_angle_gamma   90.00000000
_symmetry_Int_Tables_number   1
_chemical_formula_structural   PrRhF7
_chemical_formula_sum   'Pr4 Rh4 F28'
_cell_volume   568.68742097
_cell_formula_units_Z   4
loop_
 _symmetry_equiv_pos_site_id
 _symmetry_equiv_pos_as_xyz
  1  'x, y, z'
loop_
 _atom_site_type_symbol
 _atom_site_label
 _atom_site_symmetry_multiplicity
 _atom_site_fract_x
 _atom_site_fract_y
 _atom_site_fract_z
 _atom_site_occupancy
  Pr  Pr0  1  0.760708  0.810090  0.765044  1
  Pr  Pr1  1  0.260708  0.189910  0.734956  1
  Pr  Pr2  1  0.239292  0.189910  0.234956  1
  Pr  Pr3  1  0.739292  0.810090  0.265044  1
  Rh  Rh4  1  0.756005  0.273781  0.957038  1
  Rh  Rh5  1  0.256005  0.726219  0.542962  1
  Rh  Rh6  1  0.243995  0.726219  0.042962  1
  Rh  Rh7  1  0.743995  0.273781  0.457038  1
  F  F8  1  0.431905  0.708295  0.917104  1
  F  F9  1  0.931905  0.291705  0.582896  1
  F  F10  1  0.568095  0.291705  0.082896  1
  F  F11  1  0.068095  0.708295  0.417104  1
  F  F12  1  0.453388  0.281825  0.539229  1
  F  F13  1  0.953388  0.718175  0.960771  1
  F  F14  1  0.546612  0.718175  0.460771  1
  F  F15  1  0.046612  0.281825  0.039229  1
  F  F16  1  0.765471  0.511596  0.862920  1
  F  F17  1  0.265471  0.488404  0.637080  1
  F  F18  1  0.234529  0.488404  0.137080  1
  F  F19  1  0.734529  0.511596  0.362920  1
  F  F20  1  0.758286  0.035909  0.047884  1
  F  F21  1  0.258286  0.964091  0.452116  1
  F  F22  1  0.241714  0.964091  0.952116  1
  F  F23  1  0.741714  0.035909  0.547884  1
  F  F24  1  0.970319  0.729141  0.629516  1
  F  F25  1  0.470319  0.270859  0.870484  1
  F  F26  1  0.029681  0.270859  0.370484  1
  F  F27  1  0.529681  0.729141  0.129516  1
  F  F28  1  0.058854  0.741766  0.171108  1
  F  F29  1  0.558854  0.258234  0.328892  1
  F  F30  1  0.941146  0.258234  0.828892  1
  F  F31  1  0.441146  0.741766  0.671108  1
  F  F32  1  0.404946  0.966545  0.229836  1
  F  F33  1  0.904946  0.033455  0.270164  1
  F  F34  1  0.595054  0.033455  0.770164  1
  F  F35  1  0.095054  0.966545  0.729836  1
