# generated using pymatgen
data_Nd7Th(As2Au)8
_symmetry_space_group_name_H-M   'P 1'
_cell_length_a   5.86834900
_cell_length_b   5.89871079
_cell_length_c   20.66415400
_cell_angle_alpha   89.52843477
_cell_angle_beta   90.00068345
_cell_angle_gamma   89.99997649
_symmetry_Int_Tables_number   1
_chemical_formula_structural   Nd7Th(As2Au)8
_chemical_formula_sum   'Nd7 Th1 As16 Au8'
_cell_volume   715.27979523
_cell_formula_units_Z   1
loop_
 _symmetry_equiv_pos_site_id
 _symmetry_equiv_pos_as_xyz
  1  'x, y, z'
loop_
 _atom_site_type_symbol
 _atom_site_label
 _atom_site_symmetry_multiplicity
 _atom_site_fract_x
 _atom_site_fract_y
 _atom_site_fract_z
 _atom_site_occupancy
  Nd  Nd0  1  0.749994  0.007626  0.383117  1
  Nd  Nd1  1  0.750003  0.986032  0.880151  1
  Nd  Nd2  1  0.249992  0.012890  0.121108  1
  Nd  Nd3  1  0.750002  0.493545  0.611532  1
  Nd  Nd4  1  0.250011  0.508033  0.383546  1
  Nd  Nd5  1  0.249999  0.486992  0.884044  1
  Nd  Nd6  1  0.749997  0.512535  0.117672  1
  Th  Th7  1  0.250001  0.992627  0.619337  1
  As  As8  1  0.750001  0.993854  0.655728  1
  As  As9  1  0.250000  0.008495  0.341519  1
  As  As10  1  0.249998  0.988511  0.838968  1
  As  As11  1  0.749993  0.011627  0.160063  1
  As  As12  1  0.250005  0.492985  0.654847  1
  As  As13  1  0.750004  0.508369  0.343796  1
  As  As14  1  0.750004  0.488645  0.840457  1
  As  As15  1  0.250003  0.511258  0.159218  1
  As  As16  1  0.025253  0.223516  0.501153  1
  As  As17  1  0.477250  0.775373  0.500937  1
  As  As18  1  0.972411  0.222605  0.998808  1
  As  As19  1  0.471698  0.778426  0.000557  1
  As  As20  1  0.022780  0.775356  0.500937  1
  As  As21  1  0.474755  0.223516  0.501154  1
  As  As22  1  0.028300  0.778422  0.000556  1
  As  As23  1  0.527587  0.222601  0.998807  1
  Au  Au24  1  0.500361  0.731495  0.748949  1
  Au  Au25  1  0.999227  0.266868  0.251403  1
  Au  Au26  1  0.500773  0.266870  0.251398  1
  Au  Au27  1  0.999622  0.731500  0.748940  1
  Au  Au28  1  0.500630  0.235014  0.749227  1
  Au  Au29  1  0.999487  0.764696  0.251416  1
  Au  Au30  1  0.500501  0.764699  0.251420  1
  Au  Au31  1  0.999358  0.235018  0.749232  1
