# generated using pymatgen
data_Hf6Ti2Al14GaCo7
_symmetry_space_group_name_H-M   'P 1'
_cell_length_a   8.59818758
_cell_length_b   8.59815696
_cell_length_c   8.60109007
_cell_angle_alpha   120.33746758
_cell_angle_beta   119.78715769
_cell_angle_gamma   89.88010163
_symmetry_Int_Tables_number   1
_chemical_formula_structural   Hf6Ti2Al14GaCo7
_chemical_formula_sum   'Hf6 Ti2 Al14 Ga1 Co7'
_cell_volume   449.23755935
_cell_formula_units_Z   1
loop_
 _symmetry_equiv_pos_site_id
 _symmetry_equiv_pos_as_xyz
  1  'x, y, z'
loop_
 _atom_site_type_symbol
 _atom_site_label
 _atom_site_symmetry_multiplicity
 _atom_site_fract_x
 _atom_site_fract_y
 _atom_site_fract_z
 _atom_site_occupancy
  Hf  Hf0  1  0.794755  0.289820  0.076461  1
  Hf  Hf1  1  0.213437  0.289662  0.494971  1
  Hf  Hf2  1  0.207131  0.707139  0.499939  1
  Hf  Hf3  1  0.213416  0.718330  0.923635  1
  Hf  Hf4  1  0.794612  0.718417  0.504905  1
  Hf  Hf5  1  0.783384  0.283342  0.499985  1
  Ti  Ti6  1  0.380615  0.120955  0.740428  1
  Ti  Ti7  1  0.380518  0.640228  0.259567  1
  Al  Al8  1  0.164474  0.336788  0.172362  1
  Al  Al9  1  0.164326  0.992033  0.827437  1
  Al  Al10  1  0.160748  0.338345  0.822066  1
  Al  Al11  1  0.516363  0.338582  0.177777  1
  Al  Al12  1  0.836407  0.662415  0.825910  1
  Al  Al13  1  0.836539  0.010456  0.174184  1
  Al  Al14  1  0.836492  0.663397  0.173392  1
  Al  Al15  1  0.489938  0.663171  0.826743  1
  Al  Al16  1  0.380226  0.120266  0.259875  1
  Al  Al17  1  0.860401  0.120297  0.740039  1
  Al  Al18  1  0.618639  0.877008  0.258436  1
  Al  Al19  1  0.618627  0.360235  0.741656  1
  Al  Al20  1  0.617804  0.878836  0.738880  1
  Al  Al21  1  0.139946  0.878928  0.261144  1
  Ga  Ga22  1  0.993774  0.493816  0.500093  1
  Co  Co23  1  0.002434  0.001628  0.503020  1
  Co  Co24  1  0.498598  0.001621  0.999328  1
  Co  Co25  1  0.497301  0.497335  0.000039  1
  Co  Co26  1  0.498502  0.499423  0.496828  1
  Co  Co27  1  0.002482  0.499343  0.000838  1
  Co  Co28  1  0.000829  0.000875  0.000033  1
  Co  Co29  1  0.497274  0.997302  0.500030  1
