# generated using pymatgen
data_Ho3Tm3Th2(MgCo)2
_symmetry_space_group_name_H-M   'P 1'
_cell_length_a   9.54271782
_cell_length_b   9.54271738
_cell_length_c   9.54271800
_cell_angle_alpha   59.99999784
_cell_angle_beta   59.99999937
_cell_angle_gamma   60.00000005
_symmetry_Int_Tables_number   1
_chemical_formula_structural   Ho3Tm3Th2(MgCo)2
_chemical_formula_sum   'Ho6 Tm6 Th4 Mg4 Co4'
_cell_volume   614.47076739
_cell_formula_units_Z   2
loop_
 _symmetry_equiv_pos_site_id
 _symmetry_equiv_pos_as_xyz
  1  'x, y, z'
loop_
 _atom_site_type_symbol
 _atom_site_label
 _atom_site_symmetry_multiplicity
 _atom_site_fract_x
 _atom_site_fract_y
 _atom_site_fract_z
 _atom_site_occupancy
  Ho  Ho0  1  0.935364  0.564636  0.564636  1
  Ho  Ho1  1  0.564636  0.935364  0.935364  1
  Ho  Ho2  1  0.564636  0.935364  0.564636  1
  Ho  Ho3  1  0.935364  0.564636  0.935364  1
  Ho  Ho4  1  0.564636  0.564636  0.935364  1
  Ho  Ho5  1  0.935364  0.935364  0.564636  1
  Tm  Tm6  1  0.814355  0.185645  0.185645  1
  Tm  Tm7  1  0.185645  0.814355  0.814355  1
  Tm  Tm8  1  0.185645  0.814355  0.185645  1
  Tm  Tm9  1  0.814355  0.185645  0.814355  1
  Tm  Tm10  1  0.185645  0.185645  0.814355  1
  Tm  Tm11  1  0.814355  0.814355  0.185645  1
  Th  Th12  1  0.344920  0.344920  0.344920  1
  Th  Th13  1  0.344920  0.344920  0.965242  1
  Th  Th14  1  0.344920  0.965242  0.344920  1
  Th  Th15  1  0.965242  0.344920  0.344920  1
  Mg  Mg16  1  0.580161  0.580161  0.580161  1
  Mg  Mg17  1  0.580161  0.580161  0.259514  1
  Mg  Mg18  1  0.580161  0.259514  0.580161  1
  Mg  Mg19  1  0.259514  0.580161  0.580161  1
  Co  Co20  1  0.144308  0.144308  0.144308  1
  Co  Co21  1  0.144308  0.144308  0.567076  1
  Co  Co22  1  0.144308  0.567076  0.144308  1
  Co  Co23  1  0.567076  0.144308  0.144308  1
