# generated using pymatgen
data_CeHoTcC2
_symmetry_space_group_name_H-M   'P 1'
_cell_length_a   5.18123400
_cell_length_b   6.51114700
_cell_length_c   9.86303000
_cell_angle_alpha   90.00000000
_cell_angle_beta   90.00000000
_cell_angle_gamma   90.00000000
_symmetry_Int_Tables_number   1
_chemical_formula_structural   CeHoTcC2
_chemical_formula_sum   'Ce4 Ho4 Tc4 C8'
_cell_volume   332.73697289
_cell_formula_units_Z   4
loop_
 _symmetry_equiv_pos_site_id
 _symmetry_equiv_pos_as_xyz
  1  'x, y, z'
loop_
 _atom_site_type_symbol
 _atom_site_label
 _atom_site_symmetry_multiplicity
 _atom_site_fract_x
 _atom_site_fract_y
 _atom_site_fract_z
 _atom_site_occupancy
  Ce  Ce0  1  0.250000  0.470529  0.782560  1
  Ce  Ce1  1  0.750000  0.029471  0.282560  1
  Ce  Ce2  1  0.250000  0.970529  0.717440  1
  Ce  Ce3  1  0.750000  0.529471  0.217440  1
  Ho  Ho4  1  0.250000  0.821752  0.053678  1
  Ho  Ho5  1  0.750000  0.678248  0.553678  1
  Ho  Ho6  1  0.250000  0.321752  0.446322  1
  Ho  Ho7  1  0.750000  0.178248  0.946322  1
  Tc  Tc8  1  0.250000  0.280093  0.133651  1
  Tc  Tc9  1  0.750000  0.219907  0.633651  1
  Tc  Tc10  1  0.250000  0.780093  0.366349  1
  Tc  Tc11  1  0.750000  0.719907  0.866349  1
  C  C12  1  0.250000  0.174158  0.946549  1
  C  C13  1  0.750000  0.825842  0.053451  1
  C  C14  1  0.250000  0.674158  0.553451  1
  C  C15  1  0.750000  0.325842  0.446549  1
  C  C16  1  0.250000  0.047396  0.258458  1
  C  C17  1  0.750000  0.452604  0.758458  1
  C  C18  1  0.250000  0.547396  0.241542  1
  C  C19  1  0.750000  0.952604  0.741542  1
