# generated using pymatgen
data_SmEuB2PdPt7
_symmetry_space_group_name_H-M   'P 1'
_cell_length_a   5.47645500
_cell_length_b   5.47645548
_cell_length_c   7.70827900
_cell_angle_alpha   90.00000000
_cell_angle_beta   90.00000000
_cell_angle_gamma   119.99999104
_symmetry_Int_Tables_number   1
_chemical_formula_structural   SmEuB2PdPt7
_chemical_formula_sum   'Sm1 Eu1 B2 Pd1 Pt7'
_cell_volume   200.21065277
_cell_formula_units_Z   1
loop_
 _symmetry_equiv_pos_site_id
 _symmetry_equiv_pos_as_xyz
  1  'x, y, z'
loop_
 _atom_site_type_symbol
 _atom_site_label
 _atom_site_symmetry_multiplicity
 _atom_site_fract_x
 _atom_site_fract_y
 _atom_site_fract_z
 _atom_site_occupancy
  Sm  Sm0  1  0.000000  0.000000  0.500000  1
  Eu  Eu1  1  0.000000  0.000000  0.000000  1
  B  B2  1  0.666667  0.333333  0.500000  1
  B  B3  1  0.333333  0.666667  0.500000  1
  Pd  Pd4  1  0.666667  0.333333  0.000000  1
  Pt  Pt5  1  0.499911  0.500089  0.698899  1
  Pt  Pt6  1  0.499911  0.999822  0.698899  1
  Pt  Pt7  1  0.000178  0.500089  0.698899  1
  Pt  Pt8  1  0.499911  0.500089  0.301101  1
  Pt  Pt9  1  0.499911  0.999822  0.301101  1
  Pt  Pt10  1  0.000178  0.500089  0.301101  1
  Pt  Pt11  1  0.333333  0.666667  0.000000  1
