# generated using pymatgen
data_EuAs12Os3Ru
_symmetry_space_group_name_H-M   'P 1'
_cell_length_a   7.50920586
_cell_length_b   7.50275221
_cell_length_c   7.50275303
_cell_angle_alpha   109.45378689
_cell_angle_beta   109.48864991
_cell_angle_gamma   109.48864073
_symmetry_Int_Tables_number   1
_chemical_formula_structural   EuAs12Os3Ru
_chemical_formula_sum   'Eu1 As12 Os3 Ru1'
_cell_volume   325.32688523
_cell_formula_units_Z   1
loop_
 _symmetry_equiv_pos_site_id
 _symmetry_equiv_pos_as_xyz
  1  'x, y, z'
loop_
 _atom_site_type_symbol
 _atom_site_label
 _atom_site_symmetry_multiplicity
 _atom_site_fract_x
 _atom_site_fract_y
 _atom_site_fract_z
 _atom_site_occupancy
  Eu  Eu0  1  0.000000  0.000000  0.000000  1
  As  As1  1  0.348107  0.197838  0.850510  1
  As  As2  1  0.651893  0.802162  0.149490  1
  As  As3  1  0.652299  0.502572  0.850580  1
  As  As4  1  0.347701  0.497428  0.149420  1
  As  As5  1  0.198280  0.850580  0.348009  1
  As  As6  1  0.801720  0.149420  0.651991  1
  As  As7  1  0.502404  0.850510  0.652673  1
  As  As8  1  0.497596  0.149490  0.347327  1
  As  As9  1  0.849731  0.347327  0.197838  1
  As  As10  1  0.150269  0.652673  0.802162  1
  As  As11  1  0.850271  0.651991  0.502572  1
  As  As12  1  0.149729  0.348009  0.497428  1
  Os  Os13  1  0.000000  0.000000  0.500000  1
  Os  Os14  1  0.000000  0.500000  0.000000  1
  Os  Os15  1  0.500000  0.500000  0.500000  1
  Ru  Ru16  1  0.500000  0.000000  0.000000  1
