# generated using pymatgen
data_TbDy7Hf3Si16Mo9
_symmetry_space_group_name_H-M   'P 1'
_cell_length_a   6.98591220
_cell_length_b   6.98601736
_cell_length_c   12.92584901
_cell_angle_alpha   89.93430527
_cell_angle_beta   90.06111205
_cell_angle_gamma   89.81859547
_symmetry_Int_Tables_number   1
_chemical_formula_structural   TbDy7Hf3Si16Mo9
_chemical_formula_sum   'Tb1 Dy7 Hf3 Si16 Mo9'
_cell_volume   630.82536963
_cell_formula_units_Z   1
loop_
 _symmetry_equiv_pos_site_id
 _symmetry_equiv_pos_as_xyz
  1  'x, y, z'
loop_
 _atom_site_type_symbol
 _atom_site_label
 _atom_site_symmetry_multiplicity
 _atom_site_fract_x
 _atom_site_fract_y
 _atom_site_fract_z
 _atom_site_occupancy
  Tb  Tb0  1  0.660377  0.005011  0.279655  1
  Dy  Dy1  1  0.999781  0.338145  0.216635  1
  Dy  Dy2  1  0.004818  0.660210  0.720382  1
  Dy  Dy3  1  0.160533  0.496956  0.468350  1
  Dy  Dy4  1  0.500343  0.841427  0.031006  1
  Dy  Dy5  1  0.841462  0.500350  0.968903  1
  Dy  Dy6  1  0.496949  0.160560  0.531735  1
  Dy  Dy7  1  0.338084  0.999753  0.783342  1
  Hf  Hf8  1  0.831686  0.831632  0.500055  1
  Hf  Hf9  1  0.329704  0.669279  0.247701  1
  Hf  Hf10  1  0.669319  0.329743  0.752300  1
  Si  Si11  1  0.370569  0.295441  0.316753  1
  Si  Si12  1  0.627374  0.705950  0.817311  1
  Si  Si13  1  0.204211  0.871985  0.567806  1
  Si  Si14  1  0.125475  0.804554  0.934716  1
  Si  Si15  1  0.804603  0.125539  0.065145  1
  Si  Si16  1  0.872184  0.204402  0.432362  1
  Si  Si17  1  0.295256  0.370732  0.683260  1
  Si  Si18  1  0.705949  0.627079  0.182636  1
  Si  Si19  1  0.286803  0.046901  0.182943  1
  Si  Si20  1  0.709408  0.957941  0.688988  1
  Si  Si21  1  0.456394  0.789985  0.437890  1
  Si  Si22  1  0.212357  0.533617  0.058412  1
  Si  Si23  1  0.533625  0.212342  0.941562  1
  Si  Si24  1  0.790144  0.456518  0.562234  1
  Si  Si25  1  0.046856  0.287076  0.816974  1
  Si  Si26  1  0.958043  0.709227  0.311038  1
  Mo  Mo27  1  0.167987  0.167981  0.999980  1
  Mo  Mo28  1  0.160488  0.994948  0.375294  1
  Mo  Mo29  1  0.833085  0.003240  0.877188  1
  Mo  Mo30  1  0.506278  0.659471  0.626623  1
  Mo  Mo31  1  0.344306  0.497841  0.873511  1
  Mo  Mo32  1  0.497757  0.344366  0.126387  1
  Mo  Mo33  1  0.659501  0.506287  0.373445  1
  Mo  Mo34  1  0.994981  0.160463  0.624764  1
  Mo  Mo35  1  0.003310  0.833051  0.122714  1
