# generated using pymatgen
data_Sr4Ga14PdAu
_symmetry_space_group_name_H-M   'P 1'
_cell_length_a   6.20671571
_cell_length_b   6.22937537
_cell_length_c   11.72709700
_cell_angle_alpha   74.59754566
_cell_angle_beta   74.65494704
_cell_angle_gamma   89.99999765
_symmetry_Int_Tables_number   1
_chemical_formula_structural   Sr4Ga14PdAu
_chemical_formula_sum   'Sr4 Ga14 Pd1 Au1'
_cell_volume   420.34092897
_cell_formula_units_Z   1
loop_
 _symmetry_equiv_pos_site_id
 _symmetry_equiv_pos_as_xyz
  1  'x, y, z'
loop_
 _atom_site_type_symbol
 _atom_site_label
 _atom_site_symmetry_multiplicity
 _atom_site_fract_x
 _atom_site_fract_y
 _atom_site_fract_z
 _atom_site_occupancy
  Sr  Sr0  1  0.999035  0.998802  0.001827  1
  Sr  Sr1  1  0.499015  0.499172  0.002115  1
  Sr  Sr2  1  0.750551  0.250337  0.499320  1
  Sr  Sr3  1  0.250244  0.750526  0.498954  1
  Ga  Ga4  1  0.198976  0.199072  0.601666  1
  Ga  Ga5  1  0.809485  0.809347  0.381515  1
  Ga  Ga6  1  0.618631  0.123576  0.253042  1
  Ga  Ga7  1  0.127932  0.623308  0.252962  1
  Ga  Ga8  1  0.618902  0.623357  0.252894  1
  Ga  Ga9  1  0.128036  0.123651  0.253170  1
  Ga  Ga10  1  0.881174  0.373568  0.748473  1
  Ga  Ga11  1  0.370423  0.878003  0.748727  1
  Ga  Ga12  1  0.881098  0.877768  0.748556  1
  Ga  Ga13  1  0.370314  0.373248  0.748777  1
  Ga  Ga14  1  0.692746  0.692454  0.614522  1
  Ga  Ga15  1  0.058106  0.558532  0.884001  1
  Ga  Ga16  1  0.444046  0.943773  0.111653  1
  Ga  Ga17  1  0.941055  0.441409  0.117095  1
  Pd  Pd18  1  0.313878  0.314042  0.372546  1
  Au  Au19  1  0.561181  0.060879  0.878521  1
