# generated using pymatgen
data_RbBa3Na32(GaAs2)12
_symmetry_space_group_name_H-M   'P 1'
_cell_length_a   22.76770208
_cell_length_b   4.75864200
_cell_length_c   17.20354778
_cell_angle_alpha   90.00000000
_cell_angle_beta   90.03482427
_cell_angle_gamma   90.00000000
_symmetry_Int_Tables_number   1
_chemical_formula_structural   RbBa3Na32(GaAs2)12
_chemical_formula_sum   'Rb1 Ba3 Na32 Ga12 As24'
_cell_volume   1863.88953912
_cell_formula_units_Z   1
loop_
 _symmetry_equiv_pos_site_id
 _symmetry_equiv_pos_as_xyz
  1  'x, y, z'
loop_
 _atom_site_type_symbol
 _atom_site_label
 _atom_site_symmetry_multiplicity
 _atom_site_fract_x
 _atom_site_fract_y
 _atom_site_fract_z
 _atom_site_occupancy
  Rb  Rb0  1  0.995733  0.750000  0.308226  1
  Ba  Ba1  1  0.509176  0.250000  0.808305  1
  Ba  Ba2  1  0.009208  0.250000  0.690719  1
  Ba  Ba3  1  0.490552  0.750000  0.191228  1
  Na  Na4  1  0.553958  0.250000  0.030766  1
  Na  Na5  1  0.050922  0.250000  0.465107  1
  Na  Na6  1  0.445978  0.750000  0.969327  1
  Na  Na7  1  0.945573  0.750000  0.529041  1
  Na  Na8  1  0.558461  0.250000  0.353875  1
  Na  Na9  1  0.057447  0.250000  0.149611  1
  Na  Na10  1  0.441326  0.750000  0.646547  1
  Na  Na11  1  0.941307  0.750000  0.853783  1
  Na  Na12  1  0.678605  0.250000  0.914485  1
  Na  Na13  1  0.178203  0.250000  0.583512  1
  Na  Na14  1  0.321035  0.750000  0.086095  1
  Na  Na15  1  0.820754  0.750000  0.419562  1
  Na  Na16  1  0.683946  0.250000  0.696275  1
  Na  Na17  1  0.183824  0.250000  0.803600  1
  Na  Na18  1  0.318262  0.750000  0.303088  1
  Na  Na19  1  0.817485  0.750000  0.192913  1
  Na  Na20  1  0.690710  0.250000  0.460184  1
  Na  Na21  1  0.189816  0.250000  0.040778  1
  Na  Na22  1  0.309870  0.750000  0.539376  1
  Na  Na23  1  0.810058  0.750000  0.959360  1
  Na  Na24  1  0.836441  0.250000  0.798050  1
  Na  Na25  1  0.336248  0.250000  0.701771  1
  Na  Na26  1  0.163475  0.750000  0.202800  1
  Na  Na27  1  0.664037  0.750000  0.299025  1
  Na  Na28  1  0.839985  0.250000  0.582291  1
  Na  Na29  1  0.341148  0.250000  0.917947  1
  Na  Na30  1  0.158370  0.750000  0.416682  1
  Na  Na31  1  0.658831  0.750000  0.080818  1
  Na  Na32  1  0.040114  0.250000  0.945964  1
  Na  Na33  1  0.540627  0.250000  0.555008  1
  Na  Na34  1  0.958483  0.750000  0.055515  1
  Na  Na35  1  0.459494  0.750000  0.445639  1
  Ga  Ga36  1  0.710877  0.250000  0.190406  1
  Ga  Ga37  1  0.214073  0.250000  0.308630  1
  Ga  Ga38  1  0.288903  0.750000  0.808620  1
  Ga  Ga39  1  0.789128  0.750000  0.691629  1
  Ga  Ga40  1  0.861029  0.250000  0.069730  1
  Ga  Ga41  1  0.364465  0.250000  0.430543  1
  Ga  Ga42  1  0.136652  0.750000  0.929943  1
  Ga  Ga43  1  0.636359  0.750000  0.570763  1
  Ga  Ga44  1  0.870614  0.250000  0.307823  1
  Ga  Ga45  1  0.371171  0.250000  0.192715  1
  Ga  Ga46  1  0.130243  0.750000  0.692629  1
  Ga  Ga47  1  0.630514  0.750000  0.806956  1
  As  As48  1  0.604742  0.250000  0.191747  1
  As  As49  1  0.110141  0.250000  0.308625  1
  As  As50  1  0.395374  0.750000  0.808797  1
  As  As51  1  0.895509  0.750000  0.691194  1
  As  As52  1  0.754709  0.250000  0.061886  1
  As  As53  1  0.258617  0.250000  0.436870  1
  As  As54  1  0.243093  0.750000  0.936422  1
  As  As55  1  0.742376  0.750000  0.564494  1
  As  As56  1  0.763067  0.250000  0.313746  1
  As  As57  1  0.264280  0.250000  0.185064  1
  As  As58  1  0.237374  0.750000  0.685652  1
  As  As59  1  0.737528  0.750000  0.814367  1
  As  As60  1  0.908273  0.250000  0.945657  1
  As  As61  1  0.410189  0.250000  0.555466  1
  As  As62  1  0.090479  0.750000  0.054210  1
  As  As63  1  0.590978  0.750000  0.445799  1
  As  As64  1  0.914818  0.250000  0.434390  1
  As  As65  1  0.423834  0.250000  0.069377  1
  As  As66  1  0.077217  0.750000  0.569781  1
  As  As67  1  0.577175  0.750000  0.929510  1
  As  As68  1  0.923986  0.250000  0.183179  1
  As  As69  1  0.428052  0.250000  0.315894  1
  As  As70  1  0.072497  0.750000  0.815398  1
  As  As71  1  0.572203  0.750000  0.684815  1
