# generated using pymatgen
data_Tb4Er4Sc12Si15Sn
_symmetry_space_group_name_H-M   'P 1'
_cell_length_a   7.12061833
_cell_length_b   7.40558742
_cell_length_c   14.05448039
_cell_angle_alpha   90.02189920
_cell_angle_beta   89.60409424
_cell_angle_gamma   90.09933901
_symmetry_Int_Tables_number   1
_chemical_formula_structural   Tb4Er4Sc12Si15Sn
_chemical_formula_sum   'Tb4 Er4 Sc12 Si15 Sn1'
_cell_volume   741.10708389
_cell_formula_units_Z   1
loop_
 _symmetry_equiv_pos_site_id
 _symmetry_equiv_pos_as_xyz
  1  'x, y, z'
loop_
 _atom_site_type_symbol
 _atom_site_label
 _atom_site_symmetry_multiplicity
 _atom_site_fract_x
 _atom_site_fract_y
 _atom_site_fract_z
 _atom_site_occupancy
  Tb  Tb0  1  0.010478  0.175818  0.096707  1
  Tb  Tb1  1  0.988735  0.825351  0.904395  1
  Tb  Tb2  1  0.490025  0.675191  0.905033  1
  Tb  Tb3  1  0.989877  0.830193  0.597700  1
  Er  Er4  1  0.509953  0.324140  0.097581  1
  Er  Er5  1  0.005205  0.170065  0.398269  1
  Er  Er6  1  0.512292  0.319787  0.399297  1
  Er  Er7  1  0.501926  0.684672  0.599705  1
  Sc  Sc8  1  0.163740  0.501882  0.754625  1
  Sc  Sc9  1  0.835738  0.497417  0.249408  1
  Sc  Sc10  1  0.336147  0.002793  0.249679  1
  Sc  Sc11  1  0.665371  0.998032  0.751604  1
  Sc  Sc12  1  0.345056  0.162903  0.630231  1
  Sc  Sc13  1  0.662480  0.824844  0.372707  1
  Sc  Sc14  1  0.162492  0.682940  0.369429  1
  Sc  Sc15  1  0.666463  0.822550  0.125152  1
  Sc  Sc16  1  0.824194  0.323841  0.626016  1
  Sc  Sc17  1  0.332135  0.176626  0.875399  1
  Sc  Sc18  1  0.831726  0.323800  0.875674  1
  Sc  Sc19  1  0.168316  0.675942  0.125361  1
  Si  Si20  1  0.036556  0.120334  0.750824  1
  Si  Si21  1  0.961963  0.884555  0.247438  1
  Si  Si22  1  0.464008  0.614194  0.249120  1
  Si  Si23  1  0.534667  0.385235  0.751597  1
  Si  Si24  1  0.288862  0.870790  0.751796  1
  Si  Si25  1  0.710413  0.127148  0.248201  1
  Si  Si26  1  0.211544  0.372390  0.249717  1
  Si  Si27  1  0.790081  0.627262  0.750813  1
  Si  Si28  1  0.829140  0.537731  0.458025  1
  Si  Si29  1  0.337491  0.964515  0.459990  1
  Si  Si30  1  0.840242  0.534733  0.039855  1
  Si  Si31  1  0.662200  0.037569  0.537231  1
  Si  Si32  1  0.157144  0.464331  0.961749  1
  Si  Si33  1  0.656739  0.037039  0.961809  1
  Si  Si34  1  0.342424  0.966110  0.040198  1
  Sn  Sn35  1  0.174175  0.457278  0.537662  1
