# generated using pymatgen
data_Sc6Sn5Pd6Pb
_symmetry_space_group_name_H-M   'P 1'
_cell_length_a   7.59907300
_cell_length_b   7.57113528
_cell_length_c   7.23564246
_cell_angle_alpha   90.03521097
_cell_angle_beta   90.00000000
_cell_angle_gamma   120.12214484
_symmetry_Int_Tables_number   1
_chemical_formula_structural   Sc6Sn5Pd6Pb
_chemical_formula_sum   'Sc6 Sn5 Pd6 Pb1'
_cell_volume   360.07535000
_cell_formula_units_Z   1
loop_
 _symmetry_equiv_pos_site_id
 _symmetry_equiv_pos_as_xyz
  1  'x, y, z'
loop_
 _atom_site_type_symbol
 _atom_site_label
 _atom_site_symmetry_multiplicity
 _atom_site_fract_x
 _atom_site_fract_y
 _atom_site_fract_z
 _atom_site_occupancy
  Sc  Sc0  1  0.398199  0.013763  0.251836  1
  Sc  Sc1  1  0.614312  0.599263  0.251013  1
  Sc  Sc2  1  0.988440  0.387149  0.251355  1
  Sc  Sc3  1  0.384436  0.986237  0.748164  1
  Sc  Sc4  1  0.601290  0.612851  0.748645  1
  Sc  Sc5  1  0.015050  0.400737  0.748987  1
  Sn  Sn6  1  0.276109  0.276113  0.500214  1
  Sn  Sn7  1  0.999996  0.723887  0.499786  1
  Sn  Sn8  1  0.000907  0.727005  0.000288  1
  Sn  Sn9  1  0.273902  0.272995  0.999712  1
  Sn  Sn10  1  0.725379  0.000000  0.500000  1
  Pd  Pd11  1  0.324943  0.659638  0.029654  1
  Pd  Pd12  1  0.333277  0.666771  0.471765  1
  Pd  Pd13  1  0.665306  0.340362  0.970346  1
  Pd  Pd14  1  0.666507  0.333229  0.528235  1
  Pd  Pd15  1  0.004300  0.000056  0.253973  1
  Pd  Pd16  1  0.004244  0.999944  0.746027  1
  Pb  Pb17  1  0.723403  0.000000  0.000000  1
