# generated using pymatgen
data_Tb2Mn2V2Ni8P7
_symmetry_space_group_name_H-M   'P 1'
_cell_length_a   9.13320872
_cell_length_b   9.14326133
_cell_length_c   3.66884700
_cell_angle_alpha   90.00000000
_cell_angle_beta   90.00000000
_cell_angle_gamma   120.03142671
_symmetry_Int_Tables_number   1
_chemical_formula_structural   Tb2Mn2V2Ni8P7
_chemical_formula_sum   'Tb2 Mn2 V2 Ni8 P7'
_cell_volume   265.24495390
_cell_formula_units_Z   1
loop_
 _symmetry_equiv_pos_site_id
 _symmetry_equiv_pos_as_xyz
  1  'x, y, z'
loop_
 _atom_site_type_symbol
 _atom_site_label
 _atom_site_symmetry_multiplicity
 _atom_site_fract_x
 _atom_site_fract_y
 _atom_site_fract_z
 _atom_site_occupancy
  Tb  Tb0  1  0.664849  0.331850  0.000000  1
  Tb  Tb1  1  0.335205  0.668579  0.500000  1
  Mn  Mn2  1  0.880613  0.156178  0.000000  1
  Mn  Mn3  1  0.118282  0.219776  0.500000  1
  V  V4  1  0.097971  0.882620  0.500000  1
  V  V5  1  0.784975  0.902236  0.500000  1
  Ni  Ni6  1  0.060015  0.626426  0.000000  1
  Ni  Ni7  1  0.568022  0.936943  0.000000  1
  Ni  Ni8  1  0.370134  0.433469  0.000000  1
  Ni  Ni9  1  0.277731  0.124236  0.000000  1
  Ni  Ni10  1  0.844619  0.719009  0.000000  1
  Ni  Ni11  1  0.436630  0.051245  0.500000  1
  Ni  Ni12  1  0.614894  0.562763  0.500000  1
  Ni  Ni13  1  0.948869  0.386352  0.500000  1
  P  P14  1  0.295473  0.887511  0.000000  1
  P  P15  1  0.591793  0.703178  0.000000  1
  P  P16  1  0.111780  0.406840  0.000000  1
  P  P17  1  0.402558  0.288955  0.500000  1
  P  P18  1  0.885506  0.596489  0.500000  1
  P  P19  1  0.711348  0.115461  0.500000  1
  P  P20  1  0.998731  0.999885  0.000000  1
