# generated using pymatgen
data_Hf6Co2TcOs3
_symmetry_space_group_name_H-M   'P 1'
_cell_length_a   4.57539200
_cell_length_b   6.49306200
_cell_length_c   13.69568100
_cell_angle_alpha   90.00000000
_cell_angle_beta   89.99997072
_cell_angle_gamma   90.00000000
_symmetry_Int_Tables_number   1
_chemical_formula_structural   Hf6Co2TcOs3
_chemical_formula_sum   'Hf12 Co4 Tc2 Os6'
_cell_volume   406.87545368
_cell_formula_units_Z   2
loop_
 _symmetry_equiv_pos_site_id
 _symmetry_equiv_pos_as_xyz
  1  'x, y, z'
loop_
 _atom_site_type_symbol
 _atom_site_label
 _atom_site_symmetry_multiplicity
 _atom_site_fract_x
 _atom_site_fract_y
 _atom_site_fract_z
 _atom_site_occupancy
  Hf  Hf0  1  0.500000  0.250196  0.000884  1
  Hf  Hf1  1  0.500000  0.749804  0.000884  1
  Hf  Hf2  1  0.000005  0.249246  0.167044  1
  Hf  Hf3  1  0.000005  0.750754  0.167044  1
  Hf  Hf4  1  0.500003  0.250740  0.333045  1
  Hf  Hf5  1  0.500003  0.749262  0.333045  1
  Hf  Hf6  1  0.000001  0.249810  0.499113  1
  Hf  Hf7  1  0.000001  0.750190  0.499113  1
  Hf  Hf8  1  0.499997  0.249529  0.666082  1
  Hf  Hf9  1  0.499997  0.750473  0.666082  1
  Hf  Hf10  1  0.999995  0.250467  0.833844  1
  Hf  Hf11  1  0.999995  0.749533  0.833844  1
  Co  Co12  1  0.999999  0.499999  0.000453  1
  Co  Co13  1  0.500013  0.000000  0.166350  1
  Co  Co14  1  0.000004  0.499999  0.333677  1
  Co  Co15  1  0.500001  0.000000  0.499558  1
  Tc  Tc16  1  0.999996  0.499999  0.665083  1
  Tc  Tc17  1  0.499994  0.000000  0.834838  1
  Os  Os18  1  0.999999  0.000000  0.003651  1
  Os  Os19  1  0.500004  0.499999  0.167931  1
  Os  Os20  1  0.000004  0.000000  0.332160  1
  Os  Os21  1  0.500000  0.499999  0.496362  1
  Os  Os22  1  0.999996  0.000000  0.664263  1
  Os  Os23  1  0.499994  0.499999  0.835653  1
