# generated using pymatgen
data_BaYSiGe3N7
_symmetry_space_group_name_H-M   'P 1'
_cell_length_a   6.31266803
_cell_length_b   6.31259297
_cell_length_c   10.18090900
_cell_angle_alpha   89.99998454
_cell_angle_beta   90.00004066
_cell_angle_gamma   120.00041484
_symmetry_Int_Tables_number   1
_chemical_formula_structural   BaYSiGe3N7
_chemical_formula_sum   'Ba2 Y2 Si2 Ge6 N14'
_cell_volume   351.34688735
_cell_formula_units_Z   2
loop_
 _symmetry_equiv_pos_site_id
 _symmetry_equiv_pos_as_xyz
  1  'x, y, z'
loop_
 _atom_site_type_symbol
 _atom_site_label
 _atom_site_symmetry_multiplicity
 _atom_site_fract_x
 _atom_site_fract_y
 _atom_site_fract_z
 _atom_site_occupancy
  Ba  Ba0  1  0.333337  0.666661  0.362565  1
  Ba  Ba1  1  0.666662  0.333339  0.862565  1
  Y  Y2  1  0.333329  0.666672  0.738385  1
  Y  Y3  1  0.666671  0.333328  0.238384  1
  Si  Si4  1  0.000004  0.999996  0.314411  1
  Si  Si5  1  0.999996  0.000004  0.814411  1
  Ge  Ge6  1  0.171899  0.343803  0.046912  1
  Ge  Ge7  1  0.828101  0.656198  0.546912  1
  Ge  Ge8  1  0.656202  0.828104  0.046911  1
  Ge  Ge9  1  0.171895  0.828107  0.046916  1
  Ge  Ge10  1  0.828105  0.171892  0.546917  1
  Ge  Ge11  1  0.343798  0.171896  0.546910  1
  N  N12  1  0.011426  0.505717  0.102906  1
  N  N13  1  0.988574  0.494283  0.602906  1
  N  N14  1  0.494290  0.505716  0.102904  1
  N  N15  1  0.494286  0.988573  0.102904  1
  N  N16  1  0.505714  0.011428  0.602904  1
  N  N17  1  0.505709  0.494284  0.602903  1
  N  N18  1  0.849404  0.698783  0.366478  1
  N  N19  1  0.150597  0.301218  0.866478  1
  N  N20  1  0.301215  0.150597  0.366479  1
  N  N21  1  0.849401  0.150602  0.366482  1
  N  N22  1  0.150599  0.849398  0.866482  1
  N  N23  1  0.698785  0.849404  0.866479  1
  N  N24  1  0.999999  0.000002  0.129649  1
  N  N25  1  0.000001  0.999997  0.629648  1
