# generated using pymatgen
data_Ni16Bi16PSBr4
_symmetry_space_group_name_H-M   'P 1'
_cell_length_a   4.17205400
_cell_length_b   9.99032609
_cell_length_c   21.07273925
_cell_angle_alpha   89.98337604
_cell_angle_beta   90.00000000
_cell_angle_gamma   90.00000000
_symmetry_Int_Tables_number   1
_chemical_formula_structural   Ni16Bi16PSBr4
_chemical_formula_sum   'Ni16 Bi16 P1 S1 Br4'
_cell_volume   878.31552670
_cell_formula_units_Z   1
loop_
 _symmetry_equiv_pos_site_id
 _symmetry_equiv_pos_as_xyz
  1  'x, y, z'
loop_
 _atom_site_type_symbol
 _atom_site_label
 _atom_site_symmetry_multiplicity
 _atom_site_fract_x
 _atom_site_fract_y
 _atom_site_fract_z
 _atom_site_occupancy
  Ni  Ni0  1  0.750656  0.312697  0.970171  1
  Ni  Ni1  1  0.750656  0.687303  0.029829  1
  Ni  Ni2  1  0.249701  0.813962  0.529399  1
  Ni  Ni3  1  0.249701  0.186038  0.470601  1
  Ni  Ni4  1  0.249379  0.588029  0.086714  1
  Ni  Ni5  1  0.249379  0.411971  0.913286  1
  Ni  Ni6  1  0.749838  0.087209  0.414261  1
  Ni  Ni7  1  0.749838  0.912791  0.585739  1
  Ni  Ni8  1  0.247471  0.323870  0.042266  1
  Ni  Ni9  1  0.247471  0.676130  0.957734  1
  Ni  Ni10  1  0.751961  0.825211  0.458229  1
  Ni  Ni11  1  0.751961  0.174789  0.541771  1
  Ni  Ni12  1  0.750088  0.438051  0.089849  1
  Ni  Ni13  1  0.750088  0.561949  0.910151  1
  Ni  Ni14  1  0.250136  0.938827  0.411292  1
  Ni  Ni15  1  0.250136  0.061173  0.588708  1
  Bi  Bi16  1  0.248853  0.381435  0.170192  1
  Bi  Bi17  1  0.248853  0.618565  0.829808  1
  Bi  Bi18  1  0.751334  0.882035  0.330173  1
  Bi  Bi19  1  0.751334  0.117965  0.669827  1
  Bi  Bi20  1  0.748937  0.167341  0.081682  1
  Bi  Bi21  1  0.748937  0.832659  0.918318  1
  Bi  Bi22  1  0.251337  0.668376  0.417970  1
  Bi  Bi23  1  0.251337  0.331624  0.582030  1
  Bi  Bi24  1  0.249638  0.145553  0.944504  1
  Bi  Bi25  1  0.249638  0.854447  0.055496  1
  Bi  Bi26  1  0.750714  0.645960  0.555344  1
  Bi  Bi27  1  0.750714  0.354040  0.444656  1
  Bi  Bi28  1  0.751311  0.668394  0.160185  1
  Bi  Bi29  1  0.751311  0.331606  0.839815  1
  Bi  Bi30  1  0.248646  0.167938  0.340337  1
  Bi  Bi31  1  0.248646  0.832062  0.659663  1
  P  P32  1  0.504677  0.000000  0.500000  1
  S  S33  1  0.496302  0.500000  0.000000  1
  Br  Br34  1  0.250386  0.008212  0.795842  1
  Br  Br35  1  0.250386  0.991788  0.204158  1
  Br  Br36  1  0.749124  0.508259  0.704013  1
  Br  Br37  1  0.749124  0.491741  0.295987  1
