# generated using pymatgen
data_Sc6Co9(SiNi)7
_symmetry_space_group_name_H-M   'P 1'
_cell_length_a   8.06863845
_cell_length_b   8.06863849
_cell_length_c   8.06498241
_cell_angle_alpha   59.98500112
_cell_angle_beta   59.98499820
_cell_angle_gamma   60.00000377
_symmetry_Int_Tables_number   1
_chemical_formula_structural   Sc6Co9(SiNi)7
_chemical_formula_sum   'Sc6 Co9 Si7 Ni7'
_cell_volume   371.18502571
_cell_formula_units_Z   1
loop_
 _symmetry_equiv_pos_site_id
 _symmetry_equiv_pos_as_xyz
  1  'x, y, z'
loop_
 _atom_site_type_symbol
 _atom_site_label
 _atom_site_symmetry_multiplicity
 _atom_site_fract_x
 _atom_site_fract_y
 _atom_site_fract_z
 _atom_site_occupancy
  Sc  Sc0  1  0.715727  0.715727  0.280803  1
  Sc  Sc1  1  0.287743  0.715727  0.280803  1
  Sc  Sc2  1  0.715727  0.287743  0.280803  1
  Sc  Sc3  1  0.282206  0.282206  0.717873  1
  Sc  Sc4  1  0.717714  0.282206  0.717873  1
  Sc  Sc5  1  0.282206  0.717714  0.717873  1
  Co  Co6  1  0.879734  0.879734  0.360798  1
  Co  Co7  1  0.879467  0.361672  0.879392  1
  Co  Co8  1  0.361672  0.879467  0.879392  1
  Co  Co9  1  0.879467  0.879467  0.879392  1
  Co  Co10  1  0.120183  0.120183  0.639451  1
  Co  Co11  1  0.120082  0.639609  0.120229  1
  Co  Co12  1  0.639609  0.120082  0.120229  1
  Co  Co13  1  0.120082  0.120082  0.120229  1
  Co  Co14  1  0.668944  0.668944  0.993167  1
  Si  Si15  1  0.000121  0.000121  0.999636  1
  Si  Si16  1  0.999860  0.999860  0.498830  1
  Si  Si17  1  0.501449  0.999860  0.498830  1
  Si  Si18  1  0.999860  0.501449  0.498830  1
  Si  Si19  1  0.499703  0.499703  0.001273  1
  Si  Si20  1  0.999320  0.499703  0.001273  1
  Si  Si21  1  0.499703  0.999320  0.001273  1
  Ni  Ni22  1  0.668648  0.993388  0.669315  1
  Ni  Ni23  1  0.993388  0.668648  0.669315  1
  Ni  Ni24  1  0.668648  0.668648  0.669315  1
  Ni  Ni25  1  0.331404  0.331404  0.005788  1
  Ni  Ni26  1  0.330452  0.006425  0.332673  1
  Ni  Ni27  1  0.006425  0.330452  0.332673  1
  Ni  Ni28  1  0.330452  0.330452  0.332673  1
