# generated using pymatgen
data_Ho7Tm(TcB6)4
_symmetry_space_group_name_H-M   'P 1'
_cell_length_a   3.66939600
_cell_length_b   9.13370000
_cell_length_c   11.50844200
_cell_angle_alpha   90.00213681
_cell_angle_beta   90.00000000
_cell_angle_gamma   90.00000000
_symmetry_Int_Tables_number   1
_chemical_formula_structural   Ho7Tm(TcB6)4
_chemical_formula_sum   'Ho7 Tm1 Tc4 B24'
_cell_volume   385.70730069
_cell_formula_units_Z   1
loop_
 _symmetry_equiv_pos_site_id
 _symmetry_equiv_pos_as_xyz
  1  'x, y, z'
loop_
 _atom_site_type_symbol
 _atom_site_label
 _atom_site_symmetry_multiplicity
 _atom_site_fract_x
 _atom_site_fract_y
 _atom_site_fract_z
 _atom_site_occupancy
  Ho  Ho0  1  0.000000  0.323918  0.414208  1
  Ho  Ho1  1  0.000000  0.676094  0.586010  1
  Ho  Ho2  1  0.000000  0.823735  0.085692  1
  Ho  Ho3  1  0.000000  0.176189  0.914160  1
  Ho  Ho4  1  0.000000  0.942859  0.369343  1
  Ho  Ho5  1  0.000000  0.057067  0.630881  1
  Ho  Ho6  1  0.000000  0.443011  0.130308  1
  Tm  Tm7  1  0.000000  0.557219  0.869057  1
  Tc  Tc8  1  0.000000  0.638856  0.320349  1
  Tc  Tc9  1  0.000000  0.361512  0.680006  1
  Tc  Tc10  1  0.000000  0.138953  0.179342  1
  Tc  Tc11  1  0.000000  0.860457  0.820560  1
  B  B12  1  0.500000  0.553364  0.433123  1
  B  B13  1  0.500000  0.446729  0.567165  1
  B  B14  1  0.500000  0.053328  0.066865  1
  B  B15  1  0.500000  0.946276  0.933020  1
  B  B16  1  0.500000  0.749137  0.418773  1
  B  B17  1  0.500000  0.251006  0.581373  1
  B  B18  1  0.500000  0.249252  0.081152  1
  B  B19  1  0.500000  0.749971  0.918732  1
  B  B20  1  0.500000  0.792227  0.265000  1
  B  B21  1  0.500000  0.208094  0.735084  1
  B  B22  1  0.500000  0.292285  0.234873  1
  B  B23  1  0.500000  0.707149  0.765261  1
  B  B24  1  0.500000  0.630870  0.185206  1
  B  B25  1  0.500000  0.369753  0.814977  1
  B  B26  1  0.500000  0.130958  0.314594  1
  B  B27  1  0.500000  0.868838  0.685551  1
  B  B28  1  0.500000  0.982221  0.211581  1
  B  B29  1  0.500000  0.017624  0.788510  1
  B  B30  1  0.500000  0.482120  0.288336  1
  B  B31  1  0.500000  0.518194  0.712074  1
  B  B32  1  0.500000  0.599837  0.027111  1
  B  B33  1  0.500000  0.400837  0.971577  1
  B  B34  1  0.500000  0.100350  0.472109  1
  B  B35  1  0.500000  0.899712  0.528037  1
