# generated using pymatgen
data_DyTmRh2O7
_symmetry_space_group_name_H-M   'P 1'
_cell_length_a   7.19836286
_cell_length_b   7.21167137
_cell_length_c   7.19836218
_cell_angle_alpha   59.93882578
_cell_angle_beta   59.87088235
_cell_angle_gamma   59.93882261
_symmetry_Int_Tables_number   1
_chemical_formula_structural   DyTmRh2O7
_chemical_formula_sum   'Dy2 Tm2 Rh4 O14'
_cell_volume   263.73111062
_cell_formula_units_Z   2
loop_
 _symmetry_equiv_pos_site_id
 _symmetry_equiv_pos_as_xyz
  1  'x, y, z'
loop_
 _atom_site_type_symbol
 _atom_site_label
 _atom_site_symmetry_multiplicity
 _atom_site_fract_x
 _atom_site_fract_y
 _atom_site_fract_z
 _atom_site_occupancy
  Dy  Dy0  1  0.125000  0.625000  0.125000  1
  Dy  Dy1  1  0.125000  0.125000  0.125000  1
  Tm  Tm2  1  0.625000  0.125000  0.125000  1
  Tm  Tm3  1  0.125000  0.125000  0.625000  1
  Rh  Rh4  1  0.125000  0.625000  0.625000  1
  Rh  Rh5  1  0.625000  0.125000  0.625000  1
  Rh  Rh6  1  0.625000  0.625000  0.125000  1
  Rh  Rh7  1  0.625000  0.625000  0.625000  1
  O  O8  1  0.710063  0.716023  0.287007  1
  O  O9  1  0.287007  0.286907  0.710063  1
  O  O10  1  0.712605  0.287395  0.712605  1
  O  O11  1  0.286606  0.713394  0.286606  1
  O  O12  1  0.287007  0.716023  0.710063  1
  O  O13  1  0.710063  0.286907  0.287007  1
  O  O14  1  0.539937  0.533977  0.962993  1
  O  O15  1  0.962993  0.963093  0.539937  1
  O  O16  1  0.537395  0.962605  0.537395  1
  O  O17  1  0.963394  0.536606  0.963394  1
  O  O18  1  0.962993  0.533977  0.539937  1
  O  O19  1  0.539937  0.963093  0.962993  1
  O  O20  1  0.252727  0.247273  0.252727  1
  O  O21  1  0.997273  0.002727  0.997273  1
