# generated using pymatgen
data_Sc2Fe10Co2P7
_symmetry_space_group_name_H-M   'P 1'
_cell_length_a   8.88123114
_cell_length_b   8.88089913
_cell_length_c   3.56840100
_cell_angle_alpha   90.00000000
_cell_angle_beta   90.00000000
_cell_angle_gamma   120.02229730
_symmetry_Int_Tables_number   1
_chemical_formula_structural   Sc2Fe10Co2P7
_chemical_formula_sum   'Sc2 Fe10 Co2 P7'
_cell_volume   243.68947490
_cell_formula_units_Z   1
loop_
 _symmetry_equiv_pos_site_id
 _symmetry_equiv_pos_as_xyz
  1  'x, y, z'
loop_
 _atom_site_type_symbol
 _atom_site_label
 _atom_site_symmetry_multiplicity
 _atom_site_fract_x
 _atom_site_fract_y
 _atom_site_fract_z
 _atom_site_occupancy
  Sc  Sc0  1  0.666056  0.332609  0.000000  1
  Sc  Sc1  1  0.000672  0.000815  0.500000  1
  Fe  Fe2  1  0.763391  0.037786  0.000000  1
  Fe  Fe3  1  0.961899  0.726587  0.000000  1
  Fe  Fe4  1  0.274605  0.238231  0.000000  1
  Fe  Fe5  1  0.493422  0.547437  0.000000  1
  Fe  Fe6  1  0.718151  0.617276  0.500000  1
  Fe  Fe7  1  0.383575  0.101156  0.500000  1
  Fe  Fe8  1  0.897697  0.281809  0.500000  1
  Fe  Fe9  1  0.548545  0.787807  0.500000  1
  Fe  Fe10  1  0.210251  0.761382  0.500000  1
  Fe  Fe11  1  0.239098  0.450630  0.500000  1
  Co  Co12  1  0.451085  0.941727  0.000000  1
  Co  Co13  1  0.057970  0.509276  0.000000  1
  P  P14  1  0.749465  0.787028  0.000000  1
  P  P15  1  0.215478  0.965029  0.000000  1
  P  P16  1  0.035409  0.251635  0.000000  1
  P  P17  1  0.448616  0.374155  0.500000  1
  P  P18  1  0.623674  0.073166  0.500000  1
  P  P19  1  0.926099  0.548660  0.500000  1
  P  P20  1  0.334839  0.665799  0.000000  1
