# generated using pymatgen
data_La4Pr5Sm(Al2Ru3)2
_symmetry_space_group_name_H-M   'P 1'
_cell_length_a   8.54533989
_cell_length_b   8.63663085
_cell_length_c   8.70257508
_cell_angle_alpha   109.73450235
_cell_angle_beta   109.49346506
_cell_angle_gamma   109.14729773
_symmetry_Int_Tables_number   1
_chemical_formula_structural   La4Pr5Sm(Al2Ru3)2
_chemical_formula_sum   'La4 Pr5 Sm1 Al4 Ru6'
_cell_volume   494.64835756
_cell_formula_units_Z   1
loop_
 _symmetry_equiv_pos_site_id
 _symmetry_equiv_pos_as_xyz
  1  'x, y, z'
loop_
 _atom_site_type_symbol
 _atom_site_label
 _atom_site_symmetry_multiplicity
 _atom_site_fract_x
 _atom_site_fract_y
 _atom_site_fract_z
 _atom_site_occupancy
  La  La0  1  0.751249  0.812024  0.058553  1
  La  La1  1  0.439913  0.245087  0.686632  1
  La  La2  1  0.691971  0.439597  0.251455  1
  La  La3  1  0.062641  0.751079  0.807927  1
  Pr  Pr4  1  0.812052  0.062842  0.748033  1
  Pr  Pr5  1  0.214181  0.219006  0.214113  1
  Pr  Pr6  1  0.497199  0.995922  0.280825  1
  Pr  Pr7  1  0.284740  0.497039  0.998893  1
  Pr  Pr8  1  0.005404  0.287997  0.505404  1
  Sm  Sm9  1  0.252918  0.685528  0.434877  1
  Al  Al10  1  0.584938  0.586506  0.587776  1
  Al  Al11  1  0.501951  0.001590  0.910421  1
  Al  Al12  1  0.918346  0.503281  0.004092  1
  Al  Al13  1  0.996765  0.909501  0.495988  1
  Ru  Ru14  1  0.243565  0.111969  0.860792  1
  Ru  Ru15  1  0.749728  0.383759  0.640101  1
  Ru  Ru16  1  0.866702  0.261909  0.127606  1
  Ru  Ru17  1  0.107931  0.867711  0.247974  1
  Ru  Ru18  1  0.624718  0.735899  0.377619  1
  Ru  Ru19  1  0.393088  0.641752  0.760919  1
