# generated using pymatgen
data_Er4HfSc3Ir4
_symmetry_space_group_name_H-M   'P 1'
_cell_length_a   4.42356400
_cell_length_b   7.02176668
_cell_length_c   8.39695454
_cell_angle_alpha   89.07173758
_cell_angle_beta   90.00000000
_cell_angle_gamma   90.00000000
_symmetry_Int_Tables_number   1
_chemical_formula_structural   Er4HfSc3Ir4
_chemical_formula_sum   'Er4 Hf1 Sc3 Ir4'
_cell_volume   260.78554342
_cell_formula_units_Z   1
loop_
 _symmetry_equiv_pos_site_id
 _symmetry_equiv_pos_as_xyz
  1  'x, y, z'
loop_
 _atom_site_type_symbol
 _atom_site_label
 _atom_site_symmetry_multiplicity
 _atom_site_fract_x
 _atom_site_fract_y
 _atom_site_fract_z
 _atom_site_occupancy
  Er  Er0  1  0.250000  0.983023  0.325711  1
  Er  Er1  1  0.250000  0.482255  0.176718  1
  Er  Er2  1  0.750000  0.015324  0.671393  1
  Er  Er3  1  0.750000  0.519220  0.826330  1
  Hf  Hf4  1  0.750000  0.140968  0.070505  1
  Sc  Sc5  1  0.250000  0.354521  0.573022  1
  Sc  Sc6  1  0.250000  0.859482  0.927471  1
  Sc  Sc7  1  0.750000  0.640941  0.428722  1
  Ir  Ir8  1  0.250000  0.242908  0.909159  1
  Ir  Ir9  1  0.250000  0.741299  0.600672  1
  Ir  Ir10  1  0.750000  0.763262  0.098169  1
  Ir  Ir11  1  0.750000  0.256797  0.392129  1
