# generated using pymatgen
data_Dy17Er3(IrPt5)2
_symmetry_space_group_name_H-M   'P 1'
_cell_length_a   11.03040400
_cell_length_b   11.02886600
_cell_length_c   6.40810000
_cell_angle_alpha   90.00000000
_cell_angle_beta   90.00000000
_cell_angle_gamma   90.00158958
_symmetry_Int_Tables_number   1
_chemical_formula_structural   Dy17Er3(IrPt5)2
_chemical_formula_sum   'Dy17 Er3 Ir2 Pt10'
_cell_volume   779.56361282
_cell_formula_units_Z   1
loop_
 _symmetry_equiv_pos_site_id
 _symmetry_equiv_pos_as_xyz
  1  'x, y, z'
loop_
 _atom_site_type_symbol
 _atom_site_label
 _atom_site_symmetry_multiplicity
 _atom_site_fract_x
 _atom_site_fract_y
 _atom_site_fract_z
 _atom_site_occupancy
  Dy  Dy0  1  0.291988  0.088045  0.376565  1
  Dy  Dy1  1  0.291885  0.912001  0.876710  1
  Dy  Dy2  1  0.708115  0.087999  0.876710  1
  Dy  Dy3  1  0.708012  0.911955  0.376565  1
  Dy  Dy4  1  0.587996  0.791817  0.876687  1
  Dy  Dy5  1  0.587994  0.208185  0.376713  1
  Dy  Dy6  1  0.412006  0.791815  0.376713  1
  Dy  Dy7  1  0.412004  0.208183  0.876687  1
  Dy  Dy8  1  0.205925  0.412733  0.623792  1
  Dy  Dy9  1  0.205928  0.587263  0.123843  1
  Dy  Dy10  1  0.794072  0.412737  0.123843  1
  Dy  Dy11  1  0.794075  0.587267  0.623792  1
  Dy  Dy12  1  0.912743  0.705811  0.123814  1
  Dy  Dy13  1  0.912695  0.294299  0.623950  1
  Dy  Dy14  1  0.087305  0.705701  0.623950  1
  Dy  Dy15  1  0.087257  0.294189  0.123814  1
  Dy  Dy16  1  0.000000  0.000000  0.500501  1
  Er  Er17  1  0.000000  0.000000  0.000508  1
  Er  Er18  1  0.500000  0.500000  0.000496  1
  Er  Er19  1  0.500000  0.500000  0.500550  1
  Ir  Ir20  1  0.000000  0.500000  0.880053  1
  Ir  Ir21  1  0.000000  0.500000  0.379987  1
  Pt  Pt22  1  0.845992  0.152839  0.249371  1
  Pt  Pt23  1  0.846015  0.847127  0.750349  1
  Pt  Pt24  1  0.153985  0.152873  0.750349  1
  Pt  Pt25  1  0.154008  0.847161  0.249371  1
  Pt  Pt26  1  0.652568  0.346281  0.749893  1
  Pt  Pt27  1  0.652580  0.653718  0.249840  1
  Pt  Pt28  1  0.347420  0.346282  0.249840  1
  Pt  Pt29  1  0.347432  0.653719  0.749893  1
  Pt  Pt30  1  0.500000  0.000000  0.117425  1
  Pt  Pt31  1  0.500000  0.000000  0.617419  1
