# generated using pymatgen
data_Sm2U(GaRh)3
_symmetry_space_group_name_H-M   'P 1'
_cell_length_a   7.27789625
_cell_length_b   7.39600245
_cell_length_c   3.83113500
_cell_angle_alpha   90.00000000
_cell_angle_beta   90.00000000
_cell_angle_gamma   120.55824733
_symmetry_Int_Tables_number   1
_chemical_formula_structural   Sm2U(GaRh)3
_chemical_formula_sum   'Sm2 U1 Ga3 Rh3'
_cell_volume   177.57849907
_cell_formula_units_Z   1
loop_
 _symmetry_equiv_pos_site_id
 _symmetry_equiv_pos_as_xyz
  1  'x, y, z'
loop_
 _atom_site_type_symbol
 _atom_site_label
 _atom_site_symmetry_multiplicity
 _atom_site_fract_x
 _atom_site_fract_y
 _atom_site_fract_z
 _atom_site_occupancy
  Sm  Sm0  1  0.409221  0.413002  0.500000  1
  Sm  Sm1  1  0.590810  0.003743  0.500000  1
  U  U2  1  0.999942  0.587368  0.500000  1
  Ga  Ga3  1  0.742087  0.750166  0.000000  1
  Ga  Ga4  1  0.257890  0.008014  0.000000  1
  Ga  Ga5  1  0.000001  0.235621  0.000000  1
  Rh  Rh6  1  0.710685  0.368462  0.000000  1
  Rh  Rh7  1  0.289385  0.657810  0.000000  1
  Rh  Rh8  1  0.999978  0.975815  0.500000  1
