# generated using pymatgen
data_Er4Ga5GeIr7
_symmetry_space_group_name_H-M   'P 1'
_cell_length_a   7.26405442
_cell_length_b   7.26405500
_cell_length_c   7.26405478
_cell_angle_alpha   109.35974913
_cell_angle_beta   109.35974714
_cell_angle_gamma   109.69439384
_symmetry_Int_Tables_number   1
_chemical_formula_structural   Er4Ga5GeIr7
_chemical_formula_sum   'Er4 Ga5 Ge1 Ir7'
_cell_volume   295.06011123
_cell_formula_units_Z   1
loop_
 _symmetry_equiv_pos_site_id
 _symmetry_equiv_pos_as_xyz
  1  'x, y, z'
loop_
 _atom_site_type_symbol
 _atom_site_label
 _atom_site_symmetry_multiplicity
 _atom_site_fract_x
 _atom_site_fract_y
 _atom_site_fract_z
 _atom_site_occupancy
  Er  Er0  1  0.500286  0.500286  0.498583  1
  Er  Er1  1  0.001703  0.001703  0.501413  1
  Er  Er2  1  0.500286  0.001703  0.000000  1
  Er  Er3  1  0.001703  0.500286  0.000000  1
  Ga  Ga4  1  0.000734  0.315255  0.314521  1
  Ga  Ga5  1  0.000734  0.686213  0.685479  1
  Ga  Ga6  1  0.315255  0.000734  0.314521  1
  Ga  Ga7  1  0.311541  0.311541  0.000000  1
  Ga  Ga8  1  0.686213  0.000734  0.685479  1
  Ge  Ge9  1  0.682448  0.682448  0.000000  1
  Ir  Ir10  1  0.500830  0.750449  0.249619  1
  Ir  Ir11  1  0.500830  0.251210  0.750379  1
  Ir  Ir12  1  0.251210  0.500830  0.750379  1
  Ir  Ir13  1  0.751128  0.251128  0.500000  1
  Ir  Ir14  1  0.750449  0.500830  0.249619  1
  Ir  Ir15  1  0.251128  0.751128  0.500000  1
  Ir  Ir16  1  0.993515  0.993515  0.000000  1
