# generated using pymatgen
data_Ho4Zr4Pt3Rh
_symmetry_space_group_name_H-M   'P 1'
_cell_length_a   4.67913700
_cell_length_b   7.11227769
_cell_length_c   8.20860737
_cell_angle_alpha   90.31460963
_cell_angle_beta   90.00000000
_cell_angle_gamma   90.00000000
_symmetry_Int_Tables_number   1
_chemical_formula_structural   Ho4Zr4Pt3Rh
_chemical_formula_sum   'Ho4 Zr4 Pt3 Rh1'
_cell_volume   273.17276737
_cell_formula_units_Z   1
loop_
 _symmetry_equiv_pos_site_id
 _symmetry_equiv_pos_as_xyz
  1  'x, y, z'
loop_
 _atom_site_type_symbol
 _atom_site_label
 _atom_site_symmetry_multiplicity
 _atom_site_fract_x
 _atom_site_fract_y
 _atom_site_fract_z
 _atom_site_occupancy
  Ho  Ho0  1  0.250000  0.519371  0.175289  1
  Ho  Ho1  1  0.750000  0.482980  0.823003  1
  Ho  Ho2  1  0.250000  0.017149  0.321190  1
  Ho  Ho3  1  0.750000  0.981009  0.676791  1
  Zr  Zr4  1  0.250000  0.140050  0.919135  1
  Zr  Zr5  1  0.750000  0.854110  0.077949  1
  Zr  Zr6  1  0.250000  0.649053  0.578574  1
  Zr  Zr7  1  0.750000  0.352237  0.421818  1
  Pt  Pt8  1  0.750000  0.729901  0.403748  1
  Pt  Pt9  1  0.250000  0.271429  0.596390  1
  Pt  Pt10  1  0.750000  0.232302  0.094369  1
  Rh  Rh11  1  0.250000  0.770409  0.911745  1
