# generated using pymatgen
data_Li3Pr3NdAgAs8
_symmetry_space_group_name_H-M   'P 1'
_cell_length_a   4.00316400
_cell_length_b   4.04166804
_cell_length_c   21.50297322
_cell_angle_alpha   89.98402896
_cell_angle_beta   90.00000000
_cell_angle_gamma   90.00000000
_symmetry_Int_Tables_number   1
_chemical_formula_structural   Li3Pr3NdAgAs8
_chemical_formula_sum   'Li3 Pr3 Nd1 Ag1 As8'
_cell_volume   347.90648129
_cell_formula_units_Z   1
loop_
 _symmetry_equiv_pos_site_id
 _symmetry_equiv_pos_as_xyz
  1  'x, y, z'
loop_
 _atom_site_type_symbol
 _atom_site_label
 _atom_site_symmetry_multiplicity
 _atom_site_fract_x
 _atom_site_fract_y
 _atom_site_fract_z
 _atom_site_occupancy
  Li  Li0  1  0.750000  0.726620  0.249936  1
  Li  Li1  1  0.250000  0.226630  0.250121  1
  Li  Li2  1  0.750000  0.773323  0.750022  1
  Pr  Pr3  1  0.250000  0.729986  0.116362  1
  Pr  Pr4  1  0.750000  0.229860  0.383677  1
  Pr  Pr5  1  0.250000  0.770508  0.615752  1
  Nd  Nd6  1  0.750000  0.271444  0.884131  1
  Ag  Ag7  1  0.250000  0.273806  0.750410  1
  As  As8  1  0.750000  0.226532  0.170970  1
  As  As9  1  0.250000  0.726685  0.328983  1
  As  As10  1  0.750000  0.272593  0.666389  1
  As  As11  1  0.250000  0.773447  0.834080  1
  As  As12  1  0.250000  0.206943  0.000907  1
  As  As13  1  0.750000  0.707589  0.498783  1
  As  As14  1  0.250000  0.291520  0.501443  1
  As  As15  1  0.750000  0.792516  0.998032  1
