# generated using pymatgen
data_Hf6BeAs2
_symmetry_space_group_name_H-M   'P 1'
_cell_length_a   7.30367778
_cell_length_b   3.65627100
_cell_length_c   7.30367700
_cell_angle_alpha   90.00000000
_cell_angle_beta   119.99966260
_cell_angle_gamma   90.00000000
_symmetry_Int_Tables_number   1
_chemical_formula_structural   Hf6BeAs2
_chemical_formula_sum   'Hf6 Be1 As2'
_cell_volume   168.90933395
_cell_formula_units_Z   1
loop_
 _symmetry_equiv_pos_site_id
 _symmetry_equiv_pos_as_xyz
  1  'x, y, z'
loop_
 _atom_site_type_symbol
 _atom_site_label
 _atom_site_symmetry_multiplicity
 _atom_site_fract_x
 _atom_site_fract_y
 _atom_site_fract_z
 _atom_site_occupancy
  Hf  Hf0  1  0.242008  0.000000  0.999999  1
  Hf  Hf1  1  0.593388  0.500001  0.000002  1
  Hf  Hf2  1  0.999999  0.000000  0.242009  1
  Hf  Hf3  1  0.406617  0.500001  0.406616  1
  Hf  Hf4  1  0.000002  0.500001  0.593389  1
  Hf  Hf5  1  0.758010  0.000000  0.758009  1
  Be  Be6  1  0.000024  0.500001  0.000024  1
  As  As7  1  0.666665  0.000000  0.333342  1
  As  As8  1  0.333341  0.000000  0.666664  1
