# generated using pymatgen
data_Li9B4Pt11
_symmetry_space_group_name_H-M   'P 1'
_cell_length_a   6.80660482
_cell_length_b   6.80660496
_cell_length_c   6.83855802
_cell_angle_alpha   89.74253682
_cell_angle_beta   89.74253621
_cell_angle_gamma   89.45042797
_symmetry_Int_Tables_number   1
_chemical_formula_structural   Li9B4Pt11
_chemical_formula_sum   'Li9 B4 Pt11'
_cell_volume   316.80859403
_cell_formula_units_Z   1
loop_
 _symmetry_equiv_pos_site_id
 _symmetry_equiv_pos_as_xyz
  1  'x, y, z'
loop_
 _atom_site_type_symbol
 _atom_site_label
 _atom_site_symmetry_multiplicity
 _atom_site_fract_x
 _atom_site_fract_y
 _atom_site_fract_z
 _atom_site_occupancy
  Li  Li0  1  0.319099  0.315812  0.295312  1
  Li  Li1  1  0.051367  0.456899  0.550937  1
  Li  Li2  1  0.567481  0.057211  0.439116  1
  Li  Li3  1  0.458930  0.552144  0.043448  1
  Li  Li4  1  0.192789  0.682519  0.810884  1
  Li  Li5  1  0.934188  0.930901  0.954688  1
  Li  Li6  1  0.793101  0.198633  0.699063  1
  Li  Li7  1  0.697856  0.791070  0.206552  1
  Li  Li8  1  0.205015  0.044985  0.625000  1
  B  B9  1  0.856258  0.393742  0.125000  1
  B  B10  1  0.393702  0.146891  0.887699  1
  B  B11  1  0.619108  0.630892  0.625000  1
  B  B12  1  0.103109  0.856298  0.362301  1
  Pt  Pt13  1  0.416530  0.372952  0.682112  1
  Pt  Pt14  1  0.071374  0.611518  0.180714  1
  Pt  Pt15  1  0.970859  0.137670  0.309589  1
  Pt  Pt16  1  0.297113  0.952887  0.125000  1
  Pt  Pt17  1  0.689862  0.432428  0.389162  1
  Pt  Pt18  1  0.548378  0.881552  0.808067  1
  Pt  Pt19  1  0.638482  0.178626  0.069286  1
  Pt  Pt20  1  0.368448  0.701622  0.441933  1
  Pt  Pt21  1  0.877048  0.833470  0.567888  1
  Pt  Pt22  1  0.112330  0.279141  0.940411  1
  Pt  Pt23  1  0.817572  0.560138  0.860838  1
