# generated using pymatgen
data_Dy2YHo(Mo2O7)2
_symmetry_space_group_name_H-M   'P 1'
_cell_length_a   7.34228393
_cell_length_b   7.39914391
_cell_length_c   7.30018300
_cell_angle_alpha   60.44145658
_cell_angle_beta   60.18950436
_cell_angle_gamma   60.39977891
_symmetry_Int_Tables_number   1
_chemical_formula_structural   Dy2YHo(Mo2O7)2
_chemical_formula_sum   'Dy2 Y1 Ho1 Mo4 O14'
_cell_volume   282.61111933
_cell_formula_units_Z   1
loop_
 _symmetry_equiv_pos_site_id
 _symmetry_equiv_pos_as_xyz
  1  'x, y, z'
loop_
 _atom_site_type_symbol
 _atom_site_label
 _atom_site_symmetry_multiplicity
 _atom_site_fract_x
 _atom_site_fract_y
 _atom_site_fract_z
 _atom_site_occupancy
  Dy  Dy0  1  0.125000  0.125000  0.625000  1
  Dy  Dy1  1  0.125000  0.125000  0.125000  1
  Y  Y2  1  0.125000  0.625000  0.125000  1
  Ho  Ho3  1  0.625000  0.125000  0.125000  1
  Mo  Mo4  1  0.125000  0.625000  0.625000  1
  Mo  Mo5  1  0.625000  0.125000  0.625000  1
  Mo  Mo6  1  0.625000  0.625000  0.125000  1
  Mo  Mo7  1  0.625000  0.625000  0.625000  1
  O  O8  1  0.704979  0.724133  0.285444  1
  O  O9  1  0.278249  0.284346  0.718703  1
  O  O10  1  0.717686  0.284562  0.711338  1
  O  O11  1  0.288259  0.714858  0.285702  1
  O  O12  1  0.288259  0.714858  0.711181  1
  O  O13  1  0.717686  0.284562  0.286413  1
  O  O14  1  0.545021  0.525867  0.964556  1
  O  O15  1  0.971751  0.965654  0.531297  1
  O  O16  1  0.532314  0.965438  0.538662  1
  O  O17  1  0.961741  0.535142  0.964298  1
  O  O18  1  0.961741  0.535142  0.538819  1
  O  O19  1  0.532314  0.965438  0.963587  1
  O  O20  1  0.251867  0.254045  0.247044  1
  O  O21  1  0.998133  0.995955  0.002956  1
