# generated using pymatgen
data_Ba2ScTiH10
_symmetry_space_group_name_H-M   'P 1'
_cell_length_a   4.79749800
_cell_length_b   5.44437540
_cell_length_c   13.21047300
_cell_angle_alpha   90.06399553
_cell_angle_beta   90.00000000
_cell_angle_gamma   90.00000000
_symmetry_Int_Tables_number   1
_chemical_formula_structural   Ba2ScTiH10
_chemical_formula_sum   'Ba4 Sc2 Ti2 H20'
_cell_volume   345.04915001
_cell_formula_units_Z   2
loop_
 _symmetry_equiv_pos_site_id
 _symmetry_equiv_pos_as_xyz
  1  'x, y, z'
loop_
 _atom_site_type_symbol
 _atom_site_label
 _atom_site_symmetry_multiplicity
 _atom_site_fract_x
 _atom_site_fract_y
 _atom_site_fract_z
 _atom_site_occupancy
  Ba  Ba0  1  0.271842  0.250205  0.654364  1
  Ba  Ba1  1  0.771842  0.249795  0.345636  1
  Ba  Ba2  1  0.233266  0.749941  0.146958  1
  Ba  Ba3  1  0.733266  0.750059  0.853042  1
  Sc  Sc4  1  0.266336  0.750049  0.435980  1
  Sc  Sc5  1  0.766336  0.749951  0.564020  1
  Ti  Ti6  1  0.245865  0.250458  0.952512  1
  Ti  Ti7  1  0.745865  0.249542  0.047488  1
  H  H8  1  0.523827  0.501290  0.496213  1
  H  H9  1  0.023827  0.998710  0.503787  1
  H  H10  1  0.980878  0.488204  0.990996  1
  H  H11  1  0.480878  0.011796  0.009004  1
  H  H12  1  0.240869  0.028762  0.842255  1
  H  H13  1  0.740869  0.471238  0.157745  1
  H  H14  1  0.272029  0.994644  0.324264  1
  H  H15  1  0.772029  0.505356  0.675736  1
  H  H16  1  0.241234  0.474196  0.842980  1
  H  H17  1  0.741234  0.025804  0.157020  1
  H  H18  1  0.271142  0.505737  0.323885  1
  H  H19  1  0.771142  0.994263  0.676115  1
  H  H20  1  0.641672  0.250458  0.907864  1
  H  H21  1  0.141672  0.249542  0.092136  1
  H  H22  1  0.806038  0.750414  0.401169  1
  H  H23  1  0.306038  0.749586  0.598831  1
  H  H24  1  0.981466  0.012028  0.990362  1
  H  H25  1  0.481466  0.487972  0.009638  1
  H  H26  1  0.523536  0.998728  0.496606  1
  H  H27  1  0.023536  0.501272  0.503394  1
