# generated using pymatgen
data_La5MgAlOs3
_symmetry_space_group_name_H-M   'P 1'
_cell_length_a   8.75269284
_cell_length_b   8.75269190
_cell_length_c   8.67950652
_cell_angle_alpha   109.56754063
_cell_angle_beta   109.44027491
_cell_angle_gamma   109.74542248
_symmetry_Int_Tables_number   1
_chemical_formula_structural   La5MgAlOs3
_chemical_formula_sum   'La10 Mg2 Al2 Os6'
_cell_volume   509.70706483
_cell_formula_units_Z   2
loop_
 _symmetry_equiv_pos_site_id
 _symmetry_equiv_pos_as_xyz
  1  'x, y, z'
loop_
 _atom_site_type_symbol
 _atom_site_label
 _atom_site_symmetry_multiplicity
 _atom_site_fract_x
 _atom_site_fract_y
 _atom_site_fract_z
 _atom_site_occupancy
  La  La0  1  0.244475  0.680200  0.433632  1
  La  La1  1  0.746569  0.810844  0.066369  1
  La  La2  1  0.432057  0.249552  0.686440  1
  La  La3  1  0.690332  0.440333  0.250000  1
  La  La4  1  0.063112  0.745616  0.813560  1
  La  La5  1  0.820684  0.070684  0.750000  1
  La  La6  1  0.207218  0.206369  0.206152  1
  La  La7  1  0.500218  0.001066  0.293848  1
  La  La8  1  0.287175  0.500701  0.001022  1
  La  La9  1  0.999678  0.286153  0.498979  1
  Mg  Mg10  1  0.501224  0.000883  0.913112  1
  Mg  Mg11  1  0.587771  0.588111  0.586888  1
  Al  Al12  1  0.914052  0.501810  0.001282  1
  Al  Al13  1  0.000527  0.912770  0.498719  1
  Os  Os14  1  0.238723  0.120183  0.861530  1
  Os  Os15  1  0.758653  0.377191  0.638469  1
  Os  Os16  1  0.886293  0.265070  0.124378  1
  Os  Os17  1  0.113447  0.863447  0.250001  1
  Os  Os18  1  0.640690  0.761915  0.375621  1
  Os  Os19  1  0.367105  0.617105  0.750000  1
