# generated using pymatgen
data_Pr3Zn3Ag2Ru
_symmetry_space_group_name_H-M   'P 1'
_cell_length_a   7.64944100
_cell_length_b   7.64944092
_cell_length_c   4.02070500
_cell_angle_alpha   90.00000000
_cell_angle_beta   90.00000000
_cell_angle_gamma   119.99998739
_symmetry_Int_Tables_number   1
_chemical_formula_structural   Pr3Zn3Ag2Ru
_chemical_formula_sum   'Pr3 Zn3 Ag2 Ru1'
_cell_volume   203.74750096
_cell_formula_units_Z   1
loop_
 _symmetry_equiv_pos_site_id
 _symmetry_equiv_pos_as_xyz
  1  'x, y, z'
loop_
 _atom_site_type_symbol
 _atom_site_label
 _atom_site_symmetry_multiplicity
 _atom_site_fract_x
 _atom_site_fract_y
 _atom_site_fract_z
 _atom_site_occupancy
  Pr  Pr0  1  0.424363  0.401363  0.500000  1
  Pr  Pr1  1  0.598637  0.023000  0.500000  1
  Pr  Pr2  1  0.977000  0.575637  0.500000  1
  Zn  Zn3  1  0.749481  0.735949  0.000000  1
  Zn  Zn4  1  0.264051  0.013533  0.000000  1
  Zn  Zn5  1  0.986467  0.250519  0.000000  1
  Ag  Ag6  1  0.333333  0.666667  0.000000  1
  Ag  Ag7  1  0.000000  0.000000  0.500000  1
  Ru  Ru8  1  0.666667  0.333333  0.000000  1
