# generated using pymatgen
data_Zn2GeP6IN12
_symmetry_space_group_name_H-M   'P 1'
_cell_length_a   7.24363134
_cell_length_b   7.30822914
_cell_length_c   7.24363052
_cell_angle_alpha   109.79566376
_cell_angle_beta   109.05993066
_cell_angle_gamma   109.79565104
_symmetry_Int_Tables_number   1
_chemical_formula_structural   Zn2GeP6IN12
_chemical_formula_sum   'Zn2 Ge1 P6 I1 N12'
_cell_volume   294.31004476
_cell_formula_units_Z   1
loop_
 _symmetry_equiv_pos_site_id
 _symmetry_equiv_pos_as_xyz
  1  'x, y, z'
loop_
 _atom_site_type_symbol
 _atom_site_label
 _atom_site_symmetry_multiplicity
 _atom_site_fract_x
 _atom_site_fract_y
 _atom_site_fract_z
 _atom_site_occupancy
  Zn  Zn0  1  0.001913  0.999484  0.380712  1
  Zn  Zn1  1  0.380712  0.999484  0.001913  1
  Ge  Ge2  1  0.001197  0.371509  0.001197  1
  P  P3  1  0.497581  0.258165  0.752032  1
  P  P4  1  0.257334  0.753597  0.500282  1
  P  P5  1  0.744294  0.500166  0.252849  1
  P  P6  1  0.752032  0.258165  0.497581  1
  P  P7  1  0.500282  0.753597  0.257334  1
  P  P8  1  0.252849  0.500166  0.744294  1
  I  I9  1  0.982735  0.946030  0.982735  1
  N  N10  1  0.431252  0.709751  0.431252  1
  N  N11  1  0.722270  0.439929  0.438104  1
  N  N12  1  0.438104  0.439929  0.722270  1
  N  N13  1  0.730957  0.295552  0.730957  1
  N  N14  1  0.998564  0.568936  0.268620  1
  N  N15  1  0.268620  0.568936  0.998564  1
  N  N16  1  0.280152  0.002346  0.561872  1
  N  N17  1  0.999954  0.274612  0.562510  1
  N  N18  1  0.718366  0.721343  0.276448  1
  N  N19  1  0.561872  0.002346  0.280152  1
  N  N20  1  0.276448  0.721343  0.718366  1
  N  N21  1  0.562510  0.274612  0.999954  1
