# generated using pymatgen
data_Ta9Al3GaRh
_symmetry_space_group_name_H-M   'P 1'
_cell_length_a   9.96014799
_cell_length_b   9.92752311
_cell_length_c   9.92749800
_cell_angle_alpha   93.64938468
_cell_angle_beta   93.79689917
_cell_angle_gamma   150.11893894
_symmetry_Int_Tables_number   1
_chemical_formula_structural   Ta9Al3GaRh
_chemical_formula_sum   'Ta18 Al6 Ga2 Rh2'
_cell_volume   473.28134620
_cell_formula_units_Z   2
loop_
 _symmetry_equiv_pos_site_id
 _symmetry_equiv_pos_as_xyz
  1  'x, y, z'
loop_
 _atom_site_type_symbol
 _atom_site_label
 _atom_site_symmetry_multiplicity
 _atom_site_fract_x
 _atom_site_fract_y
 _atom_site_fract_z
 _atom_site_occupancy
  Ta  Ta0  1  0.566072  0.794737  0.357154  1
  Ta  Ta1  1  0.082020  0.156752  0.242148  1
  Ta  Ta2  1  0.582028  0.339882  0.925272  1
  Ta  Ta3  1  0.652854  0.577699  0.242093  1
  Ta  Ta4  1  0.347146  0.422301  0.757907  1
  Ta  Ta5  1  0.795498  0.437878  0.227918  1
  Ta  Ta6  1  0.417972  0.660118  0.074728  1
  Ta  Ta7  1  0.152856  0.910760  0.075146  1
  Ta  Ta8  1  0.704482  0.932410  0.642390  1
  Ta  Ta9  1  0.433928  0.205263  0.642846  1
  Ta  Ta10  1  0.917980  0.843248  0.757852  1
  Ta  Ta11  1  0.066082  0.708918  0.771349  1
  Ta  Ta12  1  0.204502  0.562122  0.772082  1
  Ta  Ta13  1  0.250012  0.751304  0.501303  1
  Ta  Ta14  1  0.295518  0.067590  0.357610  1
  Ta  Ta15  1  0.749988  0.248696  0.498697  1
  Ta  Ta16  1  0.847144  0.089240  0.924854  1
  Ta  Ta17  1  0.933918  0.291082  0.228651  1
  Al  Al18  1  0.373756  0.873816  0.240168  1
  Al  Al19  1  0.873756  0.633571  0.499942  1
  Al  Al20  1  0.126244  0.366429  0.500058  1
  Al  Al21  1  0.626244  0.126184  0.759832  1
  Al  Al22  1  0.000000  0.500000  0.000000  1
  Al  Al23  1  0.500000  0.500000  0.500000  1
  Ga  Ga24  1  0.749996  0.750171  0.000174  1
  Ga  Ga25  1  0.250004  0.249829  0.999826  1
  Rh  Rh26  1  0.500000  0.000000  0.000000  1
  Rh  Rh27  1  0.000000  0.000000  0.500000  1
