# generated using pymatgen
data_Cs8Nb3AsCl24
_symmetry_space_group_name_H-M   'P 1'
_cell_length_a   12.63605302
_cell_length_b   12.63605316
_cell_length_c   12.64755000
_cell_angle_alpha   131.43262688
_cell_angle_beta   131.43262142
_cell_angle_gamma   71.06091245
_symmetry_Int_Tables_number   1
_chemical_formula_structural   Cs8Nb3AsCl24
_chemical_formula_sum   'Cs8 Nb3 As1 Cl24'
_cell_volume   1111.81315891
_cell_formula_units_Z   1
loop_
 _symmetry_equiv_pos_site_id
 _symmetry_equiv_pos_as_xyz
  1  'x, y, z'
loop_
 _atom_site_type_symbol
 _atom_site_label
 _atom_site_symmetry_multiplicity
 _atom_site_fract_x
 _atom_site_fract_y
 _atom_site_fract_z
 _atom_site_occupancy
  Cs  Cs0  1  0.119190  0.637930  0.999865  1
  Cs  Cs1  1  0.362070  0.880810  0.000135  1
  Cs  Cs2  1  0.638143  0.637946  0.518736  1
  Cs  Cs3  1  0.362054  0.361857  0.481264  1
  Cs  Cs4  1  0.880643  0.361883  0.999741  1
  Cs  Cs5  1  0.880636  0.880826  0.518849  1
  Cs  Cs6  1  0.119174  0.119364  0.481151  1
  Cs  Cs7  1  0.638117  0.119357  0.000259  1
  Nb  Nb8  1  0.749972  0.250028  0.500000  1
  Nb  Nb9  1  0.499949  0.500051  0.000000  1
  Nb  Nb10  1  0.249956  0.750044  0.500000  1
  As  As11  1  0.999986  0.000014  0.000000  1
  Cl  Cl12  1  0.242359  0.999668  0.242433  1
  Cl  Cl13  1  0.000332  0.757641  0.757567  1
  Cl  Cl14  1  0.251663  0.984568  0.732209  1
  Cl  Cl15  1  0.748012  0.480922  0.732455  1
  Cl  Cl16  1  0.480561  0.747710  0.732182  1
  Cl  Cl17  1  0.122537  0.122534  0.000019  1
  Cl  Cl18  1  0.499639  0.731916  0.231990  1
  Cl  Cl19  1  0.867670  0.367651  0.500216  1
  Cl  Cl20  1  0.000048  0.242744  0.242431  1
  Cl  Cl21  1  0.382466  0.382400  0.999984  1
  Cl  Cl22  1  0.617600  0.617534  0.000016  1
  Cl  Cl23  1  0.500038  0.267560  0.768011  1
  Cl  Cl24  1  0.268084  0.500361  0.768010  1
  Cl  Cl25  1  0.519078  0.251988  0.267545  1
  Cl  Cl26  1  0.367647  0.867626  0.500212  1
  Cl  Cl27  1  0.632349  0.132330  0.499784  1
  Cl  Cl28  1  0.252290  0.519439  0.267818  1
  Cl  Cl29  1  0.132374  0.632353  0.499788  1
  Cl  Cl30  1  0.015432  0.748337  0.267791  1
  Cl  Cl31  1  0.984501  0.251729  0.732562  1
  Cl  Cl32  1  0.757256  0.999952  0.757569  1
  Cl  Cl33  1  0.732440  0.499962  0.231989  1
  Cl  Cl34  1  0.748271  0.015499  0.267438  1
  Cl  Cl35  1  0.877466  0.877463  0.999981  1
