# generated using pymatgen
data_YTa6Cl18
_symmetry_space_group_name_H-M   'P 1'
_cell_length_a   10.14778876
_cell_length_b   10.14778924
_cell_length_c   10.14778910
_cell_angle_alpha   55.95105525
_cell_angle_beta   55.95104986
_cell_angle_gamma   55.95105062
_symmetry_Int_Tables_number   1
_chemical_formula_structural   YTa6Cl18
_chemical_formula_sum   'Y1 Ta6 Cl18'
_cell_volume   669.59524194
_cell_formula_units_Z   1
loop_
 _symmetry_equiv_pos_site_id
 _symmetry_equiv_pos_as_xyz
  1  'x, y, z'
loop_
 _atom_site_type_symbol
 _atom_site_label
 _atom_site_symmetry_multiplicity
 _atom_site_fract_x
 _atom_site_fract_y
 _atom_site_fract_z
 _atom_site_occupancy
  Y  Y0  1  0.000000  0.000000  0.000000  1
  Ta  Ta1  1  0.409438  0.301801  0.648476  1
  Ta  Ta2  1  0.351524  0.590562  0.698199  1
  Ta  Ta3  1  0.698199  0.351524  0.590562  1
  Ta  Ta4  1  0.301801  0.648476  0.409438  1
  Ta  Ta5  1  0.648476  0.409438  0.301801  1
  Ta  Ta6  1  0.590562  0.698199  0.351524  1
  Cl  Cl7  1  0.568706  0.161925  0.441536  1
  Cl  Cl8  1  0.223973  0.370499  0.908020  1
  Cl  Cl9  1  0.908020  0.223973  0.370499  1
  Cl  Cl10  1  0.370499  0.908020  0.223973  1
  Cl  Cl11  1  0.776027  0.629501  0.091980  1
  Cl  Cl12  1  0.091980  0.776027  0.629501  1
  Cl  Cl13  1  0.702716  0.955760  0.161467  1
  Cl  Cl14  1  0.955760  0.161467  0.702716  1
  Cl  Cl15  1  0.161467  0.702716  0.955760  1
  Cl  Cl16  1  0.297284  0.044240  0.838533  1
  Cl  Cl17  1  0.044240  0.838533  0.297284  1
  Cl  Cl18  1  0.838533  0.297284  0.044240  1
  Cl  Cl19  1  0.558464  0.431294  0.838075  1
  Cl  Cl20  1  0.161925  0.441536  0.568706  1
  Cl  Cl21  1  0.441536  0.568706  0.161925  1
  Cl  Cl22  1  0.431294  0.838075  0.558464  1
  Cl  Cl23  1  0.838075  0.558464  0.431294  1
  Cl  Cl24  1  0.629501  0.091980  0.776027  1
