# generated using pymatgen
data_Ho3LuHf4F28
_symmetry_space_group_name_H-M   'P 1'
_cell_length_a   5.63672742
_cell_length_b   8.95375989
_cell_length_c   12.09394562
_cell_angle_alpha   62.51204473
_cell_angle_beta   89.88515321
_cell_angle_gamma   89.96645181
_symmetry_Int_Tables_number   1
_chemical_formula_structural   Ho3LuHf4F28
_chemical_formula_sum   'Ho3 Lu1 Hf4 F28'
_cell_volume   541.47202403
_cell_formula_units_Z   1
loop_
 _symmetry_equiv_pos_site_id
 _symmetry_equiv_pos_as_xyz
  1  'x, y, z'
loop_
 _atom_site_type_symbol
 _atom_site_label
 _atom_site_symmetry_multiplicity
 _atom_site_fract_x
 _atom_site_fract_y
 _atom_site_fract_z
 _atom_site_occupancy
  Ho  Ho0  1  0.256475  0.814533  0.264768  1
  Ho  Ho1  1  0.744434  0.183143  0.735155  1
  Ho  Ho2  1  0.756339  0.184816  0.235087  1
  Lu  Lu3  1  0.243558  0.814950  0.764737  1
  Hf  Hf4  1  0.757064  0.725995  0.041385  1
  Hf  Hf5  1  0.243849  0.276076  0.955679  1
  Hf  Hf6  1  0.255866  0.272324  0.457492  1
  Hf  Hf7  1  0.742475  0.726319  0.545387  1
  F  F8  1  0.953908  0.709366  0.418601  1
  F  F9  1  0.046322  0.291358  0.583949  1
  F  F10  1  0.453640  0.292531  0.082926  1
  F  F11  1  0.544206  0.708903  0.915443  1
  F  F12  1  0.476414  0.730415  0.142186  1
  F  F13  1  0.524477  0.268742  0.856070  1
  F  F14  1  0.973584  0.269300  0.357631  1
  F  F15  1  0.020772  0.732135  0.647262  1
  F  F16  1  0.958515  0.747254  0.172005  1
  F  F17  1  0.042534  0.254023  0.825773  1
  F  F18  1  0.456091  0.252237  0.326360  1
  F  F19  1  0.535039  0.748639  0.674067  1
  F  F20  1  0.779604  0.475362  0.139782  1
  F  F21  1  0.225193  0.527782  0.858271  1
  F  F22  1  0.276887  0.523762  0.360178  1
  F  F23  1  0.722373  0.475274  0.641436  1
  F  F24  1  0.943794  0.276105  0.047292  1
  F  F25  1  0.057101  0.726131  0.948509  1
  F  F26  1  0.444754  0.725033  0.452545  1
  F  F27  1  0.556114  0.274241  0.548393  1
  F  F28  1  0.740698  0.976785  0.443377  1
  F  F29  1  0.257149  0.021708  0.559162  1
  F  F30  1  0.242058  0.025281  0.056872  1
  F  F31  1  0.758850  0.976843  0.942017  1
  F  F32  1  0.578346  0.970546  0.232731  1
  F  F33  1  0.423461  0.023423  0.766406  1
  F  F34  1  0.078228  0.029113  0.267124  1
  F  F35  1  0.929835  0.969554  0.733940  1
