# generated using pymatgen
data_Y4Tm6Si5As
_symmetry_space_group_name_H-M   'P 1'
_cell_length_a   8.37045300
_cell_length_b   8.39068522
_cell_length_c   6.23620800
_cell_angle_alpha   90.00000000
_cell_angle_beta   90.00000000
_cell_angle_gamma   119.92026385
_symmetry_Int_Tables_number   1
_chemical_formula_structural   Y4Tm6Si5As
_chemical_formula_sum   'Y4 Tm6 Si5 As1'
_cell_volume   379.61730227
_cell_formula_units_Z   1
loop_
 _symmetry_equiv_pos_site_id
 _symmetry_equiv_pos_as_xyz
  1  'x, y, z'
loop_
 _atom_site_type_symbol
 _atom_site_label
 _atom_site_symmetry_multiplicity
 _atom_site_fract_x
 _atom_site_fract_y
 _atom_site_fract_z
 _atom_site_occupancy
  Y  Y0  1  0.996234  0.752830  0.750000  1
  Y  Y1  1  0.757644  0.000000  0.750000  1
  Y  Y2  1  0.243403  0.247170  0.750000  1
  Y  Y3  1  0.243559  0.000000  0.250000  1
  Tm  Tm4  1  0.000114  0.244481  0.250000  1
  Tm  Tm5  1  0.755634  0.755519  0.250000  1
  Tm  Tm6  1  0.333071  0.663827  0.498576  1
  Tm  Tm7  1  0.669245  0.336173  0.001424  1
  Tm  Tm8  1  0.669245  0.336173  0.498576  1
  Tm  Tm9  1  0.333071  0.663827  0.001424  1
  Si  Si10  1  0.394209  0.393647  0.250000  1
  Si  Si11  1  0.000563  0.606353  0.250000  1
  Si  Si12  1  0.999671  0.394420  0.750000  1
  Si  Si13  1  0.605253  0.605580  0.750000  1
  Si  Si14  1  0.608046  0.000000  0.250000  1
  As  As15  1  0.391041  0.000000  0.750000  1
