# generated using pymatgen
data_Er8Mn3CrC8
_symmetry_space_group_name_H-M   'P 1'
_cell_length_a   4.98938600
_cell_length_b   6.32102432
_cell_length_c   9.63065552
_cell_angle_alpha   90.09806343
_cell_angle_beta   90.00000000
_cell_angle_gamma   90.00000000
_symmetry_Int_Tables_number   1
_chemical_formula_structural   Er8Mn3CrC8
_chemical_formula_sum   'Er8 Mn3 Cr1 C8'
_cell_volume   303.73146017
_cell_formula_units_Z   1
loop_
 _symmetry_equiv_pos_site_id
 _symmetry_equiv_pos_as_xyz
  1  'x, y, z'
loop_
 _atom_site_type_symbol
 _atom_site_label
 _atom_site_symmetry_multiplicity
 _atom_site_fract_x
 _atom_site_fract_y
 _atom_site_fract_z
 _atom_site_occupancy
  Er  Er0  1  0.750000  0.528204  0.783156  1
  Er  Er1  1  0.250000  0.974112  0.283767  1
  Er  Er2  1  0.750000  0.682202  0.444018  1
  Er  Er3  1  0.250000  0.817570  0.944959  1
  Er  Er4  1  0.750000  0.181786  0.055791  1
  Er  Er5  1  0.250000  0.318063  0.554540  1
  Er  Er6  1  0.250000  0.472520  0.215425  1
  Er  Er7  1  0.750000  0.026220  0.715410  1
  Mn  Mn8  1  0.250000  0.772319  0.641174  1
  Mn  Mn9  1  0.750000  0.227750  0.357565  1
  Mn  Mn10  1  0.750000  0.727282  0.142657  1
  Cr  Cr11  1  0.250000  0.272921  0.858737  1
  C  C12  1  0.250000  0.689700  0.462952  1
  C  C13  1  0.250000  0.541195  0.760336  1
  C  C14  1  0.750000  0.461708  0.239858  1
  C  C15  1  0.750000  0.809434  0.964041  1
  C  C16  1  0.250000  0.036797  0.738166  1
  C  C17  1  0.250000  0.188932  0.040189  1
  C  C18  1  0.750000  0.309745  0.536422  1
  C  C19  1  0.750000  0.961539  0.260837  1
