# generated using pymatgen
data_Ho6CoNi5(PRu)12
_symmetry_space_group_name_H-M   'P 1'
_cell_length_a   3.91280600
_cell_length_b   10.69138400
_cell_length_c   12.67283600
_cell_angle_alpha   90.00000000
_cell_angle_beta   90.00000000
_cell_angle_gamma   90.00000000
_symmetry_Int_Tables_number   1
_chemical_formula_structural   Ho6CoNi5(PRu)12
_chemical_formula_sum   'Ho6 Co1 Ni5 P12 Ru12'
_cell_volume   530.14669551
_cell_formula_units_Z   1
loop_
 _symmetry_equiv_pos_site_id
 _symmetry_equiv_pos_as_xyz
  1  'x, y, z'
loop_
 _atom_site_type_symbol
 _atom_site_label
 _atom_site_symmetry_multiplicity
 _atom_site_fract_x
 _atom_site_fract_y
 _atom_site_fract_z
 _atom_site_occupancy
  Ho  Ho0  1  0.000000  0.500000  0.524848  1
  Ho  Ho1  1  0.500000  0.000000  0.472854  1
  Ho  Ho2  1  0.500000  0.819195  0.203474  1
  Ho  Ho3  1  0.500000  0.180805  0.203474  1
  Ho  Ho4  1  0.000000  0.684001  0.798445  1
  Ho  Ho5  1  0.000000  0.315999  0.798445  1
  Co  Co6  1  0.000000  0.500000  0.985561  1
  Ni  Ni7  1  0.500000  0.000000  0.013979  1
  Ni  Ni8  1  0.000000  0.159538  0.015553  1
  Ni  Ni9  1  0.000000  0.840462  0.015553  1
  Ni  Ni10  1  0.500000  0.500000  0.701477  1
  Ni  Ni11  1  0.000000  0.000000  0.304431  1
  P  P12  1  0.500000  0.314539  0.615983  1
  P  P13  1  0.500000  0.685461  0.615983  1
  P  P14  1  0.000000  0.187494  0.384748  1
  P  P15  1  0.000000  0.812506  0.384748  1
  P  P16  1  0.500000  0.500000  0.879127  1
  P  P17  1  0.000000  0.000000  0.130941  1
  P  P18  1  0.500000  0.853233  0.891855  1
  P  P19  1  0.500000  0.146767  0.891855  1
  P  P20  1  0.000000  0.653461  0.101524  1
  P  P21  1  0.000000  0.346539  0.101524  1
  P  P22  1  0.500000  0.500000  0.339299  1
  P  P23  1  0.000000  0.000000  0.657960  1
  Ru  Ru24  1  0.500000  0.301194  0.428810  1
  Ru  Ru25  1  0.500000  0.698806  0.428810  1
  Ru  Ru26  1  0.000000  0.203219  0.570429  1
  Ru  Ru27  1  0.000000  0.796781  0.570429  1
  Ru  Ru28  1  0.500000  0.875488  0.712651  1
  Ru  Ru29  1  0.500000  0.124512  0.712651  1
  Ru  Ru30  1  0.000000  0.626250  0.282349  1
  Ru  Ru31  1  0.000000  0.373750  0.282349  1
  Ru  Ru32  1  0.500000  0.326506  0.989001  1
  Ru  Ru33  1  0.500000  0.673494  0.989001  1
  Ru  Ru34  1  0.500000  0.500000  0.153007  1
  Ru  Ru35  1  0.000000  0.000000  0.846871  1
