# generated using pymatgen
data_AsPPd3Ru
_symmetry_space_group_name_H-M   'P 1'
_cell_length_a   3.81033100
_cell_length_b   6.52530598
_cell_length_c   7.30253347
_cell_angle_alpha   88.48660946
_cell_angle_beta   90.00000000
_cell_angle_gamma   90.00000000
_symmetry_Int_Tables_number   1
_chemical_formula_structural   AsPPd3Ru
_chemical_formula_sum   'As2 P2 Pd6 Ru2'
_cell_volume   181.50375939
_cell_formula_units_Z   2
loop_
 _symmetry_equiv_pos_site_id
 _symmetry_equiv_pos_as_xyz
  1  'x, y, z'
loop_
 _atom_site_type_symbol
 _atom_site_label
 _atom_site_symmetry_multiplicity
 _atom_site_fract_x
 _atom_site_fract_y
 _atom_site_fract_z
 _atom_site_occupancy
  As  As0  1  0.250000  0.745444  0.632827  1
  As  As1  1  0.750000  0.254556  0.367173  1
  P  P2  1  0.250000  0.223777  0.895111  1
  P  P3  1  0.750000  0.776223  0.104889  1
  Pd  Pd4  1  0.750000  0.031405  0.655582  1
  Pd  Pd5  1  0.250000  0.968595  0.344418  1
  Pd  Pd6  1  0.750000  0.539663  0.843771  1
  Pd  Pd7  1  0.250000  0.460337  0.156229  1
  Pd  Pd8  1  0.250000  0.359123  0.595749  1
  Pd  Pd9  1  0.750000  0.640877  0.404251  1
  Ru  Ru10  1  0.250000  0.859279  0.941218  1
  Ru  Ru11  1  0.750000  0.140721  0.058782  1
