# generated using pymatgen
data_Tm7Lu5InCo4Pt
_symmetry_space_group_name_H-M   'P 1'
_cell_length_a   8.14482451
_cell_length_b   8.14482516
_cell_length_c   8.14383897
_cell_angle_alpha   111.09658298
_cell_angle_beta   110.94146312
_cell_angle_gamma   106.42331233
_symmetry_Int_Tables_number   1
_chemical_formula_structural   Tm7Lu5InCo4Pt
_chemical_formula_sum   'Tm7 Lu5 In1 Co4 Pt1'
_cell_volume   414.97703452
_cell_formula_units_Z   1
loop_
 _symmetry_equiv_pos_site_id
 _symmetry_equiv_pos_as_xyz
  1  'x, y, z'
loop_
 _atom_site_type_symbol
 _atom_site_label
 _atom_site_symmetry_multiplicity
 _atom_site_fract_x
 _atom_site_fract_y
 _atom_site_fract_z
 _atom_site_occupancy
  Tm  Tm0  1  0.419152  0.219740  0.199051  1
  Tm  Tm1  1  0.581272  0.780642  0.801085  1
  Tm  Tm2  1  0.020443  0.219814  0.801085  1
  Tm  Tm3  1  0.979311  0.779898  0.199051  1
  Tm  Tm4  1  0.185789  0.287582  0.473371  1
  Tm  Tm5  1  0.813933  0.712282  0.526215  1
  Tm  Tm6  1  0.186142  0.712478  0.898621  1
  Lu  Lu7  1  0.814069  0.287524  0.101591  1
  Lu  Lu8  1  0.315104  0.620194  0.304845  1
  Lu  Lu9  1  0.684722  0.379647  0.695321  1
  Lu  Lu10  1  0.315673  0.010600  0.695321  1
  Lu  Lu11  1  0.684653  0.989741  0.304845  1
  In  In12  1  0.500048  0.499986  0.000034  1
  Co  Co13  1  0.377373  0.000044  0.377417  1
  Co  Co14  1  0.622738  0.000123  0.622862  1
  Co  Co15  1  0.112643  0.612542  0.499544  1
  Co  Co16  1  0.887002  0.386902  0.499544  1
  Pt  Pt17  1  0.999935  0.000260  0.000195  1
