# generated using pymatgen
data_Gd8Fe(Si4Pt)3
_symmetry_space_group_name_H-M   'P 1'
_cell_length_a   8.12305400
_cell_length_b   8.12305390
_cell_length_c   8.14621800
_cell_angle_alpha   90.00000000
_cell_angle_beta   90.00000000
_cell_angle_gamma   120.00000042
_symmetry_Int_Tables_number   1
_chemical_formula_structural   Gd8Fe(Si4Pt)3
_chemical_formula_sum   'Gd8 Fe1 Si12 Pt3'
_cell_volume   465.50605345
_cell_formula_units_Z   1
loop_
 _symmetry_equiv_pos_site_id
 _symmetry_equiv_pos_as_xyz
  1  'x, y, z'
loop_
 _atom_site_type_symbol
 _atom_site_label
 _atom_site_symmetry_multiplicity
 _atom_site_fract_x
 _atom_site_fract_y
 _atom_site_fract_z
 _atom_site_occupancy
  Gd  Gd0  1  0.000000  0.000000  0.251167  1
  Gd  Gd1  1  0.000000  0.000000  0.748951  1
  Gd  Gd2  1  0.997472  0.498735  0.254133  1
  Gd  Gd3  1  0.501265  0.498735  0.254133  1
  Gd  Gd4  1  0.502076  0.004150  0.745784  1
  Gd  Gd5  1  0.501265  0.002528  0.254133  1
  Gd  Gd6  1  0.502076  0.497924  0.745784  1
  Gd  Gd7  1  0.995850  0.497924  0.745784  1
  Fe  Fe8  1  0.666667  0.333333  0.498325  1
  Si  Si9  1  0.165492  0.330984  0.000995  1
  Si  Si10  1  0.669016  0.834508  0.000995  1
  Si  Si11  1  0.163766  0.327533  0.500080  1
  Si  Si12  1  0.329361  0.164680  0.998756  1
  Si  Si13  1  0.165492  0.834508  0.000995  1
  Si  Si14  1  0.672467  0.836234  0.500080  1
  Si  Si15  1  0.835320  0.670639  0.998756  1
  Si  Si16  1  0.344695  0.172348  0.500112  1
  Si  Si17  1  0.163766  0.836234  0.500080  1
  Si  Si18  1  0.827652  0.655305  0.500112  1
  Si  Si19  1  0.835320  0.164680  0.998756  1
  Si  Si20  1  0.827652  0.172348  0.500112  1
  Pt  Pt21  1  0.333333  0.666667  0.998996  1
  Pt  Pt22  1  0.333333  0.666667  0.501203  1
  Pt  Pt23  1  0.666667  0.333333  0.001775  1
