# generated using pymatgen
data_La5Al2IrRu2
_symmetry_space_group_name_H-M   'P 1'
_cell_length_a   8.67760656
_cell_length_b   8.67760616
_cell_length_c   8.67760607
_cell_angle_alpha   109.36774129
_cell_angle_beta   109.94004670
_cell_angle_gamma   109.10700477
_symmetry_Int_Tables_number   1
_chemical_formula_structural   La5Al2IrRu2
_chemical_formula_sum   'La10 Al4 Ir2 Ru4'
_cell_volume   502.98360722
_cell_formula_units_Z   2
loop_
 _symmetry_equiv_pos_site_id
 _symmetry_equiv_pos_as_xyz
  1  'x, y, z'
loop_
 _atom_site_type_symbol
 _atom_site_label
 _atom_site_symmetry_multiplicity
 _atom_site_fract_x
 _atom_site_fract_y
 _atom_site_fract_z
 _atom_site_occupancy
  La  La0  1  0.250000  0.690088  0.440089  1
  La  La1  1  0.750000  0.809912  0.059912  1
  La  La2  1  0.439286  0.250000  0.689285  1
  La  La3  1  0.690508  0.440509  0.250000  1
  La  La4  1  0.060715  0.750000  0.810715  1
  La  La5  1  0.809492  0.059492  0.750000  1
  La  La6  1  0.208238  0.210568  0.212309  1
  La  La7  1  0.498261  0.995929  0.287691  1
  La  La8  1  0.291762  0.504072  0.002330  1
  La  La9  1  0.001740  0.289432  0.497671  1
  Al  Al10  1  0.500031  0.999685  0.911130  1
  Al  Al11  1  0.588555  0.588901  0.588870  1
  Al  Al12  1  0.911445  0.500316  0.000345  1
  Al  Al13  1  0.999970  0.911099  0.499656  1
  Ir  Ir14  1  0.250001  0.116832  0.866832  1
  Ir  Ir15  1  0.750000  0.383167  0.633167  1
  Ru  Ru16  1  0.866556  0.250001  0.116556  1
  Ru  Ru17  1  0.119512  0.869512  0.250001  1
  Ru  Ru18  1  0.633443  0.750000  0.383443  1
  Ru  Ru19  1  0.380487  0.630487  0.750000  1
