# generated using pymatgen
data_Hf6Ta4Al12Os7
_symmetry_space_group_name_H-M   'P 1'
_cell_length_a   8.82566790
_cell_length_b   8.82566792
_cell_length_c   8.82566700
_cell_angle_alpha   59.99999220
_cell_angle_beta   59.99999213
_cell_angle_gamma   59.99999266
_symmetry_Int_Tables_number   1
_chemical_formula_structural   Hf6Ta4Al12Os7
_chemical_formula_sum   'Hf6 Ta4 Al12 Os7'
_cell_volume   486.10224583
_cell_formula_units_Z   1
loop_
 _symmetry_equiv_pos_site_id
 _symmetry_equiv_pos_as_xyz
  1  'x, y, z'
loop_
 _atom_site_type_symbol
 _atom_site_label
 _atom_site_symmetry_multiplicity
 _atom_site_fract_x
 _atom_site_fract_y
 _atom_site_fract_z
 _atom_site_occupancy
  Hf  Hf0  1  0.700621  0.700621  0.299379  1
  Hf  Hf1  1  0.299379  0.700621  0.299379  1
  Hf  Hf2  1  0.700621  0.299379  0.299379  1
  Hf  Hf3  1  0.299379  0.299379  0.700621  1
  Hf  Hf4  1  0.700621  0.299379  0.700621  1
  Hf  Hf5  1  0.299379  0.700621  0.700621  1
  Ta  Ta6  1  0.878916  0.878916  0.363254  1
  Ta  Ta7  1  0.878916  0.363254  0.878916  1
  Ta  Ta8  1  0.363254  0.878916  0.878916  1
  Ta  Ta9  1  0.878916  0.878916  0.878916  1
  Al  Al10  1  0.121194  0.121194  0.636419  1
  Al  Al11  1  0.121194  0.636419  0.121194  1
  Al  Al12  1  0.636419  0.121194  0.121194  1
  Al  Al13  1  0.121194  0.121194  0.121194  1
  Al  Al14  1  0.659121  0.659121  0.022636  1
  Al  Al15  1  0.659121  0.022636  0.659121  1
  Al  Al16  1  0.022636  0.659121  0.659121  1
  Al  Al17  1  0.659121  0.659121  0.659121  1
  Al  Al18  1  0.334699  0.334699  0.995903  1
  Al  Al19  1  0.334699  0.995903  0.334699  1
  Al  Al20  1  0.995903  0.334699  0.334699  1
  Al  Al21  1  0.334699  0.334699  0.334699  1
  Os  Os22  1  0.000000  0.000000  0.000000  1
  Os  Os23  1  0.997772  0.997772  0.502228  1
  Os  Os24  1  0.502228  0.997772  0.502228  1
  Os  Os25  1  0.997772  0.502228  0.502228  1
  Os  Os26  1  0.502228  0.502228  0.997772  1
  Os  Os27  1  0.997772  0.502228  0.997772  1
  Os  Os28  1  0.502228  0.997772  0.997772  1
