# generated using pymatgen
data_Sc11Tc3Hg
_symmetry_space_group_name_H-M   'P 1'
_cell_length_a   9.70698029
_cell_length_b   9.70698107
_cell_length_c   9.54302700
_cell_angle_alpha   60.55716876
_cell_angle_beta   60.55716616
_cell_angle_gamma   58.88565795
_symmetry_Int_Tables_number   1
_chemical_formula_structural   Sc11Tc3Hg
_chemical_formula_sum   'Sc22 Tc6 Hg2'
_cell_volume   635.47094802
_cell_formula_units_Z   2
loop_
 _symmetry_equiv_pos_site_id
 _symmetry_equiv_pos_as_xyz
  1  'x, y, z'
loop_
 _atom_site_type_symbol
 _atom_site_label
 _atom_site_symmetry_multiplicity
 _atom_site_fract_x
 _atom_site_fract_y
 _atom_site_fract_z
 _atom_site_occupancy
  Sc  Sc0  1  0.805225  0.805225  0.194775  1
  Sc  Sc1  1  0.194819  0.805181  0.194819  1
  Sc  Sc2  1  0.805181  0.194819  0.194819  1
  Sc  Sc3  1  0.194775  0.194775  0.805225  1
  Sc  Sc4  1  0.805181  0.194819  0.805181  1
  Sc  Sc5  1  0.194819  0.805181  0.805181  1
  Sc  Sc6  1  0.619750  0.619750  0.152317  1
  Sc  Sc7  1  0.608180  0.152317  0.619750  1
  Sc  Sc8  1  0.152317  0.608180  0.619750  1
  Sc  Sc9  1  0.619750  0.619750  0.608180  1
  Sc  Sc10  1  0.380250  0.380250  0.847683  1
  Sc  Sc11  1  0.391820  0.847683  0.380250  1
  Sc  Sc12  1  0.847683  0.391820  0.380250  1
  Sc  Sc13  1  0.380250  0.380250  0.391820  1
  Sc  Sc14  1  0.835602  0.835602  0.471607  1
  Sc  Sc15  1  0.857187  0.471607  0.835602  1
  Sc  Sc16  1  0.471607  0.857187  0.835602  1
  Sc  Sc17  1  0.835602  0.835602  0.857187  1
  Sc  Sc18  1  0.164398  0.164398  0.528393  1
  Sc  Sc19  1  0.142813  0.528393  0.164398  1
  Sc  Sc20  1  0.528393  0.142813  0.164398  1
  Sc  Sc21  1  0.164398  0.164398  0.142813  1
  Tc  Tc22  1  0.000000  0.000000  0.000000  1
  Tc  Tc23  1  0.500000  0.500000  0.500000  1
  Tc  Tc24  1  0.500000  0.000000  0.500000  1
  Tc  Tc25  1  0.000000  0.500000  0.500000  1
  Tc  Tc26  1  0.000000  0.500000  0.000000  1
  Tc  Tc27  1  0.500000  0.000000  0.000000  1
  Hg  Hg28  1  0.000000  0.000000  0.500000  1
  Hg  Hg29  1  0.500000  0.500000  0.000000  1
