# generated using pymatgen
data_La6Tm2Sc12Si15Ge
_symmetry_space_group_name_H-M   'P 1'
_cell_length_a   7.27605191
_cell_length_b   7.53197199
_cell_length_c   14.24325300
_cell_angle_alpha   89.85156895
_cell_angle_beta   89.45466051
_cell_angle_gamma   90.53276114
_symmetry_Int_Tables_number   1
_chemical_formula_structural   La6Tm2Sc12Si15Ge
_chemical_formula_sum   'La6 Tm2 Sc12 Si15 Ge1'
_cell_volume   780.50136605
_cell_formula_units_Z   1
loop_
 _symmetry_equiv_pos_site_id
 _symmetry_equiv_pos_as_xyz
  1  'x, y, z'
loop_
 _atom_site_type_symbol
 _atom_site_label
 _atom_site_symmetry_multiplicity
 _atom_site_fract_x
 _atom_site_fract_y
 _atom_site_fract_z
 _atom_site_occupancy
  La  La0  1  0.011616  0.171993  0.100059  1
  La  La1  1  0.988488  0.828111  0.899923  1
  La  La2  1  0.489676  0.669827  0.903144  1
  La  La3  1  0.988849  0.825331  0.594339  1
  La  La4  1  0.510674  0.330246  0.097022  1
  La  La5  1  0.009990  0.174848  0.405478  1
  Tm  Tm6  1  0.504047  0.323471  0.401462  1
  Tm  Tm7  1  0.499215  0.677328  0.598032  1
  Sc  Sc8  1  0.164160  0.500747  0.747573  1
  Sc  Sc9  1  0.835646  0.499109  0.253732  1
  Sc  Sc10  1  0.338376  0.996428  0.253735  1
  Sc  Sc11  1  0.661916  0.003318  0.746585  1
  Sc  Sc12  1  0.337752  0.174610  0.626507  1
  Sc  Sc13  1  0.663214  0.823419  0.373820  1
  Sc  Sc14  1  0.165952  0.669755  0.378644  1
  Sc  Sc15  1  0.668928  0.826688  0.128714  1
  Sc  Sc16  1  0.831069  0.331213  0.620675  1
  Sc  Sc17  1  0.330476  0.172750  0.871152  1
  Sc  Sc18  1  0.829703  0.325807  0.873270  1
  Sc  Sc19  1  0.170156  0.674469  0.126843  1
  Si  Si20  1  0.031851  0.130307  0.746966  1
  Si  Si21  1  0.967600  0.870790  0.252693  1
  Si  Si22  1  0.461918  0.622312  0.251953  1
  Si  Si23  1  0.537365  0.377710  0.748084  1
  Si  Si24  1  0.294660  0.876633  0.746604  1
  Si  Si25  1  0.705724  0.122245  0.253389  1
  Si  Si26  1  0.213680  0.382034  0.254386  1
  Si  Si27  1  0.786740  0.618064  0.745713  1
  Si  Si28  1  0.815719  0.536352  0.456278  1
  Si  Si29  1  0.350886  0.963703  0.461811  1
  Si  Si30  1  0.851683  0.538583  0.040347  1
  Si  Si31  1  0.649094  0.036557  0.537933  1
  Si  Si32  1  0.148356  0.461488  0.959740  1
  Si  Si33  1  0.649281  0.037229  0.960500  1
  Si  Si34  1  0.350646  0.962878  0.039563  1
  Ge  Ge35  1  0.184897  0.463648  0.543334  1
