# generated using pymatgen
data_CaYb2(H6Rh)2
_symmetry_space_group_name_H-M   'P 1'
_cell_length_a   4.79537400
_cell_length_b   4.79537426
_cell_length_c   7.96662400
_cell_angle_alpha   90.00000000
_cell_angle_beta   90.00000000
_cell_angle_gamma   119.99999824
_symmetry_Int_Tables_number   1
_chemical_formula_structural   CaYb2(H6Rh)2
_chemical_formula_sum   'Ca1 Yb2 H12 Rh2'
_cell_volume   158.65360741
_cell_formula_units_Z   1
loop_
 _symmetry_equiv_pos_site_id
 _symmetry_equiv_pos_as_xyz
  1  'x, y, z'
loop_
 _atom_site_type_symbol
 _atom_site_label
 _atom_site_symmetry_multiplicity
 _atom_site_fract_x
 _atom_site_fract_y
 _atom_site_fract_z
 _atom_site_occupancy
  Ca  Ca0  1  0.000000  0.000000  0.000000  1
  Yb  Yb1  1  0.666667  0.333333  0.365276  1
  Yb  Yb2  1  0.333333  0.666667  0.634724  1
  H  H3  1  0.168563  0.831437  0.371814  1
  H  H4  1  0.662874  0.831437  0.371814  1
  H  H5  1  0.168563  0.337126  0.371814  1
  H  H6  1  0.831437  0.168563  0.628186  1
  H  H7  1  0.337126  0.168563  0.628186  1
  H  H8  1  0.831437  0.662874  0.628186  1
  H  H9  1  0.506543  0.013088  0.870985  1
  H  H10  1  0.506543  0.493457  0.870985  1
  H  H11  1  0.986912  0.493457  0.870985  1
  H  H12  1  0.493457  0.986912  0.129015  1
  H  H13  1  0.493457  0.506543  0.129015  1
  H  H14  1  0.013088  0.506543  0.129015  1
  Rh  Rh15  1  0.666667  0.333333  0.747599  1
  Rh  Rh16  1  0.333333  0.666667  0.252401  1
