# generated using pymatgen
data_Dy3ErGa16Co2Tc
_symmetry_space_group_name_H-M   'P 1'
_cell_length_a   6.06618200
_cell_length_b   6.06100700
_cell_length_c   11.18342600
_cell_angle_alpha   90.00000000
_cell_angle_beta   90.00000000
_cell_angle_gamma   90.00000000
_symmetry_Int_Tables_number   1
_chemical_formula_structural   Dy3ErGa16Co2Tc
_chemical_formula_sum   'Dy3 Er1 Ga16 Co2 Tc1'
_cell_volume   411.18294243
_cell_formula_units_Z   1
loop_
 _symmetry_equiv_pos_site_id
 _symmetry_equiv_pos_as_xyz
  1  'x, y, z'
loop_
 _atom_site_type_symbol
 _atom_site_label
 _atom_site_symmetry_multiplicity
 _atom_site_fract_x
 _atom_site_fract_y
 _atom_site_fract_z
 _atom_site_occupancy
  Dy  Dy0  1  0.000000  0.500000  0.806233  1
  Dy  Dy1  1  0.500000  0.000000  0.193820  1
  Dy  Dy2  1  0.000000  0.500000  0.193676  1
  Er  Er3  1  0.500000  0.000000  0.806008  1
  Ga  Ga4  1  0.249933  0.249626  0.615007  1
  Ga  Ga5  1  0.750067  0.750374  0.615007  1
  Ga  Ga6  1  0.750067  0.249626  0.615007  1
  Ga  Ga7  1  0.249933  0.750374  0.615007  1
  Ga  Ga8  1  0.750313  0.750095  0.385273  1
  Ga  Ga9  1  0.249687  0.249905  0.385273  1
  Ga  Ga10  1  0.249687  0.750095  0.385273  1
  Ga  Ga11  1  0.750313  0.249905  0.385273  1
  Ga  Ga12  1  0.288196  0.287581  0.999722  1
  Ga  Ga13  1  0.711804  0.712419  0.999722  1
  Ga  Ga14  1  0.711804  0.287581  0.999722  1
  Ga  Ga15  1  0.288196  0.712419  0.999722  1
  Ga  Ga16  1  0.500000  0.500000  0.798792  1
  Ga  Ga17  1  0.500000  0.500000  0.201256  1
  Ga  Ga18  1  0.000000  0.000000  0.774159  1
  Ga  Ga19  1  0.000000  0.000000  0.225884  1
  Co  Co20  1  0.500000  0.000000  0.500161  1
  Co  Co21  1  0.000000  0.500000  0.500104  1
  Tc  Tc22  1  0.000000  0.000000  0.999900  1
