# generated using pymatgen
data_Dy4Re5Os3
_symmetry_space_group_name_H-M   'P 1'
_cell_length_a   5.37055593
_cell_length_b   5.26041523
_cell_length_c   9.04728300
_cell_angle_alpha   90.00000000
_cell_angle_beta   90.00000000
_cell_angle_gamma   119.32388360
_symmetry_Int_Tables_number   1
_chemical_formula_structural   Dy4Re5Os3
_chemical_formula_sum   'Dy4 Re5 Os3'
_cell_volume   222.84699805
_cell_formula_units_Z   1
loop_
 _symmetry_equiv_pos_site_id
 _symmetry_equiv_pos_as_xyz
  1  'x, y, z'
loop_
 _atom_site_type_symbol
 _atom_site_label
 _atom_site_symmetry_multiplicity
 _atom_site_fract_x
 _atom_site_fract_y
 _atom_site_fract_z
 _atom_site_occupancy
  Dy  Dy0  1  0.331386  0.665694  0.437665  1
  Dy  Dy1  1  0.669738  0.334869  0.564027  1
  Dy  Dy2  1  0.669738  0.334869  0.935973  1
  Dy  Dy3  1  0.331386  0.665694  0.062335  1
  Re  Re4  1  0.828773  0.169450  0.250000  1
  Re  Re5  1  0.828773  0.659322  0.250000  1
  Re  Re6  1  0.343410  0.171704  0.250000  1
  Re  Re7  1  0.167535  0.830018  0.750000  1
  Re  Re8  1  0.167535  0.337518  0.750000  1
  Os  Os9  1  0.005624  0.002812  0.500609  1
  Os  Os10  1  0.005624  0.002812  0.999391  1
  Os  Os11  1  0.650476  0.825238  0.750000  1
