# generated using pymatgen
data_Sr4Pt6O19
_symmetry_space_group_name_H-M   'P 1'
_cell_length_a   8.10768210
_cell_length_b   8.10640515
_cell_length_c   8.10751006
_cell_angle_alpha   109.49052921
_cell_angle_beta   109.45060525
_cell_angle_gamma   109.47420701
_symmetry_Int_Tables_number   1
_chemical_formula_structural   Sr4Pt6O19
_chemical_formula_sum   'Sr4 Pt6 O19'
_cell_volume   410.18670528
_cell_formula_units_Z   1
loop_
 _symmetry_equiv_pos_site_id
 _symmetry_equiv_pos_as_xyz
  1  'x, y, z'
loop_
 _atom_site_type_symbol
 _atom_site_label
 _atom_site_symmetry_multiplicity
 _atom_site_fract_x
 _atom_site_fract_y
 _atom_site_fract_z
 _atom_site_occupancy
  Sr  Sr0  1  0.999913  0.999934  0.299026  1
  Sr  Sr1  1  0.700826  0.700975  0.701003  1
  Sr  Sr2  1  0.000208  0.299108  0.999983  1
  Sr  Sr3  1  0.299037  0.999952  0.999918  1
  Pt  Pt4  1  0.500126  0.660045  0.160115  1
  Pt  Pt5  1  0.339955  0.839995  0.499955  1
  Pt  Pt6  1  0.839947  0.499990  0.339964  1
  Pt  Pt7  1  0.500095  0.339999  0.840087  1
  Pt  Pt8  1  0.159906  0.499953  0.659953  1
  Pt  Pt9  1  0.659948  0.160022  0.499947  1
  O  O10  1  0.661526  0.958071  0.282315  1
  O  O11  1  0.379283  0.717744  0.675738  1
  O  O12  1  0.703657  0.324404  0.042064  1
  O  O13  1  0.675670  0.379199  0.717612  1
  O  O14  1  0.041848  0.703407  0.324286  1
  O  O15  1  0.282325  0.661565  0.958144  1
  O  O16  1  0.324307  0.042074  0.703619  1
  O  O17  1  0.957803  0.282173  0.661466  1
  O  O18  1  0.717763  0.675713  0.379273  1
  O  O19  1  0.338529  0.620699  0.296466  1
  O  O20  1  0.620884  0.296519  0.338470  1
  O  O21  1  0.296474  0.338343  0.620753  1
  O  O22  1  0.644449  0.644440  0.999996  1
  O  O23  1  0.644476  0.000099  0.644415  1
  O  O24  1  0.999875  0.355553  0.355457  1
  O  O25  1  0.355659  0.000067  0.355586  1
  O  O26  1  0.999879  0.644410  0.644326  1
  O  O27  1  0.355633  0.355560  0.000072  1
  O  O28  1  0.000001  0.999988  0.999991  1
