# generated using pymatgen
data_Er3Tm13CdIn3Ni4
_symmetry_space_group_name_H-M   'P 1'
_cell_length_a   9.45386938
_cell_length_b   9.45159270
_cell_length_c   9.45159200
_cell_angle_alpha   60.00000244
_cell_angle_beta   60.00796838
_cell_angle_gamma   60.00797161
_symmetry_Int_Tables_number   1
_chemical_formula_structural   Er3Tm13CdIn3Ni4
_chemical_formula_sum   'Er3 Tm13 Cd1 In3 Ni4'
_cell_volume   597.25099112
_cell_formula_units_Z   1
loop_
 _symmetry_equiv_pos_site_id
 _symmetry_equiv_pos_as_xyz
  1  'x, y, z'
loop_
 _atom_site_type_symbol
 _atom_site_label
 _atom_site_symmetry_multiplicity
 _atom_site_fract_x
 _atom_site_fract_y
 _atom_site_fract_z
 _atom_site_occupancy
  Er  Er0  1  0.347728  0.347938  0.347938  1
  Er  Er1  1  0.347728  0.347938  0.956395  1
  Er  Er2  1  0.347728  0.956395  0.347938  1
  Tm  Tm3  1  0.955414  0.348195  0.348195  1
  Tm  Tm4  1  0.811712  0.188033  0.188033  1
  Tm  Tm5  1  0.187626  0.812785  0.812785  1
  Tm  Tm6  1  0.187626  0.812785  0.186806  1
  Tm  Tm7  1  0.811712  0.188033  0.812221  1
  Tm  Tm8  1  0.187626  0.186806  0.812785  1
  Tm  Tm9  1  0.811712  0.812221  0.188033  1
  Tm  Tm10  1  0.938375  0.563114  0.563114  1
  Tm  Tm11  1  0.564278  0.936673  0.936673  1
  Tm  Tm12  1  0.564278  0.936673  0.562375  1
  Tm  Tm13  1  0.938375  0.563114  0.935398  1
  Tm  Tm14  1  0.564278  0.562375  0.936673  1
  Tm  Tm15  1  0.938375  0.935398  0.563114  1
  Cd  Cd16  1  0.251808  0.582731  0.582731  1
  In  In17  1  0.581634  0.583164  0.583164  1
  In  In18  1  0.581634  0.583164  0.252039  1
  In  In19  1  0.581634  0.252039  0.583164  1
  Ni  Ni20  1  0.141968  0.142102  0.142102  1
  Ni  Ni21  1  0.141968  0.142102  0.573827  1
  Ni  Ni22  1  0.141968  0.573827  0.142102  1
  Ni  Ni23  1  0.572815  0.142395  0.142395  1
