# generated using pymatgen
data_K9Rb3(AsSe4)4
_symmetry_space_group_name_H-M   'P 1'
_cell_length_a   9.74236859
_cell_length_b   10.30810683
_cell_length_c   11.04585800
_cell_angle_alpha   90.00000000
_cell_angle_beta   90.00000000
_cell_angle_gamma   89.68356064
_symmetry_Int_Tables_number   1
_chemical_formula_structural   K9Rb3(AsSe4)4
_chemical_formula_sum   'K9 Rb3 As4 Se16'
_cell_volume   1109.26752781
_cell_formula_units_Z   1
loop_
 _symmetry_equiv_pos_site_id
 _symmetry_equiv_pos_as_xyz
  1  'x, y, z'
loop_
 _atom_site_type_symbol
 _atom_site_label
 _atom_site_symmetry_multiplicity
 _atom_site_fract_x
 _atom_site_fract_y
 _atom_site_fract_z
 _atom_site_occupancy
  K  K0  1  0.867665  0.926724  0.250000  1
  K  K1  1  0.572574  0.193613  0.050487  1
  K  K2  1  0.070975  0.304555  0.454259  1
  K  K3  1  0.429937  0.803278  0.547312  1
  K  K4  1  0.927037  0.696028  0.952832  1
  K  K5  1  0.429937  0.803278  0.952688  1
  K  K6  1  0.927037  0.696028  0.547168  1
  K  K7  1  0.572574  0.193613  0.449513  1
  K  K8  1  0.070975  0.304555  0.045741  1
  Rb  Rb9  1  0.650470  0.415847  0.750000  1
  Rb  Rb10  1  0.149344  0.081436  0.750000  1
  Rb  Rb11  1  0.346927  0.583154  0.250000  1
  As  As12  1  0.729012  0.974273  0.750000  1
  As  As13  1  0.229155  0.524820  0.750000  1
  As  As14  1  0.271016  0.024618  0.250000  1
  As  As15  1  0.768807  0.476018  0.250000  1
  Se  Se16  1  0.855445  0.023875  0.572390  1
  Se  Se17  1  0.355466  0.474663  0.927434  1
  Se  Se18  1  0.143281  0.974351  0.073182  1
  Se  Se19  1  0.640652  0.522172  0.427707  1
  Se  Se20  1  0.143281  0.974351  0.426818  1
  Se  Se21  1  0.640652  0.522172  0.072293  1
  Se  Se22  1  0.855445  0.023875  0.927610  1
  Se  Se23  1  0.355466  0.474663  0.572566  1
  Se  Se24  1  0.676679  0.751466  0.750000  1
  Se  Se25  1  0.176356  0.747848  0.750000  1
  Se  Se26  1  0.320982  0.247926  0.250000  1
  Se  Se27  1  0.826992  0.253120  0.250000  1
  Se  Se28  1  0.518743  0.091300  0.750000  1
  Se  Se29  1  0.018903  0.408869  0.750000  1
  Se  Se30  1  0.482942  0.909011  0.250000  1
  Se  Se31  1  0.975274  0.598501  0.250000  1
