# generated using pymatgen
data_Nd10ZnSi4Pt
_symmetry_space_group_name_H-M   'P 1'
_cell_length_a   7.73950519
_cell_length_b   7.73950550
_cell_length_c   9.28819600
_cell_angle_alpha   114.62208736
_cell_angle_beta   114.62208843
_cell_angle_gamma   90.00000363
_symmetry_Int_Tables_number   1
_chemical_formula_structural   Nd10ZnSi4Pt
_chemical_formula_sum   'Nd10 Zn1 Si4 Pt1'
_cell_volume   449.53144061
_cell_formula_units_Z   1
loop_
 _symmetry_equiv_pos_site_id
 _symmetry_equiv_pos_as_xyz
  1  'x, y, z'
loop_
 _atom_site_type_symbol
 _atom_site_label
 _atom_site_symmetry_multiplicity
 _atom_site_fract_x
 _atom_site_fract_y
 _atom_site_fract_z
 _atom_site_occupancy
  Nd  Nd0  1  0.470268  0.470268  0.940535  1
  Nd  Nd1  1  0.029732  0.029732  0.059465  1
  Nd  Nd2  1  0.945699  0.797598  0.279205  1
  Nd  Nd3  1  0.333507  0.481607  0.279205  1
  Nd  Nd4  1  0.797598  0.333507  0.279205  1
  Nd  Nd5  1  0.481607  0.945699  0.279205  1
  Nd  Nd6  1  0.018393  0.166493  0.720795  1
  Nd  Nd7  1  0.702402  0.554301  0.720795  1
  Nd  Nd8  1  0.166493  0.702402  0.720795  1
  Nd  Nd9  1  0.554301  0.018393  0.720795  1
  Zn  Zn10  1  0.250000  0.250000  0.500000  1
  Si  Si11  1  0.616188  0.883812  0.000000  1
  Si  Si12  1  0.383812  0.116188  0.000000  1
  Si  Si13  1  0.883812  0.383812  0.000000  1
  Si  Si14  1  0.116188  0.616188  0.000000  1
  Pt  Pt15  1  0.750000  0.750000  0.500000  1
