# generated using pymatgen
data_La5Mg2Ir2Ru
_symmetry_space_group_name_H-M   'P 1'
_cell_length_a   8.84416219
_cell_length_b   8.80867899
_cell_length_c   8.77427033
_cell_angle_alpha   109.21409365
_cell_angle_beta   109.33906942
_cell_angle_gamma   109.86555031
_symmetry_Int_Tables_number   1
_chemical_formula_structural   La5Mg2Ir2Ru
_chemical_formula_sum   'La10 Mg4 Ir4 Ru2'
_cell_volume   526.15977976
_cell_formula_units_Z   2
loop_
 _symmetry_equiv_pos_site_id
 _symmetry_equiv_pos_as_xyz
  1  'x, y, z'
loop_
 _atom_site_type_symbol
 _atom_site_label
 _atom_site_symmetry_multiplicity
 _atom_site_fract_x
 _atom_site_fract_y
 _atom_site_fract_z
 _atom_site_occupancy
  La  La0  1  0.792228  0.997631  0.995543  1
  La  La1  1  0.246744  0.317477  0.066940  1
  La  La2  1  0.709418  0.707706  0.204814  1
  La  La3  1  0.181852  0.931510  0.250461  1
  La  La4  1  0.999795  0.499803  0.290733  1
  La  La5  1  0.750659  0.181021  0.434622  1
  La  La6  1  0.504739  0.795270  0.502845  1
  La  La7  1  0.929796  0.748888  0.682695  1
  La  La8  1  0.317247  0.567725  0.749658  1
  La  La9  1  0.570171  0.254055  0.820094  1
  Mg  Mg10  1  0.410384  0.000351  0.000275  1
  Mg  Mg11  1  0.499373  0.409685  0.499807  1
  Mg  Mg12  1  0.089966  0.089432  0.590315  1
  Mg  Mg13  1  0.999839  0.500435  0.910103  1
  Ir  Ir14  1  0.380915  0.750412  0.130938  1
  Ir  Ir15  1  0.629918  0.379652  0.249217  1
  Ir  Ir16  1  0.119700  0.250276  0.369046  1
  Ir  Ir17  1  0.249822  0.868760  0.618766  1
  Ru  Ru18  1  0.867605  0.116841  0.749572  1
  Ru  Ru19  1  0.749829  0.633070  0.883559  1
