# generated using pymatgen
data_Tb3Lu7(Si5Ir2)4
_symmetry_space_group_name_H-M   'P 1'
_cell_length_a   12.57131000
_cell_length_b   12.57131068
_cell_length_c   4.22168200
_cell_angle_alpha   90.00000000
_cell_angle_beta   90.00000000
_cell_angle_gamma   89.91370520
_symmetry_Int_Tables_number   1
_chemical_formula_structural   Tb3Lu7(Si5Ir2)4
_chemical_formula_sum   'Tb3 Lu7 Si20 Ir8'
_cell_volume   667.18476312
_cell_formula_units_Z   1
loop_
 _symmetry_equiv_pos_site_id
 _symmetry_equiv_pos_as_xyz
  1  'x, y, z'
loop_
 _atom_site_type_symbol
 _atom_site_label
 _atom_site_symmetry_multiplicity
 _atom_site_fract_x
 _atom_site_fract_y
 _atom_site_fract_z
 _atom_site_occupancy
  Tb  Tb0  1  0.115951  0.615951  0.500000  1
  Tb  Tb1  1  0.383944  0.116001  0.500000  1
  Tb  Tb2  1  0.616001  0.883944  0.500000  1
  Lu  Lu3  1  0.500305  0.499867  0.000000  1
  Lu  Lu4  1  0.999867  0.000305  0.000000  1
  Lu  Lu5  1  0.676237  0.176237  0.500000  1
  Lu  Lu6  1  0.323908  0.823908  0.500000  1
  Lu  Lu7  1  0.175555  0.324251  0.500000  1
  Lu  Lu8  1  0.824251  0.675555  0.500000  1
  Lu  Lu9  1  0.883497  0.383497  0.500000  1
  Si  Si10  1  0.566307  0.066307  0.000000  1
  Si  Si11  1  0.433747  0.933747  0.000000  1
  Si  Si12  1  0.065904  0.434000  0.000000  1
  Si  Si13  1  0.934000  0.565904  0.000000  1
  Si  Si14  1  0.663750  0.700462  0.000000  1
  Si  Si15  1  0.336452  0.299034  0.000000  1
  Si  Si16  1  0.163370  0.798998  0.000000  1
  Si  Si17  1  0.836293  0.201394  0.000000  1
  Si  Si18  1  0.298998  0.663370  0.000000  1
  Si  Si19  1  0.701394  0.336293  0.000000  1
  Si  Si20  1  0.200462  0.163750  0.000000  1
  Si  Si21  1  0.799034  0.836452  0.000000  1
  Si  Si22  1  0.654951  0.503147  0.500000  1
  Si  Si23  1  0.345558  0.496522  0.500000  1
  Si  Si24  1  0.154419  0.996912  0.500000  1
  Si  Si25  1  0.845504  0.003705  0.500000  1
  Si  Si26  1  0.496912  0.654419  0.500000  1
  Si  Si27  1  0.503705  0.345504  0.500000  1
  Si  Si28  1  0.003147  0.154951  0.500000  1
  Si  Si29  1  0.996522  0.845558  0.500000  1
  Ir  Ir30  1  0.746278  0.520807  0.000000  1
  Ir  Ir31  1  0.255211  0.477632  0.000000  1
  Ir  Ir32  1  0.244491  0.977973  0.000000  1
  Ir  Ir33  1  0.755453  0.022206  0.000000  1
  Ir  Ir34  1  0.477973  0.744491  0.000000  1
  Ir  Ir35  1  0.522206  0.255453  0.000000  1
  Ir  Ir36  1  0.020807  0.246278  0.000000  1
  Ir  Ir37  1  0.977632  0.755211  0.000000  1
