# generated using pymatgen
data_Ho16In4PdPt3
_symmetry_space_group_name_H-M   'P 1'
_cell_length_a   9.69294509
_cell_length_b   9.67839819
_cell_length_c   9.69294500
_cell_angle_alpha   59.95027151
_cell_angle_beta   60.00000372
_cell_angle_gamma   59.95027224
_symmetry_Int_Tables_number   1
_chemical_formula_structural   Ho16In4PdPt3
_chemical_formula_sum   'Ho16 In4 Pd1 Pt3'
_cell_volume   642.50003952
_cell_formula_units_Z   1
loop_
 _symmetry_equiv_pos_site_id
 _symmetry_equiv_pos_as_xyz
  1  'x, y, z'
loop_
 _atom_site_type_symbol
 _atom_site_label
 _atom_site_symmetry_multiplicity
 _atom_site_fract_x
 _atom_site_fract_y
 _atom_site_fract_z
 _atom_site_occupancy
  Ho  Ho0  1  0.188581  0.187457  0.811981  1
  Ho  Ho1  1  0.602125  0.598871  0.196881  1
  Ho  Ho2  1  0.439297  0.062437  0.439297  1
  Ho  Ho3  1  0.439231  0.439039  0.060865  1
  Ho  Ho4  1  0.811981  0.187457  0.811981  1
  Ho  Ho5  1  0.187997  0.811291  0.187997  1
  Ho  Ho6  1  0.439297  0.062437  0.058969  1
  Ho  Ho7  1  0.187997  0.811291  0.812715  1
  Ho  Ho8  1  0.060865  0.439039  0.060865  1
  Ho  Ho9  1  0.812715  0.811291  0.187997  1
  Ho  Ho10  1  0.196881  0.598871  0.602125  1
  Ho  Ho11  1  0.060865  0.439039  0.439231  1
  Ho  Ho12  1  0.058969  0.062437  0.439297  1
  Ho  Ho13  1  0.811981  0.187457  0.188581  1
  Ho  Ho14  1  0.600214  0.199358  0.600214  1
  Ho  Ho15  1  0.602125  0.598871  0.602125  1
  In  In16  1  0.833022  0.833471  0.833022  1
  In  In17  1  0.833022  0.833471  0.500485  1
  In  In18  1  0.500485  0.833471  0.833022  1
  In  In19  1  0.833311  0.500067  0.833311  1
  Pd  Pd20  1  0.393211  0.820365  0.393211  1
  Pt  Pt21  1  0.392552  0.394173  0.392552  1
  Pt  Pt22  1  0.820723  0.394173  0.392552  1
  Pt  Pt23  1  0.392552  0.394173  0.820723  1
