# generated using pymatgen
data_Sr3AlGaSi2
_symmetry_space_group_name_H-M   'P 1'
_cell_length_a   4.19406119
_cell_length_b   4.82664441
_cell_length_c   10.04916532
_cell_angle_alpha   103.89547692
_cell_angle_beta   102.04484525
_cell_angle_gamma   89.99999834
_symmetry_Int_Tables_number   1
_chemical_formula_structural   Sr3AlGaSi2
_chemical_formula_sum   'Sr3 Al1 Ga1 Si2'
_cell_volume   192.85771984
_cell_formula_units_Z   1
loop_
 _symmetry_equiv_pos_site_id
 _symmetry_equiv_pos_as_xyz
  1  'x, y, z'
loop_
 _atom_site_type_symbol
 _atom_site_label
 _atom_site_symmetry_multiplicity
 _atom_site_fract_x
 _atom_site_fract_y
 _atom_site_fract_z
 _atom_site_occupancy
  Sr  Sr0  1  0.500974  0.000973  0.001946  1
  Sr  Sr1  1  0.184205  0.184205  0.368409  1
  Sr  Sr2  1  0.814723  0.814722  0.629444  1
  Al  Al3  1  0.934060  0.434059  0.868119  1
  Ga  Ga4  1  0.065767  0.565766  0.131534  1
  Si  Si5  1  0.639153  0.639152  0.278307  1
  Si  Si6  1  0.361121  0.361121  0.722241  1
