# generated using pymatgen
data_Pr4Ho4Tc3B24Ru
_symmetry_space_group_name_H-M   'P 1'
_cell_length_a   3.74136700
_cell_length_b   9.23783526
_cell_length_c   11.70485023
_cell_angle_alpha   89.93961843
_cell_angle_beta   90.00000000
_cell_angle_gamma   90.00000000
_symmetry_Int_Tables_number   1
_chemical_formula_structural   Pr4Ho4Tc3B24Ru
_chemical_formula_sum   'Pr4 Ho4 Tc3 B24 Ru1'
_cell_volume   404.54435393
_cell_formula_units_Z   1
loop_
 _symmetry_equiv_pos_site_id
 _symmetry_equiv_pos_as_xyz
  1  'x, y, z'
loop_
 _atom_site_type_symbol
 _atom_site_label
 _atom_site_symmetry_multiplicity
 _atom_site_fract_x
 _atom_site_fract_y
 _atom_site_fract_z
 _atom_site_occupancy
  Pr  Pr0  1  0.000000  0.322856  0.414294  1
  Pr  Pr1  1  0.000000  0.675765  0.583920  1
  Pr  Pr2  1  0.000000  0.822798  0.086664  1
  Pr  Pr3  1  0.000000  0.178014  0.915289  1
  Ho  Ho4  1  0.000000  0.942464  0.368908  1
  Ho  Ho5  1  0.000000  0.058225  0.631706  1
  Ho  Ho6  1  0.000000  0.442774  0.131430  1
  Ho  Ho7  1  0.000000  0.557778  0.868056  1
  Tc  Tc8  1  0.000000  0.639608  0.318770  1
  Tc  Tc9  1  0.000000  0.360358  0.681788  1
  Tc  Tc10  1  0.000000  0.139006  0.180431  1
  B  B11  1  0.500000  0.555422  0.429711  1
  B  B12  1  0.500000  0.444319  0.569899  1
  B  B13  1  0.500000  0.055598  0.070082  1
  B  B14  1  0.500000  0.943826  0.929749  1
  B  B15  1  0.500000  0.749606  0.415314  1
  B  B16  1  0.500000  0.249855  0.584843  1
  B  B17  1  0.500000  0.250236  0.084663  1
  B  B18  1  0.500000  0.750595  0.914895  1
  B  B19  1  0.500000  0.790918  0.266045  1
  B  B20  1  0.500000  0.209435  0.734520  1
  B  B21  1  0.500000  0.290756  0.234020  1
  B  B22  1  0.500000  0.710036  0.765728  1
  B  B23  1  0.500000  0.629512  0.186138  1
  B  B24  1  0.500000  0.370780  0.814234  1
  B  B25  1  0.500000  0.129041  0.313438  1
  B  B26  1  0.500000  0.870527  0.686472  1
  B  B27  1  0.500000  0.984206  0.213176  1
  B  B28  1  0.500000  0.014482  0.787258  1
  B  B29  1  0.500000  0.484631  0.286497  1
  B  B30  1  0.500000  0.515173  0.712936  1
  B  B31  1  0.500000  0.596919  0.026305  1
  B  B32  1  0.500000  0.404375  0.973324  1
  B  B33  1  0.500000  0.096182  0.473974  1
  B  B34  1  0.500000  0.903647  0.526908  1
  Ru  Ru35  1  0.000000  0.860276  0.818617  1
