# generated using pymatgen
data_Li3YHo3AlPt4
_symmetry_space_group_name_H-M   'P 1'
_cell_length_a   4.02984100
_cell_length_b   6.99049634
_cell_length_c   8.41200319
_cell_angle_alpha   90.77596943
_cell_angle_beta   90.00000000
_cell_angle_gamma   90.00000000
_symmetry_Int_Tables_number   1
_chemical_formula_structural   Li3YHo3AlPt4
_chemical_formula_sum   'Li3 Y1 Ho3 Al1 Pt4'
_cell_volume   236.94935044
_cell_formula_units_Z   1
loop_
 _symmetry_equiv_pos_site_id
 _symmetry_equiv_pos_as_xyz
  1  'x, y, z'
loop_
 _atom_site_type_symbol
 _atom_site_label
 _atom_site_symmetry_multiplicity
 _atom_site_fract_x
 _atom_site_fract_y
 _atom_site_fract_z
 _atom_site_occupancy
  Li  Li0  1  0.250000  0.130393  0.060968  1
  Li  Li1  1  0.250000  0.629380  0.438602  1
  Li  Li2  1  0.750000  0.874107  0.942236  1
  Y  Y3  1  0.750000  0.954716  0.319991  1
  Ho  Ho4  1  0.250000  0.043249  0.683181  1
  Ho  Ho5  1  0.250000  0.544993  0.818374  1
  Ho  Ho6  1  0.750000  0.454816  0.179310  1
  Al  Al7  1  0.750000  0.372191  0.557773  1
  Pt  Pt8  1  0.250000  0.255126  0.390635  1
  Pt  Pt9  1  0.250000  0.742794  0.124168  1
  Pt  Pt10  1  0.750000  0.741908  0.619947  1
  Pt  Pt11  1  0.750000  0.256324  0.864818  1
