# generated using pymatgen
data_Tb7Sn23Os6
_symmetry_space_group_name_H-M   'P 1'
_cell_length_a   9.87283500
_cell_length_b   9.87283446
_cell_length_c   10.14797600
_cell_angle_alpha   90.00000000
_cell_angle_beta   90.00000000
_cell_angle_gamma   120.00000517
_symmetry_Int_Tables_number   1
_chemical_formula_structural   Tb7Sn23Os6
_chemical_formula_sum   'Tb7 Sn23 Os6'
_cell_volume   856.63097566
_cell_formula_units_Z   1
loop_
 _symmetry_equiv_pos_site_id
 _symmetry_equiv_pos_as_xyz
  1  'x, y, z'
loop_
 _atom_site_type_symbol
 _atom_site_label
 _atom_site_symmetry_multiplicity
 _atom_site_fract_x
 _atom_site_fract_y
 _atom_site_fract_z
 _atom_site_occupancy
  Tb  Tb0  1  0.000000  0.000000  0.000000  1
  Tb  Tb1  1  0.484433  0.515567  0.301979  1
  Tb  Tb2  1  0.515567  0.484433  0.698021  1
  Tb  Tb3  1  0.484433  0.968865  0.301979  1
  Tb  Tb4  1  0.515567  0.031135  0.698021  1
  Tb  Tb5  1  0.031135  0.515567  0.301979  1
  Tb  Tb6  1  0.968865  0.484433  0.698021  1
  Sn  Sn7  1  0.349556  0.000000  0.000000  1
  Sn  Sn8  1  0.650444  0.000000  0.000000  1
  Sn  Sn9  1  0.000000  0.349556  0.000000  1
  Sn  Sn10  1  0.000000  0.650444  0.000000  1
  Sn  Sn11  1  0.650444  0.650444  0.000000  1
  Sn  Sn12  1  0.349556  0.349556  0.000000  1
  Sn  Sn13  1  0.333333  0.666667  0.823812  1
  Sn  Sn14  1  0.666667  0.333333  0.176188  1
  Sn  Sn15  1  0.000000  0.000000  0.500000  1
  Sn  Sn16  1  0.780629  0.219371  0.462106  1
  Sn  Sn17  1  0.219371  0.780629  0.537894  1
  Sn  Sn18  1  0.780629  0.561258  0.462106  1
  Sn  Sn19  1  0.219371  0.438742  0.537894  1
  Sn  Sn20  1  0.438742  0.219371  0.462106  1
  Sn  Sn21  1  0.561258  0.780629  0.537894  1
  Sn  Sn22  1  0.333333  0.666667  0.127204  1
  Sn  Sn23  1  0.666667  0.333333  0.872796  1
  Sn  Sn24  1  0.117316  0.882684  0.275485  1
  Sn  Sn25  1  0.882684  0.117316  0.724515  1
  Sn  Sn26  1  0.117316  0.234633  0.275485  1
  Sn  Sn27  1  0.882684  0.765367  0.724515  1
  Sn  Sn28  1  0.765367  0.882684  0.275485  1
  Sn  Sn29  1  0.234633  0.117316  0.724515  1
  Os  Os30  1  0.829992  0.170008  0.201940  1
  Os  Os31  1  0.170008  0.829992  0.798060  1
  Os  Os32  1  0.829992  0.659984  0.201940  1
  Os  Os33  1  0.170008  0.340016  0.798060  1
  Os  Os34  1  0.340016  0.170008  0.201940  1
  Os  Os35  1  0.659984  0.829992  0.798060  1
