# generated using pymatgen
data_Nd2Th(Ga2Ni3)3
_symmetry_space_group_name_H-M   'P 1'
_cell_length_a   8.84414000
_cell_length_b   8.84414057
_cell_length_c   4.16216500
_cell_angle_alpha   90.00000000
_cell_angle_beta   90.00000000
_cell_angle_gamma   120.00000533
_symmetry_Int_Tables_number   1
_chemical_formula_structural   Nd2Th(Ga2Ni3)3
_chemical_formula_sum   'Nd2 Th1 Ga6 Ni9'
_cell_volume   281.94288984
_cell_formula_units_Z   1
loop_
 _symmetry_equiv_pos_site_id
 _symmetry_equiv_pos_as_xyz
  1  'x, y, z'
loop_
 _atom_site_type_symbol
 _atom_site_label
 _atom_site_symmetry_multiplicity
 _atom_site_fract_x
 _atom_site_fract_y
 _atom_site_fract_z
 _atom_site_occupancy
  Nd  Nd0  1  0.333333  0.666667  0.500000  1
  Nd  Nd1  1  0.666667  0.333333  0.500000  1
  Th  Th2  1  0.000000  0.000000  0.000000  1
  Ga  Ga3  1  0.482364  0.000000  0.000000  1
  Ga  Ga4  1  0.000000  0.482364  0.000000  1
  Ga  Ga5  1  0.517636  0.517636  0.000000  1
  Ga  Ga6  1  0.723054  0.000000  0.500000  1
  Ga  Ga7  1  0.000000  0.723054  0.500000  1
  Ga  Ga8  1  0.276946  0.276946  0.500000  1
  Ni  Ni9  1  0.194531  0.367789  0.000000  1
  Ni  Ni10  1  0.632211  0.826743  0.000000  1
  Ni  Ni11  1  0.173257  0.805469  0.000000  1
  Ni  Ni12  1  0.826743  0.632211  0.000000  1
  Ni  Ni13  1  0.805469  0.173257  0.000000  1
  Ni  Ni14  1  0.367789  0.194531  0.000000  1
  Ni  Ni15  1  0.290869  0.000000  0.500000  1
  Ni  Ni16  1  0.000000  0.290869  0.500000  1
  Ni  Ni17  1  0.709131  0.709131  0.500000  1
