# generated using pymatgen
data_Sc5SiSe4
_symmetry_space_group_name_H-M   'P 1'
_cell_length_a   6.72487027
_cell_length_b   6.72487032
_cell_length_c   6.72486976
_cell_angle_alpha   99.50182201
_cell_angle_beta   99.50181859
_cell_angle_gamma   132.05488007
_symmetry_Int_Tables_number   1
_chemical_formula_structural   Sc5SiSe4
_chemical_formula_sum   'Sc5 Si1 Se4'
_cell_volume   206.33502481
_cell_formula_units_Z   1
loop_
 _symmetry_equiv_pos_site_id
 _symmetry_equiv_pos_as_xyz
  1  'x, y, z'
loop_
 _atom_site_type_symbol
 _atom_site_label
 _atom_site_symmetry_multiplicity
 _atom_site_fract_x
 _atom_site_fract_y
 _atom_site_fract_z
 _atom_site_occupancy
  Sc  Sc0  1  0.405879  0.786969  0.192848  1
  Sc  Sc1  1  0.000000  0.000000  0.000000  1
  Sc  Sc2  1  0.594121  0.213031  0.807152  1
  Sc  Sc3  1  0.213031  0.405879  0.618910  1
  Sc  Sc4  1  0.786969  0.594121  0.381090  1
  Si  Si5  1  0.500000  0.500000  0.000000  1
  Se  Se6  1  0.096953  0.698060  0.795012  1
  Se  Se7  1  0.698060  0.903047  0.601107  1
  Se  Se8  1  0.301940  0.096953  0.398893  1
  Se  Se9  1  0.903047  0.301940  0.204988  1
