# generated using pymatgen
data_Pr8Nd8MgHg3Ru4
_symmetry_space_group_name_H-M   'P 1'
_cell_length_a   9.96276211
_cell_length_b   9.95988844
_cell_length_c   9.96393435
_cell_angle_alpha   59.84779809
_cell_angle_beta   59.85849146
_cell_angle_gamma   59.85776081
_symmetry_Int_Tables_number   1
_chemical_formula_structural   Pr8Nd8MgHg3Ru4
_chemical_formula_sum   'Pr8 Nd8 Mg1 Hg3 Ru4'
_cell_volume   696.81188582
_cell_formula_units_Z   1
loop_
 _symmetry_equiv_pos_site_id
 _symmetry_equiv_pos_as_xyz
  1  'x, y, z'
loop_
 _atom_site_type_symbol
 _atom_site_label
 _atom_site_symmetry_multiplicity
 _atom_site_fract_x
 _atom_site_fract_y
 _atom_site_fract_z
 _atom_site_occupancy
  Pr  Pr0  1  0.557550  0.558101  0.941623  1
  Pr  Pr1  1  0.187501  0.813161  0.187152  1
  Pr  Pr2  1  0.810096  0.809380  0.188306  1
  Pr  Pr3  1  0.187768  0.187506  0.812879  1
  Pr  Pr4  1  0.404943  0.786859  0.404728  1
  Pr  Pr5  1  0.809819  0.188516  0.809300  1
  Pr  Pr6  1  0.937875  0.937975  0.559978  1
  Pr  Pr7  1  0.812754  0.188004  0.187915  1
  Nd  Nd8  1  0.938491  0.559522  0.938285  1
  Nd  Nd9  1  0.785936  0.405362  0.405032  1
  Nd  Nd10  1  0.559668  0.938278  0.937927  1
  Nd  Nd11  1  0.188921  0.809311  0.809523  1
  Nd  Nd12  1  0.557509  0.941953  0.558005  1
  Nd  Nd13  1  0.401982  0.402026  0.402615  1
  Nd  Nd14  1  0.941786  0.557767  0.557741  1
  Nd  Nd15  1  0.404828  0.404938  0.786213  1
  Mg  Mg16  1  0.180824  0.181492  0.180411  1
  Hg  Hg17  1  0.164852  0.500684  0.164552  1
  Hg  Hg18  1  0.165194  0.164885  0.500708  1
  Hg  Hg19  1  0.500132  0.165105  0.165117  1
  Ru  Ru20  1  0.163868  0.611193  0.613552  1
  Ru  Ru21  1  0.613429  0.611791  0.163804  1
  Ru  Ru22  1  0.612370  0.611935  0.612120  1
  Ru  Ru23  1  0.611900  0.164258  0.612516  1
