# generated using pymatgen
data_Tb5FeIrO12
_symmetry_space_group_name_H-M   'P 1'
_cell_length_a   6.86248273
_cell_length_b   6.86248126
_cell_length_c   7.33441002
_cell_angle_alpha   74.42862844
_cell_angle_beta   74.42863124
_cell_angle_gamma   51.24312115
_symmetry_Int_Tables_number   1
_chemical_formula_structural   Tb5FeIrO12
_chemical_formula_sum   'Tb5 Fe1 Ir1 O12'
_cell_volume   257.13591619
_cell_formula_units_Z   1
loop_
 _symmetry_equiv_pos_site_id
 _symmetry_equiv_pos_as_xyz
  1  'x, y, z'
loop_
 _atom_site_type_symbol
 _atom_site_label
 _atom_site_symmetry_multiplicity
 _atom_site_fract_x
 _atom_site_fract_y
 _atom_site_fract_z
 _atom_site_occupancy
  Tb  Tb0  1  0.692970  0.690562  0.669779  1
  Tb  Tb1  1  0.691171  0.702861  0.140037  1
  Tb  Tb2  1  0.995551  0.004449  0.000000  1
  Tb  Tb3  1  0.297139  0.308829  0.859963  1
  Tb  Tb4  1  0.309438  0.307030  0.330221  1
  Fe  Fe5  1  0.246344  0.753656  0.500000  1
  Ir  Ir6  1  0.758689  0.241311  0.500000  1
  O  O7  1  0.400896  0.906012  0.923845  1
  O  O8  1  0.575754  0.096340  0.582572  1
  O  O9  1  0.903660  0.424246  0.417428  1
  O  O10  1  0.093988  0.599104  0.076155  1
  O  O11  1  0.995839  0.004681  0.315607  1
  O  O12  1  0.510602  0.489429  0.686389  1
  O  O13  1  0.901213  0.405510  0.925338  1
  O  O14  1  0.101024  0.574657  0.580854  1
  O  O15  1  0.425343  0.898976  0.419146  1
  O  O16  1  0.594490  0.098787  0.074662  1
  O  O17  1  0.510571  0.489398  0.313611  1
  O  O18  1  0.995319  0.004161  0.684393  1
