# generated using pymatgen
data_Dy5Os2C7
_symmetry_space_group_name_H-M   'P 1'
_cell_length_a   8.18416839
_cell_length_b   8.18416725
_cell_length_c   3.52192700
_cell_angle_alpha   90.00000000
_cell_angle_beta   90.00000000
_cell_angle_gamma   122.21141517
_symmetry_Int_Tables_number   1
_chemical_formula_structural   Dy5Os2C7
_chemical_formula_sum   'Dy5 Os2 C7'
_cell_volume   199.59259090
_cell_formula_units_Z   1
loop_
 _symmetry_equiv_pos_site_id
 _symmetry_equiv_pos_as_xyz
  1  'x, y, z'
loop_
 _atom_site_type_symbol
 _atom_site_label
 _atom_site_symmetry_multiplicity
 _atom_site_fract_x
 _atom_site_fract_y
 _atom_site_fract_z
 _atom_site_occupancy
  Dy  Dy0  1  0.500000  0.500000  0.000000  1
  Dy  Dy1  1  0.076158  0.336946  0.500000  1
  Dy  Dy2  1  0.923842  0.663054  0.500000  1
  Dy  Dy3  1  0.663054  0.923842  0.500000  1
  Dy  Dy4  1  0.336946  0.076158  0.500000  1
  Os  Os5  1  0.713646  0.286354  0.000000  1
  Os  Os6  1  0.286354  0.713646  0.000000  1
  C  C7  1  0.632276  0.367724  0.500000  1
  C  C8  1  0.367724  0.632276  0.500000  1
  C  C9  1  0.000000  0.000000  0.000000  1
  C  C10  1  0.171887  0.171887  0.000000  1
  C  C11  1  0.828113  0.828113  0.000000  1
  C  C12  1  0.000000  0.500000  0.000000  1
  C  C13  1  0.500000  0.000000  0.000000  1
