# generated using pymatgen
data_Tb7DySc12Si15Tc
_symmetry_space_group_name_H-M   'P 1'
_cell_length_a   7.10024805
_cell_length_b   7.46155166
_cell_length_c   13.96762210
_cell_angle_alpha   89.98687076
_cell_angle_beta   90.00277369
_cell_angle_gamma   90.18922902
_symmetry_Int_Tables_number   1
_chemical_formula_structural   Tb7DySc12Si15Tc
_chemical_formula_sum   'Tb7 Dy1 Sc12 Si15 Tc1'
_cell_volume   739.98474602
_cell_formula_units_Z   1
loop_
 _symmetry_equiv_pos_site_id
 _symmetry_equiv_pos_as_xyz
  1  'x, y, z'
loop_
 _atom_site_type_symbol
 _atom_site_label
 _atom_site_symmetry_multiplicity
 _atom_site_fract_x
 _atom_site_fract_y
 _atom_site_fract_z
 _atom_site_occupancy
  Tb  Tb0  1  0.011453  0.178477  0.095962  1
  Tb  Tb1  1  0.990998  0.827336  0.903676  1
  Tb  Tb2  1  0.489036  0.675549  0.904004  1
  Tb  Tb3  1  0.991013  0.827294  0.596283  1
  Tb  Tb4  1  0.510788  0.323189  0.096049  1
  Tb  Tb5  1  0.011482  0.178471  0.404054  1
  Tb  Tb6  1  0.510780  0.323207  0.403996  1
  Dy  Dy7  1  0.489019  0.675768  0.596131  1
  Sc  Sc8  1  0.156370  0.498464  0.749927  1
  Sc  Sc9  1  0.838537  0.495223  0.250005  1
  Sc  Sc10  1  0.338750  0.005264  0.250062  1
  Sc  Sc11  1  0.667524  0.999165  0.749928  1
  Sc  Sc12  1  0.316457  0.171568  0.627985  1
  Sc  Sc13  1  0.671856  0.826096  0.373927  1
  Sc  Sc14  1  0.171668  0.677884  0.373887  1
  Sc  Sc15  1  0.671906  0.826212  0.126166  1
  Sc  Sc16  1  0.837454  0.319619  0.627388  1
  Sc  Sc17  1  0.316480  0.171547  0.871965  1
  Sc  Sc18  1  0.837450  0.319619  0.872549  1
  Sc  Sc19  1  0.171627  0.677902  0.126204  1
  Si  Si20  1  0.968322  0.883840  0.250007  1
  Si  Si21  1  0.469981  0.614511  0.250007  1
  Si  Si22  1  0.529622  0.387847  0.749913  1
  Si  Si23  1  0.287088  0.868003  0.749889  1
  Si  Si24  1  0.712924  0.128644  0.250003  1
  Si  Si25  1  0.214107  0.370694  0.250002  1
  Si  Si26  1  0.779914  0.627710  0.749874  1
  Si  Si27  1  0.159873  0.468713  0.536904  1
  Si  Si28  1  0.844936  0.536506  0.461534  1
  Si  Si29  1  0.344879  0.965106  0.459965  1
  Si  Si30  1  0.845033  0.536486  0.038497  1
  Si  Si31  1  0.654685  0.033868  0.538922  1
  Si  Si32  1  0.159576  0.468578  0.963155  1
  Si  Si33  1  0.654776  0.034101  0.961121  1
  Si  Si34  1  0.344839  0.965278  0.040084  1
  Tc  Tc35  1  0.028799  0.112260  0.749973  1
