# generated using pymatgen
data_YbEr2Tm(Pt2O7)2
_symmetry_space_group_name_H-M   'P 1'
_cell_length_a   7.23561902
_cell_length_b   7.23034107
_cell_length_c   7.23034016
_cell_angle_alpha   60.02409631
_cell_angle_beta   60.03585199
_cell_angle_gamma   60.03585227
_symmetry_Int_Tables_number   1
_chemical_formula_structural   YbEr2Tm(Pt2O7)2
_chemical_formula_sum   'Yb1 Er2 Tm1 Pt4 O14'
_cell_volume   267.66553471
_cell_formula_units_Z   1
loop_
 _symmetry_equiv_pos_site_id
 _symmetry_equiv_pos_as_xyz
  1  'x, y, z'
loop_
 _atom_site_type_symbol
 _atom_site_label
 _atom_site_symmetry_multiplicity
 _atom_site_fract_x
 _atom_site_fract_y
 _atom_site_fract_z
 _atom_site_occupancy
  Yb  Yb0  1  0.125000  0.625000  0.625000  1
  Er  Er1  1  0.625000  0.625000  0.125000  1
  Er  Er2  1  0.625000  0.125000  0.625000  1
  Tm  Tm3  1  0.625000  0.625000  0.625000  1
  Pt  Pt4  1  0.125000  0.125000  0.125000  1
  Pt  Pt5  1  0.625000  0.125000  0.125000  1
  Pt  Pt6  1  0.125000  0.625000  0.125000  1
  Pt  Pt7  1  0.125000  0.125000  0.625000  1
  O  O8  1  0.029745  0.463189  0.463189  1
  O  O9  1  0.783522  0.784715  0.216381  1
  O  O10  1  0.783741  0.215683  0.215683  1
  O  O11  1  0.466478  0.033619  0.465285  1
  O  O12  1  0.030466  0.043550  0.462981  1
  O  O13  1  0.030466  0.462981  0.043550  1
  O  O14  1  0.740642  0.752470  0.752470  1
  O  O15  1  0.509358  0.497530  0.497530  1
  O  O16  1  0.783522  0.216381  0.784715  1
  O  O17  1  0.219534  0.787019  0.206450  1
  O  O18  1  0.219534  0.206450  0.787019  1
  O  O19  1  0.466259  0.034317  0.034317  1
  O  O20  1  0.466478  0.465285  0.033619  1
  O  O21  1  0.220255  0.786811  0.786811  1
