# generated using pymatgen
data_Y3Mg3Cd2Ir
_symmetry_space_group_name_H-M   'P 1'
_cell_length_a   8.08092000
_cell_length_b   8.08092173
_cell_length_c   3.84368100
_cell_angle_alpha   90.00000000
_cell_angle_beta   90.00000000
_cell_angle_gamma   119.99999293
_symmetry_Int_Tables_number   1
_chemical_formula_structural   Y3Mg3Cd2Ir
_chemical_formula_sum   'Y3 Mg3 Cd2 Ir1'
_cell_volume   217.37005088
_cell_formula_units_Z   1
loop_
 _symmetry_equiv_pos_site_id
 _symmetry_equiv_pos_as_xyz
  1  'x, y, z'
loop_
 _atom_site_type_symbol
 _atom_site_label
 _atom_site_symmetry_multiplicity
 _atom_site_fract_x
 _atom_site_fract_y
 _atom_site_fract_z
 _atom_site_occupancy
  Y  Y0  1  0.610172  0.040712  0.000000  1
  Y  Y1  1  0.959288  0.569460  0.000000  1
  Y  Y2  1  0.430540  0.389828  0.000000  1
  Mg  Mg3  1  0.267448  0.998779  0.500000  1
  Mg  Mg4  1  0.001221  0.268669  0.500000  1
  Mg  Mg5  1  0.731331  0.732552  0.500000  1
  Cd  Cd6  1  0.333333  0.666667  0.500000  1
  Cd  Cd7  1  0.000000  0.000000  0.000000  1
  Ir  Ir8  1  0.666667  0.333333  0.500000  1
