# generated using pymatgen
data_PrDy2Er17Bi12
_symmetry_space_group_name_H-M   'P 1'
_cell_length_a   8.24454104
_cell_length_b   9.48889000
_cell_length_c   12.00584135
_cell_angle_alpha   90.00000000
_cell_angle_beta   90.04253968
_cell_angle_gamma   90.00000000
_symmetry_Int_Tables_number   1
_chemical_formula_structural   PrDy2Er17Bi12
_chemical_formula_sum   'Pr1 Dy2 Er17 Bi12'
_cell_volume   939.23523491
_cell_formula_units_Z   1
loop_
 _symmetry_equiv_pos_site_id
 _symmetry_equiv_pos_as_xyz
  1  'x, y, z'
loop_
 _atom_site_type_symbol
 _atom_site_label
 _atom_site_symmetry_multiplicity
 _atom_site_fract_x
 _atom_site_fract_y
 _atom_site_fract_z
 _atom_site_occupancy
  Pr  Pr0  1  0.684938  0.750000  0.780073  1
  Dy  Dy1  1  0.813233  0.250000  0.281957  1
  Dy  Dy2  1  0.186119  0.750000  0.718275  1
  Er  Er3  1  0.352996  0.750000  0.217589  1
  Er  Er4  1  0.853295  0.750000  0.282710  1
  Er  Er5  1  0.646792  0.250000  0.783199  1
  Er  Er6  1  0.147551  0.250000  0.716489  1
  Er  Er7  1  0.692133  0.565003  0.059886  1
  Er  Er8  1  0.192353  0.935060  0.440312  1
  Er  Er9  1  0.308290  0.065180  0.940734  1
  Er  Er10  1  0.807975  0.434787  0.559071  1
  Er  Er11  1  0.308290  0.434820  0.940734  1
  Er  Er12  1  0.807975  0.065213  0.559071  1
  Er  Er13  1  0.692133  0.934997  0.059886  1
  Er  Er14  1  0.192353  0.564940  0.440312  1
  Er  Er15  1  0.475855  0.250000  0.488110  1
  Er  Er16  1  0.976725  0.250000  0.012272  1
  Er  Er17  1  0.523530  0.750000  0.511104  1
  Er  Er18  1  0.023941  0.750000  0.989319  1
  Er  Er19  1  0.312946  0.250000  0.217411  1
  Bi  Bi20  1  0.401316  0.750000  0.961561  1
  Bi  Bi21  1  0.907619  0.750000  0.539594  1
  Bi  Bi22  1  0.594114  0.250000  0.042339  1
  Bi  Bi23  1  0.094935  0.250000  0.457856  1
  Bi  Bi24  1  0.565479  0.995475  0.325961  1
  Bi  Bi25  1  0.066502  0.504418  0.174267  1
  Bi  Bi26  1  0.431502  0.492731  0.672808  1
  Bi  Bi27  1  0.937813  0.008223  0.827030  1
  Bi  Bi28  1  0.431502  0.007269  0.672808  1
  Bi  Bi29  1  0.937813  0.491777  0.827030  1
  Bi  Bi30  1  0.565479  0.504525  0.325961  1
  Bi  Bi31  1  0.066502  0.995582  0.174267  1
