# generated using pymatgen
data_KTm5(Si3Ru)8
_symmetry_space_group_name_H-M   'P 1'
_cell_length_a   10.12563892
_cell_length_b   10.12563937
_cell_length_c   8.14219953
_cell_angle_alpha   90.02626021
_cell_angle_beta   89.97373826
_cell_angle_gamma   132.59689623
_symmetry_Int_Tables_number   1
_chemical_formula_structural   KTm5(Si3Ru)8
_chemical_formula_sum   'K1 Tm5 Si24 Ru8'
_cell_volume   614.53031232
_cell_formula_units_Z   1
loop_
 _symmetry_equiv_pos_site_id
 _symmetry_equiv_pos_as_xyz
  1  'x, y, z'
loop_
 _atom_site_type_symbol
 _atom_site_label
 _atom_site_symmetry_multiplicity
 _atom_site_fract_x
 _atom_site_fract_y
 _atom_site_fract_z
 _atom_site_occupancy
  K  K0  1  0.502116  0.002116  0.250000  1
  Tm  Tm1  1  0.000919  0.000682  0.000560  1
  Tm  Tm2  1  0.500682  0.500919  0.499440  1
  Tm  Tm3  1  0.003909  0.503909  0.250000  1
  Tm  Tm4  1  0.496473  0.996473  0.750000  1
  Tm  Tm5  1  0.000866  0.500866  0.750000  1
  Si  Si6  1  0.295090  0.706563  0.000847  1
  Si  Si7  1  0.795253  0.206062  0.500595  1
  Si  Si8  1  0.706062  0.295253  0.999405  1
  Si  Si9  1  0.206563  0.795090  0.499153  1
  Si  Si10  1  0.835397  0.831608  0.332311  1
  Si  Si11  1  0.171218  0.165110  0.666758  1
  Si  Si12  1  0.665110  0.671218  0.833242  1
  Si  Si13  1  0.331608  0.335397  0.167689  1
  Si  Si14  1  0.627089  0.392529  0.230140  1
  Si  Si15  1  0.608073  0.375728  0.772906  1
  Si  Si16  1  0.110711  0.878404  0.726133  1
  Si  Si17  1  0.117949  0.882662  0.271027  1
  Si  Si18  1  0.378404  0.610711  0.773867  1
  Si  Si19  1  0.382662  0.617949  0.228973  1
  Si  Si20  1  0.892529  0.127089  0.269860  1
  Si  Si21  1  0.875728  0.108073  0.727094  1
  Si  Si22  1  0.842349  0.611400  0.007208  1
  Si  Si23  1  0.387235  0.152186  0.991170  1
  Si  Si24  1  0.889612  0.657484  0.503417  1
  Si  Si25  1  0.345931  0.111681  0.500111  1
  Si  Si26  1  0.157484  0.389612  0.996583  1
  Si  Si27  1  0.611681  0.845931  0.999889  1
  Si  Si28  1  0.111400  0.342349  0.492792  1
  Si  Si29  1  0.652186  0.887235  0.508830  1
  Ru  Ru30  1  0.161531  0.824618  0.993415  1
  Ru  Ru31  1  0.675069  0.336324  0.506491  1
  Ru  Ru32  1  0.836324  0.175069  0.993509  1
  Ru  Ru33  1  0.324618  0.661531  0.506585  1
  Ru  Ru34  1  0.626096  0.626898  0.127460  1
  Ru  Ru35  1  0.374383  0.372791  0.874285  1
  Ru  Ru36  1  0.872791  0.874383  0.625715  1
  Ru  Ru37  1  0.126898  0.126096  0.372540  1
