# generated using pymatgen
data_Na(TiSe2)8
_symmetry_space_group_name_H-M   'P 1'
_cell_length_a   7.07548400
_cell_length_b   7.07548273
_cell_length_c   14.77308500
_cell_angle_alpha   90.00000000
_cell_angle_beta   90.00000000
_cell_angle_gamma   119.99999658
_symmetry_Int_Tables_number   1
_chemical_formula_structural   Na(TiSe2)8
_chemical_formula_sum   'Na1 Ti8 Se16'
_cell_volume   640.49253421
_cell_formula_units_Z   1
loop_
 _symmetry_equiv_pos_site_id
 _symmetry_equiv_pos_as_xyz
  1  'x, y, z'
loop_
 _atom_site_type_symbol
 _atom_site_label
 _atom_site_symmetry_multiplicity
 _atom_site_fract_x
 _atom_site_fract_y
 _atom_site_fract_z
 _atom_site_occupancy
  Na  Na0  1  0.000000  0.000000  0.000000  1
  Ti  Ti1  1  0.501017  0.498983  0.741236  1
  Ti  Ti2  1  0.498983  0.501017  0.258764  1
  Ti  Ti3  1  0.501017  0.002032  0.741236  1
  Ti  Ti4  1  0.498983  0.997968  0.258764  1
  Ti  Ti5  1  0.997968  0.498983  0.741236  1
  Ti  Ti6  1  0.002032  0.501017  0.258764  1
  Ti  Ti7  1  0.000000  0.000000  0.738482  1
  Ti  Ti8  1  0.000000  0.000000  0.261518  1
  Se  Se9  1  0.833375  0.666751  0.153218  1
  Se  Se10  1  0.832740  0.665482  0.635733  1
  Se  Se11  1  0.833375  0.166625  0.153218  1
  Se  Se12  1  0.832740  0.167260  0.635733  1
  Se  Se13  1  0.333333  0.666667  0.152461  1
  Se  Se14  1  0.333333  0.666667  0.637755  1
  Se  Se15  1  0.333249  0.166625  0.153218  1
  Se  Se16  1  0.334518  0.167260  0.635733  1
  Se  Se17  1  0.666751  0.833375  0.846782  1
  Se  Se18  1  0.665482  0.832740  0.364267  1
  Se  Se19  1  0.666667  0.333333  0.847539  1
  Se  Se20  1  0.666667  0.333333  0.362245  1
  Se  Se21  1  0.166625  0.833375  0.846782  1
  Se  Se22  1  0.167260  0.832740  0.364267  1
  Se  Se23  1  0.166625  0.333249  0.846782  1
  Se  Se24  1  0.167260  0.334518  0.364267  1
