# generated using pymatgen
data_Tb4YLu(Si3Ru)8
_symmetry_space_group_name_H-M   'P 1'
_cell_length_a   10.11836529
_cell_length_b   10.11836615
_cell_length_c   8.14207022
_cell_angle_alpha   90.02794635
_cell_angle_beta   90.02794397
_cell_angle_gamma   132.56018372
_symmetry_Int_Tables_number   1
_chemical_formula_structural   Tb4YLu(Si3Ru)8
_chemical_formula_sum   'Tb4 Y1 Lu1 Si24 Ru8'
_cell_volume   613.99904632
_cell_formula_units_Z   1
loop_
 _symmetry_equiv_pos_site_id
 _symmetry_equiv_pos_as_xyz
  1  'x, y, z'
loop_
 _atom_site_type_symbol
 _atom_site_label
 _atom_site_symmetry_multiplicity
 _atom_site_fract_x
 _atom_site_fract_y
 _atom_site_fract_z
 _atom_site_occupancy
  Tb  Tb0  1  0.002804  0.502479  0.249350  1
  Tb  Tb1  1  0.497521  0.997196  0.750650  1
  Tb  Tb2  1  0.997196  0.497521  0.750650  1
  Tb  Tb3  1  0.502479  0.002804  0.249350  1
  Y  Y4  1  0.500000  0.500000  0.500000  1
  Lu  Lu5  1  0.000000  0.000000  0.000000  1
  Si  Si6  1  0.294246  0.705754  0.000000  1
  Si  Si7  1  0.795078  0.204922  0.500000  1
  Si  Si8  1  0.705754  0.294246  0.000000  1
  Si  Si9  1  0.204922  0.795078  0.500000  1
  Si  Si10  1  0.831843  0.831843  0.333076  1
  Si  Si11  1  0.168157  0.168157  0.666924  1
  Si  Si12  1  0.667275  0.667275  0.832772  1
  Si  Si13  1  0.332725  0.332725  0.167228  1
  Si  Si14  1  0.621054  0.386678  0.227921  1
  Si  Si15  1  0.613322  0.378946  0.772079  1
  Si  Si16  1  0.110692  0.877205  0.729006  1
  Si  Si17  1  0.122795  0.889308  0.270994  1
  Si  Si18  1  0.378946  0.613322  0.772079  1
  Si  Si19  1  0.386678  0.621054  0.227921  1
  Si  Si20  1  0.889308  0.122795  0.270994  1
  Si  Si21  1  0.877205  0.110692  0.729006  1
  Si  Si22  1  0.845006  0.611697  0.004952  1
  Si  Si23  1  0.388303  0.154994  0.995048  1
  Si  Si24  1  0.887545  0.654458  0.505227  1
  Si  Si25  1  0.345542  0.112455  0.494773  1
  Si  Si26  1  0.154994  0.388303  0.995048  1
  Si  Si27  1  0.611697  0.845006  0.004952  1
  Si  Si28  1  0.112455  0.345542  0.494773  1
  Si  Si29  1  0.654458  0.887545  0.505227  1
  Ru  Ru30  1  0.167845  0.832155  0.000000  1
  Ru  Ru31  1  0.669312  0.330688  0.500000  1
  Ru  Ru32  1  0.832155  0.167845  0.000000  1
  Ru  Ru33  1  0.330688  0.669312  0.500000  1
  Ru  Ru34  1  0.627193  0.627193  0.124981  1
  Ru  Ru35  1  0.372807  0.372807  0.875019  1
  Ru  Ru36  1  0.875117  0.875117  0.628798  1
  Ru  Ru37  1  0.124883  0.124883  0.371202  1
