# generated using pymatgen
data_Pr4Zr3Sn13Ir8
_symmetry_space_group_name_H-M   'P 1'
_cell_length_a   4.57101700
_cell_length_b   7.31560630
_cell_length_c   18.46016731
_cell_angle_alpha   89.37136518
_cell_angle_beta   90.00000000
_cell_angle_gamma   90.00000000
_symmetry_Int_Tables_number   1
_chemical_formula_structural   Pr4Zr3Sn13Ir8
_chemical_formula_sum   'Pr4 Zr3 Sn13 Ir8'
_cell_volume   617.26642348
_cell_formula_units_Z   1
loop_
 _symmetry_equiv_pos_site_id
 _symmetry_equiv_pos_as_xyz
  1  'x, y, z'
loop_
 _atom_site_type_symbol
 _atom_site_label
 _atom_site_symmetry_multiplicity
 _atom_site_fract_x
 _atom_site_fract_y
 _atom_site_fract_z
 _atom_site_occupancy
  Pr  Pr0  1  0.250000  0.989273  0.861305  1
  Pr  Pr1  1  0.250000  0.514500  0.361185  1
  Pr  Pr2  1  0.750000  0.005360  0.139405  1
  Pr  Pr3  1  0.750000  0.495308  0.638007  1
  Zr  Zr4  1  0.250000  0.325912  0.183690  1
  Zr  Zr5  1  0.250000  0.167354  0.682647  1
  Zr  Zr6  1  0.750000  0.664705  0.817182  1
  Sn  Sn7  1  0.750000  0.813303  0.319182  1
  Sn  Sn8  1  0.250000  0.732078  0.195336  1
  Sn  Sn9  1  0.250000  0.763095  0.701977  1
  Sn  Sn10  1  0.750000  0.262083  0.797025  1
  Sn  Sn11  1  0.750000  0.229596  0.299238  1
  Sn  Sn12  1  0.250000  0.862404  0.032967  1
  Sn  Sn13  1  0.250000  0.646543  0.534811  1
  Sn  Sn14  1  0.750000  0.140744  0.964167  1
  Sn  Sn15  1  0.750000  0.369458  0.466580  1
  Sn  Sn16  1  0.250000  0.525721  0.928548  1
  Sn  Sn17  1  0.250000  0.992891  0.432827  1
  Sn  Sn18  1  0.750000  0.471315  0.069748  1
  Sn  Sn19  1  0.750000  0.030259  0.571763  1
  Ir  Ir20  1  0.250000  0.247990  0.036346  1
  Ir  Ir21  1  0.250000  0.261506  0.537313  1
  Ir  Ir22  1  0.750000  0.751285  0.963732  1
  Ir  Ir23  1  0.750000  0.759542  0.467616  1
  Ir  Ir24  1  0.250000  0.028184  0.281458  1
  Ir  Ir25  1  0.250000  0.458031  0.781292  1
  Ir  Ir26  1  0.750000  0.958919  0.718899  1
  Ir  Ir27  1  0.750000  0.532642  0.215753  1
