# generated using pymatgen
data_Ho5Er15(Ir2Ru)4
_symmetry_space_group_name_H-M   'P 1'
_cell_length_a   10.74186605
_cell_length_b   10.74158207
_cell_length_c   6.38399401
_cell_angle_alpha   90.00701375
_cell_angle_beta   89.99766482
_cell_angle_gamma   90.01056129
_symmetry_Int_Tables_number   1
_chemical_formula_structural   Ho5Er15(Ir2Ru)4
_chemical_formula_sum   'Ho5 Er15 Ir8 Ru4'
_cell_volume   736.61480484
_cell_formula_units_Z   1
loop_
 _symmetry_equiv_pos_site_id
 _symmetry_equiv_pos_as_xyz
  1  'x, y, z'
loop_
 _atom_site_type_symbol
 _atom_site_label
 _atom_site_symmetry_multiplicity
 _atom_site_fract_x
 _atom_site_fract_y
 _atom_site_fract_z
 _atom_site_occupancy
  Ho  Ho0  1  0.293361  0.086482  0.376899  1
  Ho  Ho1  1  0.293238  0.913622  0.876945  1
  Ho  Ho2  1  0.706722  0.086544  0.876959  1
  Ho  Ho3  1  0.706698  0.913635  0.376908  1
  Ho  Ho4  1  0.586391  0.793182  0.876903  1
  Er  Er5  1  0.586363  0.206611  0.377140  1
  Er  Er6  1  0.413610  0.793384  0.377143  1
  Er  Er7  1  0.413666  0.206658  0.877173  1
  Er  Er8  1  0.206360  0.413691  0.622926  1
  Er  Er9  1  0.206384  0.586310  0.122904  1
  Er  Er10  1  0.793593  0.413684  0.122893  1
  Er  Er11  1  0.793655  0.586220  0.622905  1
  Er  Er12  1  0.913761  0.706337  0.122794  1
  Er  Er13  1  0.913708  0.293674  0.622793  1
  Er  Er14  1  0.086273  0.706340  0.622810  1
  Er  Er15  1  0.086276  0.293657  0.122792  1
  Er  Er16  1  0.000004  0.000017  0.500020  1
  Er  Er17  1  0.999998  0.000041  0.999960  1
  Er  Er18  1  0.499948  0.499905  0.000100  1
  Er  Er19  1  0.499991  0.499965  0.499838  1
  Ir  Ir20  1  0.847665  0.152753  0.250308  1
  Ir  Ir21  1  0.847846  0.847254  0.750203  1
  Ir  Ir22  1  0.152358  0.152749  0.750340  1
  Ir  Ir23  1  0.152336  0.847247  0.250271  1
  Ir  Ir24  1  0.652499  0.347684  0.749965  1
  Ir  Ir25  1  0.652574  0.652236  0.250267  1
  Ir  Ir26  1  0.347469  0.347639  0.249928  1
  Ir  Ir27  1  0.347391  0.652244  0.749886  1
  Ru  Ru28  1  0.499915  0.000130  0.122539  1
  Ru  Ru29  1  0.499941  0.000096  0.622165  1
  Ru  Ru30  1  0.999990  0.500051  0.877714  1
  Ru  Ru31  1  0.000017  0.499957  0.377608  1
