# generated using pymatgen
data_K2Cr(TeO4)3
_symmetry_space_group_name_H-M   'P 1'
_cell_length_a   7.11406866
_cell_length_b   7.12054225
_cell_length_c   7.08958391
_cell_angle_alpha   61.28785377
_cell_angle_beta   61.29492219
_cell_angle_gamma   61.34654079
_symmetry_Int_Tables_number   1
_chemical_formula_structural   K2Cr(TeO4)3
_chemical_formula_sum   'K2 Cr1 Te3 O12'
_cell_volume   261.41929754
_cell_formula_units_Z   1
loop_
 _symmetry_equiv_pos_site_id
 _symmetry_equiv_pos_as_xyz
  1  'x, y, z'
loop_
 _atom_site_type_symbol
 _atom_site_label
 _atom_site_symmetry_multiplicity
 _atom_site_fract_x
 _atom_site_fract_y
 _atom_site_fract_z
 _atom_site_occupancy
  K  K0  1  0.846459  0.889051  0.365674  1
  K  K1  1  0.112326  0.152026  0.634792  1
  Cr  Cr2  1  0.497330  0.502549  0.000050  1
  Te  Te3  1  0.997830  0.502683  0.999986  1
  Te  Te4  1  0.497342  0.002115  0.999945  1
  Te  Te5  1  0.497314  0.502672  0.499993  1
  O  O6  1  0.170250  0.175200  0.073970  1
  O  O7  1  0.567398  0.570700  0.684921  1
  O  O8  1  0.178416  0.576905  0.065625  1
  O  O9  1  0.567210  0.175612  0.670273  1
  O  O10  1  0.573102  0.181534  0.065120  1
  O  O11  1  0.170284  0.569078  0.670002  1
  O  O12  1  0.825299  0.829304  0.926059  1
  O  O13  1  0.430888  0.430872  0.315152  1
  O  O14  1  0.817358  0.426352  0.936040  1
  O  O15  1  0.430338  0.829057  0.329786  1
  O  O16  1  0.423858  0.822742  0.932790  1
  O  O17  1  0.825000  0.433549  0.329822  1
