# generated using pymatgen
data_CsAcMnS3
_symmetry_space_group_name_H-M   'P 1'
_cell_length_a   8.04138098
_cell_length_b   8.04138058
_cell_length_c   11.67165700
_cell_angle_alpha   90.00000000
_cell_angle_beta   90.00000000
_cell_angle_gamma   148.40825993
_symmetry_Int_Tables_number   1
_chemical_formula_structural   CsAcMnS3
_chemical_formula_sum   'Cs2 Ac2 Mn2 S6'
_cell_volume   395.37717223
_cell_formula_units_Z   2
loop_
 _symmetry_equiv_pos_site_id
 _symmetry_equiv_pos_as_xyz
  1  'x, y, z'
loop_
 _atom_site_type_symbol
 _atom_site_label
 _atom_site_symmetry_multiplicity
 _atom_site_fract_x
 _atom_site_fract_y
 _atom_site_fract_z
 _atom_site_occupancy
  Cs  Cs0  1  0.758495  0.241504  0.250000  1
  Cs  Cs1  1  0.241504  0.758495  0.750000  1
  Ac  Ac2  1  0.499999  0.499999  0.000000  1
  Ac  Ac3  1  0.499999  0.499999  0.499999  1
  Mn  Mn4  1  0.036523  0.963476  0.250000  1
  Mn  Mn5  1  0.963476  0.036523  0.750000  1
  S  S6  1  0.116780  0.883219  0.078822  1
  S  S7  1  0.452014  0.547985  0.250000  1
  S  S8  1  0.116780  0.883219  0.421178  1
  S  S9  1  0.883219  0.116780  0.578822  1
  S  S10  1  0.547985  0.452014  0.750000  1
  S  S11  1  0.883219  0.116780  0.921178  1
