# generated using pymatgen
data_Ho(SbO3)3
_symmetry_space_group_name_H-M   'P 1'
_cell_length_a   7.48837600
_cell_length_b   5.35860562
_cell_length_c   8.18404438
_cell_angle_alpha   86.11489817
_cell_angle_beta   90.00000000
_cell_angle_gamma   90.00000000
_symmetry_Int_Tables_number   1
_chemical_formula_structural   Ho(SbO3)3
_chemical_formula_sum   'Ho2 Sb6 O18'
_cell_volume   327.64853210
_cell_formula_units_Z   2
loop_
 _symmetry_equiv_pos_site_id
 _symmetry_equiv_pos_as_xyz
  1  'x, y, z'
loop_
 _atom_site_type_symbol
 _atom_site_label
 _atom_site_symmetry_multiplicity
 _atom_site_fract_x
 _atom_site_fract_y
 _atom_site_fract_z
 _atom_site_occupancy
  Ho  Ho0  1  0.250000  0.965723  0.434819  1
  Ho  Ho1  1  0.750000  0.034277  0.565181  1
  Sb  Sb2  1  0.000000  0.000000  0.000000  1
  Sb  Sb3  1  0.500000  0.000000  0.000000  1
  Sb  Sb4  1  0.494950  0.530306  0.697553  1
  Sb  Sb5  1  0.005050  0.530306  0.697553  1
  Sb  Sb6  1  0.994950  0.469694  0.302447  1
  Sb  Sb7  1  0.505050  0.469694  0.302447  1
  O  O8  1  0.250000  0.879188  0.982988  1
  O  O9  1  0.936554  0.858410  0.778070  1
  O  O10  1  0.563446  0.858410  0.778070  1
  O  O11  1  0.958905  0.739096  0.472134  1
  O  O12  1  0.541095  0.739096  0.472134  1
  O  O13  1  0.250000  0.667399  0.654345  1
  O  O14  1  0.931165  0.673872  0.111399  1
  O  O15  1  0.568835  0.673872  0.111399  1
  O  O16  1  0.250000  0.596396  0.309836  1
  O  O17  1  0.750000  0.403604  0.690164  1
  O  O18  1  0.068835  0.326128  0.888601  1
  O  O19  1  0.431165  0.326128  0.888601  1
  O  O20  1  0.750000  0.332601  0.345655  1
  O  O21  1  0.041095  0.260904  0.527866  1
  O  O22  1  0.458905  0.260904  0.527866  1
  O  O23  1  0.063446  0.141590  0.221930  1
  O  O24  1  0.436554  0.141590  0.221930  1
  O  O25  1  0.750000  0.120812  0.017012  1
