# generated using pymatgen
data_AlZn(FeRh2)2
_symmetry_space_group_name_H-M   'P 1'
_cell_length_a   4.27706801
_cell_length_b   6.02097302
_cell_length_c   12.78615500
_cell_angle_alpha   89.99832902
_cell_angle_beta   89.99726719
_cell_angle_gamma   89.99177471
_symmetry_Int_Tables_number   1
_chemical_formula_structural   AlZn(FeRh2)2
_chemical_formula_sum   'Al3 Zn3 Fe6 Rh12'
_cell_volume   329.27048020
_cell_formula_units_Z   3
loop_
 _symmetry_equiv_pos_site_id
 _symmetry_equiv_pos_as_xyz
  1  'x, y, z'
loop_
 _atom_site_type_symbol
 _atom_site_label
 _atom_site_symmetry_multiplicity
 _atom_site_fract_x
 _atom_site_fract_y
 _atom_site_fract_z
 _atom_site_occupancy
  Al  Al0  1  0.499972  0.999989  0.499806  1
  Al  Al1  1  0.000260  0.500029  0.666677  1
  Al  Al2  1  0.500185  0.999997  0.833521  1
  Zn  Zn3  1  0.000077  0.499973  0.999361  1
  Zn  Zn4  1  0.499821  0.999966  0.166689  1
  Zn  Zn5  1  0.999743  0.499994  0.333973  1
  Fe  Fe6  1  0.999961  0.999759  0.002743  1
  Fe  Fe7  1  0.499527  0.500138  0.166603  1
  Fe  Fe8  1  0.000224  0.999802  0.330685  1
  Fe  Fe9  1  0.499821  0.499880  0.497372  1
  Fe  Fe10  1  0.000434  0.000059  0.666659  1
  Fe  Fe11  1  0.500144  0.500283  0.835986  1
  Rh  Rh12  1  0.500116  0.248556  0.997464  1
  Rh  Rh13  1  0.500104  0.751302  0.997433  1
  Rh  Rh14  1  0.999751  0.250396  0.166655  1
  Rh  Rh15  1  0.999743  0.749493  0.166641  1
  Rh  Rh16  1  0.499949  0.248590  0.335870  1
  Rh  Rh17  1  0.499935  0.751405  0.335924  1
  Rh  Rh18  1  0.999970  0.248175  0.502604  1
  Rh  Rh19  1  0.999945  0.751999  0.502652  1
  Rh  Rh20  1  0.500049  0.250957  0.666718  1
  Rh  Rh21  1  0.500076  0.749209  0.666642  1
  Rh  Rh22  1  0.000088  0.248067  0.830677  1
  Rh  Rh23  1  0.000106  0.751985  0.830648  1
