# generated using pymatgen
data_Pa6Si3Ge
_symmetry_space_group_name_H-M   'P 1'
_cell_length_a   7.47343599
_cell_length_b   7.47343575
_cell_length_c   3.96548500
_cell_angle_alpha   90.00000000
_cell_angle_beta   90.00000000
_cell_angle_gamma   90.02430311
_symmetry_Int_Tables_number   1
_chemical_formula_structural   Pa6Si3Ge
_chemical_formula_sum   'Pa6 Si3 Ge1'
_cell_volume   221.48121473
_cell_formula_units_Z   1
loop_
 _symmetry_equiv_pos_site_id
 _symmetry_equiv_pos_as_xyz
  1  'x, y, z'
loop_
 _atom_site_type_symbol
 _atom_site_label
 _atom_site_symmetry_multiplicity
 _atom_site_fract_x
 _atom_site_fract_y
 _atom_site_fract_z
 _atom_site_occupancy
  Pa  Pa0  1  0.809525  0.681958  0.500000  1
  Pa  Pa1  1  0.321287  0.821287  0.500000  1
  Pa  Pa2  1  0.181958  0.309525  0.500000  1
  Pa  Pa3  1  0.683732  0.183732  0.500000  1
  Pa  Pa4  1  0.503671  0.499588  0.000000  1
  Pa  Pa5  1  0.999588  0.003671  0.000000  1
  Si  Si6  1  0.615783  0.886327  0.000000  1
  Si  Si7  1  0.386327  0.115783  0.000000  1
  Si  Si8  1  0.882093  0.382093  0.000000  1
  Ge  Ge9  1  0.116037  0.616037  0.000000  1
