# generated using pymatgen
data_Ti4ReSiB2
_symmetry_space_group_name_H-M   'P 1'
_cell_length_a   7.17415296
_cell_length_b   7.17390282
_cell_length_c   7.17444014
_cell_angle_alpha   130.50226820
_cell_angle_beta   130.50273838
_cell_angle_gamma   72.60626362
_symmetry_Int_Tables_number   1
_chemical_formula_structural   Ti4ReSiB2
_chemical_formula_sum   'Ti8 Re2 Si2 B4'
_cell_volume   208.60961401
_cell_formula_units_Z   2
loop_
 _symmetry_equiv_pos_site_id
 _symmetry_equiv_pos_as_xyz
  1  'x, y, z'
loop_
 _atom_site_type_symbol
 _atom_site_label
 _atom_site_symmetry_multiplicity
 _atom_site_fract_x
 _atom_site_fract_y
 _atom_site_fract_z
 _atom_site_occupancy
  Ti  Ti0  1  0.807493  0.958136  0.499966  1
  Ti  Ti1  1  0.307557  0.807534  0.849411  1
  Ti  Ti2  1  0.192507  0.041864  0.500034  1
  Ti  Ti3  1  0.541918  0.692522  0.500125  1
  Ti  Ti4  1  0.041787  0.541840  0.849314  1
  Ti  Ti5  1  0.692443  0.192466  0.150589  1
  Ti  Ti6  1  0.958213  0.458160  0.150686  1
  Ti  Ti7  1  0.458082  0.307478  0.499875  1
  Re  Re8  1  0.000000  0.000000  0.000000  1
  Re  Re9  1  0.500000  0.500000  0.000000  1
  Si  Si10  1  0.749973  0.750024  0.000008  1
  Si  Si11  1  0.250027  0.249976  0.999992  1
  B  B12  1  0.388494  0.888485  0.276976  1
  B  B13  1  0.888496  0.611505  0.500000  1
  B  B14  1  0.611506  0.111515  0.723024  1
  B  B15  1  0.111504  0.388495  0.500000  1
