# generated using pymatgen
data_DyZr7Nb12ZnGe15
_symmetry_space_group_name_H-M   'P 1'
_cell_length_a   6.87767589
_cell_length_b   7.02267246
_cell_length_c   13.36089726
_cell_angle_alpha   90.08315237
_cell_angle_beta   89.90783536
_cell_angle_gamma   90.14833268
_symmetry_Int_Tables_number   1
_chemical_formula_structural   DyZr7Nb12ZnGe15
_chemical_formula_sum   'Dy1 Zr7 Nb12 Zn1 Ge15'
_cell_volume   645.32318949
_cell_formula_units_Z   1
loop_
 _symmetry_equiv_pos_site_id
 _symmetry_equiv_pos_as_xyz
  1  'x, y, z'
loop_
 _atom_site_type_symbol
 _atom_site_label
 _atom_site_symmetry_multiplicity
 _atom_site_fract_x
 _atom_site_fract_y
 _atom_site_fract_z
 _atom_site_occupancy
  Dy  Dy0  1  0.993903  0.173635  0.091246  1
  Zr  Zr1  1  0.492994  0.326201  0.091634  1
  Zr  Zr2  1  0.989447  0.175665  0.408683  1
  Zr  Zr3  1  0.507953  0.675484  0.591058  1
  Zr  Zr4  1  0.009245  0.822466  0.904953  1
  Zr  Zr5  1  0.508318  0.676018  0.907184  1
  Zr  Zr6  1  0.009047  0.825428  0.592924  1
  Zr  Zr7  1  0.490786  0.324667  0.409774  1
  Nb  Nb8  1  0.660956  0.011539  0.749091  1
  Nb  Nb9  1  0.164067  0.488744  0.749361  1
  Nb  Nb10  1  0.337481  0.990594  0.251515  1
  Nb  Nb11  1  0.835723  0.509556  0.251999  1
  Nb  Nb12  1  0.840554  0.331374  0.624418  1
  Nb  Nb13  1  0.339108  0.168218  0.873975  1
  Nb  Nb14  1  0.161859  0.665966  0.125269  1
  Nb  Nb15  1  0.659810  0.831799  0.376163  1
  Nb  Nb16  1  0.161139  0.666483  0.376732  1
  Nb  Nb17  1  0.659209  0.831387  0.125602  1
  Nb  Nb18  1  0.837514  0.334005  0.873974  1
  Nb  Nb19  1  0.339738  0.168450  0.625595  1
  Zn  Zn20  1  0.800852  0.649469  0.748865  1
  Ge  Ge21  1  0.305854  0.850386  0.749464  1
  Ge  Ge22  1  0.197025  0.352576  0.251891  1
  Ge  Ge23  1  0.693076  0.148373  0.251041  1
  Ge  Ge24  1  0.542964  0.391780  0.749375  1
  Ge  Ge25  1  0.036072  0.112049  0.750193  1
  Ge  Ge26  1  0.461676  0.613218  0.250687  1
  Ge  Ge27  1  0.961497  0.883677  0.251465  1
  Ge  Ge28  1  0.681062  0.037359  0.540795  1
  Ge  Ge29  1  0.181626  0.464217  0.957773  1
  Ge  Ge30  1  0.325457  0.958026  0.038583  1
  Ge  Ge31  1  0.818834  0.539714  0.461485  1
  Ge  Ge32  1  0.318643  0.962228  0.460759  1
  Ge  Ge33  1  0.817767  0.542324  0.038199  1
  Ge  Ge34  1  0.678368  0.035909  0.957364  1
  Ge  Ge35  1  0.180377  0.461018  0.540910  1
