# generated using pymatgen
data_ScPPd2Pt3
_symmetry_space_group_name_H-M   'P 1'
_cell_length_a   3.87663700
_cell_length_b   4.04989600
_cell_length_c   6.97705900
_cell_angle_alpha   90.00000000
_cell_angle_beta   90.00000000
_cell_angle_gamma   90.00000000
_symmetry_Int_Tables_number   1
_chemical_formula_structural   ScPPd2Pt3
_chemical_formula_sum   'Sc1 P1 Pd2 Pt3'
_cell_volume   109.53966359
_cell_formula_units_Z   1
loop_
 _symmetry_equiv_pos_site_id
 _symmetry_equiv_pos_as_xyz
  1  'x, y, z'
loop_
 _atom_site_type_symbol
 _atom_site_label
 _atom_site_symmetry_multiplicity
 _atom_site_fract_x
 _atom_site_fract_y
 _atom_site_fract_z
 _atom_site_occupancy
  Sc  Sc0  1  0.500000  0.500000  0.000000  1
  P  P1  1  0.000000  0.000000  0.500000  1
  Pd  Pd2  1  0.000000  0.500000  0.296286  1
  Pd  Pd3  1  0.000000  0.500000  0.703714  1
  Pt  Pt4  1  0.500000  0.000000  0.292055  1
  Pt  Pt5  1  0.500000  0.000000  0.707945  1
  Pt  Pt6  1  0.000000  0.000000  0.000000  1
