# generated using pymatgen
data_Tm6AlFe2
_symmetry_space_group_name_H-M   'P 1'
_cell_length_a   8.22674115
_cell_length_b   8.22674047
_cell_length_c   8.22674067
_cell_angle_alpha   111.21457806
_cell_angle_beta   110.66158995
_cell_angle_gamma   106.57621422
_symmetry_Int_Tables_number   1
_chemical_formula_structural   Tm6AlFe2
_chemical_formula_sum   'Tm12 Al2 Fe4'
_cell_volume   427.78332686
_cell_formula_units_Z   2
loop_
 _symmetry_equiv_pos_site_id
 _symmetry_equiv_pos_as_xyz
  1  'x, y, z'
loop_
 _atom_site_type_symbol
 _atom_site_label
 _atom_site_symmetry_multiplicity
 _atom_site_fract_x
 _atom_site_fract_y
 _atom_site_fract_z
 _atom_site_occupancy
  Tm  Tm0  1  0.559594  0.266656  0.292938  1
  Tm  Tm1  1  0.187221  0.215625  0.402845  1
  Tm  Tm2  1  0.187221  0.784375  0.971597  1
  Tm  Tm3  1  0.686528  0.483647  0.797119  1
  Tm  Tm4  1  0.686528  0.889408  0.202881  1
  Tm  Tm5  1  0.973718  0.266656  0.707062  1
  Tm  Tm6  1  0.026282  0.733344  0.292938  1
  Tm  Tm7  1  0.313472  0.110592  0.797119  1
  Tm  Tm8  1  0.313472  0.516353  0.202881  1
  Tm  Tm9  1  0.812779  0.215625  0.028403  1
  Tm  Tm10  1  0.812779  0.784375  0.597155  1
  Tm  Tm11  1  0.440406  0.733344  0.707062  1
  Al  Al12  1  0.000000  0.500000  0.500000  1
  Al  Al13  1  0.500000  0.000000  0.500000  1
  Fe  Fe14  1  0.890010  0.890010  0.000000  1
  Fe  Fe15  1  0.380988  0.500000  0.880988  1
  Fe  Fe16  1  0.619012  0.500000  0.119012  1
  Fe  Fe17  1  0.109990  0.109990  0.000000  1
