# generated using pymatgen
data_Hf3Zr4Pa(Co4P3)4
_symmetry_space_group_name_H-M   'P 1'
_cell_length_a   12.13841900
_cell_length_b   12.13841883
_cell_length_c   3.69671400
_cell_angle_alpha   90.00000000
_cell_angle_beta   90.00000000
_cell_angle_gamma   120.07848558
_symmetry_Int_Tables_number   1
_chemical_formula_structural   Hf3Zr4Pa(Co4P3)4
_chemical_formula_sum   'Hf3 Zr4 Pa1 Co16 P12'
_cell_volume   471.33176721
_cell_formula_units_Z   1
loop_
 _symmetry_equiv_pos_site_id
 _symmetry_equiv_pos_as_xyz
  1  'x, y, z'
loop_
 _atom_site_type_symbol
 _atom_site_label
 _atom_site_symmetry_multiplicity
 _atom_site_fract_x
 _atom_site_fract_y
 _atom_site_fract_z
 _atom_site_occupancy
  Hf  Hf0  1  0.438481  0.438481  0.000000  1
  Hf  Hf1  1  0.557796  0.000045  0.000000  1
  Hf  Hf2  1  0.000045  0.557796  0.000000  1
  Zr  Zr3  1  0.666147  0.333888  0.000000  1
  Zr  Zr4  1  0.333888  0.666147  0.000000  1
  Zr  Zr5  1  0.181002  0.000455  0.500000  1
  Zr  Zr6  1  0.000455  0.181002  0.500000  1
  Pa  Pa7  1  0.826323  0.826323  0.500000  1
  Co  Co8  1  0.192645  0.372500  0.000000  1
  Co  Co9  1  0.183292  0.806241  0.000000  1
  Co  Co10  1  0.819537  0.625941  0.000000  1
  Co  Co11  1  0.806241  0.183292  0.000000  1
  Co  Co12  1  0.372500  0.192645  0.000000  1
  Co  Co13  1  0.125265  0.481091  0.500000  1
  Co  Co14  1  0.357824  0.874387  0.500000  1
  Co  Co15  1  0.517135  0.642604  0.500000  1
  Co  Co16  1  0.642604  0.517135  0.500000  1
  Co  Co17  1  0.874387  0.357824  0.500000  1
  Co  Co18  1  0.481091  0.125265  0.500000  1
  Co  Co19  1  0.997813  0.997813  0.000000  1
  Co  Co20  1  0.721264  0.001345  0.500000  1
  Co  Co21  1  0.001345  0.721264  0.500000  1
  Co  Co22  1  0.625941  0.819537  0.000000  1
  Co  Co23  1  0.275945  0.275945  0.500000  1
  P  P24  1  0.646407  0.646407  0.000000  1
  P  P25  1  0.348695  0.000212  0.000000  1
  P  P26  1  0.000212  0.348695  0.000000  1
  P  P27  1  0.479953  0.306931  0.500000  1
  P  P28  1  0.690985  0.174338  0.500000  1
  P  P29  1  0.826906  0.519080  0.500000  1
  P  P30  1  0.519080  0.826906  0.500000  1
  P  P31  1  0.174338  0.690985  0.500000  1
  P  P32  1  0.824560  0.008245  0.000000  1
  P  P33  1  0.008245  0.824560  0.000000  1
  P  P34  1  0.306931  0.479953  0.500000  1
  P  P35  1  0.174724  0.174724  0.000000  1
