# generated using pymatgen
data_Nd12Ni3RuCl12
_symmetry_space_group_name_H-M   'P 1'
_cell_length_a   10.16719490
_cell_length_b   10.05934848
_cell_length_c   10.06029693
_cell_angle_alpha   109.20395887
_cell_angle_beta   109.64108397
_cell_angle_gamma   109.78822177
_symmetry_Int_Tables_number   1
_chemical_formula_structural   Nd12Ni3RuCl12
_chemical_formula_sum   'Nd12 Ni3 Ru1 Cl12'
_cell_volume   789.89276770
_cell_formula_units_Z   1
loop_
 _symmetry_equiv_pos_site_id
 _symmetry_equiv_pos_as_xyz
  1  'x, y, z'
loop_
 _atom_site_type_symbol
 _atom_site_label
 _atom_site_symmetry_multiplicity
 _atom_site_fract_x
 _atom_site_fract_y
 _atom_site_fract_z
 _atom_site_occupancy
  Nd  Nd0  1  0.388274  0.617461  0.002077  1
  Nd  Nd1  1  0.613772  0.384612  0.002049  1
  Nd  Nd2  1  0.638244  0.138183  0.276444  1
  Nd  Nd3  1  0.862754  0.362736  0.725482  1
  Nd  Nd4  1  0.394107  0.384125  0.257493  1
  Nd  Nd5  1  0.124713  0.137424  0.736215  1
  Nd  Nd6  1  0.125058  0.362386  0.512071  1
  Nd  Nd7  1  0.854770  0.617621  0.491708  1
  Nd  Nd8  1  0.611487  0.598755  0.736177  1
  Nd  Nd9  1  0.863391  0.873407  0.257555  1
  Nd  Nd10  1  0.636957  0.874108  0.491718  1
  Nd  Nd11  1  0.386996  0.149687  0.512047  1
  Ni  Ni12  1  0.375453  0.375474  0.750913  1
  Ni  Ni13  1  0.874940  0.123978  0.499286  1
  Ni  Ni14  1  0.624325  0.375208  0.499200  1
  Ru  Ru15  1  0.625412  0.625423  0.250815  1
  Cl  Cl16  1  0.367965  0.626101  0.500159  1
  Cl  Cl17  1  0.132192  0.874057  0.500135  1
  Cl  Cl18  1  0.121526  0.121541  0.243060  1
  Cl  Cl19  1  0.880602  0.880619  0.761235  1
  Cl  Cl20  1  0.881283  0.625523  0.999400  1
  Cl  Cl21  1  0.625768  0.879846  0.995723  1
  Cl  Cl22  1  0.624263  0.122562  0.751731  1
  Cl  Cl23  1  0.369064  0.874607  0.250213  1
  Cl  Cl24  1  0.369963  0.115875  0.995733  1
  Cl  Cl25  1  0.118125  0.373886  0.999402  1
  Cl  Cl26  1  0.881136  0.375609  0.250222  1
  Cl  Cl27  1  0.127462  0.629184  0.751740  1
