# generated using pymatgen
data_Y5Ho3(AlPt)2
_symmetry_space_group_name_H-M   'P 1'
_cell_length_a   9.58556269
_cell_length_b   9.60449495
_cell_length_c   9.60449462
_cell_angle_alpha   59.86962990
_cell_angle_beta   60.06518858
_cell_angle_gamma   60.06518453
_symmetry_Int_Tables_number   1
_chemical_formula_structural   Y5Ho3(AlPt)2
_chemical_formula_sum   'Y10 Ho6 Al4 Pt4'
_cell_volume   625.24223338
_cell_formula_units_Z   2
loop_
 _symmetry_equiv_pos_site_id
 _symmetry_equiv_pos_as_xyz
  1  'x, y, z'
loop_
 _atom_site_type_symbol
 _atom_site_label
 _atom_site_symmetry_multiplicity
 _atom_site_fract_x
 _atom_site_fract_y
 _atom_site_fract_z
 _atom_site_occupancy
  Y  Y0  1  0.193134  0.806866  0.193134  1
  Y  Y1  1  0.806866  0.193134  0.806866  1
  Y  Y2  1  0.193134  0.193134  0.806866  1
  Y  Y3  1  0.806866  0.806866  0.193134  1
  Y  Y4  1  0.936909  0.563091  0.563091  1
  Y  Y5  1  0.563091  0.936909  0.936909  1
  Y  Y6  1  0.562720  0.937280  0.562720  1
  Y  Y7  1  0.937280  0.562720  0.937280  1
  Y  Y8  1  0.562720  0.562720  0.937280  1
  Y  Y9  1  0.937280  0.937280  0.562720  1
  Ho  Ho10  1  0.353633  0.353521  0.353521  1
  Ho  Ho11  1  0.353521  0.353633  0.939325  1
  Ho  Ho12  1  0.353521  0.939325  0.353633  1
  Ho  Ho13  1  0.939325  0.353521  0.353521  1
  Ho  Ho14  1  0.807221  0.192779  0.192779  1
  Ho  Ho15  1  0.192779  0.807221  0.807221  1
  Al  Al16  1  0.578032  0.577712  0.577712  1
  Al  Al17  1  0.577712  0.578032  0.266544  1
  Al  Al18  1  0.577712  0.266544  0.578032  1
  Al  Al19  1  0.266544  0.577712  0.577712  1
  Pt  Pt20  1  0.141665  0.145093  0.145093  1
  Pt  Pt21  1  0.145093  0.141665  0.568150  1
  Pt  Pt22  1  0.145093  0.568150  0.141665  1
  Pt  Pt23  1  0.568150  0.145093  0.145093  1
