# generated using pymatgen
data_Yb2GaBrO3
_symmetry_space_group_name_H-M   'P 1'
_cell_length_a   5.35337177
_cell_length_b   5.35344584
_cell_length_c   15.40259482
_cell_angle_alpha   79.98562153
_cell_angle_beta   79.97358423
_cell_angle_gamma   90.01006308
_symmetry_Int_Tables_number   1
_chemical_formula_structural   Yb2GaBrO3
_chemical_formula_sum   'Yb8 Ga4 Br4 O12'
_cell_volume   427.84731594
_cell_formula_units_Z   4
loop_
 _symmetry_equiv_pos_site_id
 _symmetry_equiv_pos_as_xyz
  1  'x, y, z'
loop_
 _atom_site_type_symbol
 _atom_site_label
 _atom_site_symmetry_multiplicity
 _atom_site_fract_x
 _atom_site_fract_y
 _atom_site_fract_z
 _atom_site_occupancy
  Yb  Yb0  1  0.154168  0.403794  0.692100  1
  Yb  Yb1  1  0.654157  0.903792  0.692094  1
  Yb  Yb2  1  0.345856  0.096220  0.307896  1
  Yb  Yb3  1  0.845829  0.596240  0.307903  1
  Yb  Yb4  1  0.456643  0.206919  0.086075  1
  Yb  Yb5  1  0.956478  0.707158  0.086088  1
  Yb  Yb6  1  0.043419  0.292785  0.913938  1
  Yb  Yb7  1  0.543389  0.792721  0.913926  1
  Ga  Ga8  1  0.093781  0.843400  0.812698  1
  Ga  Ga9  1  0.406161  0.656521  0.187309  1
  Ga  Ga10  1  0.593809  0.343384  0.812687  1
  Ga  Ga11  1  0.906211  0.156577  0.187316  1
  Br  Br12  1  0.299185  0.549527  0.401110  1
  Br  Br13  1  0.799173  0.049525  0.401103  1
  Br  Br14  1  0.200895  0.950642  0.598858  1
  Br  Br15  1  0.700893  0.450649  0.598884  1
  O  O16  1  0.469517  0.719529  0.061602  1
  O  O17  1  0.969455  0.219373  0.061610  1
  O  O18  1  0.030481  0.780680  0.938404  1
  O  O19  1  0.530539  0.280684  0.938396  1
  O  O20  1  0.856057  0.605620  0.788185  1
  O  O21  1  0.356054  0.105607  0.788189  1
  O  O22  1  0.355961  0.605578  0.788226  1
  O  O23  1  0.855979  0.105586  0.788196  1
  O  O24  1  0.144008  0.894381  0.211790  1
  O  O25  1  0.644010  0.394390  0.211790  1
  O  O26  1  0.643957  0.894369  0.211795  1
  O  O27  1  0.143936  0.394352  0.211833  1
