# generated using pymatgen
data_Nb2PbF12
_symmetry_space_group_name_H-M   'P 1'
_cell_length_a   11.94993513
_cell_length_b   5.93507683
_cell_length_c   5.96387600
_cell_angle_alpha   57.28454375
_cell_angle_beta   57.13098799
_cell_angle_gamma   57.36110400
_symmetry_Int_Tables_number   1
_chemical_formula_structural   Nb2PbF12
_chemical_formula_sum   'Nb2 Pb1 F12'
_cell_volume   280.21057820
_cell_formula_units_Z   1
loop_
 _symmetry_equiv_pos_site_id
 _symmetry_equiv_pos_as_xyz
  1  'x, y, z'
loop_
 _atom_site_type_symbol
 _atom_site_label
 _atom_site_symmetry_multiplicity
 _atom_site_fract_x
 _atom_site_fract_y
 _atom_site_fract_z
 _atom_site_occupancy
  Nb  Nb0  1  0.029504  0.976775  0.982324  1
  Nb  Nb1  1  0.470496  0.023225  0.017676  1
  Pb  Pb2  1  0.750000  0.500000  0.500000  1
  F  F3  1  0.185066  0.102999  0.763487  1
  F  F4  1  0.653253  0.108020  0.801176  1
  F  F5  1  0.059224  0.782768  0.331773  1
  F  F6  1  0.541997  0.792411  0.340536  1
  F  F7  1  0.120038  0.645533  0.891108  1
  F  F8  1  0.597301  0.674061  0.907128  1
  F  F9  1  0.440776  0.217232  0.668227  1
  F  F10  1  0.958003  0.207589  0.659464  1
  F  F11  1  0.314934  0.897001  0.236513  1
  F  F12  1  0.846747  0.891980  0.198824  1
  F  F13  1  0.379962  0.354467  0.108892  1
  F  F14  1  0.902699  0.325939  0.092872  1
