# generated using pymatgen
data_Lu4Th4Re(B8Mo)3
_symmetry_space_group_name_H-M   'P 1'
_cell_length_a   3.75401200
_cell_length_b   9.22911001
_cell_length_c   11.67888502
_cell_angle_alpha   89.99376464
_cell_angle_beta   90.00000000
_cell_angle_gamma   90.00000000
_symmetry_Int_Tables_number   1
_chemical_formula_structural   Lu4Th4Re(B8Mo)3
_chemical_formula_sum   'Lu4 Th4 Re1 B24 Mo3'
_cell_volume   404.62886387
_cell_formula_units_Z   1
loop_
 _symmetry_equiv_pos_site_id
 _symmetry_equiv_pos_as_xyz
  1  'x, y, z'
loop_
 _atom_site_type_symbol
 _atom_site_label
 _atom_site_symmetry_multiplicity
 _atom_site_fract_x
 _atom_site_fract_y
 _atom_site_fract_z
 _atom_site_occupancy
  Lu  Lu0  1  0.000000  0.944206  0.371977  1
  Lu  Lu1  1  0.000000  0.055398  0.628668  1
  Lu  Lu2  1  0.000000  0.444762  0.128204  1
  Lu  Lu3  1  0.000000  0.556263  0.871332  1
  Th  Th4  1  0.000000  0.321445  0.414384  1
  Th  Th5  1  0.000000  0.678272  0.585392  1
  Th  Th6  1  0.000000  0.821395  0.085454  1
  Th  Th7  1  0.000000  0.178148  0.914747  1
  Re  Re8  1  0.000000  0.859635  0.818766  1
  B  B9  1  0.500000  0.555113  0.431037  1
  B  B10  1  0.500000  0.445242  0.569290  1
  B  B11  1  0.500000  0.055059  0.068887  1
  B  B12  1  0.500000  0.943483  0.929339  1
  B  B13  1  0.500000  0.752892  0.417210  1
  B  B14  1  0.500000  0.247076  0.583131  1
  B  B15  1  0.500000  0.252926  0.082907  1
  B  B16  1  0.500000  0.748944  0.915592  1
  B  B17  1  0.500000  0.794125  0.265830  1
  B  B18  1  0.500000  0.205895  0.734422  1
  B  B19  1  0.500000  0.293885  0.234132  1
  B  B20  1  0.500000  0.708135  0.766303  1
  B  B21  1  0.500000  0.629724  0.184152  1
  B  B22  1  0.500000  0.370384  0.815825  1
  B  B23  1  0.500000  0.129210  0.315481  1
  B  B24  1  0.500000  0.870473  0.686124  1
  B  B25  1  0.500000  0.982254  0.214741  1
  B  B26  1  0.500000  0.015080  0.785690  1
  B  B27  1  0.500000  0.482499  0.284970  1
  B  B28  1  0.500000  0.517673  0.714980  1
  B  B29  1  0.500000  0.598413  0.026470  1
  B  B30  1  0.500000  0.402264  0.972888  1
  B  B31  1  0.500000  0.097959  0.473364  1
  B  B32  1  0.500000  0.902254  0.527402  1
  Mo  Mo33  1  0.000000  0.639944  0.319239  1
  Mo  Mo34  1  0.000000  0.359769  0.681503  1
  Mo  Mo35  1  0.000000  0.139800  0.180166  1
