# generated using pymatgen
data_Sc4UO5
_symmetry_space_group_name_H-M   'P 1'
_cell_length_a   6.53501298
_cell_length_b   3.44658456
_cell_length_c   11.96637826
_cell_angle_alpha   94.40961938
_cell_angle_beta   58.12062127
_cell_angle_gamma   103.51101249
_symmetry_Int_Tables_number   1
_chemical_formula_structural   Sc4UO5
_chemical_formula_sum   'Sc4 U1 O5'
_cell_volume   222.18264864
_cell_formula_units_Z   1
loop_
 _symmetry_equiv_pos_site_id
 _symmetry_equiv_pos_as_xyz
  1  'x, y, z'
loop_
 _atom_site_type_symbol
 _atom_site_label
 _atom_site_symmetry_multiplicity
 _atom_site_fract_x
 _atom_site_fract_y
 _atom_site_fract_z
 _atom_site_occupancy
  Sc  Sc0  1  0.180231  0.910551  0.045273  1
  Sc  Sc1  1  0.124755  0.422447  0.563652  1
  Sc  Sc2  1  0.479184  0.656114  0.189425  1
  Sc  Sc3  1  0.579706  0.736711  0.702138  1
  U  U4  1  0.750923  0.336127  0.359189  1
  O  O5  1  0.953022  0.859797  0.617658  1
  O  O6  1  0.299884  0.587837  0.661655  1
  O  O7  1  0.791151  0.790258  0.177618  1
  O  O8  1  0.447510  0.864266  0.879603  1
  O  O9  1  0.420837  0.264419  0.588226  1
