# generated using pymatgen
data_CaSm4Y2CoI12
_symmetry_space_group_name_H-M   'P 1'
_cell_length_a   9.80832784
_cell_length_b   9.87134956
_cell_length_c   9.88678258
_cell_angle_alpha   106.81610423
_cell_angle_beta   106.99215943
_cell_angle_gamma   106.70346942
_symmetry_Int_Tables_number   1
_chemical_formula_structural   CaSm4Y2CoI12
_chemical_formula_sum   'Ca1 Sm4 Y2 Co1 I12'
_cell_volume   800.71807527
_cell_formula_units_Z   1
loop_
 _symmetry_equiv_pos_site_id
 _symmetry_equiv_pos_as_xyz
  1  'x, y, z'
loop_
 _atom_site_type_symbol
 _atom_site_label
 _atom_site_symmetry_multiplicity
 _atom_site_fract_x
 _atom_site_fract_y
 _atom_site_fract_z
 _atom_site_occupancy
  Ca  Ca0  1  0.499882  0.500330  0.500158  1
  Sm  Sm1  1  0.285226  0.023561  0.093517  1
  Sm  Sm2  1  0.976544  0.903446  0.699487  1
  Sm  Sm3  1  0.902528  0.699691  0.976045  1
  Sm  Sm4  1  0.715358  0.977250  0.908284  1
  Y  Y5  1  0.024319  0.097797  0.296377  1
  Y  Y6  1  0.096457  0.296078  0.025044  1
  Co  Co7  1  0.000449  0.999874  0.000166  1
  I  I8  1  0.148758  0.453874  0.375362  1
  I  I9  1  0.454746  0.379390  0.151827  1
  I  I10  1  0.376293  0.152880  0.457323  1
  I  I11  1  0.847887  0.540863  0.620108  1
  I  I12  1  0.539573  0.620560  0.845644  1
  I  I13  1  0.618450  0.846901  0.542508  1
  I  I14  1  0.684190  0.073906  0.226882  1
  I  I15  1  0.073547  0.227724  0.681081  1
  I  I16  1  0.227300  0.677669  0.073810  1
  I  I17  1  0.322068  0.927944  0.777247  1
  I  I18  1  0.928644  0.780558  0.321702  1
  I  I19  1  0.777781  0.319705  0.927427  1
