# generated using pymatgen
data_TbCu2Bi2(SO2)2
_symmetry_space_group_name_H-M   'P 1'
_cell_length_a   12.39824566
_cell_length_b   3.87876748
_cell_length_c   3.87876700
_cell_angle_alpha   90.00000000
_cell_angle_beta   98.99939208
_cell_angle_gamma   98.99938372
_symmetry_Int_Tables_number   1
_chemical_formula_structural   TbCu2Bi2(SO2)2
_chemical_formula_sum   'Tb1 Cu2 Bi2 S2 O4'
_cell_volume   181.90822903
_cell_formula_units_Z   1
loop_
 _symmetry_equiv_pos_site_id
 _symmetry_equiv_pos_as_xyz
  1  'x, y, z'
loop_
 _atom_site_type_symbol
 _atom_site_label
 _atom_site_symmetry_multiplicity
 _atom_site_fract_x
 _atom_site_fract_y
 _atom_site_fract_z
 _atom_site_occupancy
  Tb  Tb0  1  0.000000  0.000000  0.000000  1
  Cu  Cu1  1  0.500000  0.750000  0.250000  1
  Cu  Cu2  1  0.500000  0.250000  0.750000  1
  Bi  Bi3  1  0.790437  0.395218  0.395218  1
  Bi  Bi4  1  0.209564  0.604781  0.604781  1
  S  S5  1  0.388600  0.194299  0.194299  1
  S  S6  1  0.611400  0.805700  0.805700  1
  O  O7  1  0.115468  0.557733  0.057734  1
  O  O8  1  0.884532  0.942266  0.442266  1
  O  O9  1  0.115468  0.057734  0.557733  1
  O  O10  1  0.884532  0.442266  0.942266  1
