# generated using pymatgen
data_Tb3LuAl17GaRh6
_symmetry_space_group_name_H-M   'P 1'
_cell_length_a   7.54210416
_cell_length_b   7.54732753
_cell_length_c   9.48054100
_cell_angle_alpha   90.00000000
_cell_angle_beta   90.00000000
_cell_angle_gamma   119.22898445
_symmetry_Int_Tables_number   1
_chemical_formula_structural   Tb3LuAl17GaRh6
_chemical_formula_sum   'Tb3 Lu1 Al17 Ga1 Rh6'
_cell_volume   470.94638049
_cell_formula_units_Z   1
loop_
 _symmetry_equiv_pos_site_id
 _symmetry_equiv_pos_as_xyz
  1  'x, y, z'
loop_
 _atom_site_type_symbol
 _atom_site_label
 _atom_site_symmetry_multiplicity
 _atom_site_fract_x
 _atom_site_fract_y
 _atom_site_fract_z
 _atom_site_occupancy
  Tb  Tb0  1  0.994026  0.674516  0.250000  1
  Tb  Tb1  1  0.005004  0.327466  0.750000  1
  Tb  Tb2  1  0.674329  0.993734  0.250000  1
  Lu  Lu3  1  0.326937  0.004738  0.750000  1
  Al  Al4  1  0.871503  0.870569  0.750000  1
  Al  Al5  1  0.002801  0.336687  0.074141  1
  Al  Al6  1  0.999558  0.665288  0.924684  1
  Al  Al7  1  0.999558  0.665288  0.575316  1
  Al  Al8  1  0.336392  0.002267  0.427967  1
  Al  Al9  1  0.002801  0.336687  0.425859  1
  Al  Al10  1  0.662401  0.998209  0.575640  1
  Al  Al11  1  0.662401  0.998209  0.924360  1
  Al  Al12  1  0.336392  0.002267  0.072033  1
  Al  Al13  1  0.333324  0.332085  0.553459  1
  Al  Al14  1  0.665571  0.665525  0.452996  1
  Al  Al15  1  0.665571  0.665525  0.047004  1
  Al  Al16  1  0.333324  0.332085  0.946541  1
  Al  Al17  1  0.338889  0.550563  0.250000  1
  Al  Al18  1  0.659212  0.448301  0.750000  1
  Al  Al19  1  0.549955  0.338131  0.250000  1
  Al  Al20  1  0.449727  0.662181  0.750000  1
  Ga  Ga21  1  0.132398  0.131863  0.250000  1
  Rh  Rh22  1  0.671616  0.327634  0.999587  1
  Rh  Rh23  1  0.327554  0.671518  0.999555  1
  Rh  Rh24  1  0.327554  0.671518  0.500445  1
  Rh  Rh25  1  0.671616  0.327634  0.500413  1
  Rh  Rh26  1  0.999793  0.999756  0.996905  1
  Rh  Rh27  1  0.999793  0.999756  0.503095  1
