# generated using pymatgen
data_Nd6Y10Cd4Ru3Pt
_symmetry_space_group_name_H-M   'P 1'
_cell_length_a   9.73420265
_cell_length_b   9.82760043
_cell_length_c   9.82760000
_cell_angle_alpha   60.00000145
_cell_angle_beta   59.68209703
_cell_angle_gamma   59.68209807
_symmetry_Int_Tables_number   1
_chemical_formula_structural   Nd6Y10Cd4Ru3Pt
_chemical_formula_sum   'Nd6 Y10 Cd4 Ru3 Pt1'
_cell_volume   661.57140892
_cell_formula_units_Z   1
loop_
 _symmetry_equiv_pos_site_id
 _symmetry_equiv_pos_as_xyz
  1  'x, y, z'
loop_
 _atom_site_type_symbol
 _atom_site_label
 _atom_site_symmetry_multiplicity
 _atom_site_fract_x
 _atom_site_fract_y
 _atom_site_fract_z
 _atom_site_occupancy
  Nd  Nd0  1  0.937032  0.561592  0.561592  1
  Nd  Nd1  1  0.557310  0.939798  0.939798  1
  Nd  Nd2  1  0.557310  0.939798  0.563094  1
  Nd  Nd3  1  0.937032  0.561592  0.939784  1
  Nd  Nd4  1  0.557310  0.563094  0.939798  1
  Nd  Nd5  1  0.937032  0.939784  0.561592  1
  Y  Y6  1  0.343730  0.348851  0.348851  1
  Y  Y7  1  0.343730  0.348851  0.958568  1
  Y  Y8  1  0.343730  0.958568  0.348851  1
  Y  Y9  1  0.966561  0.344480  0.344480  1
  Y  Y10  1  0.816179  0.188039  0.188039  1
  Y  Y11  1  0.186675  0.813266  0.813266  1
  Y  Y12  1  0.186675  0.813266  0.186793  1
  Y  Y13  1  0.816179  0.188039  0.807744  1
  Y  Y14  1  0.186675  0.186793  0.813266  1
  Y  Y15  1  0.816179  0.807744  0.188039  1
  Cd  Cd16  1  0.579727  0.578665  0.578665  1
  Cd  Cd17  1  0.579727  0.578665  0.262944  1
  Cd  Cd18  1  0.579727  0.262944  0.578665  1
  Cd  Cd19  1  0.261007  0.579665  0.579665  1
  Ru  Ru20  1  0.144627  0.137990  0.137990  1
  Ru  Ru21  1  0.144627  0.137990  0.579393  1
  Ru  Ru22  1  0.144627  0.579393  0.137990  1
  Pt  Pt23  1  0.576590  0.141136  0.141136  1
