# generated using pymatgen
data_Tb3DyY2Ta2O14
_symmetry_space_group_name_H-M   'P 1'
_cell_length_a   6.51429314
_cell_length_b   6.51973817
_cell_length_c   7.49742931
_cell_angle_alpha   89.99438981
_cell_angle_beta   89.99054054
_cell_angle_gamma   108.63399045
_symmetry_Int_Tables_number   1
_chemical_formula_structural   Tb3DyY2Ta2O14
_chemical_formula_sum   'Tb3 Dy1 Y2 Ta2 O14'
_cell_volume   301.73470053
_cell_formula_units_Z   1
loop_
 _symmetry_equiv_pos_site_id
 _symmetry_equiv_pos_as_xyz
  1  'x, y, z'
loop_
 _atom_site_type_symbol
 _atom_site_label
 _atom_site_symmetry_multiplicity
 _atom_site_fract_x
 _atom_site_fract_y
 _atom_site_fract_z
 _atom_site_occupancy
  Tb  Tb0  1  0.463240  0.462275  0.999466  1
  Tb  Tb1  1  0.537402  0.538520  0.499913  1
  Tb  Tb2  1  0.000253  0.464799  0.741436  1
  Dy  Dy3  1  0.535250  0.000063  0.758666  1
  Y  Y4  1  0.000041  0.534580  0.241556  1
  Y  Y5  1  0.465145  0.000217  0.258439  1
  Ta  Ta6  1  0.002422  0.002314  0.499898  1
  Ta  Ta7  1  0.997527  0.997673  0.999757  1
  O  O8  1  0.932158  0.067151  0.749937  1
  O  O9  1  0.638837  0.359269  0.749479  1
  O  O10  1  0.305856  0.045766  0.545164  1
  O  O11  1  0.949463  0.692453  0.957027  1
  O  O12  1  0.629244  0.370322  0.250175  1
  O  O13  1  0.916932  0.672185  0.523594  1
  O  O14  1  0.327330  0.081413  0.974789  1
  O  O15  1  0.082836  0.327458  0.024437  1
  O  O16  1  0.672447  0.918584  0.476123  1
  O  O17  1  0.372171  0.630558  0.750560  1
  O  O18  1  0.693261  0.952701  0.043489  1
  O  O19  1  0.050558  0.307173  0.456362  1
  O  O20  1  0.360275  0.640575  0.249841  1
  O  O21  1  0.067351  0.933951  0.249894  1
