# generated using pymatgen
data_Zr6PPdO2
_symmetry_space_group_name_H-M   'P 1'
_cell_length_a   5.89558630
_cell_length_b   5.89558689
_cell_length_c   8.67470600
_cell_angle_alpha   90.00000000
_cell_angle_beta   90.00000000
_cell_angle_gamma   146.13480747
_symmetry_Int_Tables_number   1
_chemical_formula_structural   Zr6PPdO2
_chemical_formula_sum   'Zr6 P1 Pd1 O2'
_cell_volume   168.01640705
_cell_formula_units_Z   1
loop_
 _symmetry_equiv_pos_site_id
 _symmetry_equiv_pos_as_xyz
  1  'x, y, z'
loop_
 _atom_site_type_symbol
 _atom_site_label
 _atom_site_symmetry_multiplicity
 _atom_site_fract_x
 _atom_site_fract_y
 _atom_site_fract_z
 _atom_site_occupancy
  Zr  Zr0  1  0.360310  0.639688  0.071278  1
  Zr  Zr1  1  0.069213  0.930784  0.250000  1
  Zr  Zr2  1  0.360310  0.639688  0.428722  1
  Zr  Zr3  1  0.635289  0.364709  0.545752  1
  Zr  Zr4  1  0.946427  0.053570  0.750000  1
  Zr  Zr5  1  0.635289  0.364709  0.954248  1
  P  P6  1  0.743393  0.256604  0.250000  1
  Pd  Pd7  1  0.252526  0.747471  0.750000  1
  O  O8  1  0.998615  0.001385  0.002209  1
  O  O9  1  0.998615  0.001385  0.497791  1
