# generated using pymatgen
data_Rb4Er3Np5Se16
_symmetry_space_group_name_H-M   'P 1'
_cell_length_a   7.09320656
_cell_length_b   8.10502088
_cell_length_c   16.85647400
_cell_angle_alpha   90.00128659
_cell_angle_beta   89.66595074
_cell_angle_gamma   89.93102062
_symmetry_Int_Tables_number   1
_chemical_formula_structural   Rb4Er3Np5Se16
_chemical_formula_sum   'Rb4 Er3 Np5 Se16'
_cell_volume   969.07141545
_cell_formula_units_Z   1
loop_
 _symmetry_equiv_pos_site_id
 _symmetry_equiv_pos_as_xyz
  1  'x, y, z'
loop_
 _atom_site_type_symbol
 _atom_site_label
 _atom_site_symmetry_multiplicity
 _atom_site_fract_x
 _atom_site_fract_y
 _atom_site_fract_z
 _atom_site_occupancy
  Rb  Rb0  1  0.351420  0.999089  0.000531  1
  Rb  Rb1  1  0.648580  0.500911  0.499469  1
  Rb  Rb2  1  0.027623  0.998437  0.499587  1
  Rb  Rb3  1  0.972377  0.501563  0.000413  1
  Er  Er4  1  0.500000  0.750000  0.750000  1
  Er  Er5  1  0.500000  0.750000  0.250000  1
  Er  Er6  1  0.500000  0.250000  0.750000  1
  Np  Np7  1  0.999404  0.996239  0.246760  1
  Np  Np8  1  0.999696  0.999945  0.752998  1
  Np  Np9  1  0.000596  0.503761  0.253240  1
  Np  Np10  1  0.000304  0.500055  0.747002  1
  Np  Np11  1  0.500000  0.250000  0.250000  1
  Se  Se12  1  0.829618  0.246500  0.344764  1
  Se  Se13  1  0.833815  0.753799  0.654462  1
  Se  Se14  1  0.170822  0.745667  0.153449  1
  Se  Se15  1  0.166248  0.253249  0.845575  1
  Se  Se16  1  0.170382  0.253500  0.155236  1
  Se  Se17  1  0.166185  0.746201  0.845538  1
  Se  Se18  1  0.829178  0.754333  0.346551  1
  Se  Se19  1  0.833752  0.246751  0.654425  1
  Se  Se20  1  0.667633  0.000956  0.155148  1
  Se  Se21  1  0.669783  0.999695  0.844419  1
  Se  Se22  1  0.332367  0.499044  0.344852  1
  Se  Se23  1  0.330217  0.500305  0.655581  1
  Se  Se24  1  0.330177  0.000952  0.341938  1
  Se  Se25  1  0.327464  0.000002  0.658473  1
  Se  Se26  1  0.669823  0.499048  0.158062  1
  Se  Se27  1  0.672536  0.499998  0.841527  1
