# generated using pymatgen
data_TmLuNi2Pb
_symmetry_space_group_name_H-M   'P 1'
_cell_length_a   7.36382564
_cell_length_b   7.36382555
_cell_length_c   3.71602300
_cell_angle_alpha   90.00000000
_cell_angle_beta   90.00000000
_cell_angle_gamma   150.01730110
_symmetry_Int_Tables_number   1
_chemical_formula_structural   TmLuNi2Pb
_chemical_formula_sum   'Tm1 Lu1 Ni2 Pb1'
_cell_volume   100.69969731
_cell_formula_units_Z   1
loop_
 _symmetry_equiv_pos_site_id
 _symmetry_equiv_pos_as_xyz
  1  'x, y, z'
loop_
 _atom_site_type_symbol
 _atom_site_label
 _atom_site_symmetry_multiplicity
 _atom_site_fract_x
 _atom_site_fract_y
 _atom_site_fract_z
 _atom_site_occupancy
  Tm  Tm0  1  0.359220  0.640780  0.500000  1
  Lu  Lu1  1  0.641101  0.358899  0.500000  1
  Ni  Ni2  1  0.799928  0.200072  0.000000  1
  Ni  Ni3  1  0.199140  0.800860  0.000000  1
  Pb  Pb4  1  0.000610  0.999390  0.000000  1
