# generated using pymatgen
data_V12ZnGa5(CoN2)2
_symmetry_space_group_name_H-M   'P 1'
_cell_length_a   6.54178610
_cell_length_b   6.53373320
_cell_length_c   6.54753597
_cell_angle_alpha   90.18239006
_cell_angle_beta   89.89877917
_cell_angle_gamma   89.89077193
_symmetry_Int_Tables_number   1
_chemical_formula_structural   V12ZnGa5(CoN2)2
_chemical_formula_sum   'V12 Zn1 Ga5 Co2 N4'
_cell_volume   279.85428209
_cell_formula_units_Z   1
loop_
 _symmetry_equiv_pos_site_id
 _symmetry_equiv_pos_as_xyz
  1  'x, y, z'
loop_
 _atom_site_type_symbol
 _atom_site_label
 _atom_site_symmetry_multiplicity
 _atom_site_fract_x
 _atom_site_fract_y
 _atom_site_fract_z
 _atom_site_occupancy
  V  V0  1  0.786322  0.955878  0.377690  1
  V  V1  1  0.706026  0.038161  0.871777  1
  V  V2  1  0.207067  0.462459  0.127466  1
  V  V3  1  0.286278  0.544752  0.622733  1
  V  V4  1  0.960099  0.376801  0.785109  1
  V  V5  1  0.040775  0.870511  0.705068  1
  V  V6  1  0.461312  0.124729  0.214651  1
  V  V7  1  0.541397  0.627819  0.293526  1
  V  V8  1  0.377804  0.789094  0.955549  1
  V  V9  1  0.875360  0.709271  0.043896  1
  V  V10  1  0.126009  0.211318  0.463270  1
  V  V11  1  0.624889  0.288733  0.537987  1
  Zn  Zn12  1  0.070727  0.069016  0.070945  1
  Ga  Ga13  1  0.179980  0.820087  0.327729  1
  Ga  Ga14  1  0.320151  0.169963  0.813363  1
  Ga  Ga15  1  0.827888  0.325793  0.190113  1
  Ga  Ga16  1  0.680690  0.683425  0.668463  1
  Ga  Ga17  1  0.571948  0.428720  0.929263  1
  Co  Co18  1  0.428379  0.925092  0.570033  1
  Co  Co19  1  0.930590  0.575851  0.429200  1
  N  N20  1  0.873912  0.123515  0.624466  1
  N  N21  1  0.625116  0.874594  0.126081  1
  N  N22  1  0.124468  0.627463  0.875251  1
  N  N23  1  0.372816  0.376955  0.376368  1
