# generated using pymatgen
data_Ho5Al2Rh3
_symmetry_space_group_name_H-M   'P 1'
_cell_length_a   8.34136690
_cell_length_b   8.34136572
_cell_length_c   8.34136600
_cell_angle_alpha   109.47122617
_cell_angle_beta   109.47122331
_cell_angle_gamma   109.47122081
_symmetry_Int_Tables_number   1
_chemical_formula_structural   Ho5Al2Rh3
_chemical_formula_sum   'Ho10 Al4 Rh6'
_cell_volume   446.77578743
_cell_formula_units_Z   2
loop_
 _symmetry_equiv_pos_site_id
 _symmetry_equiv_pos_as_xyz
  1  'x, y, z'
loop_
 _atom_site_type_symbol
 _atom_site_label
 _atom_site_symmetry_multiplicity
 _atom_site_fract_x
 _atom_site_fract_y
 _atom_site_fract_z
 _atom_site_occupancy
  Ho  Ho0  1  0.784167  0.784167  0.784167  1
  Ho  Ho1  1  0.314640  0.564640  0.750000  1
  Ho  Ho2  1  0.750000  0.314640  0.564640  1
  Ho  Ho3  1  0.564640  0.750000  0.314640  1
  Ho  Ho4  1  0.715833  0.500000  0.000000  1
  Ho  Ho5  1  0.000000  0.715833  0.500000  1
  Ho  Ho6  1  0.500000  0.000000  0.715833  1
  Ho  Ho7  1  0.250000  0.185360  0.935360  1
  Ho  Ho8  1  0.935360  0.250000  0.185360  1
  Ho  Ho9  1  0.185360  0.935360  0.250000  1
  Al  Al10  1  0.405084  0.405084  0.405084  1
  Al  Al11  1  0.094916  0.500000  0.000000  1
  Al  Al12  1  0.000000  0.094916  0.500000  1
  Al  Al13  1  0.500000  0.000000  0.094916  1
  Rh  Rh14  1  0.872699  0.122699  0.750000  1
  Rh  Rh15  1  0.750000  0.872699  0.122699  1
  Rh  Rh16  1  0.122699  0.750000  0.872699  1
  Rh  Rh17  1  0.250000  0.627301  0.377301  1
  Rh  Rh18  1  0.377301  0.250000  0.627301  1
  Rh  Rh19  1  0.627301  0.377301  0.250000  1
