# generated using pymatgen
data_Ho9Er3(ThSn2)8
_symmetry_space_group_name_H-M   'P 1'
_cell_length_a   8.11685804
_cell_length_b   8.23161904
_cell_length_c   15.50318700
_cell_angle_alpha   90.00000000
_cell_angle_beta   90.00000000
_cell_angle_gamma   89.98922650
_symmetry_Int_Tables_number   1
_chemical_formula_structural   Ho9Er3(ThSn2)8
_chemical_formula_sum   'Ho9 Er3 Th8 Sn16'
_cell_volume   1035.84360914
_cell_formula_units_Z   1
loop_
 _symmetry_equiv_pos_site_id
 _symmetry_equiv_pos_as_xyz
  1  'x, y, z'
loop_
 _atom_site_type_symbol
 _atom_site_label
 _atom_site_symmetry_multiplicity
 _atom_site_fract_x
 _atom_site_fract_y
 _atom_site_fract_z
 _atom_site_occupancy
  Ho  Ho0  1  0.357479  0.837084  0.875526  1
  Ho  Ho1  1  0.857446  0.662955  0.624656  1
  Ho  Ho2  1  0.642829  0.162864  0.375877  1
  Ho  Ho3  1  0.142774  0.337114  0.124375  1
  Ho  Ho4  1  0.642829  0.162864  0.124123  1
  Ho  Ho5  1  0.142774  0.337114  0.375625  1
  Ho  Ho6  1  0.357479  0.837084  0.624474  1
  Ho  Ho7  1  0.857446  0.662955  0.875344  1
  Ho  Ho8  1  0.313101  0.997983  0.250000  1
  Er  Er9  1  0.187104  0.497879  0.750000  1
  Er  Er10  1  0.686989  0.002030  0.750000  1
  Er  Er11  1  0.813015  0.502167  0.250000  1
  Th  Th12  1  0.515969  0.321335  0.904476  1
  Th  Th13  1  0.016139  0.178699  0.595631  1
  Th  Th14  1  0.483897  0.678761  0.404478  1
  Th  Th15  1  0.983716  0.821291  0.095441  1
  Th  Th16  1  0.483897  0.678761  0.095522  1
  Th  Th17  1  0.983716  0.821291  0.404559  1
  Th  Th18  1  0.515969  0.321335  0.595524  1
  Th  Th19  1  0.016139  0.178699  0.904369  1
  Sn  Sn20  1  0.301000  0.040267  0.041793  1
  Sn  Sn21  1  0.801479  0.459887  0.458177  1
  Sn  Sn22  1  0.699088  0.959269  0.542271  1
  Sn  Sn23  1  0.198415  0.540438  0.957753  1
  Sn  Sn24  1  0.699088  0.959269  0.957729  1
  Sn  Sn25  1  0.198415  0.540438  0.542247  1
  Sn  Sn26  1  0.301000  0.040267  0.458207  1
  Sn  Sn27  1  0.801479  0.459887  0.041823  1
  Sn  Sn28  1  0.552321  0.621517  0.750000  1
  Sn  Sn29  1  0.052710  0.878427  0.750000  1
  Sn  Sn30  1  0.447774  0.378046  0.250000  1
  Sn  Sn31  1  0.946813  0.122176  0.250000  1
  Sn  Sn32  1  0.322420  0.144311  0.750000  1
  Sn  Sn33  1  0.821709  0.355692  0.750000  1
  Sn  Sn34  1  0.677985  0.855855  0.250000  1
  Sn  Sn35  1  0.177599  0.643992  0.250000  1
