# generated using pymatgen
data_Pr2ThSn7
_symmetry_space_group_name_H-M   'P 1'
_cell_length_a   13.03083674
_cell_length_b   13.03083738
_cell_length_c   4.63455600
_cell_angle_alpha   90.00000000
_cell_angle_beta   90.00000000
_cell_angle_gamma   159.05899966
_symmetry_Int_Tables_number   1
_chemical_formula_structural   Pr2ThSn7
_chemical_formula_sum   'Pr2 Th1 Sn7'
_cell_volume   281.26462081
_cell_formula_units_Z   1
loop_
 _symmetry_equiv_pos_site_id
 _symmetry_equiv_pos_as_xyz
  1  'x, y, z'
loop_
 _atom_site_type_symbol
 _atom_site_label
 _atom_site_symmetry_multiplicity
 _atom_site_fract_x
 _atom_site_fract_y
 _atom_site_fract_z
 _atom_site_occupancy
  Pr  Pr0  1  0.816273  0.183725  0.000000  1
  Pr  Pr1  1  0.183725  0.816273  0.000000  1
  Th  Th2  1  0.000000  0.000000  0.000000  1
  Sn  Sn3  1  0.595479  0.404519  0.000000  1
  Sn  Sn4  1  0.404519  0.595479  0.000000  1
  Sn  Sn5  1  0.905588  0.094409  0.500000  1
  Sn  Sn6  1  0.710929  0.289069  0.500000  1
  Sn  Sn7  1  0.499999  0.499999  0.500000  1
  Sn  Sn8  1  0.289069  0.710929  0.500000  1
  Sn  Sn9  1  0.094409  0.905588  0.500000  1
