# generated using pymatgen
data_K3Lu(PS4)2
_symmetry_space_group_name_H-M   'P 1'
_cell_length_a   8.91364709
_cell_length_b   9.98462457
_cell_length_c   10.64219400
_cell_angle_alpha   107.38096175
_cell_angle_beta   103.17722924
_cell_angle_gamma   114.00285915
_symmetry_Int_Tables_number   1
_chemical_formula_structural   K3Lu(PS4)2
_chemical_formula_sum   'K6 Lu2 P4 S16'
_cell_volume   756.48846900
_cell_formula_units_Z   2
loop_
 _symmetry_equiv_pos_site_id
 _symmetry_equiv_pos_as_xyz
  1  'x, y, z'
loop_
 _atom_site_type_symbol
 _atom_site_label
 _atom_site_symmetry_multiplicity
 _atom_site_fract_x
 _atom_site_fract_y
 _atom_site_fract_z
 _atom_site_occupancy
  K  K0  1  0.999979  0.499996  0.999984  1
  K  K1  1  0.500022  0.499990  0.000004  1
  K  K2  1  0.255535  0.005578  0.011137  1
  K  K3  1  0.489349  0.739223  0.478424  1
  K  K4  1  0.510681  0.260792  0.521569  1
  K  K5  1  0.744496  0.994427  0.988861  1
  Lu  Lu6  1  0.993347  0.243335  0.486719  1
  Lu  Lu7  1  0.006684  0.756636  0.513299  1
  P  P8  1  0.745986  0.344211  0.251142  1
  P  P9  1  0.005135  0.906924  0.251146  1
  P  P10  1  0.994856  0.093079  0.748854  1
  P  P11  1  0.254007  0.655793  0.748864  1
  S  S12  1  0.643288  0.269406  0.036433  1
  S  S13  1  0.893076  0.766988  0.036456  1
  S  S14  1  0.127393  0.150889  0.292426  1
  S  S15  1  0.665009  0.141548  0.292459  1
  S  S16  1  0.021697  0.468528  0.342767  1
  S  S17  1  0.821048  0.874239  0.342774  1
  S  S18  1  0.663311  0.494783  0.353557  1
  S  S19  1  0.190233  0.858804  0.353579  1
  S  S20  1  0.809759  0.141206  0.646428  1
  S  S21  1  0.336688  0.505223  0.646451  1
  S  S22  1  0.178938  0.125753  0.657218  1
  S  S23  1  0.978292  0.531477  0.657233  1
  S  S24  1  0.334991  0.858458  0.707545  1
  S  S25  1  0.872586  0.849111  0.707571  1
  S  S26  1  0.106921  0.233010  0.963538  1
  S  S27  1  0.356699  0.730598  0.963563  1
