# generated using pymatgen
data_Dy2Al8SiIr3
_symmetry_space_group_name_H-M   'P 1'
_cell_length_a   7.54642064
_cell_length_b   7.54642050
_cell_length_c   9.35354300
_cell_angle_alpha   90.00000000
_cell_angle_beta   90.00000000
_cell_angle_gamma   119.69733498
_symmetry_Int_Tables_number   1
_chemical_formula_structural   Dy2Al8SiIr3
_chemical_formula_sum   'Dy4 Al16 Si2 Ir6'
_cell_volume   462.70613858
_cell_formula_units_Z   2
loop_
 _symmetry_equiv_pos_site_id
 _symmetry_equiv_pos_as_xyz
  1  'x, y, z'
loop_
 _atom_site_type_symbol
 _atom_site_label
 _atom_site_symmetry_multiplicity
 _atom_site_fract_x
 _atom_site_fract_y
 _atom_site_fract_z
 _atom_site_occupancy
  Dy  Dy0  1  0.994916  0.674129  0.750000  1
  Dy  Dy1  1  0.005084  0.325871  0.250000  1
  Dy  Dy2  1  0.674129  0.994916  0.750000  1
  Dy  Dy3  1  0.325871  0.005084  0.250000  1
  Al  Al4  1  0.001115  0.336069  0.576404  1
  Al  Al5  1  0.998885  0.663931  0.423596  1
  Al  Al6  1  0.998885  0.663931  0.076404  1
  Al  Al7  1  0.336069  0.001115  0.923596  1
  Al  Al8  1  0.001115  0.336069  0.923596  1
  Al  Al9  1  0.663931  0.998885  0.076404  1
  Al  Al10  1  0.663931  0.998885  0.423596  1
  Al  Al11  1  0.336069  0.001115  0.576404  1
  Al  Al12  1  0.335548  0.335548  0.057044  1
  Al  Al13  1  0.664452  0.664452  0.942956  1
  Al  Al14  1  0.664452  0.664452  0.557044  1
  Al  Al15  1  0.335548  0.335548  0.442956  1
  Al  Al16  1  0.335526  0.548196  0.750000  1
  Al  Al17  1  0.664474  0.451804  0.250000  1
  Al  Al18  1  0.548196  0.335526  0.750000  1
  Al  Al19  1  0.451804  0.664474  0.250000  1
  Si  Si20  1  0.127977  0.127977  0.750000  1
  Si  Si21  1  0.872023  0.872023  0.250000  1
  Ir  Ir22  1  0.671759  0.328241  0.500000  1
  Ir  Ir23  1  0.328241  0.671759  0.500000  1
  Ir  Ir24  1  0.328241  0.671759  0.000000  1
  Ir  Ir25  1  0.671759  0.328241  0.000000  1
  Ir  Ir26  1  0.000000  0.000000  0.500000  1
  Ir  Ir27  1  0.000000  0.000000  0.000000  1
