# generated using pymatgen
data_Dy3HoFe8
_symmetry_space_group_name_H-M   'P 1'
_cell_length_a   8.89978072
_cell_length_b   8.89978071
_cell_length_c   8.89978115
_cell_angle_alpha   33.53751712
_cell_angle_beta   33.53751345
_cell_angle_gamma   33.53751759
_symmetry_Int_Tables_number   1
_chemical_formula_structural   Dy3HoFe8
_chemical_formula_sum   'Dy3 Ho1 Fe8'
_cell_volume   191.64804106
_cell_formula_units_Z   1
loop_
 _symmetry_equiv_pos_site_id
 _symmetry_equiv_pos_as_xyz
  1  'x, y, z'
loop_
 _atom_site_type_symbol
 _atom_site_label
 _atom_site_symmetry_multiplicity
 _atom_site_fract_x
 _atom_site_fract_y
 _atom_site_fract_z
 _atom_site_occupancy
  Dy  Dy0  1  0.312575  0.312575  0.312575  1
  Dy  Dy1  1  0.687491  0.687491  0.687491  1
  Dy  Dy2  1  0.187374  0.187374  0.187374  1
  Ho  Ho3  1  0.812557  0.812557  0.812557  1
  Fe  Fe4  1  0.499953  0.499953  0.499953  1
  Fe  Fe5  1  0.000030  0.000030  0.000030  1
  Fe  Fe6  1  0.249981  0.249981  0.750208  1
  Fe  Fe7  1  0.750070  0.750070  0.249709  1
  Fe  Fe8  1  0.249981  0.750208  0.249981  1
  Fe  Fe9  1  0.750070  0.249709  0.750070  1
  Fe  Fe10  1  0.750208  0.249981  0.249981  1
  Fe  Fe11  1  0.249709  0.750070  0.750070  1
