# generated using pymatgen
data_CeSb12(OsRu)2
_symmetry_space_group_name_H-M   'P 1'
_cell_length_a   8.11488542
_cell_length_b   8.12474289
_cell_length_c   8.12474246
_cell_angle_alpha   109.50952676
_cell_angle_beta   109.48052382
_cell_angle_gamma   109.47278734
_symmetry_Int_Tables_number   1
_chemical_formula_structural   CeSb12(OsRu)2
_chemical_formula_sum   'Ce1 Sb12 Os2 Ru2'
_cell_volume   412.11255134
_cell_formula_units_Z   1
loop_
 _symmetry_equiv_pos_site_id
 _symmetry_equiv_pos_as_xyz
  1  'x, y, z'
loop_
 _atom_site_type_symbol
 _atom_site_label
 _atom_site_symmetry_multiplicity
 _atom_site_fract_x
 _atom_site_fract_y
 _atom_site_fract_z
 _atom_site_occupancy
  Ce  Ce0  1  0.000000  0.000000  0.000000  1
  Sb  Sb1  1  0.337954  0.181279  0.842128  1
  Sb  Sb2  1  0.662045  0.818721  0.157872  1
  Sb  Sb3  1  0.662045  0.504174  0.843324  1
  Sb  Sb4  1  0.337955  0.495826  0.156676  1
  Sb  Sb5  1  0.180404  0.842416  0.337987  1
  Sb  Sb6  1  0.819596  0.157584  0.662014  1
  Sb  Sb7  1  0.503950  0.843145  0.660806  1
  Sb  Sb8  1  0.496050  0.156855  0.339195  1
  Sb  Sb9  1  0.843634  0.339419  0.181350  1
  Sb  Sb10  1  0.156366  0.660580  0.818650  1
  Sb  Sb11  1  0.843634  0.662283  0.504215  1
  Sb  Sb12  1  0.156366  0.337717  0.495785  1
  Os  Os13  1  0.500000  0.000000  0.000000  1
  Os  Os14  1  0.500000  0.500000  0.500000  1
  Ru  Ru15  1  0.000000  0.000000  0.500000  1
  Ru  Ru16  1  0.000000  0.500000  0.000000  1
