# generated using pymatgen
data_K2Yb6Si4O15
_symmetry_space_group_name_H-M   'P 1'
_cell_length_a   7.36304939
_cell_length_b   5.53281100
_cell_length_c   17.12660100
_cell_angle_alpha   90.00000000
_cell_angle_beta   90.14442532
_cell_angle_gamma   90.00000000
_symmetry_Int_Tables_number   1
_chemical_formula_structural   K2Yb6Si4O15
_chemical_formula_sum   'K4 Yb12 Si8 O30'
_cell_volume   697.70743200
_cell_formula_units_Z   2
loop_
 _symmetry_equiv_pos_site_id
 _symmetry_equiv_pos_as_xyz
  1  'x, y, z'
loop_
 _atom_site_type_symbol
 _atom_site_label
 _atom_site_symmetry_multiplicity
 _atom_site_fract_x
 _atom_site_fract_y
 _atom_site_fract_z
 _atom_site_occupancy
  K  K0  1  0.974638  0.747538  0.082312  1
  K  K1  1  0.025362  0.747538  0.417688  1
  K  K2  1  0.974638  0.252462  0.582312  1
  K  K3  1  0.025363  0.252462  0.917688  1
  Yb  Yb4  1  0.509862  0.734593  0.079207  1
  Yb  Yb5  1  0.247374  0.238866  0.091703  1
  Yb  Yb6  1  0.500000  0.146556  0.250000  1
  Yb  Yb7  1  0.000000  0.201533  0.250000  1
  Yb  Yb8  1  0.752626  0.238866  0.408297  1
  Yb  Yb9  1  0.490138  0.734593  0.420793  1
  Yb  Yb10  1  0.509863  0.265406  0.579207  1
  Yb  Yb11  1  0.247373  0.761134  0.591703  1
  Yb  Yb12  1  0.000000  0.798467  0.750000  1
  Yb  Yb13  1  0.500000  0.853444  0.750000  1
  Yb  Yb14  1  0.752626  0.761134  0.908297  1
  Yb  Yb15  1  0.490138  0.265406  0.920793  1
  Si  Si16  1  0.731191  0.251529  0.066339  1
  Si  Si17  1  0.226741  0.710716  0.237109  1
  Si  Si18  1  0.773259  0.710716  0.262891  1
  Si  Si19  1  0.268809  0.251529  0.433661  1
  Si  Si20  1  0.731192  0.748471  0.566339  1
  Si  Si21  1  0.226741  0.289284  0.737109  1
  Si  Si22  1  0.773258  0.289284  0.762891  1
  Si  Si23  1  0.268809  0.748471  0.933661  1
  O  O24  1  0.722764  0.476863  0.001493  1
  O  O25  1  0.702795  0.005160  0.012695  1
  O  O26  1  0.928525  0.247156  0.112920  1
  O  O27  1  0.549260  0.296911  0.120159  1
  O  O28  1  0.277524  0.890852  0.163724  1
  O  O29  1  0.673449  0.817325  0.186618  1
  O  O30  1  0.246453  0.422921  0.216553  1
  O  O31  1  0.000000  0.761482  0.250000  1
  O  O32  1  0.753547  0.422921  0.283447  1
  O  O33  1  0.326551  0.817325  0.313382  1
  O  O34  1  0.722477  0.890852  0.336276  1
  O  O35  1  0.450740  0.296911  0.379841  1
  O  O36  1  0.071475  0.247156  0.387080  1
  O  O37  1  0.297205  0.005160  0.487305  1
  O  O38  1  0.277236  0.476863  0.498507  1
  O  O39  1  0.722764  0.523138  0.501493  1
  O  O40  1  0.702795  0.994840  0.512695  1
  O  O41  1  0.928525  0.752846  0.612920  1
  O  O42  1  0.549260  0.703088  0.620159  1
  O  O43  1  0.277523  0.109148  0.663724  1
  O  O44  1  0.673448  0.182675  0.686618  1
  O  O45  1  0.246454  0.577080  0.716553  1
  O  O46  1  0.000000  0.238518  0.750000  1
  O  O47  1  0.753547  0.577080  0.783447  1
  O  O48  1  0.326551  0.182675  0.813382  1
  O  O49  1  0.722476  0.109148  0.836276  1
  O  O50  1  0.450741  0.703088  0.879841  1
  O  O51  1  0.071476  0.752846  0.887080  1
  O  O52  1  0.297204  0.994840  0.987305  1
  O  O53  1  0.277235  0.523138  0.998508  1
