# generated using pymatgen
data_Ca2Cr3Ni9P7
_symmetry_space_group_name_H-M   'P 1'
_cell_length_a   9.12998300
_cell_length_b   9.12998343
_cell_length_c   3.65955900
_cell_angle_alpha   90.00000000
_cell_angle_beta   90.00000000
_cell_angle_gamma   119.99999482
_symmetry_Int_Tables_number   1
_chemical_formula_structural   Ca2Cr3Ni9P7
_chemical_formula_sum   'Ca2 Cr3 Ni9 P7'
_cell_volume   264.17965333
_cell_formula_units_Z   1
loop_
 _symmetry_equiv_pos_site_id
 _symmetry_equiv_pos_as_xyz
  1  'x, y, z'
loop_
 _atom_site_type_symbol
 _atom_site_label
 _atom_site_symmetry_multiplicity
 _atom_site_fract_x
 _atom_site_fract_y
 _atom_site_fract_z
 _atom_site_occupancy
  Ca  Ca0  1  0.333333  0.666667  0.000000  1
  Ca  Ca1  1  0.666667  0.333333  0.500000  1
  Cr  Cr2  1  0.218232  0.120188  0.500000  1
  Cr  Cr3  1  0.879812  0.098043  0.500000  1
  Cr  Cr4  1  0.901957  0.781768  0.500000  1
  Ni  Ni5  1  0.123947  0.278532  0.000000  1
  Ni  Ni6  1  0.721468  0.845414  0.000000  1
  Ni  Ni7  1  0.154586  0.876053  0.000000  1
  Ni  Ni8  1  0.433225  0.372335  0.000000  1
  Ni  Ni9  1  0.627665  0.060891  0.000000  1
  Ni  Ni10  1  0.939109  0.566775  0.000000  1
  Ni  Ni11  1  0.051622  0.435912  0.500000  1
  Ni  Ni12  1  0.564088  0.615710  0.500000  1
  Ni  Ni13  1  0.384290  0.948378  0.500000  1
  P  P14  1  0.291399  0.403208  0.500000  1
  P  P15  1  0.596792  0.888190  0.500000  1
  P  P16  1  0.111810  0.708601  0.500000  1
  P  P17  1  0.406051  0.112694  0.000000  1
  P  P18  1  0.887306  0.293358  0.000000  1
  P  P19  1  0.706642  0.593949  0.000000  1
  P  P20  1  0.000000  0.000000  0.000000  1
