# generated using pymatgen
data_Nd8Be3Si12Rh
_symmetry_space_group_name_H-M   'P 1'
_cell_length_a   8.04632300
_cell_length_b   8.04632264
_cell_length_c   8.54990200
_cell_angle_alpha   90.00000000
_cell_angle_beta   90.00000000
_cell_angle_gamma   119.99999736
_symmetry_Int_Tables_number   1
_chemical_formula_structural   Nd8Be3Si12Rh
_chemical_formula_sum   'Nd8 Be3 Si12 Rh1'
_cell_volume   479.38747752
_cell_formula_units_Z   1
loop_
 _symmetry_equiv_pos_site_id
 _symmetry_equiv_pos_as_xyz
  1  'x, y, z'
loop_
 _atom_site_type_symbol
 _atom_site_label
 _atom_site_symmetry_multiplicity
 _atom_site_fract_x
 _atom_site_fract_y
 _atom_site_fract_z
 _atom_site_occupancy
  Nd  Nd0  1  0.000000  0.000000  0.750156  1
  Nd  Nd1  1  0.000000  0.000000  0.249878  1
  Nd  Nd2  1  0.500277  0.499723  0.749013  1
  Nd  Nd3  1  0.500277  0.000556  0.749013  1
  Nd  Nd4  1  0.999444  0.499723  0.749013  1
  Nd  Nd5  1  0.500816  0.499184  0.251079  1
  Nd  Nd6  1  0.998369  0.499184  0.251079  1
  Nd  Nd7  1  0.500816  0.001631  0.251079  1
  Be  Be8  1  0.666667  0.333333  0.998615  1
  Be  Be9  1  0.666667  0.333333  0.501964  1
  Be  Be10  1  0.333333  0.666667  0.497461  1
  Si  Si11  1  0.830780  0.169220  0.999510  1
  Si  Si12  1  0.830780  0.661559  0.999510  1
  Si  Si13  1  0.338441  0.169220  0.999510  1
  Si  Si14  1  0.828190  0.171810  0.500298  1
  Si  Si15  1  0.828190  0.656381  0.500298  1
  Si  Si16  1  0.343619  0.171810  0.500298  1
  Si  Si17  1  0.172626  0.827374  0.499926  1
  Si  Si18  1  0.654749  0.827374  0.499926  1
  Si  Si19  1  0.172626  0.345251  0.499926  1
  Si  Si20  1  0.168838  0.831162  0.000188  1
  Si  Si21  1  0.662324  0.831162  0.000188  1
  Si  Si22  1  0.168838  0.337676  0.000188  1
  Rh  Rh23  1  0.333333  0.666667  0.001882  1
