# generated using pymatgen
data_Y5Th3(ScIr3)2
_symmetry_space_group_name_H-M   'P 1'
_cell_length_a   11.02306823
_cell_length_b   10.97629400
_cell_length_c   6.28836700
_cell_angle_alpha   90.00000000
_cell_angle_beta   89.98836211
_cell_angle_gamma   90.00000000
_symmetry_Int_Tables_number   1
_chemical_formula_structural   Y5Th3(ScIr3)2
_chemical_formula_sum   'Y10 Th6 Sc4 Ir12'
_cell_volume   760.84483645
_cell_formula_units_Z   2
loop_
 _symmetry_equiv_pos_site_id
 _symmetry_equiv_pos_as_xyz
  1  'x, y, z'
loop_
 _atom_site_type_symbol
 _atom_site_label
 _atom_site_symmetry_multiplicity
 _atom_site_fract_x
 _atom_site_fract_y
 _atom_site_fract_z
 _atom_site_occupancy
  Y  Y0  1  0.409401  0.782095  0.377085  1
  Y  Y1  1  0.409401  0.217905  0.877085  1
  Y  Y2  1  0.211229  0.416076  0.621343  1
  Y  Y3  1  0.211229  0.583924  0.121343  1
  Y  Y4  1  0.790734  0.417303  0.113947  1
  Y  Y5  1  0.790734  0.582697  0.613947  1
  Y  Y6  1  0.917919  0.710186  0.114067  1
  Y  Y7  1  0.917919  0.289814  0.614067  1
  Y  Y8  1  0.083264  0.710768  0.615063  1
  Y  Y9  1  0.083264  0.289232  0.115063  1
  Th  Th10  1  0.284138  0.089199  0.378952  1
  Th  Th11  1  0.284138  0.910801  0.878952  1
  Th  Th12  1  0.714340  0.093043  0.878485  1
  Th  Th13  1  0.714340  0.906957  0.378485  1
  Th  Th14  1  0.587099  0.779974  0.880894  1
  Th  Th15  1  0.587099  0.220026  0.380894  1
  Sc  Sc16  1  0.998956  0.999202  0.507332  1
  Sc  Sc17  1  0.998956  0.000798  0.007332  1
  Sc  Sc18  1  0.498689  0.495187  0.012582  1
  Sc  Sc19  1  0.498689  0.504813  0.512582  1
  Ir  Ir20  1  0.848113  0.144405  0.250798  1
  Ir  Ir21  1  0.848113  0.855595  0.750798  1
  Ir  Ir22  1  0.149072  0.143180  0.748884  1
  Ir  Ir23  1  0.149072  0.856820  0.248884  1
  Ir  Ir24  1  0.647941  0.351883  0.748744  1
  Ir  Ir25  1  0.647941  0.648117  0.248744  1
  Ir  Ir26  1  0.356482  0.349278  0.263247  1
  Ir  Ir27  1  0.356482  0.650722  0.763247  1
  Ir  Ir28  1  0.500337  0.001021  0.113304  1
  Ir  Ir29  1  0.500337  0.998979  0.613304  1
  Ir  Ir30  1  0.002283  0.499995  0.875274  1
  Ir  Ir31  1  0.002283  0.500005  0.375274  1
