# generated using pymatgen
data_LiZr7Co16(As3P)3
_symmetry_space_group_name_H-M   'P 1'
_cell_length_a   12.38445434
_cell_length_b   12.38445640
_cell_length_c   3.73613200
_cell_angle_alpha   90.00000000
_cell_angle_beta   90.00000000
_cell_angle_gamma   120.12835978
_symmetry_Int_Tables_number   1
_chemical_formula_structural   LiZr7Co16(As3P)3
_chemical_formula_sum   'Li1 Zr7 Co16 As9 P3'
_cell_volume   495.61390316
_cell_formula_units_Z   1
loop_
 _symmetry_equiv_pos_site_id
 _symmetry_equiv_pos_as_xyz
  1  'x, y, z'
loop_
 _atom_site_type_symbol
 _atom_site_label
 _atom_site_symmetry_multiplicity
 _atom_site_fract_x
 _atom_site_fract_y
 _atom_site_fract_z
 _atom_site_occupancy
  Li  Li0  1  0.440095  0.440095  0.000000  1
  Zr  Zr1  1  0.556618  0.999494  0.000000  1
  Zr  Zr2  1  0.999494  0.556618  0.000000  1
  Zr  Zr3  1  0.663562  0.331892  0.000000  1
  Zr  Zr4  1  0.331892  0.663562  0.000000  1
  Zr  Zr5  1  0.822410  0.822410  0.500000  1
  Zr  Zr6  1  0.167102  0.998427  0.500000  1
  Zr  Zr7  1  0.998427  0.167102  0.500000  1
  Co  Co8  1  0.199380  0.369072  0.000000  1
  Co  Co9  1  0.171331  0.808329  0.000000  1
  Co  Co10  1  0.827068  0.637560  0.000000  1
  Co  Co11  1  0.808329  0.171331  0.000000  1
  Co  Co12  1  0.369072  0.199380  0.000000  1
  Co  Co13  1  0.127224  0.477252  0.500000  1
  Co  Co14  1  0.355318  0.877587  0.500000  1
  Co  Co15  1  0.522011  0.646442  0.500000  1
  Co  Co16  1  0.646442  0.522011  0.500000  1
  Co  Co17  1  0.877587  0.355318  0.500000  1
  Co  Co18  1  0.477252  0.127224  0.500000  1
  Co  Co19  1  0.001705  0.001705  0.000000  1
  Co  Co20  1  0.729147  0.000645  0.500000  1
  Co  Co21  1  0.000645  0.729147  0.500000  1
  Co  Co22  1  0.637560  0.827068  0.000000  1
  Co  Co23  1  0.272490  0.272490  0.500000  1
  As  As24  1  0.638788  0.638788  0.000000  1
  As  As25  1  0.344928  0.004475  0.000000  1
  As  As26  1  0.004475  0.344928  0.000000  1
  As  As27  1  0.481318  0.319089  0.500000  1
  As  As28  1  0.690449  0.174547  0.500000  1
  As  As29  1  0.825781  0.517700  0.500000  1
  As  As30  1  0.517700  0.825781  0.500000  1
  As  As31  1  0.174547  0.690449  0.500000  1
  As  As32  1  0.319089  0.481318  0.500000  1
  P  P33  1  0.826621  0.997767  0.000000  1
  P  P34  1  0.997767  0.826621  0.000000  1
  P  P35  1  0.176374  0.176374  0.000000  1
