# generated using pymatgen
data_Dy4Lu4B24RhW3
_symmetry_space_group_name_H-M   'P 1'
_cell_length_a   3.58923100
_cell_length_b   9.19977928
_cell_length_c   11.60906808
_cell_angle_alpha   90.14373861
_cell_angle_beta   90.00000000
_cell_angle_gamma   90.00000000
_symmetry_Int_Tables_number   1
_chemical_formula_structural   Dy4Lu4B24RhW3
_chemical_formula_sum   'Dy4 Lu4 B24 Rh1 W3'
_cell_volume   383.33176554
_cell_formula_units_Z   1
loop_
 _symmetry_equiv_pos_site_id
 _symmetry_equiv_pos_as_xyz
  1  'x, y, z'
loop_
 _atom_site_type_symbol
 _atom_site_label
 _atom_site_symmetry_multiplicity
 _atom_site_fract_x
 _atom_site_fract_y
 _atom_site_fract_z
 _atom_site_occupancy
  Dy  Dy0  1  0.500000  0.318600  0.414954  1
  Dy  Dy1  1  0.500000  0.679255  0.587880  1
  Dy  Dy2  1  0.500000  0.178904  0.913022  1
  Dy  Dy3  1  0.500000  0.823564  0.083323  1
  Lu  Lu4  1  0.500000  0.445001  0.129375  1
  Lu  Lu5  1  0.500000  0.555535  0.872840  1
  Lu  Lu6  1  0.500000  0.054138  0.626942  1
  Lu  Lu7  1  0.500000  0.942340  0.371036  1
  B  B8  1  0.000000  0.097725  0.471906  1
  B  B9  1  0.000000  0.897081  0.525987  1
  B  B10  1  0.000000  0.400964  0.973747  1
  B  B11  1  0.000000  0.600798  0.029460  1
  B  B12  1  0.000000  0.130217  0.318574  1
  B  B13  1  0.000000  0.868419  0.682272  1
  B  B14  1  0.000000  0.369911  0.816820  1
  B  B15  1  0.000000  0.631832  0.183971  1
  B  B16  1  0.000000  0.052179  0.065829  1
  B  B17  1  0.000000  0.948414  0.934517  1
  B  B18  1  0.000000  0.448711  0.563989  1
  B  B19  1  0.000000  0.555708  0.432525  1
  B  B20  1  0.000000  0.484364  0.287874  1
  B  B21  1  0.000000  0.521503  0.713517  1
  B  B22  1  0.000000  0.020985  0.785288  1
  B  B23  1  0.000000  0.977986  0.213602  1
  B  B24  1  0.000000  0.253945  0.079966  1
  B  B25  1  0.000000  0.747276  0.921508  1
  B  B26  1  0.000000  0.245777  0.578149  1
  B  B27  1  0.000000  0.750092  0.419278  1
  B  B28  1  0.000000  0.297379  0.237627  1
  B  B29  1  0.000000  0.703874  0.764733  1
  B  B30  1  0.000000  0.204389  0.735204  1
  B  B31  1  0.000000  0.791574  0.264490  1
  Rh  Rh32  1  0.500000  0.640063  0.319683  1
  W  W33  1  0.500000  0.140488  0.181624  1
  W  W34  1  0.500000  0.860357  0.819868  1
  W  W35  1  0.500000  0.360650  0.678619  1
