# generated using pymatgen
data_Mg3Ga3Pd10
_symmetry_space_group_name_H-M   'P 1'
_cell_length_a   4.11799100
_cell_length_b   5.53617351
_cell_length_c   10.78276410
_cell_angle_alpha   91.69402605
_cell_angle_beta   90.00000000
_cell_angle_gamma   90.00000000
_symmetry_Int_Tables_number   1
_chemical_formula_structural   Mg3Ga3Pd10
_chemical_formula_sum   'Mg3 Ga3 Pd10'
_cell_volume   245.71707629
_cell_formula_units_Z   1
loop_
 _symmetry_equiv_pos_site_id
 _symmetry_equiv_pos_as_xyz
  1  'x, y, z'
loop_
 _atom_site_type_symbol
 _atom_site_label
 _atom_site_symmetry_multiplicity
 _atom_site_fract_x
 _atom_site_fract_y
 _atom_site_fract_z
 _atom_site_occupancy
  Mg  Mg0  1  0.000000  0.828273  0.642081  1
  Mg  Mg1  1  0.000000  0.328819  0.858262  1
  Mg  Mg2  1  0.000000  0.164996  0.360368  1
  Ga  Ga3  1  0.500000  0.502139  0.501136  1
  Ga  Ga4  1  0.500000  0.019922  0.994649  1
  Ga  Ga5  1  0.000000  0.660422  0.145946  1
  Pd  Pd6  1  0.000000  0.813896  0.898674  1
  Pd  Pd7  1  0.000000  0.682818  0.389449  1
  Pd  Pd8  1  0.000000  0.314997  0.606119  1
  Pd  Pd9  1  0.500000  0.909041  0.227973  1
  Pd  Pd10  1  0.500000  0.413823  0.262643  1
  Pd  Pd11  1  0.500000  0.576868  0.741912  1
  Pd  Pd12  1  0.500000  0.077445  0.759364  1
  Pd  Pd13  1  0.500000  0.516377  0.006279  1
  Pd  Pd14  1  0.500000  0.997717  0.497323  1
  Pd  Pd15  1  0.000000  0.192445  0.107822  1
