# generated using pymatgen
data_DyHo4InBi2
_symmetry_space_group_name_H-M   'P 1'
_cell_length_a   9.06260553
_cell_length_b   9.06756587
_cell_length_c   6.48970900
_cell_angle_alpha   90.00000000
_cell_angle_beta   90.00000000
_cell_angle_gamma   119.74756052
_symmetry_Int_Tables_number   1
_chemical_formula_structural   DyHo4InBi2
_chemical_formula_sum   'Dy2 Ho8 In2 Bi4'
_cell_volume   463.01896095
_cell_formula_units_Z   2
loop_
 _symmetry_equiv_pos_site_id
 _symmetry_equiv_pos_as_xyz
  1  'x, y, z'
loop_
 _atom_site_type_symbol
 _atom_site_label
 _atom_site_symmetry_multiplicity
 _atom_site_fract_x
 _atom_site_fract_y
 _atom_site_fract_z
 _atom_site_occupancy
  Dy  Dy0  1  0.762028  0.762047  0.750000  1
  Dy  Dy1  1  0.235870  0.998516  0.750000  1
  Ho  Ho2  1  0.668807  0.328802  0.003553  1
  Ho  Ho3  1  0.328868  0.668801  0.003576  1
  Ho  Ho4  1  0.328868  0.668801  0.496424  1
  Ho  Ho5  1  0.668807  0.328802  0.496447  1
  Ho  Ho6  1  0.998455  0.235953  0.750000  1
  Ho  Ho7  1  0.234115  0.234164  0.250000  1
  Ho  Ho8  1  0.765242  0.008301  0.250000  1
  Ho  Ho9  1  0.008254  0.765169  0.250000  1
  In  In10  1  0.395908  0.001354  0.250000  1
  In  In11  1  0.001346  0.395908  0.250000  1
  Bi  Bi12  1  0.393614  0.393752  0.750000  1
  Bi  Bi13  1  0.603517  0.997099  0.750000  1
  Bi  Bi14  1  0.996959  0.603180  0.750000  1
  Bi  Bi15  1  0.609340  0.609350  0.250000  1
