# generated using pymatgen
data_Hf5Fe16(CoP4)3
_symmetry_space_group_name_H-M   'P 1'
_cell_length_a   11.71683965
_cell_length_b   11.73329116
_cell_length_c   3.61273000
_cell_angle_alpha   90.00000000
_cell_angle_beta   90.00000000
_cell_angle_gamma   119.90285438
_symmetry_Int_Tables_number   1
_chemical_formula_structural   Hf5Fe16(CoP4)3
_chemical_formula_sum   'Hf5 Fe16 Co3 P12'
_cell_volume   430.54720274
_cell_formula_units_Z   1
loop_
 _symmetry_equiv_pos_site_id
 _symmetry_equiv_pos_as_xyz
  1  'x, y, z'
loop_
 _atom_site_type_symbol
 _atom_site_label
 _atom_site_symmetry_multiplicity
 _atom_site_fract_x
 _atom_site_fract_y
 _atom_site_fract_z
 _atom_site_occupancy
  Hf  Hf0  1  0.334076  0.666058  0.500000  1
  Hf  Hf1  1  0.665554  0.334346  0.500000  1
  Hf  Hf2  1  0.811905  0.999818  0.000000  1
  Hf  Hf3  1  0.000341  0.811534  0.000000  1
  Hf  Hf4  1  0.188490  0.188823  0.000000  1
  Fe  Fe5  1  0.624122  0.803376  0.500000  1
  Fe  Fe6  1  0.197705  0.820547  0.500000  1
  Fe  Fe7  1  0.179423  0.376408  0.500000  1
  Fe  Fe8  1  0.376529  0.180442  0.500000  1
  Fe  Fe9  1  0.804608  0.621924  0.500000  1
  Fe  Fe10  1  0.817249  0.196091  0.500000  1
  Fe  Fe11  1  0.282244  0.999860  0.000000  1
  Fe  Fe12  1  0.998710  0.281970  0.000000  1
  Fe  Fe13  1  0.719215  0.717988  0.000000  1
  Fe  Fe14  1  0.445563  0.002302  0.500000  1
  Fe  Fe15  1  0.997575  0.443377  0.500000  1
  Fe  Fe16  1  0.556990  0.556555  0.500000  1
  Fe  Fe17  1  0.514356  0.874491  0.000000  1
  Fe  Fe18  1  0.125463  0.639249  0.000000  1
  Fe  Fe19  1  0.361189  0.485469  0.000000  1
  Fe  Fe20  1  0.485876  0.360975  0.000000  1
  Co  Co21  1  0.874299  0.512997  0.000000  1
  Co  Co22  1  0.637983  0.125256  0.000000  1
  Co  Co23  1  0.000087  0.000440  0.500000  1
  P  P24  1  0.179664  0.000121  0.500000  1
  P  P25  1  0.999092  0.179773  0.500000  1
  P  P26  1  0.821118  0.819973  0.500000  1
  P  P27  1  0.519538  0.686858  0.000000  1
  P  P28  1  0.313348  0.831462  0.000000  1
  P  P29  1  0.168148  0.480750  0.000000  1
  P  P30  1  0.479590  0.168326  0.000000  1
  P  P31  1  0.685986  0.519468  0.000000  1
  P  P32  1  0.831379  0.312399  0.000000  1
  P  P33  1  0.632814  0.997461  0.500000  1
  P  P34  1  0.002478  0.635284  0.500000  1
  P  P35  1  0.367296  0.367829  0.500000  1
