# generated using pymatgen
data_Sr3LaNiRuO8
_symmetry_space_group_name_H-M   'P 1'
_cell_length_a   6.88553408
_cell_length_b   6.88553389
_cell_length_c   5.60036100
_cell_angle_alpha   90.00000000
_cell_angle_beta   90.00000000
_cell_angle_gamma   132.20154616
_symmetry_Int_Tables_number   1
_chemical_formula_structural   Sr3LaNiRuO8
_chemical_formula_sum   'Sr3 La1 Ni1 Ru1 O8'
_cell_volume   196.69092186
_cell_formula_units_Z   1
loop_
 _symmetry_equiv_pos_site_id
 _symmetry_equiv_pos_as_xyz
  1  'x, y, z'
loop_
 _atom_site_type_symbol
 _atom_site_label
 _atom_site_symmetry_multiplicity
 _atom_site_fract_x
 _atom_site_fract_y
 _atom_site_fract_z
 _atom_site_occupancy
  Sr  Sr0  1  0.141072  0.858928  0.500000  1
  Sr  Sr1  1  0.644534  0.355466  0.000000  1
  Sr  Sr2  1  0.856553  0.143447  0.500000  1
  La  La3  1  0.357034  0.642966  0.000000  1
  Ni  Ni4  1  0.000946  0.999054  0.000000  1
  Ru  Ru5  1  0.500654  0.499346  0.500000  1
  O  O6  1  0.254078  0.258663  0.747623  1
  O  O7  1  0.741337  0.745922  0.252377  1
  O  O8  1  0.254078  0.258663  0.252377  1
  O  O9  1  0.741337  0.745922  0.747623  1
  O  O10  1  0.833822  0.166178  0.000000  1
  O  O11  1  0.337303  0.662697  0.500000  1
  O  O12  1  0.659522  0.340478  0.500000  1
  O  O13  1  0.177732  0.822268  0.000000  1
