# generated using pymatgen
data_SrNi9As5
_symmetry_space_group_name_H-M   'P 1'
_cell_length_a   6.74235300
_cell_length_b   6.74235327
_cell_length_c   11.26137500
_cell_angle_alpha   90.00000000
_cell_angle_beta   90.00000000
_cell_angle_gamma   120.00000359
_symmetry_Int_Tables_number   1
_chemical_formula_structural   SrNi9As5
_chemical_formula_sum   'Sr2 Ni18 As10'
_cell_volume   443.34827892
_cell_formula_units_Z   2
loop_
 _symmetry_equiv_pos_site_id
 _symmetry_equiv_pos_as_xyz
  1  'x, y, z'
loop_
 _atom_site_type_symbol
 _atom_site_label
 _atom_site_symmetry_multiplicity
 _atom_site_fract_x
 _atom_site_fract_y
 _atom_site_fract_z
 _atom_site_occupancy
  Sr  Sr0  1  0.000000  0.000000  0.000000  1
  Sr  Sr1  1  0.000000  0.000000  0.500000  1
  Ni  Ni2  1  0.535508  0.464492  0.106113  1
  Ni  Ni3  1  0.071015  0.535508  0.606113  1
  Ni  Ni4  1  0.464492  0.928985  0.606113  1
  Ni  Ni5  1  0.535508  0.071015  0.106113  1
  Ni  Ni6  1  0.928985  0.464492  0.106113  1
  Ni  Ni7  1  0.071015  0.535508  0.893887  1
  Ni  Ni8  1  0.464492  0.928985  0.893887  1
  Ni  Ni9  1  0.464492  0.535508  0.606113  1
  Ni  Ni10  1  0.464492  0.535508  0.893887  1
  Ni  Ni11  1  0.535508  0.464492  0.393887  1
  Ni  Ni12  1  0.928985  0.464492  0.393887  1
  Ni  Ni13  1  0.535508  0.071015  0.393887  1
  Ni  Ni14  1  0.208874  0.791126  0.250000  1
  Ni  Ni15  1  0.417748  0.208874  0.750000  1
  Ni  Ni16  1  0.791126  0.582252  0.750000  1
  Ni  Ni17  1  0.208874  0.417748  0.250000  1
  Ni  Ni18  1  0.582252  0.791126  0.250000  1
  Ni  Ni19  1  0.791126  0.208874  0.750000  1
  As  As20  1  0.827973  0.172027  0.250000  1
  As  As21  1  0.655946  0.827973  0.750000  1
  As  As22  1  0.172027  0.344054  0.750000  1
  As  As23  1  0.827973  0.655946  0.250000  1
  As  As24  1  0.344054  0.172027  0.250000  1
  As  As25  1  0.172027  0.827973  0.750000  1
  As  As26  1  0.333333  0.666667  0.060738  1
  As  As27  1  0.666667  0.333333  0.560738  1
  As  As28  1  0.666667  0.333333  0.939262  1
  As  As29  1  0.333333  0.666667  0.439262  1
