# generated using pymatgen
data_YbSc3(Pt2O7)2
_symmetry_space_group_name_H-M   'P 1'
_cell_length_a   7.07958795
_cell_length_b   7.11958752
_cell_length_c   7.07958800
_cell_angle_alpha   60.18567638
_cell_angle_beta   59.99999977
_cell_angle_gamma   60.18567646
_symmetry_Int_Tables_number   1
_chemical_formula_structural   YbSc3(Pt2O7)2
_chemical_formula_sum   'Yb1 Sc3 Pt4 O14'
_cell_volume   253.02822168
_cell_formula_units_Z   1
loop_
 _symmetry_equiv_pos_site_id
 _symmetry_equiv_pos_as_xyz
  1  'x, y, z'
loop_
 _atom_site_type_symbol
 _atom_site_label
 _atom_site_symmetry_multiplicity
 _atom_site_fract_x
 _atom_site_fract_y
 _atom_site_fract_z
 _atom_site_occupancy
  Yb  Yb0  1  0.625000  0.125000  0.625000  1
  Sc  Sc1  1  0.625000  0.625000  0.125000  1
  Sc  Sc2  1  0.625000  0.625000  0.625000  1
  Sc  Sc3  1  0.125000  0.625000  0.625000  1
  Pt  Pt4  1  0.625000  0.125000  0.125000  1
  Pt  Pt5  1  0.125000  0.125000  0.125000  1
  Pt  Pt6  1  0.125000  0.625000  0.125000  1
  Pt  Pt7  1  0.125000  0.125000  0.625000  1
  O  O8  1  0.029428  0.471322  0.469821  1
  O  O9  1  0.780179  0.778678  0.220572  1
  O  O10  1  0.782242  0.229681  0.205834  1
  O  O11  1  0.029428  0.471322  0.029428  1
  O  O12  1  0.467758  0.020319  0.467758  1
  O  O13  1  0.757597  0.727208  0.757597  1
  O  O14  1  0.044166  0.020319  0.467758  1
  O  O15  1  0.782242  0.229681  0.782242  1
  O  O16  1  0.492403  0.522792  0.492403  1
  O  O17  1  0.205834  0.229681  0.782242  1
  O  O18  1  0.220572  0.778678  0.220572  1
  O  O19  1  0.467758  0.020319  0.044166  1
  O  O20  1  0.469821  0.471322  0.029428  1
  O  O21  1  0.220572  0.778678  0.780179  1
