# generated using pymatgen
data_LiTm3(Co4P3)2
_symmetry_space_group_name_H-M   'P 1'
_cell_length_a   3.71169000
_cell_length_b   10.56154700
_cell_length_c   12.15904000
_cell_angle_alpha   90.00000000
_cell_angle_beta   90.00000000
_cell_angle_gamma   90.00000000
_symmetry_Int_Tables_number   1
_chemical_formula_structural   LiTm3(Co4P3)2
_chemical_formula_sum   'Li2 Tm6 Co16 P12'
_cell_volume   476.64881761
_cell_formula_units_Z   2
loop_
 _symmetry_equiv_pos_site_id
 _symmetry_equiv_pos_as_xyz
  1  'x, y, z'
loop_
 _atom_site_type_symbol
 _atom_site_label
 _atom_site_symmetry_multiplicity
 _atom_site_fract_x
 _atom_site_fract_y
 _atom_site_fract_z
 _atom_site_occupancy
  Li  Li0  1  0.500000  0.500000  0.154017  1
  Li  Li1  1  0.000000  0.000000  0.845983  1
  Tm  Tm2  1  0.000000  0.500000  0.523657  1
  Tm  Tm3  1  0.500000  0.000000  0.476343  1
  Tm  Tm4  1  0.500000  0.819647  0.206162  1
  Tm  Tm5  1  0.500000  0.180353  0.206162  1
  Tm  Tm6  1  0.000000  0.680353  0.793838  1
  Tm  Tm7  1  0.000000  0.319647  0.793838  1
  Co  Co8  1  0.500000  0.500000  0.703355  1
  Co  Co9  1  0.000000  0.000000  0.296645  1
  Co  Co10  1  0.000000  0.500000  0.986289  1
  Co  Co11  1  0.500000  0.000000  0.013711  1
  Co  Co12  1  0.500000  0.332965  0.996555  1
  Co  Co13  1  0.500000  0.667035  0.996555  1
  Co  Co14  1  0.000000  0.167035  0.003445  1
  Co  Co15  1  0.000000  0.832965  0.003445  1
  Co  Co16  1  0.500000  0.296612  0.431366  1
  Co  Co17  1  0.500000  0.703388  0.431366  1
  Co  Co18  1  0.000000  0.203388  0.568634  1
  Co  Co19  1  0.000000  0.796612  0.568634  1
  Co  Co20  1  0.500000  0.878127  0.706277  1
  Co  Co21  1  0.500000  0.121873  0.706277  1
  Co  Co22  1  0.000000  0.621873  0.293723  1
  Co  Co23  1  0.000000  0.378127  0.293723  1
  P  P24  1  0.500000  0.500000  0.883571  1
  P  P25  1  0.000000  0.000000  0.116429  1
  P  P26  1  0.500000  0.500000  0.347503  1
  P  P27  1  0.000000  0.000000  0.652497  1
  P  P28  1  0.500000  0.310650  0.616485  1
  P  P29  1  0.500000  0.689350  0.616485  1
  P  P30  1  0.000000  0.189350  0.383515  1
  P  P31  1  0.000000  0.810650  0.383515  1
  P  P32  1  0.500000  0.842916  0.892982  1
  P  P33  1  0.500000  0.157084  0.892982  1
  P  P34  1  0.000000  0.657084  0.107018  1
  P  P35  1  0.000000  0.342916  0.107018  1
