# generated using pymatgen
data_CePr9(Sn3O)2
_symmetry_space_group_name_H-M   'P 1'
_cell_length_a   9.44504730
_cell_length_b   9.44504649
_cell_length_c   9.43822000
_cell_angle_alpha   126.29364749
_cell_angle_beta   126.29364390
_cell_angle_gamma   79.39557520
_symmetry_Int_Tables_number   1
_chemical_formula_structural   CePr9(Sn3O)2
_chemical_formula_sum   'Ce1 Pr9 Sn6 O2'
_cell_volume   528.73180542
_cell_formula_units_Z   1
loop_
 _symmetry_equiv_pos_site_id
 _symmetry_equiv_pos_as_xyz
  1  'x, y, z'
loop_
 _atom_site_type_symbol
 _atom_site_label
 _atom_site_symmetry_multiplicity
 _atom_site_fract_x
 _atom_site_fract_y
 _atom_site_fract_z
 _atom_site_occupancy
  Ce  Ce0  1  0.698276  0.198276  0.197797  1
  Pr  Pr1  1  0.497204  0.304172  0.499979  1
  Pr  Pr2  1  0.804172  0.997204  0.499979  1
  Pr  Pr3  1  0.998361  0.498361  0.193042  1
  Pr  Pr4  1  0.305597  0.805597  0.807925  1
  Pr  Pr5  1  0.503575  0.697069  0.499771  1
  Pr  Pr6  1  0.197069  0.003575  0.499771  1
  Pr  Pr7  1  0.005308  0.505308  0.809080  1
  Pr  Pr8  1  0.502742  0.502596  0.000125  1
  Pr  Pr9  1  0.002596  0.002742  0.000125  1
  Sn  Sn10  1  0.139726  0.361408  0.499944  1
  Sn  Sn11  1  0.861408  0.639726  0.499944  1
  Sn  Sn12  1  0.640702  0.140702  0.780416  1
  Sn  Sn13  1  0.361888  0.861888  0.221674  1
  Sn  Sn14  1  0.751716  0.752909  0.000630  1
  Sn  Sn15  1  0.252909  0.251716  0.000630  1
  O  O16  1  0.748683  0.248683  0.489190  1
  O  O17  1  0.250911  0.750911  0.499975  1
