# generated using pymatgen
data_LiThPt4
_symmetry_space_group_name_H-M   'P 1'
_cell_length_a   5.40626043
_cell_length_b   5.40626021
_cell_length_c   5.40625900
_cell_angle_alpha   60.00000127
_cell_angle_beta   60.00000265
_cell_angle_gamma   60.00000038
_symmetry_Int_Tables_number   1
_chemical_formula_structural   LiThPt4
_chemical_formula_sum   'Li1 Th1 Pt4'
_cell_volume   111.73153667
_cell_formula_units_Z   1
loop_
 _symmetry_equiv_pos_site_id
 _symmetry_equiv_pos_as_xyz
  1  'x, y, z'
loop_
 _atom_site_type_symbol
 _atom_site_label
 _atom_site_symmetry_multiplicity
 _atom_site_fract_x
 _atom_site_fract_y
 _atom_site_fract_z
 _atom_site_occupancy
  Li  Li0  1  0.750000  0.750000  0.750000  1
  Th  Th1  1  0.500000  0.500000  0.500000  1
  Pt  Pt2  1  0.124188  0.124188  0.124188  1
  Pt  Pt3  1  0.627435  0.124188  0.124188  1
  Pt  Pt4  1  0.124188  0.627435  0.124188  1
  Pt  Pt5  1  0.124188  0.124188  0.627435  1
