# generated using pymatgen
data_Dy2MgPa(ReB6)2
_symmetry_space_group_name_H-M   'P 1'
_cell_length_a   3.67433600
_cell_length_b   9.07557035
_cell_length_c   11.40190478
_cell_angle_alpha   90.25389968
_cell_angle_beta   90.00000000
_cell_angle_gamma   90.00000000
_symmetry_Int_Tables_number   1
_chemical_formula_structural   Dy2MgPa(ReB6)2
_chemical_formula_sum   'Dy4 Mg2 Pa2 Re4 B24'
_cell_volume   380.21210598
_cell_formula_units_Z   2
loop_
 _symmetry_equiv_pos_site_id
 _symmetry_equiv_pos_as_xyz
  1  'x, y, z'
loop_
 _atom_site_type_symbol
 _atom_site_label
 _atom_site_symmetry_multiplicity
 _atom_site_fract_x
 _atom_site_fract_y
 _atom_site_fract_z
 _atom_site_occupancy
  Dy  Dy0  1  0.000000  0.825265  0.085930  1
  Dy  Dy1  1  0.000000  0.174735  0.914070  1
  Dy  Dy2  1  0.000000  0.944576  0.371114  1
  Dy  Dy3  1  0.000000  0.055424  0.628886  1
  Mg  Mg4  1  0.000000  0.444565  0.124747  1
  Mg  Mg5  1  0.000000  0.555435  0.875253  1
  Pa  Pa6  1  0.000000  0.323322  0.411353  1
  Pa  Pa7  1  0.000000  0.676678  0.588647  1
  Re  Re8  1  0.000000  0.633882  0.319067  1
  Re  Re9  1  0.000000  0.366118  0.680933  1
  Re  Re10  1  0.000000  0.147039  0.179468  1
  Re  Re11  1  0.000000  0.852961  0.820532  1
  B  B12  1  0.500000  0.552366  0.431883  1
  B  B13  1  0.500000  0.447634  0.568117  1
  B  B14  1  0.500000  0.056506  0.066352  1
  B  B15  1  0.500000  0.943494  0.933648  1
  B  B16  1  0.500000  0.747300  0.418108  1
  B  B17  1  0.500000  0.252700  0.581892  1
  B  B18  1  0.500000  0.255145  0.079075  1
  B  B19  1  0.500000  0.744855  0.920925  1
  B  B20  1  0.500000  0.789513  0.263213  1
  B  B21  1  0.500000  0.210487  0.736787  1
  B  B22  1  0.500000  0.295266  0.233487  1
  B  B23  1  0.500000  0.704734  0.766513  1
  B  B24  1  0.500000  0.626221  0.181443  1
  B  B25  1  0.500000  0.373779  0.818557  1
  B  B26  1  0.500000  0.133922  0.313288  1
  B  B27  1  0.500000  0.866078  0.686712  1
  B  B28  1  0.500000  0.984139  0.210415  1
  B  B29  1  0.500000  0.015861  0.789585  1
  B  B30  1  0.500000  0.480587  0.286284  1
  B  B31  1  0.500000  0.519413  0.713716  1
  B  B32  1  0.500000  0.592620  0.026252  1
  B  B33  1  0.500000  0.407380  0.973748  1
  B  B34  1  0.500000  0.112861  0.469348  1
  B  B35  1  0.500000  0.887139  0.530652  1
