# generated using pymatgen
data_Y2Ga10TcOs2
_symmetry_space_group_name_H-M   'P 1'
_cell_length_a   8.97182100
_cell_length_b   8.96814100
_cell_length_c   6.41515500
_cell_angle_alpha   90.00000000
_cell_angle_beta   90.00000000
_cell_angle_gamma   90.00000000
_symmetry_Int_Tables_number   1
_chemical_formula_structural   Y2Ga10TcOs2
_chemical_formula_sum   'Y4 Ga20 Tc2 Os4'
_cell_volume   516.16693655
_cell_formula_units_Z   2
loop_
 _symmetry_equiv_pos_site_id
 _symmetry_equiv_pos_as_xyz
  1  'x, y, z'
loop_
 _atom_site_type_symbol
 _atom_site_label
 _atom_site_symmetry_multiplicity
 _atom_site_fract_x
 _atom_site_fract_y
 _atom_site_fract_z
 _atom_site_occupancy
  Y  Y0  1  0.182528  0.317144  0.000000  1
  Y  Y1  1  0.683246  0.182948  0.000000  1
  Y  Y2  1  0.816754  0.682948  0.000000  1
  Y  Y3  1  0.317472  0.817144  0.000000  1
  Ga  Ga4  1  0.499929  0.999719  0.288621  1
  Ga  Ga5  1  0.499929  0.999719  0.711379  1
  Ga  Ga6  1  0.293717  0.560700  0.705402  1
  Ga  Ga7  1  0.000071  0.499719  0.288621  1
  Ga  Ga8  1  0.000071  0.499719  0.711379  1
  Ga  Ga9  1  0.061313  0.794046  0.706206  1
  Ga  Ga10  1  0.206283  0.060700  0.294598  1
  Ga  Ga11  1  0.061313  0.794046  0.293794  1
  Ga  Ga12  1  0.706182  0.438879  0.706681  1
  Ga  Ga13  1  0.206283  0.060700  0.705402  1
  Ga  Ga14  1  0.939526  0.206481  0.705589  1
  Ga  Ga15  1  0.706182  0.438879  0.293319  1
  Ga  Ga16  1  0.560474  0.706481  0.294411  1
  Ga  Ga17  1  0.939526  0.206481  0.294411  1
  Ga  Ga18  1  0.560474  0.706481  0.705589  1
  Ga  Ga19  1  0.793818  0.938879  0.293319  1
  Ga  Ga20  1  0.438687  0.294046  0.706206  1
  Ga  Ga21  1  0.793818  0.938879  0.706681  1
  Ga  Ga22  1  0.438687  0.294046  0.293794  1
  Ga  Ga23  1  0.293717  0.560700  0.294598  1
  Tc  Tc24  1  0.178442  0.321378  0.500000  1
  Tc  Tc25  1  0.321558  0.821378  0.500000  1
  Os  Os26  1  0.821218  0.678472  0.500000  1
  Os  Os27  1  0.998495  0.000408  0.000000  1
  Os  Os28  1  0.678782  0.178472  0.500000  1
  Os  Os29  1  0.501505  0.500408  0.000000  1
