# generated using pymatgen
data_CsPa(BO3)2
_symmetry_space_group_name_H-M   'P 1'
_cell_length_a   4.25032500
_cell_length_b   7.90730100
_cell_length_c   10.61882900
_cell_angle_alpha   90.00000000
_cell_angle_beta   90.00000000
_cell_angle_gamma   90.00000000
_symmetry_Int_Tables_number   1
_chemical_formula_structural   CsPa(BO3)2
_chemical_formula_sum   'Cs2 Pa2 B4 O12'
_cell_volume   356.88396701
_cell_formula_units_Z   2
loop_
 _symmetry_equiv_pos_site_id
 _symmetry_equiv_pos_as_xyz
  1  'x, y, z'
loop_
 _atom_site_type_symbol
 _atom_site_label
 _atom_site_symmetry_multiplicity
 _atom_site_fract_x
 _atom_site_fract_y
 _atom_site_fract_z
 _atom_site_occupancy
  Cs  Cs0  1  0.467544  0.500000  0.725506  1
  Cs  Cs1  1  0.532456  0.000000  0.225506  1
  Pa  Pa2  1  0.073639  0.500000  0.332164  1
  Pa  Pa3  1  0.926361  0.000000  0.832164  1
  B  B4  1  0.989304  0.660359  0.046193  1
  B  B5  1  0.010696  0.839641  0.546193  1
  B  B6  1  0.010696  0.160359  0.546193  1
  B  B7  1  0.989304  0.339641  0.046193  1
  O  O8  1  0.926331  0.796486  0.971039  1
  O  O9  1  0.073669  0.703514  0.471039  1
  O  O10  1  0.073669  0.296486  0.471039  1
  O  O11  1  0.926331  0.203514  0.971039  1
  O  O12  1  0.938344  0.819301  0.671057  1
  O  O13  1  0.061656  0.680699  0.171057  1
  O  O14  1  0.061656  0.319301  0.171057  1
  O  O15  1  0.938344  0.180699  0.671057  1
  O  O16  1  0.426054  0.000000  0.833883  1
  O  O17  1  0.573946  0.500000  0.333883  1
  O  O18  1  0.027685  0.000000  0.488249  1
  O  O19  1  0.972315  0.500000  0.988249  1
