# generated using pymatgen
data_Lu3Cr(P3Ir4)2
_symmetry_space_group_name_H-M   'P 1'
_cell_length_a   3.92045700
_cell_length_b   11.19065000
_cell_length_c   12.71356800
_cell_angle_alpha   90.00000000
_cell_angle_beta   90.00000000
_cell_angle_gamma   90.00000000
_symmetry_Int_Tables_number   1
_chemical_formula_structural   Lu3Cr(P3Ir4)2
_chemical_formula_sum   'Lu6 Cr2 P12 Ir16'
_cell_volume   557.77553058
_cell_formula_units_Z   2
loop_
 _symmetry_equiv_pos_site_id
 _symmetry_equiv_pos_as_xyz
  1  'x, y, z'
loop_
 _atom_site_type_symbol
 _atom_site_label
 _atom_site_symmetry_multiplicity
 _atom_site_fract_x
 _atom_site_fract_y
 _atom_site_fract_z
 _atom_site_occupancy
  Lu  Lu0  1  0.000000  0.500000  0.521413  1
  Lu  Lu1  1  0.500000  0.000000  0.478587  1
  Lu  Lu2  1  0.500000  0.815028  0.203298  1
  Lu  Lu3  1  0.500000  0.184972  0.203298  1
  Lu  Lu4  1  0.000000  0.684972  0.796702  1
  Lu  Lu5  1  0.000000  0.315028  0.796702  1
  Cr  Cr6  1  0.500000  0.500000  0.169447  1
  Cr  Cr7  1  0.000000  0.000000  0.830553  1
  P  P8  1  0.500000  0.500000  0.874843  1
  P  P9  1  0.000000  0.000000  0.125157  1
  P  P10  1  0.500000  0.500000  0.351723  1
  P  P11  1  0.000000  0.000000  0.648277  1
  P  P12  1  0.500000  0.314575  0.618047  1
  P  P13  1  0.500000  0.685425  0.618047  1
  P  P14  1  0.000000  0.185425  0.381953  1
  P  P15  1  0.000000  0.814575  0.381953  1
  P  P16  1  0.500000  0.845766  0.891589  1
  P  P17  1  0.500000  0.154234  0.891589  1
  P  P18  1  0.000000  0.654234  0.108411  1
  P  P19  1  0.000000  0.345766  0.108411  1
  Ir  Ir20  1  0.500000  0.500000  0.697052  1
  Ir  Ir21  1  0.000000  0.000000  0.302948  1
  Ir  Ir22  1  0.000000  0.500000  0.973095  1
  Ir  Ir23  1  0.500000  0.000000  0.026905  1
  Ir  Ir24  1  0.500000  0.334641  0.001492  1
  Ir  Ir25  1  0.500000  0.665359  0.001492  1
  Ir  Ir26  1  0.000000  0.165359  0.998508  1
  Ir  Ir27  1  0.000000  0.834641  0.998508  1
  Ir  Ir28  1  0.500000  0.295594  0.430907  1
  Ir  Ir29  1  0.500000  0.704406  0.430907  1
  Ir  Ir30  1  0.000000  0.204406  0.569093  1
  Ir  Ir31  1  0.000000  0.795594  0.569093  1
  Ir  Ir32  1  0.500000  0.870611  0.714323  1
  Ir  Ir33  1  0.500000  0.129389  0.714323  1
  Ir  Ir34  1  0.000000  0.629389  0.285677  1
  Ir  Ir35  1  0.000000  0.370611  0.285677  1
