# generated using pymatgen
data_Dy4MnZn2Ru5
_symmetry_space_group_name_H-M   'P 1'
_cell_length_a   5.37493934
_cell_length_b   5.21349861
_cell_length_c   8.86868900
_cell_angle_alpha   90.00000000
_cell_angle_beta   90.00000000
_cell_angle_gamma   120.08092119
_symmetry_Int_Tables_number   1
_chemical_formula_structural   Dy4MnZn2Ru5
_chemical_formula_sum   'Dy4 Mn1 Zn2 Ru5'
_cell_volume   215.04937201
_cell_formula_units_Z   1
loop_
 _symmetry_equiv_pos_site_id
 _symmetry_equiv_pos_as_xyz
  1  'x, y, z'
loop_
 _atom_site_type_symbol
 _atom_site_label
 _atom_site_symmetry_multiplicity
 _atom_site_fract_x
 _atom_site_fract_y
 _atom_site_fract_z
 _atom_site_occupancy
  Dy  Dy0  1  0.673254  0.340560  0.567236  1
  Dy  Dy1  1  0.338372  0.668590  0.441430  1
  Dy  Dy2  1  0.338372  0.668590  0.058570  1
  Dy  Dy3  1  0.673254  0.340560  0.932764  1
  Mn  Mn4  1  0.161182  0.321082  0.750000  1
  Zn  Zn5  1  0.819077  0.657743  0.250000  1
  Zn  Zn6  1  0.821285  0.163015  0.250000  1
  Ru  Ru7  1  0.013713  0.010864  0.500705  1
  Ru  Ru8  1  0.013713  0.010864  0.999295  1
  Ru  Ru9  1  0.175854  0.832762  0.750000  1
  Ru  Ru10  1  0.649436  0.827240  0.750000  1
  Ru  Ru11  1  0.322492  0.158129  0.250000  1
