# generated using pymatgen
data_Tb2Ho13Tm(Ga3Co)2
_symmetry_space_group_name_H-M   'P 1'
_cell_length_a   9.96600708
_cell_length_b   9.96600659
_cell_length_c   6.92270400
_cell_angle_alpha   89.99861850
_cell_angle_beta   90.00138507
_cell_angle_gamma   119.98548703
_symmetry_Int_Tables_number   1
_chemical_formula_structural   Tb2Ho13Tm(Ga3Co)2
_chemical_formula_sum   'Tb2 Ho13 Tm1 Ga6 Co2'
_cell_volume   595.54179972
_cell_formula_units_Z   1
loop_
 _symmetry_equiv_pos_site_id
 _symmetry_equiv_pos_as_xyz
  1  'x, y, z'
loop_
 _atom_site_type_symbol
 _atom_site_label
 _atom_site_symmetry_multiplicity
 _atom_site_fract_x
 _atom_site_fract_y
 _atom_site_fract_z
 _atom_site_occupancy
  Tb  Tb0  1  0.000039  0.999961  0.769053  1
  Tb  Tb1  1  0.999980  0.000020  0.269088  1
  Ho  Ho2  1  0.826139  0.652861  0.488626  1
  Ho  Ho3  1  0.347139  0.173861  0.488626  1
  Ho  Ho4  1  0.826489  0.173511  0.488888  1
  Ho  Ho5  1  0.173801  0.347244  0.989188  1
  Ho  Ho6  1  0.652756  0.826199  0.989188  1
  Ho  Ho7  1  0.173481  0.826519  0.988898  1
  Ho  Ho8  1  0.666524  0.333476  0.171885  1
  Ho  Ho9  1  0.333499  0.666501  0.671450  1
  Ho  Ho10  1  0.536767  0.073578  0.792495  1
  Ho  Ho11  1  0.926422  0.463233  0.792495  1
  Ho  Ho12  1  0.536689  0.463311  0.792548  1
  Ho  Ho13  1  0.463210  0.926237  0.292480  1
  Ho  Ho14  1  0.073763  0.536790  0.292480  1
  Tm  Tm15  1  0.462987  0.537013  0.292753  1
  Ga  Ga16  1  0.836221  0.672474  0.040761  1
  Ga  Ga17  1  0.327526  0.163779  0.040761  1
  Ga  Ga18  1  0.836242  0.163758  0.040543  1
  Ga  Ga19  1  0.164067  0.327734  0.540367  1
  Ga  Ga20  1  0.672266  0.835933  0.540367  1
  Ga  Ga21  1  0.163742  0.836258  0.540666  1
  Co  Co22  1  0.666653  0.333347  0.556069  1
  Co  Co23  1  0.333598  0.666402  0.056393  1
