# generated using pymatgen
data_Pr4SmInSi2
_symmetry_space_group_name_H-M   'P 1'
_cell_length_a   7.89849891
_cell_length_b   7.89849795
_cell_length_c   9.32633643
_cell_angle_alpha   115.05267762
_cell_angle_beta   115.05267909
_cell_angle_gamma   89.99999721
_symmetry_Int_Tables_number   1
_chemical_formula_structural   Pr4SmInSi2
_chemical_formula_sum   'Pr8 Sm2 In2 Si4'
_cell_volume   465.96913834
_cell_formula_units_Z   2
loop_
 _symmetry_equiv_pos_site_id
 _symmetry_equiv_pos_as_xyz
  1  'x, y, z'
loop_
 _atom_site_type_symbol
 _atom_site_label
 _atom_site_symmetry_multiplicity
 _atom_site_fract_x
 _atom_site_fract_y
 _atom_site_fract_z
 _atom_site_occupancy
  Pr  Pr0  1  0.961135  0.815125  0.276260  1
  Pr  Pr1  1  0.315125  0.461135  0.276260  1
  Pr  Pr2  1  0.815125  0.315125  0.276260  1
  Pr  Pr3  1  0.461135  0.961135  0.276260  1
  Pr  Pr4  1  0.038865  0.184875  0.723740  1
  Pr  Pr5  1  0.684875  0.538865  0.723740  1
  Pr  Pr6  1  0.184875  0.684875  0.723740  1
  Pr  Pr7  1  0.538865  0.038865  0.723740  1
  Sm  Sm8  1  0.500000  0.500000  0.000000  1
  Sm  Sm9  1  0.000000  0.000000  0.000000  1
  In  In10  1  0.750000  0.750000  0.500000  1
  In  In11  1  0.250000  0.250000  0.500000  1
  Si  Si12  1  0.616340  0.883660  0.000000  1
  Si  Si13  1  0.383660  0.116340  0.000000  1
  Si  Si14  1  0.883660  0.383660  0.000000  1
  Si  Si15  1  0.116340  0.616340  0.000000  1
