# generated using pymatgen
data_Pr2Ga2Co2C
_symmetry_space_group_name_H-M   'P 1'
_cell_length_a   5.91395710
_cell_length_b   5.91395724
_cell_length_c   7.20495051
_cell_angle_alpha   126.07684621
_cell_angle_beta   126.07684572
_cell_angle_gamma   40.49745481
_symmetry_Int_Tables_number   1
_chemical_formula_structural   Pr2Ga2Co2C
_chemical_formula_sum   'Pr2 Ga2 Co2 C1'
_cell_volume   127.39751949
_cell_formula_units_Z   1
loop_
 _symmetry_equiv_pos_site_id
 _symmetry_equiv_pos_as_xyz
  1  'x, y, z'
loop_
 _atom_site_type_symbol
 _atom_site_label
 _atom_site_symmetry_multiplicity
 _atom_site_fract_x
 _atom_site_fract_y
 _atom_site_fract_z
 _atom_site_occupancy
  Pr  Pr0  1  0.554207  0.554207  0.290681  1
  Pr  Pr1  1  0.445793  0.445793  0.709319  1
  Ga  Ga2  1  0.826247  0.826247  0.268332  1
  Ga  Ga3  1  0.173754  0.173754  0.731668  1
  Co  Co4  1  0.187997  0.187997  0.082068  1
  Co  Co5  1  0.812003  0.812003  0.917931  1
  C  C6  1  0.000000  0.000000  0.000000  1
