# generated using pymatgen
data_Yb3Sc3Al14(Si5Os3)2
_symmetry_space_group_name_H-M   'P 1'
_cell_length_a   8.56877200
_cell_length_b   8.56877267
_cell_length_c   9.16614200
_cell_angle_alpha   90.00000000
_cell_angle_beta   90.00000000
_cell_angle_gamma   119.99999743
_symmetry_Int_Tables_number   1
_chemical_formula_structural   Yb3Sc3Al14(Si5Os3)2
_chemical_formula_sum   'Yb3 Sc3 Al14 Si10 Os6'
_cell_volume   582.84682091
_cell_formula_units_Z   1
loop_
 _symmetry_equiv_pos_site_id
 _symmetry_equiv_pos_as_xyz
  1  'x, y, z'
loop_
 _atom_site_type_symbol
 _atom_site_label
 _atom_site_symmetry_multiplicity
 _atom_site_fract_x
 _atom_site_fract_y
 _atom_site_fract_z
 _atom_site_occupancy
  Yb  Yb0  1  0.196557  0.803443  0.250000  1
  Yb  Yb1  1  0.196557  0.393115  0.250000  1
  Yb  Yb2  1  0.606885  0.803443  0.250000  1
  Sc  Sc3  1  0.800297  0.199703  0.750000  1
  Sc  Sc4  1  0.800297  0.600594  0.750000  1
  Sc  Sc5  1  0.399406  0.199703  0.750000  1
  Al  Al6  1  0.159985  0.840015  0.914830  1
  Al  Al7  1  0.159985  0.319969  0.914830  1
  Al  Al8  1  0.680031  0.840015  0.914830  1
  Al  Al9  1  0.838509  0.161491  0.076921  1
  Al  Al10  1  0.838509  0.677018  0.076921  1
  Al  Al11  1  0.322982  0.161491  0.076921  1
  Al  Al12  1  0.838509  0.161491  0.423079  1
  Al  Al13  1  0.838509  0.677018  0.423079  1
  Al  Al14  1  0.322982  0.161491  0.423079  1
  Al  Al15  1  0.159985  0.840015  0.585170  1
  Al  Al16  1  0.159985  0.319969  0.585170  1
  Al  Al17  1  0.680031  0.840015  0.585170  1
  Al  Al18  1  0.000000  0.000000  0.250000  1
  Al  Al19  1  0.000000  0.000000  0.750000  1
  Si  Si20  1  0.566465  0.433535  0.250000  1
  Si  Si21  1  0.566465  0.132930  0.250000  1
  Si  Si22  1  0.867070  0.433535  0.250000  1
  Si  Si23  1  0.434309  0.565691  0.750000  1
  Si  Si24  1  0.434309  0.868618  0.750000  1
  Si  Si25  1  0.131382  0.565691  0.750000  1
  Si  Si26  1  0.333333  0.666667  0.459933  1
  Si  Si27  1  0.666667  0.333333  0.549333  1
  Si  Si28  1  0.666667  0.333333  0.950667  1
  Si  Si29  1  0.333333  0.666667  0.040067  1
  Os  Os30  1  0.501375  0.498625  0.504997  1
  Os  Os31  1  0.501375  0.002750  0.504997  1
  Os  Os32  1  0.997250  0.498625  0.504997  1
  Os  Os33  1  0.501375  0.498625  0.995003  1
  Os  Os34  1  0.501375  0.002750  0.995003  1
  Os  Os35  1  0.997250  0.498625  0.995003  1
