# generated using pymatgen
data_Gd3ErReRuC4
_symmetry_space_group_name_H-M   'P 1'
_cell_length_a   5.15307100
_cell_length_b   6.55298800
_cell_length_c   9.86161800
_cell_angle_alpha   90.00000000
_cell_angle_beta   90.00000000
_cell_angle_gamma   90.00000000
_symmetry_Int_Tables_number   1
_chemical_formula_structural   Gd3ErReRuC4
_chemical_formula_sum   'Gd6 Er2 Re2 Ru2 C8'
_cell_volume   333.00723917
_cell_formula_units_Z   2
loop_
 _symmetry_equiv_pos_site_id
 _symmetry_equiv_pos_as_xyz
  1  'x, y, z'
loop_
 _atom_site_type_symbol
 _atom_site_label
 _atom_site_symmetry_multiplicity
 _atom_site_fract_x
 _atom_site_fract_y
 _atom_site_fract_z
 _atom_site_occupancy
  Gd  Gd0  1  0.750000  0.316878  0.445307  1
  Gd  Gd1  1  0.250000  0.183122  0.945307  1
  Gd  Gd2  1  0.750000  0.468882  0.785615  1
  Gd  Gd3  1  0.250000  0.031118  0.285615  1
  Gd  Gd4  1  0.750000  0.970971  0.713841  1
  Gd  Gd5  1  0.250000  0.529029  0.213841  1
  Er  Er6  1  0.750000  0.825085  0.055291  1
  Er  Er7  1  0.250000  0.674915  0.555291  1
  Re  Re8  1  0.750000  0.777442  0.364073  1
  Re  Re9  1  0.250000  0.722558  0.864073  1
  Ru  Ru10  1  0.750000  0.276893  0.135142  1
  Ru  Ru11  1  0.250000  0.223107  0.635142  1
  C  C12  1  0.750000  0.173873  0.951228  1
  C  C13  1  0.250000  0.822169  0.049715  1
  C  C14  1  0.750000  0.677831  0.549715  1
  C  C15  1  0.250000  0.326127  0.451228  1
  C  C16  1  0.750000  0.041395  0.258631  1
  C  C17  1  0.250000  0.458605  0.758631  1
  C  C18  1  0.750000  0.545561  0.241158  1
  C  C19  1  0.250000  0.954439  0.741158  1
