# generated using pymatgen
data_Yb3Sc2Pa3Bi10
_symmetry_space_group_name_H-M   'P 1'
_cell_length_a   9.55472900
_cell_length_b   9.50611777
_cell_length_c   6.54308500
_cell_angle_alpha   90.00000000
_cell_angle_beta   90.00000000
_cell_angle_gamma   120.16930029
_symmetry_Int_Tables_number   1
_chemical_formula_structural   Yb3Sc2Pa3Bi10
_chemical_formula_sum   'Yb3 Sc2 Pa3 Bi10'
_cell_volume   513.79672155
_cell_formula_units_Z   1
loop_
 _symmetry_equiv_pos_site_id
 _symmetry_equiv_pos_as_xyz
  1  'x, y, z'
loop_
 _atom_site_type_symbol
 _atom_site_label
 _atom_site_symmetry_multiplicity
 _atom_site_fract_x
 _atom_site_fract_y
 _atom_site_fract_z
 _atom_site_occupancy
  Yb  Yb0  1  0.001721  0.620786  0.250000  1
  Yb  Yb1  1  0.380936  0.379214  0.250000  1
  Yb  Yb2  1  0.376015  0.000000  0.750000  1
  Sc  Sc3  1  0.004904  0.000000  0.003321  1
  Sc  Sc4  1  0.004904  0.000000  0.496679  1
  Pa  Pa5  1  0.615239  0.610098  0.750000  1
  Pa  Pa6  1  0.606025  0.000000  0.250000  1
  Pa  Pa7  1  0.005141  0.389902  0.750000  1
  Bi  Bi8  1  0.994544  0.266506  0.250000  1
  Bi  Bi9  1  0.338710  0.667595  0.502125  1
  Bi  Bi10  1  0.671116  0.332405  0.997875  1
  Bi  Bi11  1  0.338710  0.667595  0.997875  1
  Bi  Bi12  1  0.265119  0.268946  0.750000  1
  Bi  Bi13  1  0.733073  0.000000  0.750000  1
  Bi  Bi14  1  0.996173  0.731054  0.750000  1
  Bi  Bi15  1  0.728038  0.733494  0.250000  1
  Bi  Bi16  1  0.268516  0.000000  0.250000  1
  Bi  Bi17  1  0.671116  0.332405  0.502125  1
