# generated using pymatgen
data_Tb5PrAl14(Si5Os4)2
_symmetry_space_group_name_H-M   'P 1'
_cell_length_a   8.74310401
_cell_length_b   8.74310330
_cell_length_c   9.35498500
_cell_angle_alpha   90.00001129
_cell_angle_beta   89.99997336
_cell_angle_gamma   120.04929458
_symmetry_Int_Tables_number   1
_chemical_formula_structural   Tb5PrAl14(Si5Os4)2
_chemical_formula_sum   'Tb5 Pr1 Al14 Si10 Os8'
_cell_volume   618.99770996
_cell_formula_units_Z   1
loop_
 _symmetry_equiv_pos_site_id
 _symmetry_equiv_pos_as_xyz
  1  'x, y, z'
loop_
 _atom_site_type_symbol
 _atom_site_label
 _atom_site_symmetry_multiplicity
 _atom_site_fract_x
 _atom_site_fract_y
 _atom_site_fract_z
 _atom_site_occupancy
  Tb  Tb0  1  0.190329  0.383499  0.250000  1
  Tb  Tb1  1  0.808853  0.615006  0.750000  1
  Tb  Tb2  1  0.616501  0.809671  0.250000  1
  Tb  Tb3  1  0.384994  0.191147  0.750000  1
  Tb  Tb4  1  0.192340  0.807660  0.250000  1
  Pr  Pr5  1  0.810338  0.189662  0.749999  1
  Al  Al6  1  0.167192  0.329931  0.576191  1
  Al  Al7  1  0.834493  0.668485  0.421396  1
  Al  Al8  1  0.670069  0.832808  0.576191  1
  Al  Al9  1  0.834494  0.668483  0.078604  1
  Al  Al10  1  0.331515  0.165507  0.421396  1
  Al  Al11  1  0.167192  0.329929  0.923809  1
  Al  Al12  1  0.164000  0.836000  0.576438  1
  Al  Al13  1  0.331517  0.165506  0.078604  1
  Al  Al14  1  0.833466  0.166534  0.420517  1
  Al  Al15  1  0.670071  0.832808  0.923809  1
  Al  Al16  1  0.833469  0.166531  0.079484  1
  Al  Al17  1  0.164001  0.835999  0.923563  1
  Al  Al18  1  0.435610  0.564390  0.750000  1
  Al  Al19  1  0.002907  0.997093  0.749999  1
  Si  Si20  1  0.334263  0.665737  0.041536  1
  Si  Si21  1  0.665130  0.334870  0.960362  1
  Si  Si22  1  0.665129  0.334871  0.539640  1
  Si  Si23  1  0.334262  0.665738  0.458465  1
  Si  Si24  1  0.560102  0.124023  0.250000  1
  Si  Si25  1  0.431849  0.872656  0.750000  1
  Si  Si26  1  0.875977  0.439898  0.250000  1
  Si  Si27  1  0.127344  0.568151  0.750000  1
  Si  Si28  1  0.562847  0.437153  0.250000  1
  Si  Si29  1  0.001232  0.998768  0.249998  1
  Os  Os30  1  0.498450  0.999725  0.001948  1
  Os  Os31  1  0.000275  0.501550  0.001948  1
  Os  Os32  1  0.498449  0.999728  0.498055  1
  Os  Os33  1  0.500749  0.499251  0.007006  1
  Os  Os34  1  0.000272  0.501551  0.498055  1
  Os  Os35  1  0.500748  0.499252  0.492994  1
  Os  Os36  1  0.999786  0.000214  0.008044  1
  Os  Os37  1  0.999783  0.000217  0.491954  1
