# generated using pymatgen
data_TbCu2Ni2Ag
_symmetry_space_group_name_H-M   'P 1'
_cell_length_a   4.97064625
_cell_length_b   4.99522454
_cell_length_c   4.99522352
_cell_angle_alpha   60.56913270
_cell_angle_beta   60.16262755
_cell_angle_gamma   60.16262667
_symmetry_Int_Tables_number   1
_chemical_formula_structural   TbCu2Ni2Ag
_chemical_formula_sum   'Tb1 Cu2 Ni2 Ag1'
_cell_volume   88.29039261
_cell_formula_units_Z   1
loop_
 _symmetry_equiv_pos_site_id
 _symmetry_equiv_pos_as_xyz
  1  'x, y, z'
loop_
 _atom_site_type_symbol
 _atom_site_label
 _atom_site_symmetry_multiplicity
 _atom_site_fract_x
 _atom_site_fract_y
 _atom_site_fract_z
 _atom_site_occupancy
  Tb  Tb0  1  0.997484  0.002516  0.002516  1
  Cu  Cu1  1  0.127682  0.623743  0.623743  1
  Cu  Cu2  1  0.624833  0.623743  0.623743  1
  Ni  Ni3  1  0.624872  0.623790  0.126465  1
  Ni  Ni4  1  0.624872  0.126465  0.623790  1
  Ag  Ag5  1  0.250256  0.249744  0.249744  1
