# generated using pymatgen
data_Tb4ErTmMn6O18
_symmetry_space_group_name_H-M   'P 1'
_cell_length_a   6.21531100
_cell_length_b   6.21531056
_cell_length_c   11.54201300
_cell_angle_alpha   90.00000000
_cell_angle_beta   90.00000000
_cell_angle_gamma   119.99999702
_symmetry_Int_Tables_number   1
_chemical_formula_structural   Tb4ErTmMn6O18
_chemical_formula_sum   'Tb4 Er1 Tm1 Mn6 O18'
_cell_volume   386.13387420
_cell_formula_units_Z   1
loop_
 _symmetry_equiv_pos_site_id
 _symmetry_equiv_pos_as_xyz
  1  'x, y, z'
loop_
 _atom_site_type_symbol
 _atom_site_label
 _atom_site_symmetry_multiplicity
 _atom_site_fract_x
 _atom_site_fract_y
 _atom_site_fract_z
 _atom_site_occupancy
  Tb  Tb0  1  0.666667  0.333333  0.229161  1
  Tb  Tb1  1  0.333333  0.666667  0.729327  1
  Tb  Tb2  1  0.666667  0.333333  0.729327  1
  Tb  Tb3  1  0.333333  0.666667  0.229161  1
  Er  Er4  1  0.000000  0.000000  0.272508  1
  Tm  Tm5  1  0.000000  0.000000  0.772683  1
  Mn  Mn6  1  0.668638  0.000000  0.498028  1
  Mn  Mn7  1  0.668619  0.668619  0.997891  1
  Mn  Mn8  1  0.000000  0.331381  0.997891  1
  Mn  Mn9  1  0.000000  0.668638  0.498028  1
  Mn  Mn10  1  0.331362  0.331362  0.498028  1
  Mn  Mn11  1  0.331381  0.000000  0.997891  1
  O  O12  1  0.666667  0.333333  0.018211  1
  O  O13  1  0.333333  0.666667  0.518138  1
  O  O14  1  0.666667  0.333333  0.518138  1
  O  O15  1  0.333333  0.666667  0.018211  1
  O  O16  1  0.000000  0.000000  0.971809  1
  O  O17  1  0.000000  0.000000  0.472463  1
  O  O18  1  0.354546  0.000000  0.833489  1
  O  O19  1  0.355602  0.355602  0.333629  1
  O  O20  1  0.000000  0.644398  0.333629  1
  O  O21  1  0.000000  0.354546  0.833489  1
  O  O22  1  0.645454  0.645454  0.833489  1
  O  O23  1  0.644398  0.000000  0.333629  1
  O  O24  1  0.302983  0.000000  0.162447  1
  O  O25  1  0.301959  0.301959  0.662805  1
  O  O26  1  0.000000  0.698041  0.662805  1
  O  O27  1  0.000000  0.302983  0.162447  1
  O  O28  1  0.697017  0.697017  0.162447  1
  O  O29  1  0.698041  0.000000  0.662805  1
