# generated using pymatgen
data_Dy3GaPt3Au2
_symmetry_space_group_name_H-M   'P 1'
_cell_length_a   7.50694652
_cell_length_b   7.40707574
_cell_length_c   3.81557200
_cell_angle_alpha   90.00000000
_cell_angle_beta   90.00000000
_cell_angle_gamma   119.56089432
_symmetry_Int_Tables_number   1
_chemical_formula_structural   Dy3GaPt3Au2
_chemical_formula_sum   'Dy3 Ga1 Pt3 Au2'
_cell_volume   184.54618358
_cell_formula_units_Z   1
loop_
 _symmetry_equiv_pos_site_id
 _symmetry_equiv_pos_as_xyz
  1  'x, y, z'
loop_
 _atom_site_type_symbol
 _atom_site_label
 _atom_site_symmetry_multiplicity
 _atom_site_fract_x
 _atom_site_fract_y
 _atom_site_fract_z
 _atom_site_occupancy
  Dy  Dy0  1  0.403545  0.393059  0.500000  1
  Dy  Dy1  1  0.596455  0.989514  0.500000  1
  Dy  Dy2  1  0.000000  0.618073  0.500000  1
  Ga  Ga3  1  0.000000  0.262605  0.000000  1
  Pt  Pt4  1  0.687203  0.327698  0.000000  1
  Pt  Pt5  1  0.312797  0.640497  0.000000  1
  Pt  Pt6  1  0.000000  0.036692  0.500000  1
  Au  Au7  1  0.732229  0.732046  0.000000  1
  Au  Au8  1  0.267771  0.999816  0.000000  1
