# generated using pymatgen
data_Tb10Co2Bi3Sb
_symmetry_space_group_name_H-M   'P 1'
_cell_length_a   8.03912700
_cell_length_b   8.84565806
_cell_length_c   12.40655008
_cell_angle_alpha   89.98723383
_cell_angle_beta   90.00000000
_cell_angle_gamma   90.00000000
_symmetry_Int_Tables_number   1
_chemical_formula_structural   Tb10Co2Bi3Sb
_chemical_formula_sum   'Tb20 Co4 Bi6 Sb2'
_cell_volume   882.24673246
_cell_formula_units_Z   2
loop_
 _symmetry_equiv_pos_site_id
 _symmetry_equiv_pos_as_xyz
  1  'x, y, z'
loop_
 _atom_site_type_symbol
 _atom_site_label
 _atom_site_symmetry_multiplicity
 _atom_site_fract_x
 _atom_site_fract_y
 _atom_site_fract_z
 _atom_site_occupancy
  Tb  Tb0  1  0.153258  0.743377  0.201429  1
  Tb  Tb1  1  0.653258  0.256623  0.298571  1
  Tb  Tb2  1  0.847429  0.249658  0.801266  1
  Tb  Tb3  1  0.347429  0.750342  0.698734  1
  Tb  Tb4  1  0.451304  0.747833  0.999715  1
  Tb  Tb5  1  0.951304  0.252167  0.500285  1
  Tb  Tb6  1  0.547210  0.251938  0.004186  1
  Tb  Tb7  1  0.047210  0.748062  0.495814  1
  Tb  Tb8  1  0.619138  0.744272  0.307212  1
  Tb  Tb9  1  0.119138  0.255728  0.192788  1
  Tb  Tb10  1  0.383124  0.249885  0.690227  1
  Tb  Tb11  1  0.883124  0.750115  0.809773  1
  Tb  Tb12  1  0.823070  0.964182  0.063787  1
  Tb  Tb13  1  0.323070  0.035818  0.436213  1
  Tb  Tb14  1  0.176890  0.464190  0.938565  1
  Tb  Tb15  1  0.676890  0.535810  0.561435  1
  Tb  Tb16  1  0.177958  0.035562  0.937848  1
  Tb  Tb17  1  0.677958  0.964438  0.562152  1
  Tb  Tb18  1  0.821607  0.535796  0.066486  1
  Tb  Tb19  1  0.321607  0.464204  0.433514  1
  Co  Co20  1  0.436909  0.748359  0.489864  1
  Co  Co21  1  0.936909  0.251641  0.010136  1
  Co  Co22  1  0.563273  0.250793  0.507169  1
  Co  Co23  1  0.063273  0.749207  0.992831  1
  Bi  Bi24  1  0.926652  0.991423  0.324209  1
  Bi  Bi25  1  0.426652  0.008577  0.175791  1
  Bi  Bi26  1  0.072301  0.490679  0.674486  1
  Bi  Bi27  1  0.572301  0.509321  0.825514  1
  Bi  Bi28  1  0.071751  0.009344  0.672784  1
  Bi  Bi29  1  0.571751  0.990656  0.827216  1
  Sb  Sb30  1  0.928126  0.508650  0.327013  1
  Sb  Sb31  1  0.428126  0.491350  0.172987  1
