# generated using pymatgen
data_LiHo16In3(IrRh)2
_symmetry_space_group_name_H-M   'P 1'
_cell_length_a   9.61096855
_cell_length_b   9.62633495
_cell_length_c   9.61096831
_cell_angle_alpha   59.80624865
_cell_angle_beta   59.72493586
_cell_angle_gamma   59.80625609
_symmetry_Int_Tables_number   1
_chemical_formula_structural   LiHo16In3(IrRh)2
_chemical_formula_sum   'Li1 Ho16 In3 Ir2 Rh2'
_cell_volume   625.59975083
_cell_formula_units_Z   1
loop_
 _symmetry_equiv_pos_site_id
 _symmetry_equiv_pos_as_xyz
  1  'x, y, z'
loop_
 _atom_site_type_symbol
 _atom_site_label
 _atom_site_symmetry_multiplicity
 _atom_site_fract_x
 _atom_site_fract_y
 _atom_site_fract_z
 _atom_site_occupancy
  Li  Li0  1  0.821972  0.821952  0.821972  1
  Ho  Ho1  1  0.188379  0.188340  0.811282  1
  Ho  Ho2  1  0.599273  0.599792  0.202360  1
  Ho  Ho3  1  0.441284  0.059242  0.441284  1
  Ho  Ho4  1  0.441068  0.441289  0.059590  1
  Ho  Ho5  1  0.813213  0.186161  0.813213  1
  Ho  Ho6  1  0.188903  0.811154  0.188903  1
  Ho  Ho7  1  0.436624  0.062527  0.063087  1
  Ho  Ho8  1  0.186645  0.813240  0.812074  1
  Ho  Ho9  1  0.062990  0.436546  0.062990  1
  Ho  Ho10  1  0.812074  0.813240  0.186645  1
  Ho  Ho11  1  0.202360  0.599792  0.599273  1
  Ho  Ho12  1  0.059590  0.441289  0.441068  1
  Ho  Ho13  1  0.063087  0.062527  0.436624  1
  Ho  Ho14  1  0.811282  0.188340  0.188379  1
  Ho  Ho15  1  0.599550  0.202043  0.599550  1
  Ho  Ho16  1  0.599722  0.600375  0.599722  1
  In  In17  1  0.833035  0.833105  0.503445  1
  In  In18  1  0.503445  0.833105  0.833035  1
  In  In19  1  0.833053  0.503534  0.833053  1
  Ir  Ir20  1  0.392657  0.824422  0.392657  1
  Ir  Ir21  1  0.392812  0.392807  0.392812  1
  Rh  Rh22  1  0.824397  0.392590  0.392589  1
  Rh  Rh23  1  0.392589  0.392590  0.824397  1
