# generated using pymatgen
data_Tc3OsPb4O13
_symmetry_space_group_name_H-M   'P 1'
_cell_length_a   7.42568178
_cell_length_b   7.42566087
_cell_length_c   7.42568200
_cell_angle_alpha   59.99990588
_cell_angle_beta   59.99999903
_cell_angle_gamma   59.99990363
_symmetry_Int_Tables_number   1
_chemical_formula_structural   Tc3OsPb4O13
_chemical_formula_sum   'Tc3 Os1 Pb4 O13'
_cell_volume   289.52906380
_cell_formula_units_Z   1
loop_
 _symmetry_equiv_pos_site_id
 _symmetry_equiv_pos_as_xyz
  1  'x, y, z'
loop_
 _atom_site_type_symbol
 _atom_site_label
 _atom_site_symmetry_multiplicity
 _atom_site_fract_x
 _atom_site_fract_y
 _atom_site_fract_z
 _atom_site_occupancy
  Tc  Tc0  1  0.874779  0.874432  0.376009  1
  Tc  Tc1  1  0.874779  0.874432  0.874779  1
  Tc  Tc2  1  0.376009  0.874432  0.874779  1
  Os  Os3  1  0.875055  0.374836  0.875055  1
  Pb  Pb4  1  0.881053  0.374396  0.372276  1
  Pb  Pb5  1  0.372276  0.374396  0.372276  1
  Pb  Pb6  1  0.372276  0.374396  0.881053  1
  Pb  Pb7  1  0.374074  0.877777  0.374074  1
  O  O8  1  0.199979  0.795540  0.804502  1
  O  O9  1  0.199979  0.795540  0.199979  1
  O  O10  1  0.553247  0.952596  0.940911  1
  O  O11  1  0.553247  0.952596  0.553247  1
  O  O12  1  0.940911  0.952596  0.553247  1
  O  O13  1  0.804502  0.795540  0.199979  1
  O  O14  1  0.560548  0.557647  0.940903  1
  O  O15  1  0.805851  0.195515  0.805851  1
  O  O16  1  0.805851  0.195515  0.192782  1
  O  O17  1  0.940903  0.557647  0.940903  1
  O  O18  1  0.940903  0.557647  0.560548  1
  O  O19  1  0.192782  0.195515  0.805851  1
  O  O20  1  0.500997  0.497010  0.500997  1
