# generated using pymatgen
data_Pr3MgPa3Co17P12
_symmetry_space_group_name_H-M   'P 1'
_cell_length_a   3.77694700
_cell_length_b   10.57307023
_cell_length_c   12.46068179
_cell_angle_alpha   90.33930405
_cell_angle_beta   90.00000000
_cell_angle_gamma   90.00000000
_symmetry_Int_Tables_number   1
_chemical_formula_structural   Pr3MgPa3Co17P12
_chemical_formula_sum   'Pr3 Mg1 Pa3 Co17 P12'
_cell_volume   497.59521744
_cell_formula_units_Z   1
loop_
 _symmetry_equiv_pos_site_id
 _symmetry_equiv_pos_as_xyz
  1  'x, y, z'
loop_
 _atom_site_type_symbol
 _atom_site_label
 _atom_site_symmetry_multiplicity
 _atom_site_fract_x
 _atom_site_fract_y
 _atom_site_fract_z
 _atom_site_occupancy
  Pr  Pr0  1  0.000000  0.499984  0.521789  1
  Pr  Pr1  1  0.500000  0.000240  0.480864  1
  Pr  Pr2  1  0.000000  0.314496  0.796365  1
  Mg  Mg3  1  0.500000  0.501243  0.149534  1
  Pa  Pa4  1  0.500000  0.820917  0.209688  1
  Pa  Pa5  1  0.500000  0.179385  0.209337  1
  Pa  Pa6  1  0.000000  0.681080  0.792016  1
  Co  Co7  1  0.000000  0.999724  0.841022  1
  Co  Co8  1  0.500000  0.513924  0.710442  1
  Co  Co9  1  0.000000  0.999975  0.288318  1
  Co  Co10  1  0.000000  0.501527  0.986589  1
  Co  Co11  1  0.500000  0.997928  0.017059  1
  Co  Co12  1  0.500000  0.328216  0.996748  1
  Co  Co13  1  0.500000  0.672184  0.994469  1
  Co  Co14  1  0.000000  0.161028  0.005089  1
  Co  Co15  1  0.000000  0.835227  0.001287  1
  Co  Co16  1  0.500000  0.295749  0.428222  1
  Co  Co17  1  0.500000  0.704290  0.427518  1
  Co  Co18  1  0.000000  0.203351  0.569912  1
  Co  Co19  1  0.000000  0.799558  0.573255  1
  Co  Co20  1  0.500000  0.877450  0.715247  1
  Co  Co21  1  0.500000  0.116227  0.711437  1
  Co  Co22  1  0.000000  0.626308  0.286671  1
  Co  Co23  1  0.000000  0.371486  0.286368  1
  P  P24  1  0.500000  0.501338  0.888193  1
  P  P25  1  0.000000  0.998279  0.113018  1
  P  P26  1  0.500000  0.499904  0.347304  1
  P  P27  1  0.000000  0.000997  0.661594  1
  P  P28  1  0.500000  0.307423  0.615336  1
  P  P29  1  0.500000  0.696094  0.613140  1
  P  P30  1  0.000000  0.190618  0.386874  1
  P  P31  1  0.000000  0.809338  0.386914  1
  P  P32  1  0.500000  0.848344  0.893726  1
  P  P33  1  0.500000  0.145369  0.894248  1
  P  P34  1  0.000000  0.662460  0.100807  1
  P  P35  1  0.000000  0.338341  0.099602  1
