# generated using pymatgen
data_RbBa9(RuO6)4
_symmetry_space_group_name_H-M   'P 1'
_cell_length_a   8.28581913
_cell_length_b   8.28301776
_cell_length_c   11.13982958
_cell_angle_alpha   111.81351016
_cell_angle_beta   111.82140334
_cell_angle_gamma   90.01900358
_symmetry_Int_Tables_number   1
_chemical_formula_structural   RbBa9(RuO6)4
_chemical_formula_sum   'Rb1 Ba9 Ru4 O24'
_cell_volume   650.38392866
_cell_formula_units_Z   1
loop_
 _symmetry_equiv_pos_site_id
 _symmetry_equiv_pos_as_xyz
  1  'x, y, z'
loop_
 _atom_site_type_symbol
 _atom_site_label
 _atom_site_symmetry_multiplicity
 _atom_site_fract_x
 _atom_site_fract_y
 _atom_site_fract_z
 _atom_site_occupancy
  Rb  Rb0  1  0.499983  0.499980  0.999970  1
  Ba  Ba1  1  0.999994  0.999998  0.999990  1
  Ba  Ba2  1  0.451064  0.325931  0.285523  1
  Ba  Ba3  1  0.959706  0.451045  0.285667  1
  Ba  Ba4  1  0.326016  0.834629  0.285635  1
  Ba  Ba5  1  0.834529  0.959563  0.285604  1
  Ba  Ba6  1  0.165333  0.040306  0.714382  1
  Ba  Ba7  1  0.674091  0.165244  0.714345  1
  Ba  Ba8  1  0.040166  0.549062  0.714315  1
  Ba  Ba9  1  0.549052  0.674187  0.714471  1
  Ru  Ru10  1  0.500001  0.000003  0.999989  1
  Ru  Ru11  1  0.999993  0.499994  0.999992  1
  Ru  Ru12  1  0.242582  0.242552  0.485037  1
  Ru  Ru13  1  0.757415  0.757433  0.514866  1
  O  O14  1  0.310053  0.128984  0.999983  1
  O  O15  1  0.871089  0.310054  0.000028  1
  O  O16  1  0.128901  0.689939  0.999963  1
  O  O17  1  0.689950  0.871023  0.000011  1
  O  O18  1  0.664802  0.203649  0.146271  1
  O  O19  1  0.203503  0.481464  0.146288  1
  O  O20  1  0.942741  0.664851  0.146258  1
  O  O21  1  0.481516  0.942720  0.146383  1
  O  O22  1  0.135029  0.135065  0.270046  1
  O  O23  1  0.657831  0.657852  0.315829  1
  O  O24  1  0.458050  0.182469  0.471122  1
  O  O25  1  0.013187  0.288641  0.471211  1
  O  O26  1  0.288702  0.458010  0.471071  1
  O  O27  1  0.182482  0.013111  0.471076  1
  O  O28  1  0.817506  0.986856  0.528911  1
  O  O29  1  0.711291  0.541996  0.528914  1
  O  O30  1  0.986769  0.711358  0.528769  1
  O  O31  1  0.541963  0.817511  0.528857  1
  O  O32  1  0.342249  0.342226  0.684327  1
  O  O33  1  0.864992  0.864952  0.729997  1
  O  O34  1  0.518488  0.057281  0.853652  1
  O  O35  1  0.057257  0.335163  0.853762  1
  O  O36  1  0.796513  0.518540  0.853731  1
  O  O37  1  0.335216  0.796362  0.853761  1
