# generated using pymatgen
data_Rb2Hf6BBr17
_symmetry_space_group_name_H-M   'P 1'
_cell_length_a   10.47275295
_cell_length_b   10.47274909
_cell_length_c   10.47269197
_cell_angle_alpha   104.09540429
_cell_angle_beta   104.09870554
_cell_angle_gamma   120.85543984
_symmetry_Int_Tables_number   1
_chemical_formula_structural   Rb2Hf6BBr17
_chemical_formula_sum   'Rb2 Hf6 B1 Br17'
_cell_volume   857.60473585
_cell_formula_units_Z   1
loop_
 _symmetry_equiv_pos_site_id
 _symmetry_equiv_pos_as_xyz
  1  'x, y, z'
loop_
 _atom_site_type_symbol
 _atom_site_label
 _atom_site_symmetry_multiplicity
 _atom_site_fract_x
 _atom_site_fract_y
 _atom_site_fract_z
 _atom_site_occupancy
  Rb  Rb0  1  0.250001  0.750000  0.500002  1
  Rb  Rb1  1  0.749999  0.250000  0.499998  1
  Hf  Hf2  1  0.228085  0.228085  0.000000  1
  Hf  Hf3  1  0.771915  0.771915  0.000000  1
  Hf  Hf4  1  0.174131  0.063621  0.237750  1
  Hf  Hf5  1  0.936378  0.174125  0.110504  1
  Hf  Hf6  1  0.825869  0.936379  0.762250  1
  Hf  Hf7  1  0.063622  0.825875  0.889496  1
  B  B8  1  0.000000  0.000000  0.000000  1
  Br  Br9  1  0.876411  0.734863  0.611275  1
  Br  Br10  1  0.265150  0.876416  0.141565  1
  Br  Br11  1  0.134327  0.625679  0.760005  1
  Br  Br12  1  0.550164  0.671244  0.735322  1
  Br  Br13  1  0.865673  0.374321  0.239995  1
  Br  Br14  1  0.449836  0.328756  0.264678  1
  Br  Br15  1  0.814844  0.550171  0.878936  1
  Br  Br16  1  0.374333  0.134331  0.508663  1
  Br  Br17  1  0.625667  0.865669  0.491337  1
  Br  Br18  1  0.123589  0.265137  0.388725  1
  Br  Br19  1  0.328766  0.064092  0.878936  1
  Br  Br20  1  0.935923  0.814843  0.264677  1
  Br  Br21  1  0.734850  0.123584  0.858435  1
  Br  Br22  1  0.500000  0.500000  0.000000  1
  Br  Br23  1  0.185156  0.449829  0.121064  1
  Br  Br24  1  0.064077  0.185157  0.735323  1
  Br  Br25  1  0.671234  0.935908  0.121064  1
