# generated using pymatgen
data_Lu4Mn3SnF28
_symmetry_space_group_name_H-M   'P 1'
_cell_length_a   5.36959046
_cell_length_b   8.55762856
_cell_length_c   11.57380800
_cell_angle_alpha   62.85455726
_cell_angle_beta   90.02361364
_cell_angle_gamma   90.03965051
_symmetry_Int_Tables_number   1
_chemical_formula_structural   Lu4Mn3SnF28
_chemical_formula_sum   'Lu4 Mn3 Sn1 F28'
_cell_volume   473.24731936
_cell_formula_units_Z   1
loop_
 _symmetry_equiv_pos_site_id
 _symmetry_equiv_pos_as_xyz
  1  'x, y, z'
loop_
 _atom_site_type_symbol
 _atom_site_label
 _atom_site_symmetry_multiplicity
 _atom_site_fract_x
 _atom_site_fract_y
 _atom_site_fract_z
 _atom_site_occupancy
  Lu  Lu0  1  0.259078  0.813066  0.260392  1
  Lu  Lu1  1  0.738105  0.184449  0.737126  1
  Lu  Lu2  1  0.761787  0.191459  0.234380  1
  Lu  Lu3  1  0.237530  0.811003  0.770011  1
  Mn  Mn4  1  0.758845  0.726239  0.044100  1
  Mn  Mn5  1  0.240165  0.272977  0.956656  1
  Mn  Mn6  1  0.260520  0.274010  0.455222  1
  Sn  Sn7  1  0.742464  0.728977  0.541322  1
  F  F8  1  0.941735  0.698046  0.409532  1
  F  F9  1  0.069215  0.296745  0.578064  1
  F  F10  1  0.431339  0.296527  0.078870  1
  F  F11  1  0.567734  0.702547  0.922633  1
  F  F12  1  0.476641  0.725775  0.134355  1
  F  F13  1  0.522752  0.272329  0.866672  1
  F  F14  1  0.978766  0.278065  0.362777  1
  F  F15  1  0.048027  0.723468  0.640699  1
  F  F16  1  0.947031  0.746032  0.170392  1
  F  F17  1  0.052328  0.253056  0.828498  1
  F  F18  1  0.446454  0.256397  0.325858  1
  F  F19  1  0.550044  0.746688  0.682550  1
  F  F20  1  0.777820  0.485076  0.138908  1
  F  F21  1  0.222164  0.513852  0.863150  1
  F  F22  1  0.281484  0.515031  0.358620  1
  F  F23  1  0.719099  0.470218  0.645677  1
  F  F24  1  0.948176  0.277168  0.040830  1
  F  F25  1  0.051190  0.722202  0.960151  1
  F  F26  1  0.422625  0.722586  0.455356  1
  F  F27  1  0.551827  0.276087  0.541085  1
  F  F28  1  0.744382  0.988022  0.446972  1
  F  F29  1  0.253982  0.034489  0.546774  1
  F  F30  1  0.245547  0.033093  0.046938  1
  F  F31  1  0.754489  0.965809  0.953101  1
  F  F32  1  0.587457  0.970164  0.232434  1
  F  F33  1  0.412226  0.029968  0.770625  1
  F  F34  1  0.084713  0.029059  0.268983  1
  F  F35  1  0.912254  0.969319  0.730287  1
