# generated using pymatgen
data_Nd8Mg3Cd3Ag20
_symmetry_space_group_name_H-M   'P 1'
_cell_length_a   8.73668027
_cell_length_b   8.73668130
_cell_length_c   10.47154159
_cell_angle_alpha   90.05121270
_cell_angle_beta   89.94878752
_cell_angle_gamma   107.72388420
_symmetry_Int_Tables_number   1
_chemical_formula_structural   Nd8Mg3Cd3Ag20
_chemical_formula_sum   'Nd8 Mg3 Cd3 Ag20'
_cell_volume   761.34952209
_cell_formula_units_Z   1
loop_
 _symmetry_equiv_pos_site_id
 _symmetry_equiv_pos_as_xyz
  1  'x, y, z'
loop_
 _atom_site_type_symbol
 _atom_site_label
 _atom_site_symmetry_multiplicity
 _atom_site_fract_x
 _atom_site_fract_y
 _atom_site_fract_z
 _atom_site_occupancy
  Nd  Nd0  1  0.703134  0.300482  0.998372  1
  Nd  Nd1  1  0.297228  0.701813  0.999644  1
  Nd  Nd2  1  0.800482  0.203134  0.501628  1
  Nd  Nd3  1  0.201813  0.797228  0.500356  1
  Nd  Nd4  1  0.301478  0.305020  0.203953  1
  Nd  Nd5  1  0.697164  0.696943  0.796312  1
  Nd  Nd6  1  0.196943  0.197164  0.703688  1
  Nd  Nd7  1  0.805020  0.801478  0.296047  1
  Mg  Mg8  1  0.520889  0.020889  0.250000  1
  Mg  Mg9  1  0.000428  0.000414  0.000782  1
  Mg  Mg10  1  0.500414  0.500428  0.499218  1
  Cd  Cd11  1  0.025266  0.525266  0.250000  1
  Cd  Cd12  1  0.974463  0.474463  0.750000  1
  Cd  Cd13  1  0.474083  0.974083  0.750000  1
  Ag  Ag14  1  0.097911  0.096537  0.405676  1
  Ag  Ag15  1  0.903150  0.903206  0.593914  1
  Ag  Ag16  1  0.403206  0.403150  0.906086  1
  Ag  Ag17  1  0.596537  0.597911  0.094324  1
  Ag  Ag18  1  0.892164  0.171916  0.207206  1
  Ag  Ag19  1  0.102504  0.827056  0.793636  1
  Ag  Ag20  1  0.602195  0.326579  0.705866  1
  Ag  Ag21  1  0.671916  0.392164  0.292794  1
  Ag  Ag22  1  0.397895  0.675923  0.293037  1
  Ag  Ag23  1  0.327056  0.602504  0.706364  1
  Ag  Ag24  1  0.826579  0.102195  0.794134  1
  Ag  Ag25  1  0.175923  0.897895  0.206963  1
  Ag  Ag26  1  0.930289  0.662568  0.024434  1
  Ag  Ag27  1  0.069803  0.337648  0.975588  1
  Ag  Ag28  1  0.569949  0.840803  0.522402  1
  Ag  Ag29  1  0.162568  0.430289  0.475566  1
  Ag  Ag30  1  0.432450  0.160650  0.472300  1
  Ag  Ag31  1  0.837648  0.569803  0.524412  1
  Ag  Ag32  1  0.340803  0.069949  0.977598  1
  Ag  Ag33  1  0.660650  0.932450  0.027700  1
