# generated using pymatgen
data_Gd4PdAu3
_symmetry_space_group_name_H-M   'P 1'
_cell_length_a   4.50290700
_cell_length_b   5.84594849
_cell_length_c   7.57590600
_cell_angle_alpha   89.79481692
_cell_angle_beta   90.00000000
_cell_angle_gamma   90.00000000
_symmetry_Int_Tables_number   1
_chemical_formula_structural   Gd4PdAu3
_chemical_formula_sum   'Gd4 Pd1 Au3'
_cell_volume   199.42507042
_cell_formula_units_Z   1
loop_
 _symmetry_equiv_pos_site_id
 _symmetry_equiv_pos_as_xyz
  1  'x, y, z'
loop_
 _atom_site_type_symbol
 _atom_site_label
 _atom_site_symmetry_multiplicity
 _atom_site_fract_x
 _atom_site_fract_y
 _atom_site_fract_z
 _atom_site_occupancy
  Gd  Gd0  1  0.250000  0.361484  0.681174  1
  Gd  Gd1  1  0.250000  0.142024  0.184668  1
  Gd  Gd2  1  0.750000  0.645016  0.322911  1
  Gd  Gd3  1  0.750000  0.858042  0.810286  1
  Pd  Pd4  1  0.250000  0.843983  0.540553  1
  Au  Au5  1  0.250000  0.655852  0.044413  1
  Au  Au6  1  0.750000  0.149016  0.459868  1
  Au  Au7  1  0.750000  0.344583  0.956127  1
