# generated using pymatgen
data_Dy2Si2Tc2C
_symmetry_space_group_name_H-M   'P 1'
_cell_length_a   5.96600152
_cell_length_b   5.96600156
_cell_length_c   6.96109099
_cell_angle_alpha   126.90989202
_cell_angle_beta   126.90989119
_cell_angle_gamma   39.19462420
_symmetry_Int_Tables_number   1
_chemical_formula_structural   Dy2Si2Tc2C
_chemical_formula_sum   'Dy2 Si2 Tc2 C1'
_cell_volume   120.63756600
_cell_formula_units_Z   1
loop_
 _symmetry_equiv_pos_site_id
 _symmetry_equiv_pos_as_xyz
  1  'x, y, z'
loop_
 _atom_site_type_symbol
 _atom_site_label
 _atom_site_symmetry_multiplicity
 _atom_site_fract_x
 _atom_site_fract_y
 _atom_site_fract_z
 _atom_site_occupancy
  Dy  Dy0  1  0.430257  0.430257  0.158993  1
  Dy  Dy1  1  0.569743  0.569743  0.841006  1
  Si  Si2  1  0.855800  0.855800  0.400162  1
  Si  Si3  1  0.144199  0.144199  0.599837  1
  Tc  Tc4  1  0.206072  0.206072  0.317367  1
  Tc  Tc5  1  0.793928  0.793928  0.682633  1
  C  C6  1  0.000000  0.000000  0.000000  1
