# generated using pymatgen
data_TbEr6Co2Sn23Rh4
_symmetry_space_group_name_H-M   'P 1'
_cell_length_a   9.77650040
_cell_length_b   9.78422696
_cell_length_c   10.05139607
_cell_angle_alpha   89.99999849
_cell_angle_beta   90.04750369
_cell_angle_gamma   120.02614667
_symmetry_Int_Tables_number   1
_chemical_formula_structural   TbEr6Co2Sn23Rh4
_chemical_formula_sum   'Tb1 Er6 Co2 Sn23 Rh4'
_cell_volume   832.43872495
_cell_formula_units_Z   1
loop_
 _symmetry_equiv_pos_site_id
 _symmetry_equiv_pos_as_xyz
  1  'x, y, z'
loop_
 _atom_site_type_symbol
 _atom_site_label
 _atom_site_symmetry_multiplicity
 _atom_site_fract_x
 _atom_site_fract_y
 _atom_site_fract_z
 _atom_site_occupancy
  Tb  Tb0  1  0.000000  0.000000  0.000000  1
  Er  Er1  1  0.479027  0.521034  0.307245  1
  Er  Er2  1  0.520973  0.478966  0.692755  1
  Er  Er3  1  0.479027  0.957993  0.307245  1
  Er  Er4  1  0.520973  0.042007  0.692755  1
  Er  Er5  1  0.042286  0.521143  0.306997  1
  Er  Er6  1  0.957714  0.478857  0.693003  1
  Co  Co7  1  0.337468  0.168734  0.198609  1
  Co  Co8  1  0.662532  0.831266  0.801391  1
  Sn  Sn9  1  0.351166  0.004684  0.005018  1
  Sn  Sn10  1  0.648834  0.995316  0.994982  1
  Sn  Sn11  1  0.000000  0.351206  0.000000  1
  Sn  Sn12  1  0.000000  0.648794  0.000000  1
  Sn  Sn13  1  0.648834  0.653518  0.994982  1
  Sn  Sn14  1  0.351166  0.346482  0.005018  1
  Sn  Sn15  1  0.338804  0.669403  0.818318  1
  Sn  Sn16  1  0.661196  0.330597  0.181682  1
  Sn  Sn17  1  0.000000  0.000000  0.500000  1
  Sn  Sn18  1  0.778389  0.221675  0.456249  1
  Sn  Sn19  1  0.221611  0.778325  0.543751  1
  Sn  Sn20  1  0.778389  0.556714  0.456249  1
  Sn  Sn21  1  0.221611  0.443286  0.543751  1
  Sn  Sn22  1  0.439442  0.219721  0.450509  1
  Sn  Sn23  1  0.560558  0.780279  0.549491  1
  Sn  Sn24  1  0.333359  0.666680  0.120471  1
  Sn  Sn25  1  0.666641  0.333320  0.879529  1
  Sn  Sn26  1  0.123960  0.886534  0.277185  1
  Sn  Sn27  1  0.876040  0.113466  0.722815  1
  Sn  Sn28  1  0.123960  0.237427  0.277185  1
  Sn  Sn29  1  0.876040  0.762573  0.722815  1
  Sn  Sn30  1  0.758605  0.879303  0.282255  1
  Sn  Sn31  1  0.241395  0.120697  0.717745  1
  Rh  Rh32  1  0.831043  0.167705  0.197702  1
  Rh  Rh33  1  0.168957  0.832295  0.802298  1
  Rh  Rh34  1  0.831043  0.663338  0.197702  1
  Rh  Rh35  1  0.168957  0.336662  0.802298  1
