# generated using pymatgen
data_La3YBi2(SbO7)2
_symmetry_space_group_name_H-M   'P 1'
_cell_length_a   6.69493031
_cell_length_b   6.72923275
_cell_length_c   7.74262800
_cell_angle_alpha   90.00000000
_cell_angle_beta   90.00000000
_cell_angle_gamma   110.56194363
_symmetry_Int_Tables_number   1
_chemical_formula_structural   La3YBi2(SbO7)2
_chemical_formula_sum   'La3 Y1 Bi2 Sb2 O14'
_cell_volume   326.59670057
_cell_formula_units_Z   1
loop_
 _symmetry_equiv_pos_site_id
 _symmetry_equiv_pos_as_xyz
  1  'x, y, z'
loop_
 _atom_site_type_symbol
 _atom_site_label
 _atom_site_symmetry_multiplicity
 _atom_site_fract_x
 _atom_site_fract_y
 _atom_site_fract_z
 _atom_site_occupancy
  La  La0  1  0.004373  0.989383  0.497440  1
  La  La1  1  0.004373  0.989383  0.002560  1
  La  La2  1  0.493885  0.954794  0.750000  1
  Y  Y3  1  0.042983  0.501699  0.250000  1
  Bi  Bi4  1  0.518573  0.033852  0.250000  1
  Bi  Bi5  1  0.961714  0.481550  0.750000  1
  Sb  Sb6  1  0.496888  0.502878  0.497328  1
  Sb  Sb7  1  0.496888  0.502878  0.002672  1
  O  O8  1  0.424153  0.190924  0.530708  1
  O  O9  1  0.806571  0.557822  0.457524  1
  O  O10  1  0.424153  0.190924  0.969292  1
  O  O11  1  0.806571  0.557822  0.042476  1
  O  O12  1  0.572643  0.822803  0.466215  1
  O  O13  1  0.181731  0.456196  0.528933  1
  O  O14  1  0.572643  0.822803  0.033785  1
  O  O15  1  0.181731  0.456196  0.971067  1
  O  O16  1  0.164884  0.860473  0.250000  1
  O  O17  1  0.119263  0.835227  0.750000  1
  O  O18  1  0.867452  0.104493  0.750000  1
  O  O19  1  0.904156  0.147335  0.250000  1
  O  O20  1  0.393986  0.452011  0.250000  1
  O  O21  1  0.560380  0.588555  0.750000  1
