# generated using pymatgen
data_Lu2MgAl3SnAu2
_symmetry_space_group_name_H-M   'P 1'
_cell_length_a   7.02602002
_cell_length_b   6.98920715
_cell_length_c   4.22864800
_cell_angle_alpha   90.00000000
_cell_angle_beta   90.00000000
_cell_angle_gamma   118.18900447
_symmetry_Int_Tables_number   1
_chemical_formula_structural   Lu2MgAl3SnAu2
_chemical_formula_sum   'Lu2 Mg1 Al3 Sn1 Au2'
_cell_volume   183.02439529
_cell_formula_units_Z   1
loop_
 _symmetry_equiv_pos_site_id
 _symmetry_equiv_pos_as_xyz
  1  'x, y, z'
loop_
 _atom_site_type_symbol
 _atom_site_label
 _atom_site_symmetry_multiplicity
 _atom_site_fract_x
 _atom_site_fract_y
 _atom_site_fract_z
 _atom_site_occupancy
  Lu  Lu0  1  0.576000  0.989773  0.500000  1
  Lu  Lu1  1  0.009481  0.583276  0.500000  1
  Mg  Mg2  1  0.391210  0.415416  0.500000  1
  Al  Al3  1  0.762119  0.778173  0.000000  1
  Al  Al4  1  0.229113  0.975903  0.000000  1
  Al  Al5  1  0.020076  0.250354  0.000000  1
  Sn  Sn6  1  0.661065  0.338203  0.000000  1
  Au  Au7  1  0.341772  0.662134  0.000000  1
  Au  Au8  1  0.009164  0.006765  0.500000  1
