# generated using pymatgen
data_Dy2Ho3Bi2Ru
_symmetry_space_group_name_H-M   'P 1'
_cell_length_a   7.97104700
_cell_length_b   9.00741700
_cell_length_c   12.44917700
_cell_angle_alpha   90.00000000
_cell_angle_beta   90.00000000
_cell_angle_gamma   90.00000000
_symmetry_Int_Tables_number   1
_chemical_formula_structural   Dy2Ho3Bi2Ru
_chemical_formula_sum   'Dy8 Ho12 Bi8 Ru4'
_cell_volume   893.83278578
_cell_formula_units_Z   4
loop_
 _symmetry_equiv_pos_site_id
 _symmetry_equiv_pos_as_xyz
  1  'x, y, z'
loop_
 _atom_site_type_symbol
 _atom_site_label
 _atom_site_symmetry_multiplicity
 _atom_site_fract_x
 _atom_site_fract_y
 _atom_site_fract_z
 _atom_site_occupancy
  Dy  Dy0  1  0.343966  0.750000  0.705822  1
  Dy  Dy1  1  0.656034  0.250000  0.294178  1
  Dy  Dy2  1  0.843966  0.250000  0.794178  1
  Dy  Dy3  1  0.156034  0.750000  0.205822  1
  Dy  Dy4  1  0.879992  0.750000  0.808103  1
  Dy  Dy5  1  0.120008  0.250000  0.191897  1
  Dy  Dy6  1  0.379992  0.250000  0.691897  1
  Dy  Dy7  1  0.620008  0.750000  0.308103  1
  Ho  Ho8  1  0.676293  0.541133  0.563766  1
  Ho  Ho9  1  0.323707  0.458867  0.436234  1
  Ho  Ho10  1  0.176293  0.458867  0.936234  1
  Ho  Ho11  1  0.323707  0.041133  0.436234  1
  Ho  Ho12  1  0.823707  0.541133  0.063766  1
  Ho  Ho13  1  0.676293  0.958867  0.563766  1
  Ho  Ho14  1  0.823707  0.958867  0.063766  1
  Ho  Ho15  1  0.176293  0.041133  0.936234  1
  Ho  Ho16  1  0.053608  0.750000  0.496352  1
  Ho  Ho17  1  0.946392  0.250000  0.503648  1
  Ho  Ho18  1  0.553608  0.250000  0.003648  1
  Ho  Ho19  1  0.446392  0.750000  0.996352  1
  Bi  Bi20  1  0.570986  0.508366  0.827788  1
  Bi  Bi21  1  0.429014  0.491634  0.172212  1
  Bi  Bi22  1  0.070986  0.491634  0.672212  1
  Bi  Bi23  1  0.429014  0.008366  0.172212  1
  Bi  Bi24  1  0.929014  0.508366  0.327788  1
  Bi  Bi25  1  0.570986  0.991634  0.827788  1
  Bi  Bi26  1  0.929014  0.991634  0.327788  1
  Bi  Bi27  1  0.070986  0.008366  0.672212  1
  Ru  Ru28  1  0.072936  0.750000  0.989645  1
  Ru  Ru29  1  0.927064  0.250000  0.010355  1
  Ru  Ru30  1  0.572936  0.250000  0.510355  1
  Ru  Ru31  1  0.427064  0.750000  0.489645  1
