# generated using pymatgen
data_Tb20IrRu5Au6
_symmetry_space_group_name_H-M   'P 1'
_cell_length_a   11.19327548
_cell_length_b   11.19326220
_cell_length_c   6.43593906
_cell_angle_alpha   89.99344723
_cell_angle_beta   89.99317448
_cell_angle_gamma   91.08592004
_symmetry_Int_Tables_number   1
_chemical_formula_structural   Tb20IrRu5Au6
_chemical_formula_sum   'Tb20 Ir1 Ru5 Au6'
_cell_volume   806.20925608
_cell_formula_units_Z   1
loop_
 _symmetry_equiv_pos_site_id
 _symmetry_equiv_pos_as_xyz
  1  'x, y, z'
loop_
 _atom_site_type_symbol
 _atom_site_label
 _atom_site_symmetry_multiplicity
 _atom_site_fract_x
 _atom_site_fract_y
 _atom_site_fract_z
 _atom_site_occupancy
  Tb  Tb0  1  0.304083  0.081196  0.359486  1
  Tb  Tb1  1  0.301866  0.908312  0.863197  1
  Tb  Tb2  1  0.699333  0.093008  0.862877  1
  Tb  Tb3  1  0.696027  0.919519  0.360473  1
  Tb  Tb4  1  0.577250  0.798610  0.863815  1
  Tb  Tb5  1  0.588982  0.209626  0.376056  1
  Tb  Tb6  1  0.411788  0.790906  0.378258  1
  Tb  Tb7  1  0.424442  0.204061  0.862078  1
  Tb  Tb8  1  0.201391  0.422748  0.636186  1
  Tb  Tb9  1  0.209093  0.588211  0.121745  1
  Tb  Tb10  1  0.790376  0.411018  0.123947  1
  Tb  Tb11  1  0.795938  0.575558  0.637921  1
  Tb  Tb12  1  0.918803  0.695915  0.140513  1
  Tb  Tb13  1  0.906991  0.300667  0.637122  1
  Tb  Tb14  1  0.091689  0.698136  0.636801  1
  Tb  Tb15  1  0.080480  0.303975  0.139527  1
  Tb  Tb16  1  0.000741  0.999965  0.501214  1
  Tb  Tb17  1  0.000033  0.999259  0.998791  1
  Tb  Tb18  1  0.501771  0.501024  0.997043  1
  Tb  Tb19  1  0.498975  0.498228  0.502961  1
  Ir  Ir20  1  0.349380  0.650622  0.750002  1
  Ru  Ru21  1  0.649212  0.350800  0.750004  1
  Ru  Ru22  1  0.500194  0.000038  0.118986  1
  Ru  Ru23  1  0.500214  0.000396  0.614735  1
  Ru  Ru24  1  0.999598  0.499791  0.885249  1
  Ru  Ru25  1  0.999962  0.499804  0.381006  1
  Au  Au26  1  0.846219  0.153780  0.250002  1
  Au  Au27  1  0.843031  0.841862  0.749135  1
  Au  Au28  1  0.158137  0.156968  0.750871  1
  Au  Au29  1  0.154525  0.845476  0.249997  1
  Au  Au30  1  0.657424  0.657949  0.252325  1
  Au  Au31  1  0.342050  0.342574  0.247678  1
