# generated using pymatgen
data_Sc4Ga5Tc3
_symmetry_space_group_name_H-M   'P 1'
_cell_length_a   5.31766690
_cell_length_b   5.30986973
_cell_length_c   8.49895400
_cell_angle_alpha   90.00000000
_cell_angle_beta   90.00000000
_cell_angle_gamma   119.95150516
_symmetry_Int_Tables_number   1
_chemical_formula_structural   Sc4Ga5Tc3
_chemical_formula_sum   'Sc4 Ga5 Tc3'
_cell_volume   207.92807097
_cell_formula_units_Z   1
loop_
 _symmetry_equiv_pos_site_id
 _symmetry_equiv_pos_as_xyz
  1  'x, y, z'
loop_
 _atom_site_type_symbol
 _atom_site_label
 _atom_site_symmetry_multiplicity
 _atom_site_fract_x
 _atom_site_fract_y
 _atom_site_fract_z
 _atom_site_occupancy
  Sc  Sc0  1  0.330428  0.665215  0.442432  1
  Sc  Sc1  1  0.660435  0.330217  0.550931  1
  Sc  Sc2  1  0.660435  0.330217  0.949069  1
  Sc  Sc3  1  0.330428  0.665215  0.057568  1
  Ga  Ga4  1  0.830904  0.166542  0.250000  1
  Ga  Ga5  1  0.830904  0.664364  0.250000  1
  Ga  Ga6  1  0.331015  0.165508  0.250000  1
  Ga  Ga7  1  0.195639  0.844487  0.750000  1
  Ga  Ga8  1  0.195639  0.351151  0.750000  1
  Tc  Tc9  1  0.977356  0.988678  0.508533  1
  Tc  Tc10  1  0.977356  0.988678  0.991467  1
  Tc  Tc11  1  0.679461  0.839730  0.750000  1
