# generated using pymatgen
data_Ba8TiTc3O16
_symmetry_space_group_name_H-M   'P 1'
_cell_length_a   5.75411910
_cell_length_b   9.34237688
_cell_length_c   9.34237500
_cell_angle_alpha   87.08786773
_cell_angle_beta   71.99499109
_cell_angle_gamma   108.00657864
_symmetry_Int_Tables_number   1
_chemical_formula_structural   Ba8TiTc3O16
_chemical_formula_sum   'Ba8 Ti1 Tc3 O16'
_cell_volume   448.24547143
_cell_formula_units_Z   1
loop_
 _symmetry_equiv_pos_site_id
 _symmetry_equiv_pos_as_xyz
  1  'x, y, z'
loop_
 _atom_site_type_symbol
 _atom_site_label
 _atom_site_symmetry_multiplicity
 _atom_site_fract_x
 _atom_site_fract_y
 _atom_site_fract_z
 _atom_site_occupancy
  Ba  Ba0  1  0.249993  0.395035  0.894878  1
  Ba  Ba1  1  0.000041  0.643864  0.643881  1
  Ba  Ba2  1  0.750056  0.894978  0.395040  1
  Ba  Ba3  1  0.499990  0.146278  0.146256  1
  Ba  Ba4  1  0.000049  0.356124  0.356131  1
  Ba  Ba5  1  0.750059  0.604971  0.105018  1
  Ba  Ba6  1  0.499981  0.853739  0.853737  1
  Ba  Ba7  1  0.249995  0.105123  0.604962  1
  Ti  Ti8  1  0.499894  0.499898  0.500043  1
  Tc  Tc9  1  0.251581  0.751359  0.248650  1
  Tc  Tc10  1  0.999975  0.999951  0.000061  1
  Tc  Tc11  1  0.748426  0.248658  0.751336  1
  O  O12  1  0.250145  0.596645  0.096509  1
  O  O13  1  0.999918  0.845654  0.845759  1
  O  O14  1  0.749923  0.096570  0.596572  1
  O  O15  1  0.499991  0.352156  0.352191  1
  O  O16  1  0.000010  0.154329  0.154270  1
  O  O17  1  0.749835  0.403353  0.903491  1
  O  O18  1  0.500083  0.647866  0.647784  1
  O  O19  1  0.250054  0.903420  0.403442  1
  O  O20  1  0.875462  0.124370  0.875588  1
  O  O21  1  0.624110  0.375459  0.624564  1
  O  O22  1  0.375987  0.624565  0.375405  1
  O  O23  1  0.124482  0.875628  0.124429  1
  O  O24  1  0.373392  0.124219  0.875731  1
  O  O25  1  0.126674  0.375763  0.624277  1
  O  O26  1  0.873325  0.624232  0.375724  1
  O  O27  1  0.626567  0.875792  0.124269  1
