# generated using pymatgen
data_AcSI
_symmetry_space_group_name_H-M   'P 1'
_cell_length_a   11.95327032
_cell_length_b   11.95327018
_cell_length_c   11.95327100
_cell_angle_alpha   23.73023957
_cell_angle_beta   23.73024280
_cell_angle_gamma   23.73024049
_symmetry_Int_Tables_number   1
_chemical_formula_structural   AcSI
_chemical_formula_sum   'Ac2 S2 I2'
_cell_volume   242.95986855
_cell_formula_units_Z   2
loop_
 _symmetry_equiv_pos_site_id
 _symmetry_equiv_pos_as_xyz
  1  'x, y, z'
loop_
 _atom_site_type_symbol
 _atom_site_label
 _atom_site_symmetry_multiplicity
 _atom_site_fract_x
 _atom_site_fract_y
 _atom_site_fract_z
 _atom_site_occupancy
  Ac  Ac0  1  0.387350  0.387350  0.387350  1
  Ac  Ac1  1  0.612650  0.612650  0.612650  1
  S  S2  1  0.302073  0.302073  0.302073  1
  S  S3  1  0.697927  0.697927  0.697927  1
  I  I4  1  0.112630  0.112630  0.112630  1
  I  I5  1  0.887370  0.887370  0.887370  1
