# generated using pymatgen
data_Ac9La3(NiI3)4
_symmetry_space_group_name_H-M   'P 1'
_cell_length_a   11.16122666
_cell_length_b   11.15591739
_cell_length_c   11.17292965
_cell_angle_alpha   109.72047303
_cell_angle_beta   109.73961774
_cell_angle_gamma   108.90218040
_symmetry_Int_Tables_number   1
_chemical_formula_structural   Ac9La3(NiI3)4
_chemical_formula_sum   'Ac9 La3 Ni4 I12'
_cell_volume   1071.55606350
_cell_formula_units_Z   1
loop_
 _symmetry_equiv_pos_site_id
 _symmetry_equiv_pos_as_xyz
  1  'x, y, z'
loop_
 _atom_site_type_symbol
 _atom_site_label
 _atom_site_symmetry_multiplicity
 _atom_site_fract_x
 _atom_site_fract_y
 _atom_site_fract_z
 _atom_site_occupancy
  Ac  Ac0  1  0.459148  0.479192  0.228883  1
  Ac  Ac1  1  0.748428  0.230106  0.268362  1
  Ac  Ac2  1  0.753491  0.020954  0.481943  1
  Ac  Ac3  1  0.228452  0.460990  0.481943  1
  Ac  Ac4  1  0.269736  0.749692  0.228883  1
  Ac  Ac5  1  0.038485  0.269076  0.019066  1
  Ac  Ac6  1  0.019934  0.038256  0.268362  1
  Ac  Ac7  1  0.480582  0.749991  0.019066  1
  Ac  Ac8  1  0.479642  0.229642  0.459284  1
  La  La9  1  0.023924  0.477322  0.750881  1
  La  La10  1  0.271347  0.021347  0.042695  1
  La  La11  1  0.226957  0.273559  0.750881  1
  Ni  Ni12  1  0.250389  0.246715  0.246414  1
  Ni  Ni13  1  0.496025  0.999699  0.246414  1
  Ni  Ni14  1  0.003635  0.253635  0.507270  1
  Ni  Ni15  1  0.245542  0.495542  0.991083  1
  I  I16  1  0.242146  0.761318  0.740985  1
  I  I17  1  0.522506  0.507537  0.765294  1
  I  I18  1  0.978970  0.737992  0.979759  1
  I  I19  1  0.742788  0.257757  0.765294  1
  I  I20  1  0.998839  0.979667  0.740985  1
  I  I21  1  0.250641  0.991327  0.518999  1
  I  I22  1  0.768357  0.527671  0.518999  1
  I  I23  1  0.500788  0.241766  0.979759  1
  I  I24  1  0.766537  0.733816  0.249828  1
  I  I25  1  0.733612  0.983612  0.967223  1
  I  I26  1  0.983290  0.516011  0.249828  1
  I  I27  1  0.515808  0.765808  0.531617  1
