# generated using pymatgen
data_Dy12Si12PtRh3
_symmetry_space_group_name_H-M   'P 1'
_cell_length_a   4.23891200
_cell_length_b   10.66663840
_cell_length_c   12.36415747
_cell_angle_alpha   90.03150711
_cell_angle_beta   90.00000000
_cell_angle_gamma   90.00000000
_symmetry_Int_Tables_number   1
_chemical_formula_structural   Dy12Si12PtRh3
_chemical_formula_sum   'Dy12 Si12 Pt1 Rh3'
_cell_volume   559.04457239
_cell_formula_units_Z   1
loop_
 _symmetry_equiv_pos_site_id
 _symmetry_equiv_pos_as_xyz
  1  'x, y, z'
loop_
 _atom_site_type_symbol
 _atom_site_label
 _atom_site_symmetry_multiplicity
 _atom_site_fract_x
 _atom_site_fract_y
 _atom_site_fract_z
 _atom_site_occupancy
  Dy  Dy0  1  0.250000  0.879614  0.020848  1
  Dy  Dy1  1  0.250000  0.620681  0.520267  1
  Dy  Dy2  1  0.750000  0.121042  0.980406  1
  Dy  Dy3  1  0.750000  0.380440  0.479264  1
  Dy  Dy4  1  0.250000  0.919493  0.604228  1
  Dy  Dy5  1  0.250000  0.580170  0.104057  1
  Dy  Dy6  1  0.750000  0.079772  0.396245  1
  Dy  Dy7  1  0.750000  0.420155  0.896316  1
  Dy  Dy8  1  0.250000  0.660231  0.800690  1
  Dy  Dy9  1  0.250000  0.838957  0.300767  1
  Dy  Dy10  1  0.750000  0.339991  0.198885  1
  Dy  Dy11  1  0.750000  0.161957  0.697826  1
  Si  Si12  1  0.250000  0.016039  0.822706  1
  Si  Si13  1  0.250000  0.486442  0.322154  1
  Si  Si14  1  0.750000  0.986573  0.177545  1
  Si  Si15  1  0.750000  0.512503  0.678523  1
  Si  Si16  1  0.250000  0.247182  0.841125  1
  Si  Si17  1  0.250000  0.252973  0.341315  1
  Si  Si18  1  0.750000  0.753018  0.158763  1
  Si  Si19  1  0.750000  0.744688  0.656320  1
  Si  Si20  1  0.250000  0.199277  0.540532  1
  Si  Si21  1  0.250000  0.300802  0.041184  1
  Si  Si22  1  0.750000  0.801642  0.458618  1
  Si  Si23  1  0.750000  0.695804  0.960124  1
  Pt  Pt24  1  0.750000  0.890851  0.818295  1
  Rh  Rh25  1  0.250000  0.390365  0.682311  1
  Rh  Rh26  1  0.250000  0.109515  0.182356  1
  Rh  Rh27  1  0.750000  0.609822  0.318330  1
