# generated using pymatgen
data_Tb12PdPtRh2
_symmetry_space_group_name_H-M   'P 1'
_cell_length_a   6.38434413
_cell_length_b   7.15684404
_cell_length_c   9.65112400
_cell_angle_alpha   90.00000000
_cell_angle_beta   90.00000000
_cell_angle_gamma   89.95750899
_symmetry_Int_Tables_number   1
_chemical_formula_structural   Tb12PdPtRh2
_chemical_formula_sum   'Tb12 Pd1 Pt1 Rh2'
_cell_volume   440.97667433
_cell_formula_units_Z   1
loop_
 _symmetry_equiv_pos_site_id
 _symmetry_equiv_pos_as_xyz
  1  'x, y, z'
loop_
 _atom_site_type_symbol
 _atom_site_label
 _atom_site_symmetry_multiplicity
 _atom_site_fract_x
 _atom_site_fract_y
 _atom_site_fract_z
 _atom_site_occupancy
  Tb  Tb0  1  0.331948  0.676532  0.061574  1
  Tb  Tb1  1  0.172161  0.182632  0.438502  1
  Tb  Tb2  1  0.670653  0.321727  0.562403  1
  Tb  Tb3  1  0.827336  0.819052  0.937456  1
  Tb  Tb4  1  0.670653  0.321727  0.937597  1
  Tb  Tb5  1  0.827336  0.819052  0.562544  1
  Tb  Tb6  1  0.331948  0.676532  0.438426  1
  Tb  Tb7  1  0.172161  0.182632  0.061498  1
  Tb  Tb8  1  0.861332  0.525277  0.250000  1
  Tb  Tb9  1  0.628538  0.035849  0.250000  1
  Tb  Tb10  1  0.137031  0.472050  0.750000  1
  Tb  Tb11  1  0.368519  0.965069  0.750000  1
  Pd  Pd12  1  0.060979  0.885289  0.250000  1
  Pt  Pt13  1  0.941915  0.116285  0.750000  1
  Rh  Rh14  1  0.437985  0.382977  0.250000  1
  Rh  Rh15  1  0.559508  0.617317  0.750000  1
