# generated using pymatgen
data_TbPr19Si15Hg
_symmetry_space_group_name_H-M   'P 1'
_cell_length_a   7.97090138
_cell_length_b   7.96182529
_cell_length_c   15.33662424
_cell_angle_alpha   90.05341138
_cell_angle_beta   89.66437271
_cell_angle_gamma   89.89095750
_symmetry_Int_Tables_number   1
_chemical_formula_structural   TbPr19Si15Hg
_chemical_formula_sum   'Tb1 Pr19 Si15 Hg1'
_cell_volume   973.28812759
_cell_formula_units_Z   1
loop_
 _symmetry_equiv_pos_site_id
 _symmetry_equiv_pos_as_xyz
  1  'x, y, z'
loop_
 _atom_site_type_symbol
 _atom_site_label
 _atom_site_symmetry_multiplicity
 _atom_site_fract_x
 _atom_site_fract_y
 _atom_site_fract_z
 _atom_site_occupancy
  Tb  Tb0  1  0.309238  0.309798  0.999848  1
  Pr  Pr1  1  0.193383  0.808540  0.249464  1
  Pr  Pr2  1  0.799415  0.186812  0.752472  1
  Pr  Pr3  1  0.692980  0.690162  0.497847  1
  Pr  Pr4  1  0.374689  0.012592  0.448146  1
  Pr  Pr5  1  0.492472  0.868852  0.699254  1
  Pr  Pr6  1  0.510129  0.122842  0.197229  1
  Pr  Pr7  1  0.878392  0.489021  0.300537  1
  Pr  Pr8  1  0.119293  0.519103  0.804309  1
  Pr  Pr9  1  0.625913  0.987372  0.951174  1
  Pr  Pr10  1  0.001266  0.383385  0.547318  1
  Pr  Pr11  1  0.989869  0.624953  0.052728  1
  Pr  Pr12  1  0.129997  0.981453  0.879750  1
  Pr  Pr13  1  0.519295  0.629049  0.126291  1
  Pr  Pr14  1  0.485998  0.377387  0.626247  1
  Pr  Pr15  1  0.628745  0.519977  0.876629  1
  Pr  Pr16  1  0.373798  0.482579  0.371806  1
  Pr  Pr17  1  0.872650  0.019574  0.375634  1
  Pr  Pr18  1  0.982792  0.127308  0.123833  1
  Pr  Pr19  1  0.009652  0.860883  0.620809  1
  Si  Si20  1  0.330568  0.691723  0.953929  1
  Si  Si21  1  0.662850  0.302595  0.450406  1
  Si  Si22  1  0.695565  0.332121  0.048667  1
  Si  Si23  1  0.306386  0.669731  0.546211  1
  Si  Si24  1  0.806137  0.831666  0.202579  1
  Si  Si25  1  0.169130  0.196208  0.298086  1
  Si  Si26  1  0.833704  0.804374  0.798971  1
  Si  Si27  1  0.288168  0.925598  0.059881  1
  Si  Si28  1  0.579907  0.787945  0.309408  1
  Si  Si29  1  0.430671  0.211800  0.819128  1
  Si  Si30  1  0.785883  0.577783  0.691628  1
  Si  Si31  1  0.214400  0.419288  0.187530  1
  Si  Si32  1  0.709103  0.079209  0.559158  1
  Si  Si33  1  0.927097  0.290065  0.941806  1
  Si  Si34  1  0.080084  0.713463  0.438635  1
  Hg  Hg35  1  0.190379  0.164788  0.692652  1
