# generated using pymatgen
data_Yb5TlAg2
_symmetry_space_group_name_H-M   'P 1'
_cell_length_a   9.30242876
_cell_length_b   9.30244364
_cell_length_c   9.30340771
_cell_angle_alpha   128.61267049
_cell_angle_beta   128.61266440
_cell_angle_gamma   75.62409117
_symmetry_Int_Tables_number   1
_chemical_formula_structural   Yb5TlAg2
_chemical_formula_sum   'Yb10 Tl2 Ag4'
_cell_volume   478.22717064
_cell_formula_units_Z   2
loop_
 _symmetry_equiv_pos_site_id
 _symmetry_equiv_pos_as_xyz
  1  'x, y, z'
loop_
 _atom_site_type_symbol
 _atom_site_label
 _atom_site_symmetry_multiplicity
 _atom_site_fract_x
 _atom_site_fract_y
 _atom_site_fract_z
 _atom_site_occupancy
  Yb  Yb0  1  0.500000  0.500000  0.000000  1
  Yb  Yb1  1  0.000000  0.000000  0.000000  1
  Yb  Yb2  1  0.525569  0.025570  0.835207  1
  Yb  Yb3  1  0.190372  0.690371  0.164802  1
  Yb  Yb4  1  0.025593  0.190360  0.499999  1
  Yb  Yb5  1  0.690360  0.525594  0.500000  1
  Yb  Yb6  1  0.474431  0.974430  0.164793  1
  Yb  Yb7  1  0.809628  0.309629  0.835198  1
  Yb  Yb8  1  0.974407  0.809640  0.500001  1
  Yb  Yb9  1  0.309640  0.474406  0.500000  1
  Tl  Tl10  1  0.250020  0.249980  0.000000  1
  Tl  Tl11  1  0.749980  0.750020  0.000000  1
  Ag  Ag12  1  0.127820  0.627820  0.755631  1
  Ag  Ag13  1  0.872180  0.372180  0.244369  1
  Ag  Ag14  1  0.627819  0.872182  0.500000  1
  Ag  Ag15  1  0.372181  0.127818  0.500000  1
