# generated using pymatgen
data_La6IrRuBr6
_symmetry_space_group_name_H-M   'P 1'
_cell_length_a   10.61856173
_cell_length_b   10.61932565
_cell_length_c   10.61856158
_cell_angle_alpha   109.64334126
_cell_angle_beta   109.12459099
_cell_angle_gamma   109.64333915
_symmetry_Int_Tables_number   1
_chemical_formula_structural   La6IrRuBr6
_chemical_formula_sum   'La12 Ir2 Ru2 Br12'
_cell_volume   921.74408346
_cell_formula_units_Z   2
loop_
 _symmetry_equiv_pos_site_id
 _symmetry_equiv_pos_as_xyz
  1  'x, y, z'
loop_
 _atom_site_type_symbol
 _atom_site_label
 _atom_site_symmetry_multiplicity
 _atom_site_fract_x
 _atom_site_fract_y
 _atom_site_fract_z
 _atom_site_occupancy
  La  La0  1  0.266152  0.750000  0.233848  1
  La  La1  1  0.483848  0.750000  0.016152  1
  La  La2  1  0.233433  0.466865  0.483433  1
  La  La3  1  0.016567  0.033135  0.266567  1
  La  La4  1  0.232741  0.265463  0.748131  1
  La  La5  1  0.013818  0.481785  0.745996  1
  La  La6  1  0.482668  0.234537  0.467277  1
  La  La7  1  0.264211  0.018215  0.032034  1
  La  La8  1  0.751869  0.234537  0.267259  1
  La  La9  1  0.754004  0.018215  0.486182  1
  La  La10  1  0.467966  0.481785  0.235789  1
  La  La11  1  0.032723  0.265463  0.017332  1
  Ir  Ir12  1  0.499875  0.999749  0.249875  1
  Ir  Ir13  1  0.250125  0.500251  0.000125  1
  Ru  Ru14  1  0.999220  0.250000  0.500780  1
  Ru  Ru15  1  0.250780  0.250000  0.249220  1
  Br  Br16  1  0.249534  0.994361  0.505363  1
  Br  Br17  1  0.511002  0.505639  0.755173  1
  Br  Br18  1  0.249680  0.755003  0.744283  1
  Br  Br19  1  0.989278  0.744997  0.994677  1
  Br  Br20  1  0.994637  0.505639  0.250466  1
  Br  Br21  1  0.744827  0.994361  0.988998  1
  Br  Br22  1  0.755717  0.744997  0.250320  1
  Br  Br23  1  0.505323  0.755003  0.510722  1
  Br  Br24  1  0.505434  0.250000  0.994566  1
  Br  Br25  1  0.755903  0.511807  0.505903  1
  Br  Br26  1  0.744566  0.250000  0.755434  1
  Br  Br27  1  0.994097  0.988193  0.744097  1
