# generated using pymatgen
data_Ho8Ga12AgIr3
_symmetry_space_group_name_H-M   'P 1'
_cell_length_a   7.07340400
_cell_length_b   8.87350856
_cell_length_c   8.87350900
_cell_angle_alpha   119.99999790
_cell_angle_beta   90.00000000
_cell_angle_gamma   90.00000000
_symmetry_Int_Tables_number   1
_chemical_formula_structural   Ho8Ga12AgIr3
_chemical_formula_sum   'Ho8 Ga12 Ag1 Ir3'
_cell_volume   482.33621548
_cell_formula_units_Z   1
loop_
 _symmetry_equiv_pos_site_id
 _symmetry_equiv_pos_as_xyz
  1  'x, y, z'
loop_
 _atom_site_type_symbol
 _atom_site_label
 _atom_site_symmetry_multiplicity
 _atom_site_fract_x
 _atom_site_fract_y
 _atom_site_fract_z
 _atom_site_occupancy
  Ho  Ho0  1  0.756975  0.000000  0.000000  1
  Ho  Ho1  1  0.250924  0.000000  0.000000  1
  Ho  Ho2  1  0.748672  0.470748  0.529252  1
  Ho  Ho3  1  0.243968  0.517376  0.482624  1
  Ho  Ho4  1  0.748672  0.058505  0.529252  1
  Ho  Ho5  1  0.243968  0.965247  0.482624  1
  Ho  Ho6  1  0.748672  0.470748  0.941495  1
  Ho  Ho7  1  0.243968  0.517376  0.034753  1
  Ga  Ga8  1  0.947350  0.829115  0.170885  1
  Ga  Ga9  1  0.045533  0.168476  0.831524  1
  Ga  Ga10  1  0.947350  0.341772  0.170885  1
  Ga  Ga11  1  0.452043  0.168252  0.831748  1
  Ga  Ga12  1  0.045533  0.663046  0.831524  1
  Ga  Ga13  1  0.544427  0.836299  0.163701  1
  Ga  Ga14  1  0.947350  0.829115  0.658228  1
  Ga  Ga15  1  0.452043  0.663496  0.831748  1
  Ga  Ga16  1  0.045533  0.168476  0.336954  1
  Ga  Ga17  1  0.544427  0.327401  0.163701  1
  Ga  Ga18  1  0.452043  0.168252  0.336504  1
  Ga  Ga19  1  0.544427  0.836299  0.672599  1
  Ag  Ag20  1  0.561475  0.666667  0.333333  1
  Ir  Ir21  1  0.985935  0.666667  0.333333  1
  Ir  Ir22  1  0.031662  0.333333  0.666667  1
  Ir  Ir23  1  0.467047  0.333333  0.666667  1
