# generated using pymatgen
data_Th2UMnFeSi7
_symmetry_space_group_name_H-M   'P 1'
_cell_length_a   12.40356132
_cell_length_b   12.40356103
_cell_length_c   4.13145400
_cell_angle_alpha   90.00000000
_cell_angle_beta   90.00000000
_cell_angle_gamma   160.76158520
_symmetry_Int_Tables_number   1
_chemical_formula_structural   Th2UMnFeSi7
_chemical_formula_sum   'Th2 U1 Mn1 Fe1 Si7'
_cell_volume   209.43573673
_cell_formula_units_Z   1
loop_
 _symmetry_equiv_pos_site_id
 _symmetry_equiv_pos_as_xyz
  1  'x, y, z'
loop_
 _atom_site_type_symbol
 _atom_site_label
 _atom_site_symmetry_multiplicity
 _atom_site_fract_x
 _atom_site_fract_y
 _atom_site_fract_z
 _atom_site_occupancy
  Th  Th0  1  0.317955  0.682045  0.000000  1
  Th  Th1  1  0.682787  0.317213  0.000000  1
  U  U2  1  0.000601  0.999399  0.500000  1
  Mn  Mn3  1  0.123309  0.876691  0.500000  1
  Fe  Fe4  1  0.876315  0.123685  0.500000  1
  Si  Si5  1  0.220916  0.779084  0.500000  1
  Si  Si6  1  0.779162  0.220838  0.500000  1
  Si  Si7  1  0.083433  0.916567  0.000000  1
  Si  Si8  1  0.916497  0.083503  0.000000  1
  Si  Si9  1  0.416526  0.583474  0.500000  1
  Si  Si10  1  0.498375  0.501625  0.000000  1
  Si  Si11  1  0.584124  0.415876  0.500000  1
