# generated using pymatgen
data_Sm2Ga3Si(PtRh)2
_symmetry_space_group_name_H-M   'P 1'
_cell_length_a   4.23141400
_cell_length_b   4.23141400
_cell_length_c   10.31219300
_cell_angle_alpha   90.00000000
_cell_angle_beta   90.00000000
_cell_angle_gamma   90.00000000
_symmetry_Int_Tables_number   1
_chemical_formula_structural   Sm2Ga3Si(PtRh)2
_chemical_formula_sum   'Sm2 Ga3 Si1 Pt2 Rh2'
_cell_volume   184.63841774
_cell_formula_units_Z   1
loop_
 _symmetry_equiv_pos_site_id
 _symmetry_equiv_pos_as_xyz
  1  'x, y, z'
loop_
 _atom_site_type_symbol
 _atom_site_label
 _atom_site_symmetry_multiplicity
 _atom_site_fract_x
 _atom_site_fract_y
 _atom_site_fract_z
 _atom_site_occupancy
  Sm  Sm0  1  0.000000  0.500000  0.754171  1
  Sm  Sm1  1  0.500000  0.000000  0.250144  1
  Ga  Ga2  1  0.000000  0.500000  0.120412  1
  Ga  Ga3  1  0.500000  0.500000  0.502918  1
  Ga  Ga4  1  0.000000  0.000000  0.502918  1
  Si  Si5  1  0.500000  0.000000  0.880418  1
  Pt  Pt6  1  0.500000  0.000000  0.647366  1
  Pt  Pt7  1  0.000000  0.500000  0.362213  1
  Rh  Rh8  1  0.000000  0.000000  0.989719  1
  Rh  Rh9  1  0.500000  0.500000  0.989719  1
