# generated using pymatgen
data_YEr3FeSi4Ir
_symmetry_space_group_name_H-M   'P 1'
_cell_length_a   5.62577697
_cell_length_b   5.62577641
_cell_length_c   9.95302387
_cell_angle_alpha   63.19901154
_cell_angle_beta   63.19901336
_cell_angle_gamma   43.39943098
_symmetry_Int_Tables_number   1
_chemical_formula_structural   YEr3FeSi4Ir
_chemical_formula_sum   'Y1 Er3 Fe1 Si4 Ir1'
_cell_volume   189.24152581
_cell_formula_units_Z   1
loop_
 _symmetry_equiv_pos_site_id
 _symmetry_equiv_pos_as_xyz
  1  'x, y, z'
loop_
 _atom_site_type_symbol
 _atom_site_label
 _atom_site_symmetry_multiplicity
 _atom_site_fract_x
 _atom_site_fract_y
 _atom_site_fract_z
 _atom_site_occupancy
  Y  Y0  1  0.186498  0.186498  0.891229  1
  Er  Er1  1  0.004673  0.004673  0.323562  1
  Er  Er2  1  0.998037  0.998037  0.672968  1
  Er  Er3  1  0.813731  0.813731  0.108386  1
  Fe  Fe4  1  0.272330  0.272330  0.377888  1
  Si  Si5  1  0.650818  0.650818  0.430630  1
  Si  Si6  1  0.359767  0.359767  0.557871  1
  Si  Si7  1  0.499517  0.499517  0.129640  1
  Si  Si8  1  0.487343  0.487343  0.879769  1
  Ir  Ir9  1  0.727287  0.727287  0.628057  1
