# generated using pymatgen
data_CoCu2(TcO4)6
_symmetry_space_group_name_H-M   'P 1'
_cell_length_a   9.84662283
_cell_length_b   9.84662251
_cell_length_c   9.84662300
_cell_angle_alpha   55.74143715
_cell_angle_beta   55.74144546
_cell_angle_gamma   55.74145093
_symmetry_Int_Tables_number   1
_chemical_formula_structural   CoCu2(TcO4)6
_chemical_formula_sum   'Co1 Cu2 Tc6 O24'
_cell_volume   608.38925262
_cell_formula_units_Z   1
loop_
 _symmetry_equiv_pos_site_id
 _symmetry_equiv_pos_as_xyz
  1  'x, y, z'
loop_
 _atom_site_type_symbol
 _atom_site_label
 _atom_site_symmetry_multiplicity
 _atom_site_fract_x
 _atom_site_fract_y
 _atom_site_fract_z
 _atom_site_occupancy
  Co  Co0  1  0.850870  0.850870  0.850870  1
  Cu  Cu1  1  0.356925  0.356925  0.356925  1
  Cu  Cu2  1  0.645411  0.645411  0.645411  1
  Tc  Tc3  1  0.035695  0.479372  0.735427  1
  Tc  Tc4  1  0.479372  0.735427  0.035695  1
  Tc  Tc5  1  0.735427  0.035695  0.479372  1
  Tc  Tc6  1  0.249695  0.958286  0.543115  1
  Tc  Tc7  1  0.543115  0.249695  0.958286  1
  Tc  Tc8  1  0.958286  0.543115  0.249695  1
  O  O9  1  0.134088  0.504709  0.286160  1
  O  O10  1  0.286160  0.134088  0.504709  1
  O  O11  1  0.999712  0.331822  0.946593  1
  O  O12  1  0.504709  0.286160  0.134088  1
  O  O13  1  0.009492  0.679526  0.724265  1
  O  O14  1  0.244801  0.389021  0.595543  1
  O  O15  1  0.389021  0.595543  0.244801  1
  O  O16  1  0.331822  0.946593  0.999712  1
  O  O17  1  0.595543  0.244801  0.389021  1
  O  O18  1  0.031731  0.967206  0.691127  1
  O  O19  1  0.289436  0.966313  0.346230  1
  O  O20  1  0.346230  0.289436  0.966313  1
  O  O21  1  0.679526  0.724265  0.009492  1
  O  O22  1  0.724265  0.009492  0.679526  1
  O  O23  1  0.946593  0.999712  0.331822  1
  O  O24  1  0.397788  0.759397  0.634354  1
  O  O25  1  0.691127  0.031731  0.967206  1
  O  O26  1  0.634354  0.397788  0.759397  1
  O  O27  1  0.759397  0.634354  0.397788  1
  O  O28  1  0.966313  0.346230  0.289436  1
  O  O29  1  0.521227  0.661523  0.885496  1
  O  O30  1  0.967206  0.691127  0.031731  1
  O  O31  1  0.661523  0.885496  0.521227  1
  O  O32  1  0.885496  0.521227  0.661523  1
