# generated using pymatgen
data_Lu2Th(InRh)3
_symmetry_space_group_name_H-M   'P 1'
_cell_length_a   7.55368448
_cell_length_b   7.73922259
_cell_length_c   3.85443500
_cell_angle_alpha   90.00000000
_cell_angle_beta   90.00000000
_cell_angle_gamma   120.81590061
_symmetry_Int_Tables_number   1
_chemical_formula_structural   Lu2Th(InRh)3
_chemical_formula_sum   'Lu2 Th1 In3 Rh3'
_cell_volume   193.51646519
_cell_formula_units_Z   1
loop_
 _symmetry_equiv_pos_site_id
 _symmetry_equiv_pos_as_xyz
  1  'x, y, z'
loop_
 _atom_site_type_symbol
 _atom_site_label
 _atom_site_symmetry_multiplicity
 _atom_site_fract_x
 _atom_site_fract_y
 _atom_site_fract_z
 _atom_site_occupancy
  Lu  Lu0  1  0.594486  0.592281  0.500000  1
  Lu  Lu1  1  0.405514  0.997794  0.500000  1
  Th  Th2  1  0.000000  0.418774  0.500000  1
  In  In3  1  0.271702  0.256773  0.000000  1
  In  In4  1  0.000000  0.758942  0.000000  1
  In  In5  1  0.728298  0.985070  0.000000  1
  Rh  Rh6  1  0.316322  0.649605  0.000000  1
  Rh  Rh7  1  0.000000  0.007480  0.500000  1
  Rh  Rh8  1  0.683678  0.333282  0.000000  1
