# generated using pymatgen
data_Dy3Ho2P12Ru6Rh13
_symmetry_space_group_name_H-M   'P 1'
_cell_length_a   12.64581631
_cell_length_b   12.65364719
_cell_length_c   3.93630800
_cell_angle_alpha   90.00000000
_cell_angle_beta   90.00000000
_cell_angle_gamma   120.09763923
_symmetry_Int_Tables_number   1
_chemical_formula_structural   Dy3Ho2P12Ru6Rh13
_chemical_formula_sum   'Dy3 Ho2 P12 Ru6 Rh13'
_cell_volume   544.94686831
_cell_formula_units_Z   1
loop_
 _symmetry_equiv_pos_site_id
 _symmetry_equiv_pos_as_xyz
  1  'x, y, z'
loop_
 _atom_site_type_symbol
 _atom_site_label
 _atom_site_symmetry_multiplicity
 _atom_site_fract_x
 _atom_site_fract_y
 _atom_site_fract_z
 _atom_site_occupancy
  Dy  Dy0  1  0.668588  0.332070  0.000000  1
  Dy  Dy1  1  0.332620  0.667345  0.000000  1
  Dy  Dy2  1  0.999579  0.813425  0.500000  1
  Ho  Ho3  1  0.814065  0.001350  0.500000  1
  Ho  Ho4  1  0.184847  0.186988  0.500000  1
  P  P5  1  0.635964  0.999600  0.000000  1
  P  P6  1  0.364394  0.364883  0.000000  1
  P  P7  1  0.000396  0.633538  0.000000  1
  P  P8  1  0.688148  0.518878  0.500000  1
  P  P9  1  0.832279  0.310145  0.500000  1
  P  P10  1  0.316347  0.834026  0.500000  1
  P  P11  1  0.518642  0.690740  0.500000  1
  P  P12  1  0.180560  0.999892  0.000000  1
  P  P13  1  0.818822  0.818482  0.000000  1
  P  P14  1  0.996512  0.178763  0.000000  1
  P  P15  1  0.479120  0.167737  0.500000  1
  P  P16  1  0.165182  0.480304  0.500000  1
  Ru  Ru17  1  0.513781  0.874014  0.500000  1
  Ru  Ru18  1  0.715431  0.715028  0.500000  1
  Ru  Ru19  1  0.000684  0.284456  0.500000  1
  Ru  Ru20  1  0.003459  0.451861  0.000000  1
  Ru  Ru21  1  0.818106  0.195011  0.000000  1
  Ru  Ru22  1  0.281664  0.999345  0.500000  1
  Rh  Rh23  1  0.624271  0.804861  0.000000  1
  Rh  Rh24  1  0.181776  0.374629  0.000000  1
  Rh  Rh25  1  0.375215  0.182094  0.000000  1
  Rh  Rh26  1  0.194932  0.817720  0.000000  1
  Rh  Rh27  1  0.804090  0.621204  0.000000  1
  Rh  Rh28  1  0.872615  0.509901  0.500000  1
  Rh  Rh29  1  0.491111  0.359965  0.500000  1
  Rh  Rh30  1  0.637599  0.129859  0.500000  1
  Rh  Rh31  1  0.129279  0.640515  0.500000  1
  Rh  Rh32  1  0.358663  0.492177  0.500000  1
  Rh  Rh33  1  0.999606  0.999187  0.000000  1
  Rh  Rh34  1  0.454182  0.002121  0.000000  1
  Rh  Rh35  1  0.547471  0.547886  0.000000  1
