# generated using pymatgen
data_Sc5SeS5
_symmetry_space_group_name_H-M   'P 1'
_cell_length_a   6.41058940
_cell_length_b   7.44393598
_cell_length_c   6.41036346
_cell_angle_alpha   73.01361433
_cell_angle_beta   60.06685684
_cell_angle_gamma   106.95875230
_symmetry_Int_Tables_number   1
_chemical_formula_structural   Sc5SeS5
_chemical_formula_sum   'Sc5 Se1 S5'
_cell_volume   215.33918430
_cell_formula_units_Z   1
loop_
 _symmetry_equiv_pos_site_id
 _symmetry_equiv_pos_as_xyz
  1  'x, y, z'
loop_
 _atom_site_type_symbol
 _atom_site_label
 _atom_site_symmetry_multiplicity
 _atom_site_fract_x
 _atom_site_fract_y
 _atom_site_fract_z
 _atom_site_occupancy
  Sc  Sc0  1  0.675172  0.028848  0.804523  1
  Sc  Sc1  1  0.010027  0.028601  0.137915  1
  Sc  Sc2  1  0.014527  0.516503  0.137548  1
  Sc  Sc3  1  0.347755  0.023864  0.465279  1
  Sc  Sc4  1  0.675743  0.517788  0.798043  1
  Se  Se5  1  0.821176  0.759414  0.992223  1
  S  S6  1  0.850127  0.277844  0.963185  1
  S  S7  1  0.512845  0.777188  0.637460  1
  S  S8  1  0.175753  0.776087  0.301365  1
  S  S9  1  0.177825  0.271004  0.305038  1
  S  S10  1  0.508085  0.270859  0.635321  1
