# generated using pymatgen
data_Nd6EuReBr12
_symmetry_space_group_name_H-M   'P 1'
_cell_length_a   9.55299273
_cell_length_b   9.55299370
_cell_length_c   9.55299400
_cell_angle_alpha   106.60666434
_cell_angle_beta   106.60666608
_cell_angle_gamma   106.60666398
_symmetry_Int_Tables_number   1
_chemical_formula_structural   Nd6EuReBr12
_chemical_formula_sum   'Nd6 Eu1 Re1 Br12'
_cell_volume   733.69693418
_cell_formula_units_Z   1
loop_
 _symmetry_equiv_pos_site_id
 _symmetry_equiv_pos_as_xyz
  1  'x, y, z'
loop_
 _atom_site_type_symbol
 _atom_site_label
 _atom_site_symmetry_multiplicity
 _atom_site_fract_x
 _atom_site_fract_y
 _atom_site_fract_z
 _atom_site_occupancy
  Nd  Nd0  1  0.396935  0.476019  0.185320  1
  Nd  Nd1  1  0.185320  0.396935  0.476019  1
  Nd  Nd2  1  0.476019  0.185320  0.396935  1
  Nd  Nd3  1  0.603065  0.523981  0.814680  1
  Nd  Nd4  1  0.814680  0.603065  0.523981  1
  Nd  Nd5  1  0.523981  0.814680  0.603065  1
  Eu  Eu6  1  0.000000  0.000000  0.000000  1
  Re  Re7  1  0.500000  0.500000  0.500000  1
  Br  Br8  1  0.047015  0.346362  0.125852  1
  Br  Br9  1  0.125852  0.047015  0.346362  1
  Br  Br10  1  0.346362  0.125852  0.047015  1
  Br  Br11  1  0.952985  0.653638  0.874148  1
  Br  Br12  1  0.874148  0.952985  0.653638  1
  Br  Br13  1  0.653638  0.874148  0.952985  1
  Br  Br14  1  0.722341  0.573591  0.183960  1
  Br  Br15  1  0.183960  0.722341  0.573591  1
  Br  Br16  1  0.573591  0.183960  0.722341  1
  Br  Br17  1  0.277659  0.426409  0.816040  1
  Br  Br18  1  0.816040  0.277659  0.426409  1
  Br  Br19  1  0.426409  0.816040  0.277659  1
