# generated using pymatgen
data_TmTe28
_symmetry_space_group_name_H-M   'P 1'
_cell_length_a   11.94840564
_cell_length_b   10.77129257
_cell_length_c   12.42422500
_cell_angle_alpha   114.70317048
_cell_angle_beta   123.63460921
_cell_angle_gamma   88.59305117
_symmetry_Int_Tables_number   1
_chemical_formula_structural   TmTe28
_chemical_formula_sum   'Tm1 Te28'
_cell_volume   1163.32830564
_cell_formula_units_Z   1
loop_
 _symmetry_equiv_pos_site_id
 _symmetry_equiv_pos_as_xyz
  1  'x, y, z'
loop_
 _atom_site_type_symbol
 _atom_site_label
 _atom_site_symmetry_multiplicity
 _atom_site_fract_x
 _atom_site_fract_y
 _atom_site_fract_z
 _atom_site_occupancy
  Tm  Tm0  1  0.500000  0.000000  0.000000  1
  Te  Te1  1  0.239159  0.105368  0.429152  1
  Te  Te2  1  0.605203  0.156179  0.434009  1
  Te  Te3  1  0.276106  0.265531  0.888535  1
  Te  Te4  1  0.912112  0.303671  0.887557  1
  Te  Te5  1  0.209412  0.555943  0.726161  1
  Te  Te6  1  0.802385  0.528710  0.634404  1
  Te  Te7  1  0.394797  0.843821  0.565991  1
  Te  Te8  1  0.760841  0.894632  0.570848  1
  Te  Te9  1  0.087888  0.696329  0.112443  1
  Te  Te10  1  0.723894  0.734469  0.111465  1
  Te  Te11  1  0.197615  0.471290  0.365596  1
  Te  Te12  1  0.790588  0.444057  0.273839  1
  Te  Te13  1  0.762901  0.073316  0.845547  1
  Te  Te14  1  0.225371  0.975258  0.721213  1
  Te  Te15  1  0.811049  0.681904  0.899418  1
  Te  Te16  1  0.377684  0.770343  0.031365  1
  Te  Te17  1  0.513502  0.265074  0.234657  1
  Te  Te18  1  0.042698  0.274742  0.360090  1
  Te  Te19  1  0.774629  0.024742  0.278787  1
  Te  Te20  1  0.237099  0.926684  0.154453  1
  Te  Te21  1  0.622316  0.229657  0.968635  1
  Te  Te22  1  0.188951  0.318096  0.100582  1
  Te  Te23  1  0.957302  0.725258  0.639910  1
  Te  Te24  1  0.486498  0.734926  0.765343  1
  Te  Te25  1  0.044280  0.380129  0.736430  1
  Te  Te26  1  0.499050  0.295308  0.590237  1
  Te  Te27  1  0.500950  0.704692  0.409763  1
  Te  Te28  1  0.955720  0.619871  0.263570  1
