# generated using pymatgen
data_KZnCrF6
_symmetry_space_group_name_H-M   'P 1'
_cell_length_a   10.03188100
_cell_length_b   7.00625488
_cell_length_c   7.39898732
_cell_angle_alpha   89.20693519
_cell_angle_beta   90.00000000
_cell_angle_gamma   90.00000000
_symmetry_Int_Tables_number   1
_chemical_formula_structural   KZnCrF6
_chemical_formula_sum   'K4 Zn4 Cr4 F24'
_cell_volume   519.99477884
_cell_formula_units_Z   4
loop_
 _symmetry_equiv_pos_site_id
 _symmetry_equiv_pos_as_xyz
  1  'x, y, z'
loop_
 _atom_site_type_symbol
 _atom_site_label
 _atom_site_symmetry_multiplicity
 _atom_site_fract_x
 _atom_site_fract_y
 _atom_site_fract_z
 _atom_site_occupancy
  K  K0  1  0.114287  0.498354  0.240712  1
  K  K1  1  0.614287  0.001646  0.759288  1
  K  K2  1  0.885713  0.501646  0.759288  1
  K  K3  1  0.385713  0.998354  0.240712  1
  Zn  Zn4  1  0.728251  0.186598  0.251885  1
  Zn  Zn5  1  0.228251  0.313402  0.748115  1
  Zn  Zn6  1  0.271749  0.813402  0.748115  1
  Zn  Zn7  1  0.771749  0.686598  0.251885  1
  Cr  Cr8  1  0.000000  0.000000  0.500000  1
  Cr  Cr9  1  0.500000  0.500000  0.500000  1
  Cr  Cr10  1  0.000000  0.000000  0.000000  1
  Cr  Cr11  1  0.500000  0.500000  0.000000  1
  F  F12  1  0.826564  0.119586  0.994648  1
  F  F13  1  0.326564  0.380414  0.005352  1
  F  F14  1  0.173436  0.880414  0.005352  1
  F  F15  1  0.673436  0.619586  0.994648  1
  F  F16  1  0.179320  0.897839  0.499792  1
  F  F17  1  0.679320  0.602161  0.500208  1
  F  F18  1  0.820680  0.102161  0.500208  1
  F  F19  1  0.320680  0.397839  0.499792  1
  F  F20  1  0.663390  0.919391  0.244380  1
  F  F21  1  0.163390  0.580609  0.755620  1
  F  F22  1  0.336610  0.080609  0.755620  1
  F  F23  1  0.836610  0.419391  0.244380  1
  F  F24  1  0.977823  0.915857  0.750823  1
  F  F25  1  0.477823  0.584143  0.249177  1
  F  F26  1  0.022177  0.084143  0.249177  1
  F  F27  1  0.522177  0.415857  0.750823  1
  F  F28  1  0.922658  0.755939  0.067457  1
  F  F29  1  0.422658  0.744061  0.932543  1
  F  F30  1  0.077342  0.244061  0.932543  1
  F  F31  1  0.577342  0.255939  0.067457  1
  F  F32  1  0.430927  0.747723  0.568276  1
  F  F33  1  0.930927  0.752277  0.431724  1
  F  F34  1  0.569073  0.252277  0.431724  1
  F  F35  1  0.069073  0.247723  0.568276  1
