# generated using pymatgen
data_Ga2TeSeBr14
_symmetry_space_group_name_H-M   'P 1'
_cell_length_a   6.81655705
_cell_length_b   7.08852374
_cell_length_c   15.47554920
_cell_angle_alpha   76.39781420
_cell_angle_beta   90.07199095
_cell_angle_gamma   90.55004185
_symmetry_Int_Tables_number   1
_chemical_formula_structural   Ga2TeSeBr14
_chemical_formula_sum   'Ga2 Te1 Se1 Br14'
_cell_volume   726.76085931
_cell_formula_units_Z   1
loop_
 _symmetry_equiv_pos_site_id
 _symmetry_equiv_pos_as_xyz
  1  'x, y, z'
loop_
 _atom_site_type_symbol
 _atom_site_label
 _atom_site_symmetry_multiplicity
 _atom_site_fract_x
 _atom_site_fract_y
 _atom_site_fract_z
 _atom_site_occupancy
  Ga  Ga0  1  0.999417  0.342436  0.498514  1
  Ga  Ga1  1  0.007307  0.333819  0.003801  1
  Te  Te2  1  0.586260  0.060810  0.656329  1
  Se  Se3  1  0.403712  0.052016  0.160369  1
  Br  Br4  1  0.601434  0.169708  0.263314  1
  Br  Br5  1  0.384330  0.175513  0.769794  1
  Br  Br6  1  0.125085  0.015218  0.008388  1
  Br  Br7  1  0.880366  0.024069  0.500524  1
  Br  Br8  1  0.132872  0.400142  0.138466  1
  Br  Br9  1  0.881271  0.414139  0.632763  1
  Br  Br10  1  0.145470  0.549837  0.879652  1
  Br  Br11  1  0.867535  0.560909  0.374021  1
  Br  Br12  1  0.662813  0.357537  0.999333  1
  Br  Br13  1  0.345364  0.361422  0.493626  1
  Br  Br14  1  0.372688  0.782849  0.633415  1
  Br  Br15  1  0.605892  0.802430  0.131944  1
  Br  Br16  1  0.813894  0.851638  0.766234  1
  Br  Br17  1  0.184290  0.851009  0.263257  1
