# generated using pymatgen
data_LiPr4(Ga2Pt)5
_symmetry_space_group_name_H-M   'P 1'
_cell_length_a   8.66505193
_cell_length_b   8.66505132
_cell_length_c   8.66505000
_cell_angle_alpha   139.49951418
_cell_angle_beta   106.46361379
_cell_angle_gamma   87.48924266
_symmetry_Int_Tables_number   1
_chemical_formula_structural   LiPr4(Ga2Pt)5
_chemical_formula_sum   'Li1 Pr4 Ga10 Pt5'
_cell_volume   389.50939138
_cell_formula_units_Z   1
loop_
 _symmetry_equiv_pos_site_id
 _symmetry_equiv_pos_as_xyz
  1  'x, y, z'
loop_
 _atom_site_type_symbol
 _atom_site_label
 _atom_site_symmetry_multiplicity
 _atom_site_fract_x
 _atom_site_fract_y
 _atom_site_fract_z
 _atom_site_occupancy
  Li  Li0  1  0.000000  0.750000  0.750000  1
  Pr  Pr1  1  0.862786  0.630099  0.224839  1
  Pr  Pr2  1  0.137214  0.362054  0.767315  1
  Pr  Pr3  1  0.405261  0.137946  0.275161  1
  Pr  Pr4  1  0.594739  0.869901  0.732685  1
  Ga  Ga5  1  0.500000  0.750000  0.250000  1
  Ga  Ga6  1  0.500000  0.250000  0.750000  1
  Ga  Ga7  1  0.220736  0.970736  0.750000  1
  Ga  Ga8  1  0.779264  0.529264  0.750000  1
  Ga  Ga9  1  0.782881  0.032881  0.250000  1
  Ga  Ga10  1  0.217119  0.467119  0.250000  1
  Ga  Ga11  1  0.052581  0.891804  0.150619  1
  Ga  Ga12  1  0.947419  0.098038  0.839223  1
  Ga  Ga13  1  0.741184  0.401962  0.349381  1
  Ga  Ga14  1  0.258816  0.608196  0.660777  1
  Pt  Pt15  1  0.000000  0.250000  0.250000  1
  Pt  Pt16  1  0.252456  0.856057  0.388046  1
  Pt  Pt17  1  0.747544  0.135588  0.603599  1
  Pt  Pt18  1  0.468011  0.364412  0.111954  1
  Pt  Pt19  1  0.531989  0.643943  0.896401  1
