# generated using pymatgen
data_Th6In(P3Rh5)4
_symmetry_space_group_name_H-M   'P 1'
_cell_length_a   13.65552400
_cell_length_b   13.65552291
_cell_length_c   3.96786500
_cell_angle_alpha   90.00000000
_cell_angle_beta   90.00000000
_cell_angle_gamma   119.99999781
_symmetry_Int_Tables_number   1
_chemical_formula_structural   Th6In(P3Rh5)4
_chemical_formula_sum   'Th6 In1 P12 Rh20'
_cell_volume   640.77304436
_cell_formula_units_Z   1
loop_
 _symmetry_equiv_pos_site_id
 _symmetry_equiv_pos_as_xyz
  1  'x, y, z'
loop_
 _atom_site_type_symbol
 _atom_site_label
 _atom_site_symmetry_multiplicity
 _atom_site_fract_x
 _atom_site_fract_y
 _atom_site_fract_z
 _atom_site_occupancy
  Th  Th0  1  0.528181  0.717802  0.252548  1
  Th  Th1  1  0.282198  0.810378  0.252548  1
  Th  Th2  1  0.189622  0.471819  0.252548  1
  Th  Th3  1  0.471819  0.282198  0.747452  1
  Th  Th4  1  0.717802  0.189622  0.747452  1
  Th  Th5  1  0.810378  0.528181  0.747452  1
  In  In6  1  0.000000  0.000000  0.000000  1
  P  P7  1  0.524509  0.136468  0.247569  1
  P  P8  1  0.863532  0.388042  0.247569  1
  P  P9  1  0.611958  0.475491  0.247569  1
  P  P10  1  0.949587  0.719622  0.242204  1
  P  P11  1  0.280378  0.229965  0.242204  1
  P  P12  1  0.770035  0.050413  0.242204  1
  P  P13  1  0.388042  0.524509  0.752431  1
  P  P14  1  0.475491  0.863532  0.752431  1
  P  P15  1  0.136468  0.611958  0.752431  1
  P  P16  1  0.719622  0.770035  0.757796  1
  P  P17  1  0.229965  0.949587  0.757796  1
  P  P18  1  0.050413  0.280378  0.757796  1
  Rh  Rh19  1  0.333333  0.666667  0.746288  1
  Rh  Rh20  1  0.919928  0.252690  0.239967  1
  Rh  Rh21  1  0.747310  0.667239  0.239967  1
  Rh  Rh22  1  0.332761  0.080072  0.239967  1
  Rh  Rh23  1  0.438142  0.020693  0.746247  1
  Rh  Rh24  1  0.979307  0.417449  0.746247  1
  Rh  Rh25  1  0.582551  0.561858  0.746247  1
  Rh  Rh26  1  0.666667  0.333333  0.253712  1
  Rh  Rh27  1  0.099717  0.208627  0.272669  1
  Rh  Rh28  1  0.791373  0.891090  0.272669  1
  Rh  Rh29  1  0.108910  0.900283  0.272669  1
  Rh  Rh30  1  0.020693  0.582551  0.253753  1
  Rh  Rh31  1  0.417449  0.438142  0.253753  1
  Rh  Rh32  1  0.561858  0.979307  0.253753  1
  Rh  Rh33  1  0.667239  0.919928  0.760033  1
  Rh  Rh34  1  0.080072  0.747310  0.760033  1
  Rh  Rh35  1  0.252690  0.332761  0.760033  1
  Rh  Rh36  1  0.900283  0.791373  0.727331  1
  Rh  Rh37  1  0.208627  0.108910  0.727331  1
  Rh  Rh38  1  0.891090  0.099717  0.727331  1
