# generated using pymatgen
data_Er16MgIn3CuNi3
_symmetry_space_group_name_H-M   'P 1'
_cell_length_a   9.55690413
_cell_length_b   9.52775271
_cell_length_c   9.52775348
_cell_angle_alpha   59.69516335
_cell_angle_beta   59.91741677
_cell_angle_gamma   59.91741694
_symmetry_Int_Tables_number   1
_chemical_formula_structural   Er16MgIn3CuNi3
_chemical_formula_sum   'Er16 Mg1 In3 Cu1 Ni3'
_cell_volume   611.26840590
_cell_formula_units_Z   1
loop_
 _symmetry_equiv_pos_site_id
 _symmetry_equiv_pos_as_xyz
  1  'x, y, z'
loop_
 _atom_site_type_symbol
 _atom_site_label
 _atom_site_symmetry_multiplicity
 _atom_site_fract_x
 _atom_site_fract_y
 _atom_site_fract_z
 _atom_site_occupancy
  Er  Er0  1  0.187150  0.815900  0.815900  1
  Er  Er1  1  0.813459  0.188198  0.188198  1
  Er  Er2  1  0.816639  0.185452  0.815002  1
  Er  Er3  1  0.188169  0.813530  0.187928  1
  Er  Er4  1  0.816639  0.815002  0.185452  1
  Er  Er5  1  0.188169  0.187928  0.813530  1
  Er  Er6  1  0.593358  0.594379  0.594379  1
  Er  Er7  1  0.601705  0.601639  0.204803  1
  Er  Er8  1  0.601705  0.204803  0.601639  1
  Er  Er9  1  0.198230  0.603263  0.603263  1
  Er  Er10  1  0.055485  0.438360  0.438360  1
  Er  Er11  1  0.436640  0.063429  0.063429  1
  Er  Er12  1  0.437077  0.057198  0.436185  1
  Er  Er13  1  0.062056  0.439335  0.062094  1
  Er  Er14  1  0.437077  0.436185  0.057198  1
  Er  Er15  1  0.062056  0.062094  0.439335  1
  Mg  Mg16  1  0.519305  0.826002  0.826002  1
  In  In17  1  0.833547  0.833216  0.833216  1
  In  In18  1  0.830637  0.832066  0.502906  1
  In  In19  1  0.830637  0.502906  0.832066  1
  Cu  Cu20  1  0.392091  0.393719  0.393719  1
  Ni  Ni21  1  0.387572  0.391728  0.822488  1
  Ni  Ni22  1  0.387572  0.822488  0.391728  1
  Ni  Ni23  1  0.823024  0.391178  0.391178  1
