# generated using pymatgen
data_TbLuB6Ru
_symmetry_space_group_name_H-M   'P 1'
_cell_length_a   3.63073100
_cell_length_b   9.07927200
_cell_length_c   11.47186700
_cell_angle_alpha   90.00000000
_cell_angle_beta   90.00000000
_cell_angle_gamma   90.00000000
_symmetry_Int_Tables_number   1
_chemical_formula_structural   TbLuB6Ru
_chemical_formula_sum   'Tb4 Lu4 B24 Ru4'
_cell_volume   378.16314724
_cell_formula_units_Z   4
loop_
 _symmetry_equiv_pos_site_id
 _symmetry_equiv_pos_as_xyz
  1  'x, y, z'
loop_
 _atom_site_type_symbol
 _atom_site_label
 _atom_site_symmetry_multiplicity
 _atom_site_fract_x
 _atom_site_fract_y
 _atom_site_fract_z
 _atom_site_occupancy
  Tb  Tb0  1  0.000000  0.321841  0.414175  1
  Tb  Tb1  1  0.000000  0.678159  0.585825  1
  Tb  Tb2  1  0.000000  0.821841  0.085825  1
  Tb  Tb3  1  0.000000  0.178159  0.914175  1
  Lu  Lu4  1  0.000000  0.944012  0.372537  1
  Lu  Lu5  1  0.000000  0.055988  0.627463  1
  Lu  Lu6  1  0.000000  0.444012  0.127463  1
  Lu  Lu7  1  0.000000  0.555988  0.872537  1
  B  B8  1  0.500000  0.554763  0.432528  1
  B  B9  1  0.500000  0.445237  0.567472  1
  B  B10  1  0.500000  0.054763  0.067472  1
  B  B11  1  0.500000  0.945237  0.932528  1
  B  B12  1  0.500000  0.750045  0.419088  1
  B  B13  1  0.500000  0.249955  0.580912  1
  B  B14  1  0.500000  0.250045  0.080912  1
  B  B15  1  0.500000  0.749955  0.919088  1
  B  B16  1  0.500000  0.791848  0.265960  1
  B  B17  1  0.500000  0.208152  0.734040  1
  B  B18  1  0.500000  0.291848  0.234040  1
  B  B19  1  0.500000  0.708152  0.765960  1
  B  B20  1  0.500000  0.630746  0.184262  1
  B  B21  1  0.500000  0.369254  0.815738  1
  B  B22  1  0.500000  0.130746  0.315738  1
  B  B23  1  0.500000  0.869254  0.684262  1
  B  B24  1  0.500000  0.983265  0.213724  1
  B  B25  1  0.500000  0.016735  0.786276  1
  B  B26  1  0.500000  0.483265  0.286276  1
  B  B27  1  0.500000  0.516735  0.713724  1
  B  B28  1  0.500000  0.603393  0.028364  1
  B  B29  1  0.500000  0.396607  0.971636  1
  B  B30  1  0.500000  0.103393  0.471636  1
  B  B31  1  0.500000  0.896607  0.528364  1
  Ru  Ru32  1  0.000000  0.638601  0.320061  1
  Ru  Ru33  1  0.000000  0.361399  0.679939  1
  Ru  Ru34  1  0.000000  0.138601  0.179939  1
  Ru  Ru35  1  0.000000  0.861399  0.820061  1
