# generated using pymatgen
data_Nd4ThP12Ru19
_symmetry_space_group_name_H-M   'P 1'
_cell_length_a   12.63652900
_cell_length_b   12.63652964
_cell_length_c   4.02038800
_cell_angle_alpha   90.00000000
_cell_angle_beta   90.00000000
_cell_angle_gamma   120.00000618
_symmetry_Int_Tables_number   1
_chemical_formula_structural   Nd4ThP12Ru19
_chemical_formula_sum   'Nd4 Th1 P12 Ru19'
_cell_volume   555.97362744
_cell_formula_units_Z   1
loop_
 _symmetry_equiv_pos_site_id
 _symmetry_equiv_pos_as_xyz
  1  'x, y, z'
loop_
 _atom_site_type_symbol
 _atom_site_label
 _atom_site_symmetry_multiplicity
 _atom_site_fract_x
 _atom_site_fract_y
 _atom_site_fract_z
 _atom_site_occupancy
  Nd  Nd0  1  0.000036  0.184247  0.500000  1
  Nd  Nd1  1  0.815753  0.815789  0.500000  1
  Nd  Nd2  1  0.184211  0.999964  0.500000  1
  Nd  Nd3  1  0.333333  0.666667  0.000000  1
  Th  Th4  1  0.666667  0.333333  0.000000  1
  P  P5  1  0.000480  0.813418  0.000000  1
  P  P6  1  0.186582  0.187062  0.000000  1
  P  P7  1  0.812938  0.999520  0.000000  1
  P  P8  1  0.694398  0.169321  0.500000  1
  P  P9  1  0.830679  0.525077  0.500000  1
  P  P10  1  0.474923  0.305602  0.500000  1
  P  P11  1  0.170378  0.694131  0.500000  1
  P  P12  1  0.523754  0.829622  0.500000  1
  P  P13  1  0.305869  0.476246  0.500000  1
  P  P14  1  0.000872  0.374604  0.000000  1
  P  P15  1  0.625396  0.626267  0.000000  1
  P  P16  1  0.373733  0.999128  0.000000  1
  Ru  Ru17  1  0.999910  0.554311  0.000000  1
  Ru  Ru18  1  0.445689  0.445600  0.000000  1
  Ru  Ru19  1  0.554400  0.000090  0.000000  1
  Ru  Ru20  1  0.000175  0.715443  0.500000  1
  Ru  Ru21  1  0.284557  0.284732  0.500000  1
  Ru  Ru22  1  0.715268  0.999825  0.500000  1
  Ru  Ru23  1  0.806096  0.184614  0.000000  1
  Ru  Ru24  1  0.815386  0.621482  0.000000  1
  Ru  Ru25  1  0.378518  0.193904  0.000000  1
  Ru  Ru26  1  0.184109  0.806224  0.000000  1
  Ru  Ru27  1  0.622116  0.815891  0.000000  1
  Ru  Ru28  1  0.193776  0.377884  0.000000  1
  Ru  Ru29  1  0.873595  0.366368  0.500000  1
  Ru  Ru30  1  0.633632  0.507227  0.500000  1
  Ru  Ru31  1  0.492773  0.126405  0.500000  1
  Ru  Ru32  1  0.366141  0.875292  0.500000  1
  Ru  Ru33  1  0.509150  0.633859  0.500000  1
  Ru  Ru34  1  0.124708  0.490850  0.500000  1
  Ru  Ru35  1  0.000000  0.000000  0.000000  1
