# generated using pymatgen
data_Dy3Mo(P3Ir4)2
_symmetry_space_group_name_H-M   'P 1'
_cell_length_a   3.98811100
_cell_length_b   11.15604200
_cell_length_c   12.81886100
_cell_angle_alpha   90.00000000
_cell_angle_beta   90.00000000
_cell_angle_gamma   90.00000000
_symmetry_Int_Tables_number   1
_chemical_formula_structural   Dy3Mo(P3Ir4)2
_chemical_formula_sum   'Dy6 Mo2 P12 Ir16'
_cell_volume   570.33078767
_cell_formula_units_Z   2
loop_
 _symmetry_equiv_pos_site_id
 _symmetry_equiv_pos_as_xyz
  1  'x, y, z'
loop_
 _atom_site_type_symbol
 _atom_site_label
 _atom_site_symmetry_multiplicity
 _atom_site_fract_x
 _atom_site_fract_y
 _atom_site_fract_z
 _atom_site_occupancy
  Dy  Dy0  1  0.000000  0.500000  0.522622  1
  Dy  Dy1  1  0.500000  0.000000  0.477378  1
  Dy  Dy2  1  0.500000  0.817659  0.203488  1
  Dy  Dy3  1  0.500000  0.182341  0.203488  1
  Dy  Dy4  1  0.000000  0.682341  0.796512  1
  Dy  Dy5  1  0.000000  0.317659  0.796512  1
  Mo  Mo6  1  0.500000  0.500000  0.158841  1
  Mo  Mo7  1  0.000000  0.000000  0.841159  1
  P  P8  1  0.500000  0.500000  0.874183  1
  P  P9  1  0.000000  0.000000  0.125817  1
  P  P10  1  0.500000  0.500000  0.346477  1
  P  P11  1  0.000000  0.000000  0.653523  1
  P  P12  1  0.500000  0.314347  0.617881  1
  P  P13  1  0.500000  0.685653  0.617881  1
  P  P14  1  0.000000  0.185653  0.382119  1
  P  P15  1  0.000000  0.814347  0.382119  1
  P  P16  1  0.500000  0.845709  0.886703  1
  P  P17  1  0.500000  0.154291  0.886703  1
  P  P18  1  0.000000  0.654291  0.113297  1
  P  P19  1  0.000000  0.345709  0.113297  1
  Ir  Ir20  1  0.500000  0.500000  0.696642  1
  Ir  Ir21  1  0.000000  0.000000  0.303358  1
  Ir  Ir22  1  0.000000  0.500000  0.993539  1
  Ir  Ir23  1  0.500000  0.000000  0.006461  1
  Ir  Ir24  1  0.500000  0.331439  0.980364  1
  Ir  Ir25  1  0.500000  0.668561  0.980364  1
  Ir  Ir26  1  0.000000  0.168561  0.019636  1
  Ir  Ir27  1  0.000000  0.831439  0.019636  1
  Ir  Ir28  1  0.500000  0.297116  0.431832  1
  Ir  Ir29  1  0.500000  0.702884  0.431832  1
  Ir  Ir30  1  0.000000  0.202884  0.568168  1
  Ir  Ir31  1  0.000000  0.797116  0.568168  1
  Ir  Ir32  1  0.500000  0.872552  0.710375  1
  Ir  Ir33  1  0.500000  0.127448  0.710375  1
  Ir  Ir34  1  0.000000  0.627448  0.289625  1
  Ir  Ir35  1  0.000000  0.372552  0.289625  1
