# generated using pymatgen
data_Rb2CeF5
_symmetry_space_group_name_H-M   'P 1'
_cell_length_a   7.02917200
_cell_length_b   7.84223400
_cell_length_c   11.53112500
_cell_angle_alpha   90.00000000
_cell_angle_beta   90.00000000
_cell_angle_gamma   90.00000000
_symmetry_Int_Tables_number   1
_chemical_formula_structural   Rb2CeF5
_chemical_formula_sum   'Rb8 Ce4 F20'
_cell_volume   635.64648129
_cell_formula_units_Z   4
loop_
 _symmetry_equiv_pos_site_id
 _symmetry_equiv_pos_as_xyz
  1  'x, y, z'
loop_
 _atom_site_type_symbol
 _atom_site_label
 _atom_site_symmetry_multiplicity
 _atom_site_fract_x
 _atom_site_fract_y
 _atom_site_fract_z
 _atom_site_occupancy
  Rb  Rb0  1  0.529842  0.997578  0.828662  1
  Rb  Rb1  1  0.470158  0.497578  0.171338  1
  Rb  Rb2  1  0.970158  0.997578  0.328662  1
  Rb  Rb3  1  0.029842  0.497578  0.671338  1
  Rb  Rb4  1  0.529842  0.502422  0.828662  1
  Rb  Rb5  1  0.470158  0.002422  0.171338  1
  Rb  Rb6  1  0.970158  0.502422  0.328662  1
  Rb  Rb7  1  0.029842  0.002422  0.671338  1
  Ce  Ce8  1  0.562589  0.250000  0.501979  1
  Ce  Ce9  1  0.437411  0.750000  0.498021  1
  Ce  Ce10  1  0.937411  0.250000  0.001979  1
  Ce  Ce11  1  0.062589  0.750000  0.998021  1
  F  F12  1  0.870587  0.750000  0.835209  1
  F  F13  1  0.129413  0.250000  0.164791  1
  F  F14  1  0.629413  0.750000  0.335209  1
  F  F15  1  0.370587  0.250000  0.664791  1
  F  F16  1  0.836806  0.250000  0.809717  1
  F  F17  1  0.163194  0.750000  0.190283  1
  F  F18  1  0.663194  0.250000  0.309717  1
  F  F19  1  0.336806  0.750000  0.690283  1
  F  F20  1  0.643504  0.967330  0.576824  1
  F  F21  1  0.356496  0.467330  0.423176  1
  F  F22  1  0.856496  0.967330  0.076824  1
  F  F23  1  0.143504  0.467330  0.923176  1
  F  F24  1  0.391896  0.750000  0.986958  1
  F  F25  1  0.608104  0.250000  0.013042  1
  F  F26  1  0.108104  0.750000  0.486958  1
  F  F27  1  0.891896  0.250000  0.513042  1
  F  F28  1  0.143504  0.032670  0.923176  1
  F  F29  1  0.856496  0.532670  0.076824  1
  F  F30  1  0.356496  0.032670  0.423176  1
  F  F31  1  0.643504  0.532670  0.576824  1
