# generated using pymatgen
data_Cs6SmHoI12
_symmetry_space_group_name_H-M   'P 1'
_cell_length_a   10.70575773
_cell_length_b   10.69351473
_cell_length_c   8.88602200
_cell_angle_alpha   90.00000000
_cell_angle_beta   90.00000000
_cell_angle_gamma   90.13772344
_symmetry_Int_Tables_number   1
_chemical_formula_structural   Cs6SmHoI12
_chemical_formula_sum   'Cs6 Sm1 Ho1 I12'
_cell_volume   1017.28821281
_cell_formula_units_Z   1
loop_
 _symmetry_equiv_pos_site_id
 _symmetry_equiv_pos_as_xyz
  1  'x, y, z'
loop_
 _atom_site_type_symbol
 _atom_site_label
 _atom_site_symmetry_multiplicity
 _atom_site_fract_x
 _atom_site_fract_y
 _atom_site_fract_z
 _atom_site_occupancy
  Cs  Cs0  1  0.000000  0.000000  0.500000  1
  Cs  Cs1  1  0.000000  0.000000  0.000000  1
  Cs  Cs2  1  0.233527  0.587212  0.500000  1
  Cs  Cs3  1  0.766473  0.412788  0.500000  1
  Cs  Cs4  1  0.412939  0.232982  0.000000  1
  Cs  Cs5  1  0.587061  0.767018  0.000000  1
  Sm  Sm6  1  0.000000  0.500000  0.000000  1
  Ho  Ho7  1  0.500000  0.000000  0.500000  1
  I  I8  1  0.693352  0.058819  0.742244  1
  I  I9  1  0.306648  0.941181  0.742244  1
  I  I10  1  0.939958  0.697735  0.247523  1
  I  I11  1  0.060042  0.302265  0.247523  1
  I  I12  1  0.306648  0.941181  0.257756  1
  I  I13  1  0.693352  0.058819  0.257756  1
  I  I14  1  0.060042  0.302265  0.752477  1
  I  I15  1  0.939958  0.697735  0.752477  1
  I  I16  1  0.569654  0.726160  0.500000  1
  I  I17  1  0.430346  0.273840  0.500000  1
  I  I18  1  0.280116  0.571219  0.000000  1
  I  I19  1  0.719884  0.428781  0.000000  1
