# generated using pymatgen
data_Er8Tm8MgCo4Ag3
_symmetry_space_group_name_H-M   'P 1'
_cell_length_a   9.34565362
_cell_length_b   9.34099319
_cell_length_c   9.34369700
_cell_angle_alpha   59.99043502
_cell_angle_beta   60.00693600
_cell_angle_gamma   59.97011057
_symmetry_Int_Tables_number   1
_chemical_formula_structural   Er8Tm8MgCo4Ag3
_chemical_formula_sum   'Er8 Tm8 Mg1 Co4 Ag3'
_cell_volume   576.63319941
_cell_formula_units_Z   1
loop_
 _symmetry_equiv_pos_site_id
 _symmetry_equiv_pos_as_xyz
  1  'x, y, z'
loop_
 _atom_site_type_symbol
 _atom_site_label
 _atom_site_symmetry_multiplicity
 _atom_site_fract_x
 _atom_site_fract_y
 _atom_site_fract_z
 _atom_site_occupancy
  Er  Er0  1  0.185902  0.186209  0.813945  1
  Er  Er1  1  0.809748  0.812350  0.188950  1
  Er  Er2  1  0.936650  0.561500  0.561729  1
  Er  Er3  1  0.563074  0.937093  0.936781  1
  Er  Er4  1  0.563074  0.937093  0.563053  1
  Er  Er5  1  0.936650  0.561500  0.940122  1
  Er  Er6  1  0.563162  0.562709  0.937064  1
  Er  Er7  1  0.936873  0.938678  0.562224  1
  Tm  Tm8  1  0.346218  0.345858  0.345172  1
  Tm  Tm9  1  0.346218  0.345858  0.962753  1
  Tm  Tm10  1  0.346107  0.962902  0.345495  1
  Tm  Tm11  1  0.950143  0.349247  0.350304  1
  Tm  Tm12  1  0.809432  0.189216  0.189526  1
  Tm  Tm13  1  0.186180  0.813924  0.813638  1
  Tm  Tm14  1  0.186180  0.813924  0.186258  1
  Tm  Tm15  1  0.809432  0.189216  0.811825  1
  Mg  Mg16  1  0.288440  0.570894  0.570333  1
  Co  Co17  1  0.137039  0.143826  0.143127  1
  Co  Co18  1  0.137039  0.143826  0.576006  1
  Co  Co19  1  0.136397  0.576387  0.143607  1
  Co  Co20  1  0.575438  0.142299  0.141131  1
  Ag  Ag21  1  0.583239  0.582047  0.582996  1
  Ag  Ag22  1  0.583239  0.582047  0.251717  1
  Ag  Ag23  1  0.584127  0.251394  0.582239  1
