# generated using pymatgen
data_La17Pr2ErSn16
_symmetry_space_group_name_H-M   'P 1'
_cell_length_a   8.46923700
_cell_length_b   8.62186105
_cell_length_c   16.35732700
_cell_angle_alpha   90.00000000
_cell_angle_beta   90.00000000
_cell_angle_gamma   89.97169056
_symmetry_Int_Tables_number   1
_chemical_formula_structural   La17Pr2ErSn16
_chemical_formula_sum   'La17 Pr2 Er1 Sn16'
_cell_volume   1194.42143479
_cell_formula_units_Z   1
loop_
 _symmetry_equiv_pos_site_id
 _symmetry_equiv_pos_as_xyz
  1  'x, y, z'
loop_
 _atom_site_type_symbol
 _atom_site_label
 _atom_site_symmetry_multiplicity
 _atom_site_fract_x
 _atom_site_fract_y
 _atom_site_fract_z
 _atom_site_occupancy
  La  La0  1  0.021108  0.182138  0.401201  1
  La  La1  1  0.372100  0.842012  0.116917  1
  La  La2  1  0.128072  0.340225  0.618271  1
  La  La3  1  0.478072  0.682294  0.900601  1
  La  La4  1  0.872261  0.659698  0.118270  1
  La  La5  1  0.128072  0.340225  0.881729  1
  La  La6  1  0.478072  0.682294  0.599399  1
  La  La7  1  0.626781  0.158457  0.618281  1
  La  La8  1  0.797059  0.497884  0.750000  1
  La  La9  1  0.872261  0.659698  0.381730  1
  La  La10  1  0.021108  0.182138  0.098799  1
  La  La11  1  0.979106  0.818431  0.900143  1
  La  La12  1  0.626781  0.158457  0.881719  1
  La  La13  1  0.521826  0.320358  0.100071  1
  La  La14  1  0.372100  0.842012  0.383083  1
  La  La15  1  0.979106  0.818431  0.599857  1
  La  La16  1  0.521826  0.320358  0.399929  1
  Pr  Pr17  1  0.203173  0.502783  0.250000  1
  Pr  Pr18  1  0.704546  0.998233  0.250000  1
  Er  Er19  1  0.293488  0.002873  0.750000  1
  Sn  Sn20  1  0.785463  0.464382  0.543426  1
  Sn  Sn21  1  0.715071  0.966435  0.455836  1
  Sn  Sn22  1  0.670429  0.860167  0.750000  1
  Sn  Sn23  1  0.214719  0.534588  0.456154  1
  Sn  Sn24  1  0.285305  0.030614  0.951463  1
  Sn  Sn25  1  0.824622  0.356583  0.250000  1
  Sn  Sn26  1  0.785463  0.464382  0.956574  1
  Sn  Sn27  1  0.571283  0.617638  0.250000  1
  Sn  Sn28  1  0.214719  0.534588  0.043846  1
  Sn  Sn29  1  0.425555  0.379701  0.750000  1
  Sn  Sn30  1  0.181172  0.647476  0.750000  1
  Sn  Sn31  1  0.931958  0.110338  0.750000  1
  Sn  Sn32  1  0.285305  0.030614  0.548537  1
  Sn  Sn33  1  0.715071  0.966435  0.044164  1
  Sn  Sn34  1  0.324222  0.143003  0.250000  1
  Sn  Sn35  1  0.072730  0.884056  0.250000  1
