# generated using pymatgen
data_Zr4ScTc24
_symmetry_space_group_name_H-M   'P 1'
_cell_length_a   8.42826502
_cell_length_b   8.42826360
_cell_length_c   8.42826500
_cell_angle_alpha   109.47123362
_cell_angle_beta   109.47123019
_cell_angle_gamma   109.47120770
_symmetry_Int_Tables_number   1
_chemical_formula_structural   Zr4ScTc24
_chemical_formula_sum   'Zr4 Sc1 Tc24'
_cell_volume   460.88495687
_cell_formula_units_Z   1
loop_
 _symmetry_equiv_pos_site_id
 _symmetry_equiv_pos_as_xyz
  1  'x, y, z'
loop_
 _atom_site_type_symbol
 _atom_site_label
 _atom_site_symmetry_multiplicity
 _atom_site_fract_x
 _atom_site_fract_y
 _atom_site_fract_z
 _atom_site_occupancy
  Zr  Zr0  1  0.373928  0.373928  0.373928  1
  Zr  Zr1  1  0.000000  0.626072  0.000000  1
  Zr  Zr2  1  0.626072  0.000000  0.000000  1
  Zr  Zr3  1  0.000000  0.000000  0.626072  1
  Sc  Sc4  1  0.000000  0.000000  0.000000  1
  Tc  Tc5  1  0.000000  0.394002  0.673593  1
  Tc  Tc6  1  0.279592  0.605998  0.605998  1
  Tc  Tc7  1  0.720408  0.326407  0.326407  1
  Tc  Tc8  1  0.326407  0.720408  0.326407  1
  Tc  Tc9  1  0.673593  0.000000  0.394002  1
  Tc  Tc10  1  0.000000  0.673593  0.394002  1
  Tc  Tc11  1  0.605998  0.605998  0.279592  1
  Tc  Tc12  1  0.805753  0.805753  0.180201  1
  Tc  Tc13  1  0.374449  0.194247  0.000000  1
  Tc  Tc14  1  0.194247  0.374449  0.000000  1
  Tc  Tc15  1  0.625551  0.819799  0.625551  1
  Tc  Tc16  1  0.374449  0.000000  0.194247  1
  Tc  Tc17  1  0.000000  0.374449  0.194247  1
  Tc  Tc18  1  0.819799  0.625551  0.625551  1
  Tc  Tc19  1  0.180201  0.805753  0.805753  1
  Tc  Tc20  1  0.805753  0.180201  0.805753  1
  Tc  Tc21  1  0.194247  0.000000  0.374449  1
  Tc  Tc22  1  0.000000  0.194247  0.374449  1
  Tc  Tc23  1  0.625551  0.625551  0.819799  1
  Tc  Tc24  1  0.394002  0.000000  0.673593  1
  Tc  Tc25  1  0.605998  0.279592  0.605998  1
  Tc  Tc26  1  0.673593  0.394002  0.000000  1
  Tc  Tc27  1  0.394002  0.673593  0.000000  1
  Tc  Tc28  1  0.326407  0.326407  0.720408  1
