# generated using pymatgen
data_Ca4Pr16Si15Ir
_symmetry_space_group_name_H-M   'P 1'
_cell_length_a   7.96617086
_cell_length_b   7.90514112
_cell_length_c   15.11269539
_cell_angle_alpha   89.99899435
_cell_angle_beta   89.89998168
_cell_angle_gamma   90.20156148
_symmetry_Int_Tables_number   1
_chemical_formula_structural   Ca4Pr16Si15Ir
_chemical_formula_sum   'Ca4 Pr16 Si15 Ir1'
_cell_volume   951.69507979
_cell_formula_units_Z   1
loop_
 _symmetry_equiv_pos_site_id
 _symmetry_equiv_pos_as_xyz
  1  'x, y, z'
loop_
 _atom_site_type_symbol
 _atom_site_label
 _atom_site_symmetry_multiplicity
 _atom_site_fract_x
 _atom_site_fract_y
 _atom_site_fract_z
 _atom_site_occupancy
  Ca  Ca0  1  0.309966  0.309629  0.999686  1
  Ca  Ca1  1  0.190356  0.809924  0.250773  1
  Ca  Ca2  1  0.813357  0.192346  0.747616  1
  Ca  Ca3  1  0.691673  0.690351  0.501938  1
  Pr  Pr4  1  0.375803  0.008866  0.450311  1
  Pr  Pr5  1  0.489641  0.880333  0.698133  1
  Pr  Pr6  1  0.509043  0.124157  0.199536  1
  Pr  Pr7  1  0.876553  0.490196  0.301253  1
  Pr  Pr8  1  0.125071  0.502492  0.797438  1
  Pr  Pr9  1  0.623992  0.989907  0.948334  1
  Pr  Pr10  1  0.004460  0.373980  0.551855  1
  Pr  Pr11  1  0.990784  0.624767  0.050512  1
  Pr  Pr12  1  0.129849  0.990872  0.871190  1
  Pr  Pr13  1  0.514478  0.627796  0.125694  1
  Pr  Pr14  1  0.473580  0.362878  0.628232  1
  Pr  Pr15  1  0.626226  0.513457  0.874619  1
  Pr  Pr16  1  0.373958  0.485500  0.374972  1
  Pr  Pr17  1  0.875426  0.015214  0.376677  1
  Pr  Pr18  1  0.985911  0.123647  0.123854  1
  Pr  Pr19  1  0.024875  0.884237  0.626104  1
  Si  Si20  1  0.331658  0.698605  0.948524  1
  Si  Si21  1  0.662614  0.296001  0.449467  1
  Si  Si22  1  0.704449  0.335624  0.052740  1
  Si  Si23  1  0.299760  0.667073  0.549310  1
  Si  Si24  1  0.800047  0.832979  0.200862  1
  Si  Si25  1  0.166115  0.200954  0.299128  1
  Si  Si26  1  0.833300  0.798925  0.800269  1
  Si  Si27  1  0.286696  0.918458  0.058281  1
  Si  Si28  1  0.581418  0.786926  0.309983  1
  Si  Si29  1  0.427796  0.205696  0.813672  1
  Si  Si30  1  0.783564  0.583285  0.690133  1
  Si  Si31  1  0.211459  0.421107  0.190384  1
  Si  Si32  1  0.706952  0.076574  0.558688  1
  Si  Si33  1  0.919910  0.288124  0.941277  1
  Si  Si34  1  0.081942  0.715063  0.440177  1
  Ir  Ir35  1  0.197315  0.174058  0.698381  1
