# generated using pymatgen
data_ErZrTcB6
_symmetry_space_group_name_H-M   'P 1'
_cell_length_a   3.56857900
_cell_length_b   8.98188700
_cell_length_c   11.34203400
_cell_angle_alpha   90.00000000
_cell_angle_beta   90.00000000
_cell_angle_gamma   90.00000000
_symmetry_Int_Tables_number   1
_chemical_formula_structural   ErZrTcB6
_chemical_formula_sum   'Er4 Zr4 Tc4 B24'
_cell_volume   363.54137648
_cell_formula_units_Z   4
loop_
 _symmetry_equiv_pos_site_id
 _symmetry_equiv_pos_as_xyz
  1  'x, y, z'
loop_
 _atom_site_type_symbol
 _atom_site_label
 _atom_site_symmetry_multiplicity
 _atom_site_fract_x
 _atom_site_fract_y
 _atom_site_fract_z
 _atom_site_occupancy
  Er  Er0  1  0.500000  0.321831  0.413634  1
  Er  Er1  1  0.500000  0.678169  0.586366  1
  Er  Er2  1  0.500000  0.178169  0.913634  1
  Er  Er3  1  0.500000  0.821831  0.086366  1
  Zr  Zr4  1  0.500000  0.444408  0.127839  1
  Zr  Zr5  1  0.500000  0.555592  0.872161  1
  Zr  Zr6  1  0.500000  0.055592  0.627839  1
  Zr  Zr7  1  0.500000  0.944408  0.372161  1
  Tc  Tc8  1  0.500000  0.140922  0.181362  1
  Tc  Tc9  1  0.500000  0.859078  0.818638  1
  Tc  Tc10  1  0.500000  0.359078  0.681362  1
  Tc  Tc11  1  0.500000  0.640922  0.318638  1
  B  B12  1  0.000000  0.101244  0.472797  1
  B  B13  1  0.000000  0.898756  0.527203  1
  B  B14  1  0.000000  0.398756  0.972797  1
  B  B15  1  0.000000  0.601244  0.027203  1
  B  B16  1  0.000000  0.130776  0.316764  1
  B  B17  1  0.000000  0.869224  0.683236  1
  B  B18  1  0.000000  0.369224  0.816764  1
  B  B19  1  0.000000  0.630776  0.183236  1
  B  B20  1  0.000000  0.053564  0.066336  1
  B  B21  1  0.000000  0.946436  0.933664  1
  B  B22  1  0.000000  0.446436  0.566336  1
  B  B23  1  0.000000  0.553564  0.433664  1
  B  B24  1  0.000000  0.481857  0.287642  1
  B  B25  1  0.000000  0.518143  0.712358  1
  B  B26  1  0.000000  0.018143  0.787642  1
  B  B27  1  0.000000  0.981857  0.212358  1
  B  B28  1  0.000000  0.251873  0.081394  1
  B  B29  1  0.000000  0.748127  0.918606  1
  B  B30  1  0.000000  0.248127  0.581394  1
  B  B31  1  0.000000  0.751873  0.418606  1
  B  B32  1  0.000000  0.294683  0.235926  1
  B  B33  1  0.000000  0.705317  0.764074  1
  B  B34  1  0.000000  0.205317  0.735926  1
  B  B35  1  0.000000  0.794683  0.264074  1
