# generated using pymatgen
data_Th3Al2SnIr2Pt
_symmetry_space_group_name_H-M   'P 1'
_cell_length_a   7.47227237
_cell_length_b   7.35918612
_cell_length_c   4.14709200
_cell_angle_alpha   90.00000000
_cell_angle_beta   90.00000000
_cell_angle_gamma   120.54560244
_symmetry_Int_Tables_number   1
_chemical_formula_structural   Th3Al2SnIr2Pt
_chemical_formula_sum   'Th3 Al2 Sn1 Ir2 Pt1'
_cell_volume   196.40057015
_cell_formula_units_Z   1
loop_
 _symmetry_equiv_pos_site_id
 _symmetry_equiv_pos_as_xyz
  1  'x, y, z'
loop_
 _atom_site_type_symbol
 _atom_site_label
 _atom_site_symmetry_multiplicity
 _atom_site_fract_x
 _atom_site_fract_y
 _atom_site_fract_z
 _atom_site_occupancy
  Th  Th0  1  0.411750  0.004694  0.500000  1
  Th  Th1  1  0.998209  0.418855  0.500000  1
  Th  Th2  1  0.585162  0.576074  0.500000  1
  Al  Al3  1  0.999879  0.765405  0.000000  1
  Al  Al4  1  0.237419  0.232287  0.000000  1
  Sn  Sn5  1  0.762412  0.001264  0.000000  1
  Ir  Ir6  1  0.663015  0.344127  0.000000  1
  Ir  Ir7  1  0.022600  0.000685  0.500000  1
  Pt  Pt8  1  0.319556  0.656609  0.000000  1
