# generated using pymatgen
data_BaCaBi3
_symmetry_space_group_name_H-M   'P 1'
_cell_length_a   6.82142500
_cell_length_b   7.03670300
_cell_length_c   15.15218400
_cell_angle_alpha   90.00000000
_cell_angle_beta   90.00000000
_cell_angle_gamma   90.00000000
_symmetry_Int_Tables_number   1
_chemical_formula_structural   BaCaBi3
_chemical_formula_sum   'Ba4 Ca4 Bi12'
_cell_volume   727.31001044
_cell_formula_units_Z   4
loop_
 _symmetry_equiv_pos_site_id
 _symmetry_equiv_pos_as_xyz
  1  'x, y, z'
loop_
 _atom_site_type_symbol
 _atom_site_label
 _atom_site_symmetry_multiplicity
 _atom_site_fract_x
 _atom_site_fract_y
 _atom_site_fract_z
 _atom_site_occupancy
  Ba  Ba0  1  0.544520  0.500000  0.250000  1
  Ba  Ba1  1  0.455480  0.500000  0.750000  1
  Ba  Ba2  1  0.955480  0.000000  0.250000  1
  Ba  Ba3  1  0.044520  0.000000  0.750000  1
  Ca  Ca4  1  0.750000  0.750000  0.999200  1
  Ca  Ca5  1  0.250000  0.250000  0.000800  1
  Ca  Ca6  1  0.750000  0.250000  0.500800  1
  Ca  Ca7  1  0.250000  0.750000  0.499200  1
  Bi  Bi8  1  0.750000  0.750000  0.446523  1
  Bi  Bi9  1  0.250000  0.250000  0.553477  1
  Bi  Bi10  1  0.750000  0.250000  0.053477  1
  Bi  Bi11  1  0.250000  0.750000  0.946523  1
  Bi  Bi12  1  0.065013  0.551431  0.144758  1
  Bi  Bi13  1  0.934987  0.448569  0.855242  1
  Bi  Bi14  1  0.065013  0.448569  0.355242  1
  Bi  Bi15  1  0.434987  0.051431  0.355242  1
  Bi  Bi16  1  0.934987  0.551431  0.644758  1
  Bi  Bi17  1  0.565013  0.948569  0.644758  1
  Bi  Bi18  1  0.434987  0.948569  0.144758  1
  Bi  Bi19  1  0.565013  0.051431  0.855242  1
