# generated using pymatgen
data_DyHo5VB14W
_symmetry_space_group_name_H-M   'P 1'
_cell_length_a   8.12609009
_cell_length_b   8.12608939
_cell_length_c   9.43511900
_cell_angle_alpha   90.00000000
_cell_angle_beta   90.00000000
_cell_angle_gamma   155.59225202
_symmetry_Int_Tables_number   1
_chemical_formula_structural   DyHo5VB14W
_chemical_formula_sum   'Dy1 Ho5 V1 B14 W1'
_cell_volume   257.45415517
_cell_formula_units_Z   1
loop_
 _symmetry_equiv_pos_site_id
 _symmetry_equiv_pos_as_xyz
  1  'x, y, z'
loop_
 _atom_site_type_symbol
 _atom_site_label
 _atom_site_symmetry_multiplicity
 _atom_site_fract_x
 _atom_site_fract_y
 _atom_site_fract_z
 _atom_site_occupancy
  Dy  Dy0  1  0.754534  0.245466  0.750000  1
  Ho  Ho1  1  0.893630  0.106370  0.437546  1
  Ho  Ho2  1  0.106874  0.893126  0.557648  1
  Ho  Ho3  1  0.893630  0.106370  0.062454  1
  Ho  Ho4  1  0.106874  0.893126  0.942352  1
  Ho  Ho5  1  0.242045  0.757955  0.250000  1
  V  V6  1  0.052849  0.947151  0.250000  1
  B  B7  1  0.727264  0.272736  0.466801  1
  B  B8  1  0.272697  0.727303  0.530982  1
  B  B9  1  0.727264  0.272736  0.033199  1
  B  B10  1  0.272697  0.727303  0.969018  1
  B  B11  1  0.632727  0.367273  0.149906  1
  B  B12  1  0.365143  0.634857  0.854287  1
  B  B13  1  0.632727  0.367273  0.350094  1
  B  B14  1  0.365143  0.634857  0.645713  1
  B  B15  1  0.521171  0.478829  0.095027  1
  B  B16  1  0.480496  0.519504  0.909455  1
  B  B17  1  0.521171  0.478829  0.404973  1
  B  B18  1  0.480496  0.519504  0.590545  1
  B  B19  1  0.458759  0.541241  0.250000  1
  B  B20  1  0.545015  0.454985  0.750000  1
  W  W21  1  0.946798  0.053202  0.750000  1
