# generated using pymatgen
data_Hf3HgC
_symmetry_space_group_name_H-M   'P 1'
_cell_length_a   6.16836725
_cell_length_b   6.16836769
_cell_length_c   9.15456500
_cell_angle_alpha   90.00000000
_cell_angle_beta   90.00000000
_cell_angle_gamma   148.42513321
_symmetry_Int_Tables_number   1
_chemical_formula_structural   Hf3HgC
_chemical_formula_sum   'Hf6 Hg2 C2'
_cell_volume   182.38452174
_cell_formula_units_Z   2
loop_
 _symmetry_equiv_pos_site_id
 _symmetry_equiv_pos_as_xyz
  1  'x, y, z'
loop_
 _atom_site_type_symbol
 _atom_site_label
 _atom_site_symmetry_multiplicity
 _atom_site_fract_x
 _atom_site_fract_y
 _atom_site_fract_z
 _atom_site_occupancy
  Hf  Hf0  1  0.875966  0.124034  0.040838  1
  Hf  Hf1  1  0.535660  0.464340  0.250000  1
  Hf  Hf2  1  0.875966  0.124034  0.459162  1
  Hf  Hf3  1  0.124034  0.875966  0.540838  1
  Hf  Hf4  1  0.464340  0.535660  0.750000  1
  Hf  Hf5  1  0.124034  0.875966  0.959161  1
  Hg  Hg6  1  0.245361  0.754639  0.250000  1
  Hg  Hg7  1  0.754639  0.245361  0.750000  1
  C  C8  1  0.500000  0.500000  0.000000  1
  C  C9  1  0.500000  0.500000  0.500000  1
