# generated using pymatgen
data_Hf4MnCo3Si4
_symmetry_space_group_name_H-M   'P 1'
_cell_length_a   3.88644900
_cell_length_b   6.36406600
_cell_length_c   7.06870421
_cell_angle_alpha   90.09074377
_cell_angle_beta   90.00000000
_cell_angle_gamma   90.00000000
_symmetry_Int_Tables_number   1
_chemical_formula_structural   Hf4MnCo3Si4
_chemical_formula_sum   'Hf4 Mn1 Co3 Si4'
_cell_volume   174.83441003
_cell_formula_units_Z   1
loop_
 _symmetry_equiv_pos_site_id
 _symmetry_equiv_pos_as_xyz
  1  'x, y, z'
loop_
 _atom_site_type_symbol
 _atom_site_label
 _atom_site_symmetry_multiplicity
 _atom_site_fract_x
 _atom_site_fract_y
 _atom_site_fract_z
 _atom_site_occupancy
  Hf  Hf0  1  0.250000  0.006512  0.307744  1
  Hf  Hf1  1  0.250000  0.500170  0.197332  1
  Hf  Hf2  1  0.750000  0.996709  0.695061  1
  Hf  Hf3  1  0.750000  0.489675  0.804637  1
  Mn  Mn4  1  0.250000  0.156862  0.932180  1
  Co  Co5  1  0.250000  0.652819  0.564104  1
  Co  Co6  1  0.750000  0.846128  0.066693  1
  Co  Co7  1  0.750000  0.350387  0.428905  1
  Si  Si8  1  0.250000  0.286183  0.607890  1
  Si  Si9  1  0.250000  0.784395  0.894806  1
  Si  Si10  1  0.750000  0.717911  0.393065  1
  Si  Si11  1  0.750000  0.212248  0.107584  1
