# generated using pymatgen
data_Hf4Co3Si4Au
_symmetry_space_group_name_H-M   'P 1'
_cell_length_a   3.82219600
_cell_length_b   6.47787981
_cell_length_c   7.30991514
_cell_angle_alpha   89.10531964
_cell_angle_beta   90.00000000
_cell_angle_gamma   90.00000000
_symmetry_Int_Tables_number   1
_chemical_formula_structural   Hf4Co3Si4Au
_chemical_formula_sum   'Hf4 Co3 Si4 Au1'
_cell_volume   180.96943276
_cell_formula_units_Z   1
loop_
 _symmetry_equiv_pos_site_id
 _symmetry_equiv_pos_as_xyz
  1  'x, y, z'
loop_
 _atom_site_type_symbol
 _atom_site_label
 _atom_site_symmetry_multiplicity
 _atom_site_fract_x
 _atom_site_fract_y
 _atom_site_fract_z
 _atom_site_occupancy
  Hf  Hf0  1  0.250000  0.005592  0.318468  1
  Hf  Hf1  1  0.250000  0.523679  0.190632  1
  Hf  Hf2  1  0.750000  0.975844  0.673940  1
  Hf  Hf3  1  0.750000  0.486221  0.809245  1
  Co  Co4  1  0.250000  0.643141  0.564467  1
  Co  Co5  1  0.750000  0.856044  0.064645  1
  Co  Co6  1  0.750000  0.361370  0.440360  1
  Si  Si7  1  0.250000  0.280781  0.592375  1
  Si  Si8  1  0.250000  0.763379  0.882873  1
  Si  Si9  1  0.750000  0.718372  0.389105  1
  Si  Si10  1  0.750000  0.233248  0.142367  1
  Au  Au11  1  0.250000  0.152331  0.931524  1
