# generated using pymatgen
data_YTm11Tc3Ir
_symmetry_space_group_name_H-M   'P 1'
_cell_length_a   6.22238396
_cell_length_b   7.36082687
_cell_length_c   8.97928100
_cell_angle_alpha   90.00000000
_cell_angle_beta   90.00000000
_cell_angle_gamma   89.81633989
_symmetry_Int_Tables_number   1
_chemical_formula_structural   YTm11Tc3Ir
_chemical_formula_sum   'Y1 Tm11 Tc3 Ir1'
_cell_volume   411.26593760
_cell_formula_units_Z   1
loop_
 _symmetry_equiv_pos_site_id
 _symmetry_equiv_pos_as_xyz
  1  'x, y, z'
loop_
 _atom_site_type_symbol
 _atom_site_label
 _atom_site_symmetry_multiplicity
 _atom_site_fract_x
 _atom_site_fract_y
 _atom_site_fract_z
 _atom_site_occupancy
  Y  Y0  1  0.123616  0.462206  0.750000  1
  Tm  Tm1  1  0.631326  0.042734  0.250000  1
  Tm  Tm2  1  0.374583  0.959181  0.750000  1
  Tm  Tm3  1  0.872302  0.540295  0.250000  1
  Tm  Tm4  1  0.163942  0.176590  0.061925  1
  Tm  Tm5  1  0.833489  0.824212  0.937572  1
  Tm  Tm6  1  0.660490  0.323729  0.938254  1
  Tm  Tm7  1  0.833489  0.824212  0.562428  1
  Tm  Tm8  1  0.337128  0.675887  0.062360  1
  Tm  Tm9  1  0.163942  0.176590  0.438075  1
  Tm  Tm10  1  0.337128  0.675887  0.437640  1
  Tm  Tm11  1  0.660490  0.323729  0.561746  1
  Tc  Tc12  1  0.461013  0.383286  0.250000  1
  Tc  Tc13  1  0.544256  0.617230  0.750000  1
  Tc  Tc14  1  0.961505  0.110946  0.750000  1
  Ir  Ir15  1  0.041302  0.883285  0.250000  1
