# generated using pymatgen
data_MgAl2(Ni10B3)2
_symmetry_space_group_name_H-M   'P 1'
_cell_length_a   7.43080260
_cell_length_b   7.43080335
_cell_length_c   7.43080200
_cell_angle_alpha   60.00000602
_cell_angle_beta   60.00000269
_cell_angle_gamma   60.00000512
_symmetry_Int_Tables_number   1
_chemical_formula_structural   MgAl2(Ni10B3)2
_chemical_formula_sum   'Mg1 Al2 Ni20 B6'
_cell_volume   290.12972731
_cell_formula_units_Z   1
loop_
 _symmetry_equiv_pos_site_id
 _symmetry_equiv_pos_as_xyz
  1  'x, y, z'
loop_
 _atom_site_type_symbol
 _atom_site_label
 _atom_site_symmetry_multiplicity
 _atom_site_fract_x
 _atom_site_fract_y
 _atom_site_fract_z
 _atom_site_occupancy
  Mg  Mg0  1  0.750000  0.750000  0.750000  1
  Al  Al1  1  0.000000  0.000000  0.000000  1
  Al  Al2  1  0.250000  0.250000  0.250000  1
  Ni  Ni3  1  0.000457  0.337462  0.661624  1
  Ni  Ni4  1  0.000457  0.000457  0.661624  1
  Ni  Ni5  1  0.661624  0.337462  0.000457  1
  Ni  Ni6  1  0.000457  0.337462  0.000457  1
  Ni  Ni7  1  0.337462  0.000457  0.661624  1
  Ni  Ni8  1  0.337462  0.000457  0.000457  1
  Ni  Ni9  1  0.661624  0.000457  0.000457  1
  Ni  Ni10  1  0.337462  0.661624  0.000457  1
  Ni  Ni11  1  0.661624  0.000457  0.337462  1
  Ni  Ni12  1  0.000457  0.000457  0.337462  1
  Ni  Ni13  1  0.000457  0.661624  0.000457  1
  Ni  Ni14  1  0.000457  0.661624  0.337462  1
  Ni  Ni15  1  0.612952  0.161143  0.612952  1
  Ni  Ni16  1  0.381052  0.381052  0.856845  1
  Ni  Ni17  1  0.856845  0.381052  0.381052  1
  Ni  Ni18  1  0.381052  0.381052  0.381052  1
  Ni  Ni19  1  0.161143  0.612952  0.612952  1
  Ni  Ni20  1  0.612952  0.612952  0.612952  1
  Ni  Ni21  1  0.612952  0.612952  0.161143  1
  Ni  Ni22  1  0.381052  0.856845  0.381052  1
  B  B23  1  0.726796  0.273204  0.726796  1
  B  B24  1  0.726796  0.273204  0.273204  1
  B  B25  1  0.273204  0.726796  0.726796  1
  B  B26  1  0.273204  0.273204  0.726796  1
  B  B27  1  0.726796  0.726796  0.273204  1
  B  B28  1  0.273204  0.726796  0.273204  1
