# generated using pymatgen
data_LuTl3F6
_symmetry_space_group_name_H-M   'P 1'
_cell_length_a   6.78328900
_cell_length_b   6.57793203
_cell_length_c   11.47911000
_cell_angle_alpha   55.03371991
_cell_angle_beta   90.00000000
_cell_angle_gamma   90.00000000
_symmetry_Int_Tables_number   1
_chemical_formula_structural   LuTl3F6
_chemical_formula_sum   'Lu2 Tl6 F12'
_cell_volume   419.74090490
_cell_formula_units_Z   2
loop_
 _symmetry_equiv_pos_site_id
 _symmetry_equiv_pos_as_xyz
  1  'x, y, z'
loop_
 _atom_site_type_symbol
 _atom_site_label
 _atom_site_symmetry_multiplicity
 _atom_site_fract_x
 _atom_site_fract_y
 _atom_site_fract_z
 _atom_site_occupancy
  Lu  Lu0  1  0.000000  0.000000  0.000000  1
  Lu  Lu1  1  0.500000  0.000000  0.500000  1
  Tl  Tl2  1  0.000000  0.500000  0.500000  1
  Tl  Tl3  1  0.500000  0.500000  0.000000  1
  Tl  Tl4  1  0.450544  0.239653  0.749909  1
  Tl  Tl5  1  0.950544  0.760347  0.750091  1
  Tl  Tl6  1  0.549456  0.760347  0.250091  1
  Tl  Tl7  1  0.049456  0.239653  0.249909  1
  F  F8  1  0.766852  0.925305  0.431572  1
  F  F9  1  0.266852  0.074695  0.068428  1
  F  F10  1  0.233148  0.074695  0.568428  1
  F  F11  1  0.733148  0.925305  0.931572  1
  F  F12  1  0.659646  0.215982  0.553717  1
  F  F13  1  0.159646  0.784018  0.946283  1
  F  F14  1  0.340354  0.784018  0.446283  1
  F  F15  1  0.840354  0.215982  0.053717  1
  F  F16  1  0.945009  0.675443  0.209617  1
  F  F17  1  0.445009  0.324557  0.290383  1
  F  F18  1  0.054991  0.324557  0.790383  1
  F  F19  1  0.554991  0.675443  0.709617  1
