# generated using pymatgen
data_GdDy3(B4W)4
_symmetry_space_group_name_H-M   'P 1'
_cell_length_a   3.63081600
_cell_length_b   6.03792400
_cell_length_c   11.67418512
_cell_angle_alpha   90.02476722
_cell_angle_beta   90.00000000
_cell_angle_gamma   90.00000000
_symmetry_Int_Tables_number   1
_chemical_formula_structural   GdDy3(B4W)4
_chemical_formula_sum   'Gd1 Dy3 B16 W4'
_cell_volume   255.92836253
_cell_formula_units_Z   1
loop_
 _symmetry_equiv_pos_site_id
 _symmetry_equiv_pos_as_xyz
  1  'x, y, z'
loop_
 _atom_site_type_symbol
 _atom_site_label
 _atom_site_symmetry_multiplicity
 _atom_site_fract_x
 _atom_site_fract_y
 _atom_site_fract_z
 _atom_site_occupancy
  Gd  Gd0  1  0.500000  0.873294  0.350092  1
  Dy  Dy1  1  0.500000  0.373138  0.149527  1
  Dy  Dy2  1  0.500000  0.626728  0.850310  1
  Dy  Dy3  1  0.500000  0.126712  0.649816  1
  B  B4  1  0.000000  0.113967  0.047079  1
  B  B5  1  0.000000  0.886195  0.952503  1
  B  B6  1  0.000000  0.386099  0.547583  1
  B  B7  1  0.000000  0.613444  0.453033  1
  B  B8  1  0.000000  0.134021  0.468215  1
  B  B9  1  0.000000  0.866052  0.532431  1
  B  B10  1  0.000000  0.366248  0.967884  1
  B  B11  1  0.000000  0.633587  0.031891  1
  B  B12  1  0.000000  0.024073  0.192699  1
  B  B13  1  0.000000  0.976348  0.806776  1
  B  B14  1  0.000000  0.476322  0.693367  1
  B  B15  1  0.000000  0.523506  0.306888  1
  B  B16  1  0.000000  0.213910  0.313587  1
  B  B17  1  0.000000  0.786668  0.686529  1
  B  B18  1  0.000000  0.286721  0.813625  1
  B  B19  1  0.000000  0.713269  0.186033  1
  W  W20  1  0.500000  0.369149  0.415676  1
  W  W21  1  0.500000  0.630494  0.584873  1
  W  W22  1  0.500000  0.130752  0.915354  1
  W  W23  1  0.500000  0.869304  0.084233  1
