# generated using pymatgen
data_Tb2Tm3Bi2Os
_symmetry_space_group_name_H-M   'P 1'
_cell_length_a   7.92222100
_cell_length_b   8.98830900
_cell_length_c   12.47727900
_cell_angle_alpha   90.00000000
_cell_angle_beta   90.00000000
_cell_angle_gamma   90.00000000
_symmetry_Int_Tables_number   1
_chemical_formula_structural   Tb2Tm3Bi2Os
_chemical_formula_sum   'Tb8 Tm12 Bi8 Os4'
_cell_volume   888.47422627
_cell_formula_units_Z   4
loop_
 _symmetry_equiv_pos_site_id
 _symmetry_equiv_pos_as_xyz
  1  'x, y, z'
loop_
 _atom_site_type_symbol
 _atom_site_label
 _atom_site_symmetry_multiplicity
 _atom_site_fract_x
 _atom_site_fract_y
 _atom_site_fract_z
 _atom_site_occupancy
  Tb  Tb0  1  0.377331  0.750000  0.692261  1
  Tb  Tb1  1  0.622669  0.250000  0.307739  1
  Tb  Tb2  1  0.877331  0.250000  0.807739  1
  Tb  Tb3  1  0.122669  0.750000  0.192261  1
  Tb  Tb4  1  0.941025  0.750000  0.504319  1
  Tb  Tb5  1  0.058975  0.250000  0.495681  1
  Tb  Tb6  1  0.441025  0.250000  0.995681  1
  Tb  Tb7  1  0.558975  0.750000  0.004319  1
  Tm  Tm8  1  0.842570  0.750000  0.792343  1
  Tm  Tm9  1  0.157430  0.250000  0.207657  1
  Tm  Tm10  1  0.342570  0.250000  0.707657  1
  Tm  Tm11  1  0.657430  0.750000  0.292343  1
  Tm  Tm12  1  0.671179  0.043578  0.564360  1
  Tm  Tm13  1  0.328821  0.956422  0.435640  1
  Tm  Tm14  1  0.171179  0.956422  0.935640  1
  Tm  Tm15  1  0.328821  0.543578  0.435640  1
  Tm  Tm16  1  0.828821  0.043578  0.064360  1
  Tm  Tm17  1  0.671179  0.456422  0.564360  1
  Tm  Tm18  1  0.828821  0.456422  0.064360  1
  Tm  Tm19  1  0.171179  0.543578  0.935640  1
  Bi  Bi20  1  0.567727  0.492818  0.826707  1
  Bi  Bi21  1  0.432273  0.507182  0.173293  1
  Bi  Bi22  1  0.067727  0.507182  0.673293  1
  Bi  Bi23  1  0.432273  0.992818  0.173293  1
  Bi  Bi24  1  0.932273  0.492818  0.326707  1
  Bi  Bi25  1  0.567727  0.007182  0.826707  1
  Bi  Bi26  1  0.932273  0.007182  0.326707  1
  Bi  Bi27  1  0.067727  0.992818  0.673293  1
  Os  Os28  1  0.573748  0.750000  0.508217  1
  Os  Os29  1  0.426252  0.250000  0.491783  1
  Os  Os30  1  0.073748  0.250000  0.991783  1
  Os  Os31  1  0.926252  0.750000  0.008217  1
