# generated using pymatgen
data_Sm3Cd13Hg2
_symmetry_space_group_name_H-M   'P 1'
_cell_length_a   16.61457368
_cell_length_b   16.61457533
_cell_length_c   7.04911155
_cell_angle_alpha   93.47469035
_cell_angle_beta   93.47469044
_cell_angle_gamma   13.05742767
_symmetry_Int_Tables_number   1
_chemical_formula_structural   Sm3Cd13Hg2
_chemical_formula_sum   'Sm3 Cd13 Hg2'
_cell_volume   438.80587469
_cell_formula_units_Z   1
loop_
 _symmetry_equiv_pos_site_id
 _symmetry_equiv_pos_as_xyz
  1  'x, y, z'
loop_
 _atom_site_type_symbol
 _atom_site_label
 _atom_site_symmetry_multiplicity
 _atom_site_fract_x
 _atom_site_fract_y
 _atom_site_fract_z
 _atom_site_occupancy
  Sm  Sm0  1  0.001636  0.001636  0.992403  1
  Sm  Sm1  1  0.667401  0.667401  0.336204  1
  Sm  Sm2  1  0.882896  0.882896  0.450665  1
  Cd  Cd3  1  0.104616  0.104616  0.034533  1
  Cd  Cd4  1  0.228474  0.228474  0.097235  1
  Cd  Cd5  1  0.328621  0.328621  0.149792  1
  Cd  Cd6  1  0.443774  0.443774  0.228038  1
  Cd  Cd7  1  0.559303  0.559303  0.292284  1
  Cd  Cd8  1  0.776109  0.776109  0.393261  1
  Cd  Cd9  1  0.996824  0.996824  0.478375  1
  Cd  Cd10  1  0.223143  0.223143  0.624614  1
  Cd  Cd11  1  0.445348  0.445348  0.711785  1
  Cd  Cd12  1  0.555342  0.555342  0.730454  1
  Cd  Cd13  1  0.667849  0.667849  0.867094  1
  Cd  Cd14  1  0.776434  0.776434  0.871900  1
  Cd  Cd15  1  0.894262  0.894262  0.958959  1
  Hg  Hg16  1  0.115105  0.115105  0.580299  1
  Hg  Hg17  1  0.332864  0.332864  0.702105  1
