# generated using pymatgen
data_Ac8Ho11Si16Ag
_symmetry_space_group_name_H-M   'P 1'
_cell_length_a   7.65492300
_cell_length_b   7.99660085
_cell_length_c   15.20122800
_cell_angle_alpha   90.00000000
_cell_angle_beta   90.00000000
_cell_angle_gamma   90.02638159
_symmetry_Int_Tables_number   1
_chemical_formula_structural   Ac8Ho11Si16Ag
_chemical_formula_sum   'Ac8 Ho11 Si16 Ag1'
_cell_volume   930.51820038
_cell_formula_units_Z   1
loop_
 _symmetry_equiv_pos_site_id
 _symmetry_equiv_pos_as_xyz
  1  'x, y, z'
loop_
 _atom_site_type_symbol
 _atom_site_label
 _atom_site_symmetry_multiplicity
 _atom_site_fract_x
 _atom_site_fract_y
 _atom_site_fract_z
 _atom_site_occupancy
  Ac  Ac0  1  0.966695  0.825876  0.103719  1
  Ac  Ac1  1  0.481672  0.686736  0.397543  1
  Ac  Ac2  1  0.518278  0.330385  0.901211  1
  Ac  Ac3  1  0.019477  0.174183  0.598539  1
  Ac  Ac4  1  0.019477  0.174183  0.901461  1
  Ac  Ac5  1  0.518278  0.330385  0.598789  1
  Ac  Ac6  1  0.481672  0.686736  0.102457  1
  Ac  Ac7  1  0.966695  0.825876  0.396281  1
  Ho  Ho8  1  0.146299  0.494620  0.250000  1
  Ho  Ho9  1  0.851454  0.496818  0.750000  1
  Ho  Ho10  1  0.349569  0.003608  0.750000  1
  Ho  Ho11  1  0.682532  0.821734  0.874274  1
  Ho  Ho12  1  0.181105  0.675217  0.623458  1
  Ho  Ho13  1  0.816631  0.310437  0.125902  1
  Ho  Ho14  1  0.333614  0.171679  0.374066  1
  Ho  Ho15  1  0.333614  0.171679  0.125934  1
  Ho  Ho16  1  0.816631  0.310437  0.374098  1
  Ho  Ho17  1  0.181105  0.675217  0.876542  1
  Ho  Ho18  1  0.682532  0.821734  0.625726  1
  Si  Si19  1  0.776801  0.590028  0.250000  1
  Si  Si20  1  0.262610  0.888517  0.250000  1
  Si  Si21  1  0.719442  0.118636  0.750000  1
  Si  Si22  1  0.219275  0.383508  0.750000  1
  Si  Si23  1  0.040108  0.124052  0.250000  1
  Si  Si24  1  0.522145  0.393092  0.250000  1
  Si  Si25  1  0.477526  0.629241  0.750000  1
  Si  Si26  1  0.979276  0.869015  0.750000  1
  Si  Si27  1  0.859938  0.532808  0.963287  1
  Si  Si28  1  0.360019  0.967417  0.540799  1
  Si  Si29  1  0.643426  0.038971  0.029867  1
  Si  Si30  1  0.142788  0.468626  0.457286  1
  Si  Si31  1  0.142788  0.468626  0.042714  1
  Si  Si32  1  0.643426  0.038971  0.470133  1
  Si  Si33  1  0.360019  0.967417  0.959201  1
  Si  Si34  1  0.859938  0.532808  0.536713  1
  Ag  Ag35  1  0.643147  0.000725  0.250000  1
