# generated using pymatgen
data_Pr4Nd4Si12Pd3Au
_symmetry_space_group_name_H-M   'P 1'
_cell_length_a   8.27752500
_cell_length_b   8.27712744
_cell_length_c   8.62722300
_cell_angle_alpha   90.00045274
_cell_angle_beta   90.00000000
_cell_angle_gamma   120.00160085
_symmetry_Int_Tables_number   1
_chemical_formula_structural   Pr4Nd4Si12Pd3Au
_chemical_formula_sum   'Pr4 Nd4 Si12 Pd3 Au1'
_cell_volume   511.88781636
_cell_formula_units_Z   1
loop_
 _symmetry_equiv_pos_site_id
 _symmetry_equiv_pos_as_xyz
  1  'x, y, z'
loop_
 _atom_site_type_symbol
 _atom_site_label
 _atom_site_symmetry_multiplicity
 _atom_site_fract_x
 _atom_site_fract_y
 _atom_site_fract_z
 _atom_site_occupancy
  Pr  Pr0  1  0.499095  0.998190  0.747511  1
  Pr  Pr1  1  0.499392  0.998782  0.252340  1
  Pr  Pr2  1  0.999999  0.999998  0.748197  1
  Pr  Pr3  1  0.999999  0.999997  0.252006  1
  Nd  Nd4  1  0.499101  0.500904  0.747459  1
  Nd  Nd5  1  0.499388  0.500617  0.252388  1
  Nd  Nd6  1  0.001803  0.500904  0.747459  1
  Nd  Nd7  1  0.001230  0.500617  0.252388  1
  Si  Si8  1  0.837904  0.162373  0.999914  1
  Si  Si9  1  0.167129  0.832537  0.000185  1
  Si  Si10  1  0.324470  0.162373  0.999914  1
  Si  Si11  1  0.165496  0.834151  0.499360  1
  Si  Si12  1  0.665408  0.832537  0.000185  1
  Si  Si13  1  0.834177  0.166167  0.500626  1
  Si  Si14  1  0.837716  0.675431  0.999915  1
  Si  Si15  1  0.668655  0.834151  0.499360  1
  Si  Si16  1  0.167361  0.334723  0.000185  1
  Si  Si17  1  0.331990  0.166167  0.500626  1
  Si  Si18  1  0.165740  0.331479  0.499359  1
  Si  Si19  1  0.833941  0.667882  0.500628  1
  Pd  Pd20  1  0.333180  0.666361  0.000728  1
  Pd  Pd21  1  0.333173  0.666347  0.499074  1
  Pd  Pd22  1  0.666821  0.333641  0.500680  1
  Au  Au23  1  0.666833  0.333665  0.999513  1
