# generated using pymatgen
data_Lu2Al4CoNi
_symmetry_space_group_name_H-M   'P 1'
_cell_length_a   5.29525103
_cell_length_b   5.29525244
_cell_length_c   6.92827900
_cell_angle_alpha   90.00000000
_cell_angle_beta   90.00000000
_cell_angle_gamma   135.32609173
_symmetry_Int_Tables_number   1
_chemical_formula_structural   Lu2Al4CoNi
_chemical_formula_sum   'Lu2 Al4 Co1 Ni1'
_cell_volume   136.58334320
_cell_formula_units_Z   1
loop_
 _symmetry_equiv_pos_site_id
 _symmetry_equiv_pos_as_xyz
  1  'x, y, z'
loop_
 _atom_site_type_symbol
 _atom_site_label
 _atom_site_symmetry_multiplicity
 _atom_site_fract_x
 _atom_site_fract_y
 _atom_site_fract_z
 _atom_site_occupancy
  Lu  Lu0  1  0.562206  0.437794  0.250000  1
  Lu  Lu1  1  0.436810  0.563190  0.750000  1
  Al  Al2  1  0.846394  0.153606  0.055409  1
  Al  Al3  1  0.153395  0.846605  0.947283  1
  Al  Al4  1  0.153395  0.846605  0.552717  1
  Al  Al5  1  0.846394  0.153606  0.444591  1
  Co  Co6  1  0.286701  0.713299  0.250000  1
  Ni  Ni7  1  0.714704  0.285296  0.750000  1
