# generated using pymatgen
data_Gd2ErTaO7
_symmetry_space_group_name_H-M   'P 1'
_cell_length_a   6.51039301
_cell_length_b   6.51039211
_cell_length_c   7.53984092
_cell_angle_alpha   89.92428180
_cell_angle_beta   89.92427726
_cell_angle_gamma   108.94793527
_symmetry_Int_Tables_number   1
_chemical_formula_structural   Gd2ErTaO7
_chemical_formula_sum   'Gd4 Er2 Ta2 O14'
_cell_volume   302.26033814
_cell_formula_units_Z   2
loop_
 _symmetry_equiv_pos_site_id
 _symmetry_equiv_pos_as_xyz
  1  'x, y, z'
loop_
 _atom_site_type_symbol
 _atom_site_label
 _atom_site_symmetry_multiplicity
 _atom_site_fract_x
 _atom_site_fract_y
 _atom_site_fract_z
 _atom_site_occupancy
  Gd  Gd0  1  0.000015  0.467054  0.745004  1
  Gd  Gd1  1  0.532946  0.999985  0.754996  1
  Gd  Gd2  1  0.527251  0.525854  0.497220  1
  Gd  Gd3  1  0.474146  0.472749  0.002780  1
  Er  Er4  1  0.464826  0.999245  0.255420  1
  Er  Er5  1  0.000755  0.535174  0.244580  1
  Ta  Ta6  1  0.001966  0.003432  0.497362  1
  Ta  Ta7  1  0.996568  0.998034  0.002638  1
  O  O8  1  0.069065  0.930935  0.250000  1
  O  O9  1  0.053728  0.310351  0.455472  1
  O  O10  1  0.076162  0.323625  0.032394  1
  O  O11  1  0.357292  0.642708  0.250000  1
  O  O12  1  0.370876  0.629124  0.750000  1
  O  O13  1  0.326102  0.080382  0.977347  1
  O  O14  1  0.313307  0.059014  0.533983  1
  O  O15  1  0.689649  0.946272  0.044528  1
  O  O16  1  0.676375  0.923838  0.467606  1
  O  O17  1  0.632623  0.367377  0.250000  1
  O  O18  1  0.637461  0.362539  0.750000  1
  O  O19  1  0.919618  0.673898  0.522653  1
  O  O20  1  0.940986  0.686693  0.966017  1
  O  O21  1  0.938284  0.061716  0.750000  1
