# generated using pymatgen
data_PrSm3(CuP2)4
_symmetry_space_group_name_H-M   'P 1'
_cell_length_a   3.75752600
_cell_length_b   3.85264150
_cell_length_c   19.87648241
_cell_angle_alpha   90.05297964
_cell_angle_beta   90.00000000
_cell_angle_gamma   90.00000000
_symmetry_Int_Tables_number   1
_chemical_formula_structural   PrSm3(CuP2)4
_chemical_formula_sum   'Pr1 Sm3 Cu4 P8'
_cell_volume   287.73979886
_cell_formula_units_Z   1
loop_
 _symmetry_equiv_pos_site_id
 _symmetry_equiv_pos_as_xyz
  1  'x, y, z'
loop_
 _atom_site_type_symbol
 _atom_site_label
 _atom_site_symmetry_multiplicity
 _atom_site_fract_x
 _atom_site_fract_y
 _atom_site_fract_z
 _atom_site_occupancy
  Pr  Pr0  1  0.750000  0.210271  0.117945  1
  Sm  Sm1  1  0.250000  0.712013  0.382262  1
  Sm  Sm2  1  0.250000  0.790032  0.879851  1
  Sm  Sm3  1  0.750000  0.287508  0.618671  1
  Cu  Cu4  1  0.250000  0.211793  0.251156  1
  Cu  Cu5  1  0.750000  0.788960  0.750165  1
  Cu  Cu6  1  0.250000  0.287761  0.749511  1
  Cu  Cu7  1  0.750000  0.712038  0.251931  1
  P  P8  1  0.750000  0.815249  0.502811  1
  P  P9  1  0.750000  0.683948  0.999629  1
  P  P10  1  0.250000  0.185045  0.497810  1
  P  P11  1  0.250000  0.315854  0.994682  1
  P  P12  1  0.250000  0.710535  0.178325  1
  P  P13  1  0.750000  0.212095  0.325955  1
  P  P14  1  0.750000  0.289375  0.823960  1
  P  P15  1  0.250000  0.787524  0.675337  1
