# generated using pymatgen
data_Dy2HfIr3
_symmetry_space_group_name_H-M   'P 1'
_cell_length_a   5.30386558
_cell_length_b   5.30386536
_cell_length_c   5.30386512
_cell_angle_alpha   65.03690754
_cell_angle_beta   65.03691025
_cell_angle_gamma   65.03691206
_symmetry_Int_Tables_number   1
_chemical_formula_structural   Dy2HfIr3
_chemical_formula_sum   'Dy2 Hf1 Ir3'
_cell_volume   117.10300955
_cell_formula_units_Z   1
loop_
 _symmetry_equiv_pos_site_id
 _symmetry_equiv_pos_as_xyz
  1  'x, y, z'
loop_
 _atom_site_type_symbol
 _atom_site_label
 _atom_site_symmetry_multiplicity
 _atom_site_fract_x
 _atom_site_fract_y
 _atom_site_fract_z
 _atom_site_occupancy
  Dy  Dy0  1  0.998938  0.998938  0.998938  1
  Dy  Dy1  1  0.251062  0.251062  0.251062  1
  Hf  Hf2  1  0.625001  0.625001  0.625001  1
  Ir  Ir3  1  0.625001  0.625001  0.124999  1
  Ir  Ir4  1  0.124999  0.625001  0.625001  1
  Ir  Ir5  1  0.625001  0.124999  0.625001  1
