# generated using pymatgen
data_Ba4Cd(IrO6)2
_symmetry_space_group_name_H-M   'P 1'
_cell_length_a   10.07055528
_cell_length_b   10.07055504
_cell_length_c   10.07055568
_cell_angle_alpha   34.02656285
_cell_angle_beta   34.02656145
_cell_angle_gamma   34.02656173
_symmetry_Int_Tables_number   1
_chemical_formula_structural   Ba4Cd(IrO6)2
_chemical_formula_sum   'Ba4 Cd1 Ir2 O12'
_cell_volume   285.07586957
_cell_formula_units_Z   1
loop_
 _symmetry_equiv_pos_site_id
 _symmetry_equiv_pos_as_xyz
  1  'x, y, z'
loop_
 _atom_site_type_symbol
 _atom_site_label
 _atom_site_symmetry_multiplicity
 _atom_site_fract_x
 _atom_site_fract_y
 _atom_site_fract_z
 _atom_site_occupancy
  Ba  Ba0  1  0.709673  0.709673  0.709673  1
  Ba  Ba1  1  0.290327  0.290327  0.290327  1
  Ba  Ba2  1  0.868983  0.868983  0.868983  1
  Ba  Ba3  1  0.131017  0.131017  0.131017  1
  Cd  Cd4  1  0.000000  0.000000  0.000000  1
  Ir  Ir5  1  0.578597  0.578597  0.578597  1
  Ir  Ir6  1  0.421403  0.421403  0.421403  1
  O  O7  1  0.226071  0.686751  0.226071  1
  O  O8  1  0.226071  0.226071  0.686751  1
  O  O9  1  0.686751  0.226071  0.226071  1
  O  O10  1  0.773929  0.313249  0.773929  1
  O  O11  1  0.773929  0.773929  0.313249  1
  O  O12  1  0.313249  0.773929  0.773929  1
  O  O13  1  0.386260  0.856981  0.386260  1
  O  O14  1  0.386260  0.386260  0.856981  1
  O  O15  1  0.856981  0.386260  0.386260  1
  O  O16  1  0.613740  0.143019  0.613740  1
  O  O17  1  0.613740  0.613740  0.143019  1
  O  O18  1  0.143019  0.613740  0.613740  1
