# generated using pymatgen
data_Er2Al9OsPd2
_symmetry_space_group_name_H-M   'P 1'
_cell_length_a   7.58562566
_cell_length_b   7.58562623
_cell_length_c   9.45545000
_cell_angle_alpha   90.00000000
_cell_angle_beta   90.00000000
_cell_angle_gamma   119.36228397
_symmetry_Int_Tables_number   1
_chemical_formula_structural   Er2Al9OsPd2
_chemical_formula_sum   'Er4 Al18 Os2 Pd4'
_cell_volume   474.18822242
_cell_formula_units_Z   2
loop_
 _symmetry_equiv_pos_site_id
 _symmetry_equiv_pos_as_xyz
  1  'x, y, z'
loop_
 _atom_site_type_symbol
 _atom_site_label
 _atom_site_symmetry_multiplicity
 _atom_site_fract_x
 _atom_site_fract_y
 _atom_site_fract_z
 _atom_site_occupancy
  Er  Er0  1  0.995016  0.673071  0.250000  1
  Er  Er1  1  0.004984  0.326929  0.750000  1
  Er  Er2  1  0.673071  0.995016  0.250000  1
  Er  Er3  1  0.326929  0.004984  0.750000  1
  Al  Al4  1  0.127546  0.127546  0.250000  1
  Al  Al5  1  0.872454  0.872454  0.750000  1
  Al  Al6  1  0.000145  0.331537  0.076405  1
  Al  Al7  1  0.999855  0.668463  0.923595  1
  Al  Al8  1  0.999855  0.668463  0.576405  1
  Al  Al9  1  0.331537  0.000145  0.423595  1
  Al  Al10  1  0.000145  0.331537  0.423595  1
  Al  Al11  1  0.668463  0.999855  0.576405  1
  Al  Al12  1  0.668463  0.999855  0.923595  1
  Al  Al13  1  0.331537  0.000145  0.076405  1
  Al  Al14  1  0.329011  0.329011  0.555345  1
  Al  Al15  1  0.670989  0.670989  0.444655  1
  Al  Al16  1  0.670989  0.670989  0.055345  1
  Al  Al17  1  0.329011  0.329011  0.944655  1
  Al  Al18  1  0.342526  0.549834  0.250000  1
  Al  Al19  1  0.657474  0.450166  0.750000  1
  Al  Al20  1  0.549834  0.342526  0.250000  1
  Al  Al21  1  0.450166  0.657474  0.750000  1
  Os  Os22  1  0.000000  0.000000  0.000000  1
  Os  Os23  1  0.000000  0.000000  0.500000  1
  Pd  Pd24  1  0.672385  0.327615  0.000000  1
  Pd  Pd25  1  0.327615  0.672385  0.000000  1
  Pd  Pd26  1  0.327615  0.672385  0.500000  1
  Pd  Pd27  1  0.672385  0.327615  0.500000  1
