# generated using pymatgen
data_Ho2SiGe(Ru2C)2
_symmetry_space_group_name_H-M   'P 1'
_cell_length_a   5.90427510
_cell_length_b   5.90427534
_cell_length_c   7.22719900
_cell_angle_alpha   90.00000000
_cell_angle_beta   90.00000000
_cell_angle_gamma   142.18955701
_symmetry_Int_Tables_number   1
_chemical_formula_structural   Ho2SiGe(Ru2C)2
_chemical_formula_sum   'Ho2 Si1 Ge1 Ru4 C2'
_cell_volume   154.45424472
_cell_formula_units_Z   1
loop_
 _symmetry_equiv_pos_site_id
 _symmetry_equiv_pos_as_xyz
  1  'x, y, z'
loop_
 _atom_site_type_symbol
 _atom_site_label
 _atom_site_symmetry_multiplicity
 _atom_site_fract_x
 _atom_site_fract_y
 _atom_site_fract_z
 _atom_site_occupancy
  Ho  Ho0  1  0.546635  0.453365  0.250000  1
  Ho  Ho1  1  0.453847  0.546153  0.750000  1
  Si  Si2  1  0.267496  0.732504  0.250000  1
  Ge  Ge3  1  0.733110  0.266890  0.750000  1
  Ru  Ru4  1  0.837175  0.162825  0.061614  1
  Ru  Ru5  1  0.162814  0.837186  0.949285  1
  Ru  Ru6  1  0.162814  0.837186  0.550715  1
  Ru  Ru7  1  0.837175  0.162825  0.438386  1
  C  C8  1  0.999467  0.000533  0.000672  1
  C  C9  1  0.999467  0.000533  0.499328  1
