# generated using pymatgen
data_ZrScInAu2
_symmetry_space_group_name_H-M   'P 1'
_cell_length_a   7.61643500
_cell_length_b   7.61643500
_cell_length_c   7.15355100
_cell_angle_alpha   90.00000000
_cell_angle_beta   90.00000000
_cell_angle_gamma   90.00000000
_symmetry_Int_Tables_number   1
_chemical_formula_structural   ZrScInAu2
_chemical_formula_sum   'Zr4 Sc4 In4 Au8'
_cell_volume   414.97808088
_cell_formula_units_Z   4
loop_
 _symmetry_equiv_pos_site_id
 _symmetry_equiv_pos_as_xyz
  1  'x, y, z'
loop_
 _atom_site_type_symbol
 _atom_site_label
 _atom_site_symmetry_multiplicity
 _atom_site_fract_x
 _atom_site_fract_y
 _atom_site_fract_z
 _atom_site_occupancy
  Zr  Zr0  1  0.143648  0.143648  0.000000  1
  Zr  Zr1  1  0.856352  0.856352  0.000000  1
  Zr  Zr2  1  0.643648  0.356352  0.500000  1
  Zr  Zr3  1  0.356352  0.643648  0.500000  1
  Sc  Sc4  1  0.687331  0.312669  0.000000  1
  Sc  Sc5  1  0.312669  0.687331  0.000000  1
  Sc  Sc6  1  0.812669  0.812669  0.500000  1
  Sc  Sc7  1  0.187331  0.187331  0.500000  1
  In  In8  1  0.500000  0.000000  0.250000  1
  In  In9  1  0.500000  0.000000  0.750000  1
  In  In10  1  0.000000  0.500000  0.250000  1
  In  In11  1  0.000000  0.500000  0.750000  1
  Au  Au12  1  0.367946  0.367946  0.208477  1
  Au  Au13  1  0.632054  0.632054  0.791523  1
  Au  Au14  1  0.632054  0.632054  0.208477  1
  Au  Au15  1  0.867946  0.132054  0.708477  1
  Au  Au16  1  0.867946  0.132054  0.291523  1
  Au  Au17  1  0.367946  0.367946  0.791523  1
  Au  Au18  1  0.132054  0.867946  0.291523  1
  Au  Au19  1  0.132054  0.867946  0.708477  1
