# generated using pymatgen
data_Li8Pr8SnBi7
_symmetry_space_group_name_H-M   'P 1'
_cell_length_a   9.90009200
_cell_length_b   9.90009185
_cell_length_c   7.46046500
_cell_angle_alpha   90.00000000
_cell_angle_beta   90.00000000
_cell_angle_gamma   120.00000050
_symmetry_Int_Tables_number   1
_chemical_formula_structural   Li8Pr8SnBi7
_chemical_formula_sum   'Li8 Pr8 Sn1 Bi7'
_cell_volume   633.24968313
_cell_formula_units_Z   1
loop_
 _symmetry_equiv_pos_site_id
 _symmetry_equiv_pos_as_xyz
  1  'x, y, z'
loop_
 _atom_site_type_symbol
 _atom_site_label
 _atom_site_symmetry_multiplicity
 _atom_site_fract_x
 _atom_site_fract_y
 _atom_site_fract_z
 _atom_site_occupancy
  Li  Li0  1  0.167801  0.335601  0.277935  1
  Li  Li1  1  0.167801  0.832199  0.277935  1
  Li  Li2  1  0.664399  0.832199  0.277935  1
  Li  Li3  1  0.831219  0.662437  0.776910  1
  Li  Li4  1  0.831219  0.168781  0.776910  1
  Li  Li5  1  0.337563  0.168781  0.776910  1
  Li  Li6  1  0.333333  0.666667  0.681365  1
  Li  Li7  1  0.666667  0.333333  0.182143  1
  Pr  Pr8  1  0.512456  0.024913  0.496178  1
  Pr  Pr9  1  0.512456  0.487544  0.496178  1
  Pr  Pr10  1  0.975087  0.487544  0.496178  1
  Pr  Pr11  1  0.493508  0.987016  0.992444  1
  Pr  Pr12  1  0.493508  0.506492  0.992444  1
  Pr  Pr13  1  0.012984  0.506492  0.992444  1
  Pr  Pr14  1  0.000000  0.000000  0.502439  1
  Pr  Pr15  1  0.000000  0.000000  0.001298  1
  Sn  Sn16  1  0.666667  0.333333  0.761642  1
  Bi  Bi17  1  0.166657  0.333315  0.736995  1
  Bi  Bi18  1  0.166657  0.833343  0.736995  1
  Bi  Bi19  1  0.666685  0.833343  0.736995  1
  Bi  Bi20  1  0.833540  0.667081  0.237400  1
  Bi  Bi21  1  0.833540  0.166460  0.237400  1
  Bi  Bi22  1  0.332919  0.166460  0.237400  1
  Bi  Bi23  1  0.333333  0.666667  0.259503  1
