# generated using pymatgen
data_Zr6As5IrRu6
_symmetry_space_group_name_H-M   'P 1'
_cell_length_a   7.71766348
_cell_length_b   7.75025799
_cell_length_c   7.71766525
_cell_angle_alpha   128.97698177
_cell_angle_beta   117.93948590
_cell_angle_gamma   84.27338731
_symmetry_Int_Tables_number   1
_chemical_formula_structural   Zr6As5IrRu6
_chemical_formula_sum   'Zr6 As5 Ir1 Ru6'
_cell_volume   303.99869319
_cell_formula_units_Z   1
loop_
 _symmetry_equiv_pos_site_id
 _symmetry_equiv_pos_as_xyz
  1  'x, y, z'
loop_
 _atom_site_type_symbol
 _atom_site_label
 _atom_site_symmetry_multiplicity
 _atom_site_fract_x
 _atom_site_fract_y
 _atom_site_fract_z
 _atom_site_occupancy
  Zr  Zr0  1  0.448262  0.659342  0.711079  1
  Zr  Zr1  1  0.526635  0.250617  0.223982  1
  Zr  Zr2  1  0.749036  0.840230  0.591193  1
  Zr  Zr3  1  0.248801  0.844303  0.095501  1
  Zr  Zr4  1  0.061267  0.257353  0.696087  1
  Zr  Zr5  1  0.961619  0.672921  0.211302  1
  As  As6  1  0.739215  0.253357  0.014142  1
  As  As7  1  0.333704  0.586455  0.252746  1
  As  As8  1  0.672008  0.919988  0.257555  1
  As  As9  1  0.162434  0.919988  0.747981  1
  As  As10  1  0.833709  0.586455  0.752750  1
  Ir  Ir11  1  0.260872  0.251940  0.491069  1
  Ru  Ru12  1  0.509372  0.494164  0.003225  1
  Ru  Ru13  1  0.990939  0.494164  0.484792  1
  Ru  Ru14  1  0.094500  0.253093  0.104341  1
  Ru  Ru15  1  0.873221  0.011070  0.125415  1
  Ru  Ru16  1  0.385655  0.011070  0.637848  1
  Ru  Ru17  1  0.648752  0.253093  0.658594  1
