# generated using pymatgen
data_Pr4TiMn3(RhO5)4
_symmetry_space_group_name_H-M   'P 1'
_cell_length_a   6.01589800
_cell_length_b   7.59882353
_cell_length_c   8.87580182
_cell_angle_alpha   90.07297367
_cell_angle_beta   90.00000000
_cell_angle_gamma   90.00000000
_symmetry_Int_Tables_number   1
_chemical_formula_structural   Pr4TiMn3(RhO5)4
_chemical_formula_sum   'Pr4 Ti1 Mn3 Rh4 O20'
_cell_volume   405.74583184
_cell_formula_units_Z   1
loop_
 _symmetry_equiv_pos_site_id
 _symmetry_equiv_pos_as_xyz
  1  'x, y, z'
loop_
 _atom_site_type_symbol
 _atom_site_label
 _atom_site_symmetry_multiplicity
 _atom_site_fract_x
 _atom_site_fract_y
 _atom_site_fract_z
 _atom_site_occupancy
  Pr  Pr0  1  0.000000  0.363701  0.672035  1
  Pr  Pr1  1  0.000000  0.635247  0.328247  1
  Pr  Pr2  1  0.000000  0.860569  0.827878  1
  Pr  Pr3  1  0.000000  0.139622  0.173441  1
  Ti  Ti4  1  0.500000  0.111577  0.857968  1
  Mn  Mn5  1  0.500000  0.910508  0.148513  1
  Mn  Mn6  1  0.500000  0.588749  0.646722  1
  Mn  Mn7  1  0.500000  0.409076  0.351798  1
  Rh  Rh8  1  0.253783  0.503716  0.999975  1
  Rh  Rh9  1  0.745804  0.997652  0.498843  1
  Rh  Rh10  1  0.746217  0.503716  0.999975  1
  Rh  Rh11  1  0.254196  0.997652  0.498843  1
  O  O12  1  0.244996  0.899105  0.286225  1
  O  O13  1  0.253813  0.099805  0.716712  1
  O  O14  1  0.753309  0.396903  0.213176  1
  O  O15  1  0.753823  0.601875  0.785840  1
  O  O16  1  0.746187  0.099805  0.716712  1
  O  O17  1  0.755004  0.899105  0.286225  1
  O  O18  1  0.246177  0.601875  0.785840  1
  O  O19  1  0.246691  0.396903  0.213176  1
  O  O20  1  0.500000  0.336171  0.925906  1
  O  O21  1  0.500000  0.654034  0.067253  1
  O  O22  1  0.500000  0.845253  0.563940  1
  O  O23  1  0.500000  0.151703  0.434253  1
  O  O24  1  0.285225  0.998687  0.998340  1
  O  O25  1  0.718687  0.498637  0.500087  1
  O  O26  1  0.714775  0.998687  0.998340  1
  O  O27  1  0.281313  0.498637  0.500087  1
  O  O28  1  0.000000  0.165848  0.447165  1
  O  O29  1  0.000000  0.831826  0.555206  1
  O  O30  1  0.000000  0.668096  0.055914  1
  O  O31  1  0.000000  0.335258  0.945367  1
