# generated using pymatgen
data_Sr4YbEr(OsO6)2
_symmetry_space_group_name_H-M   'P 1'
_cell_length_a   5.79197662
_cell_length_b   5.87353645
_cell_length_c   10.04125568
_cell_angle_alpha   90.03357805
_cell_angle_beta   124.94595788
_cell_angle_gamma   90.00495362
_symmetry_Int_Tables_number   1
_chemical_formula_structural   Sr4YbEr(OsO6)2
_chemical_formula_sum   'Sr4 Yb1 Er1 Os2 O12'
_cell_volume   280.00476406
_cell_formula_units_Z   1
loop_
 _symmetry_equiv_pos_site_id
 _symmetry_equiv_pos_as_xyz
  1  'x, y, z'
loop_
 _atom_site_type_symbol
 _atom_site_label
 _atom_site_symmetry_multiplicity
 _atom_site_fract_x
 _atom_site_fract_y
 _atom_site_fract_z
 _atom_site_occupancy
  Sr  Sr0  1  0.262068  0.037437  0.753166  1
  Sr  Sr1  1  0.255748  0.459046  0.246613  1
  Sr  Sr2  1  0.737932  0.962563  0.246834  1
  Sr  Sr3  1  0.744252  0.540954  0.753387  1
  Yb  Yb4  1  0.000000  0.000000  0.000000  1
  Er  Er5  1  0.000000  0.500000  0.500000  1
  Os  Os6  1  0.500000  0.000000  0.500000  1
  Os  Os7  1  0.500000  0.500000  0.000000  1
  O  O8  1  0.189430  0.480166  0.764302  1
  O  O9  1  0.194695  0.020579  0.269927  1
  O  O10  1  0.810570  0.519834  0.235698  1
  O  O11  1  0.805305  0.979421  0.730073  1
  O  O12  1  0.733292  0.200930  0.461314  1
  O  O13  1  0.728692  0.305044  0.961854  1
  O  O14  1  0.266708  0.799070  0.538686  1
  O  O15  1  0.271308  0.694956  0.038146  1
  O  O16  1  0.655476  0.727338  0.458122  1
  O  O17  1  0.649554  0.767758  0.958480  1
  O  O18  1  0.344524  0.272662  0.541878  1
  O  O19  1  0.350446  0.232242  0.041520  1
