# generated using pymatgen
data_BeF18
_symmetry_space_group_name_H-M   'P 1'
_cell_length_a   6.78298692
_cell_length_b   10.25963743
_cell_length_c   10.47042133
_cell_angle_alpha   91.19350851
_cell_angle_beta   98.71770916
_cell_angle_gamma   70.95942399
_symmetry_Int_Tables_number   1
_chemical_formula_structural   BeF18
_chemical_formula_sum   'Be2 F36'
_cell_volume   680.50422617
_cell_formula_units_Z   2
loop_
 _symmetry_equiv_pos_site_id
 _symmetry_equiv_pos_as_xyz
  1  'x, y, z'
loop_
 _atom_site_type_symbol
 _atom_site_label
 _atom_site_symmetry_multiplicity
 _atom_site_fract_x
 _atom_site_fract_y
 _atom_site_fract_z
 _atom_site_occupancy
  Be  Be0  1  0.648333  0.923677  0.864151  1
  Be  Be1  1  0.351667  0.076323  0.135849  1
  F  F2  1  0.353947  0.373500  0.905874  1
  F  F3  1  0.646053  0.626500  0.094126  1
  F  F4  1  0.335451  0.229082  0.556432  1
  F  F5  1  0.664549  0.770918  0.443568  1
  F  F6  1  0.905625  0.210584  0.832308  1
  F  F7  1  0.094375  0.789416  0.167692  1
  F  F8  1  0.650078  0.861183  0.990719  1
  F  F9  1  0.349922  0.138817  0.009281  1
  F  F10  1  0.830569  0.640778  0.822236  1
  F  F11  1  0.169431  0.359222  0.177764  1
  F  F12  1  0.441199  0.442765  0.824538  1
  F  F13  1  0.558801  0.557235  0.175462  1
  F  F14  1  0.787979  0.606297  0.690576  1
  F  F15  1  0.212021  0.393703  0.309424  1
  F  F16  1  0.748365  0.008927  0.529195  1
  F  F17  1  0.251635  0.991073  0.470805  1
  F  F18  1  0.271711  0.221640  0.678841  1
  F  F19  1  0.728289  0.778360  0.321159  1
  F  F20  1  0.822097  0.079614  0.634153  1
  F  F21  1  0.177903  0.920386  0.365847  1
  F  F22  1  0.820764  0.981020  0.860190  1
  F  F23  1  0.179236  0.018980  0.139810  1
  F  F24  1  0.895411  0.345868  0.795038  1
  F  F25  1  0.104589  0.654132  0.204962  1
  F  F26  1  0.204462  0.722263  0.912634  1
  F  F27  1  0.795538  0.277737  0.087366  1
  F  F28  1  0.495352  0.921475  0.750058  1
  F  F29  1  0.504648  0.078525  0.249942  1
  F  F30  1  0.109254  0.759565  0.573882  1
  F  F31  1  0.890746  0.240435  0.426118  1
  F  F32  1  0.189465  0.631740  0.645544  1
  F  F33  1  0.810535  0.368260  0.354456  1
  F  F34  1  0.326221  0.799178  0.872017  1
  F  F35  1  0.673779  0.200822  0.127983  1
  F  F36  1  0.500821  0.436623  0.527299  1
  F  F37  1  0.499179  0.563377  0.472701  1
