# generated using pymatgen
data_Er4MnGa18Pd5
_symmetry_space_group_name_H-M   'P 1'
_cell_length_a   7.61298134
_cell_length_b   7.61298198
_cell_length_c   9.55414338
_cell_angle_alpha   89.97747640
_cell_angle_beta   89.97746482
_cell_angle_gamma   119.80746058
_symmetry_Int_Tables_number   1
_chemical_formula_structural   Er4MnGa18Pd5
_chemical_formula_sum   'Er4 Mn1 Ga18 Pd5'
_cell_volume   480.47539553
_cell_formula_units_Z   1
loop_
 _symmetry_equiv_pos_site_id
 _symmetry_equiv_pos_as_xyz
  1  'x, y, z'
loop_
 _atom_site_type_symbol
 _atom_site_label
 _atom_site_symmetry_multiplicity
 _atom_site_fract_x
 _atom_site_fract_y
 _atom_site_fract_z
 _atom_site_occupancy
  Er  Er0  1  0.997642  0.667585  0.250259  1
  Er  Er1  1  0.002358  0.332415  0.749741  1
  Er  Er2  1  0.667585  0.997642  0.250259  1
  Er  Er3  1  0.332415  0.002358  0.749741  1
  Mn  Mn4  1  0.000000  0.000000  0.000000  1
  Ga  Ga5  1  0.120248  0.120248  0.241870  1
  Ga  Ga6  1  0.879752  0.879752  0.758130  1
  Ga  Ga7  1  0.998096  0.323990  0.075951  1
  Ga  Ga8  1  0.001904  0.676010  0.924049  1
  Ga  Ga9  1  0.000107  0.665904  0.583188  1
  Ga  Ga10  1  0.334096  0.999893  0.416812  1
  Ga  Ga11  1  0.999893  0.334096  0.416812  1
  Ga  Ga12  1  0.665904  0.000107  0.583188  1
  Ga  Ga13  1  0.676010  0.001904  0.924049  1
  Ga  Ga14  1  0.323990  0.998096  0.075951  1
  Ga  Ga15  1  0.332803  0.332803  0.569909  1
  Ga  Ga16  1  0.667197  0.667198  0.430091  1
  Ga  Ga17  1  0.681875  0.681876  0.063767  1
  Ga  Ga18  1  0.318125  0.318125  0.936233  1
  Ga  Ga19  1  0.340581  0.544676  0.248204  1
  Ga  Ga20  1  0.659419  0.455324  0.751796  1
  Ga  Ga21  1  0.544676  0.340581  0.248204  1
  Ga  Ga22  1  0.455324  0.659419  0.751796  1
  Pd  Pd23  1  0.670835  0.329165  0.000000  1
  Pd  Pd24  1  0.329165  0.670835  0.000000  1
  Pd  Pd25  1  0.329124  0.670876  0.500000  1
  Pd  Pd26  1  0.670876  0.329124  0.500000  1
  Pd  Pd27  1  0.000000  0.000000  0.500000  1
