# generated using pymatgen
data_YLuAl20Os3Rh
_symmetry_space_group_name_H-M   'P 1'
_cell_length_a   6.85307558
_cell_length_b   6.84630198
_cell_length_c   9.12992599
_cell_angle_alpha   90.33315863
_cell_angle_beta   90.39662637
_cell_angle_gamma   96.63210316
_symmetry_Int_Tables_number   1
_chemical_formula_structural   YLuAl20Os3Rh
_chemical_formula_sum   'Y1 Lu1 Al20 Os3 Rh1'
_cell_volume   425.47379795
_cell_formula_units_Z   1
loop_
 _symmetry_equiv_pos_site_id
 _symmetry_equiv_pos_as_xyz
  1  'x, y, z'
loop_
 _atom_site_type_symbol
 _atom_site_label
 _atom_site_symmetry_multiplicity
 _atom_site_fract_x
 _atom_site_fract_y
 _atom_site_fract_z
 _atom_site_occupancy
  Y  Y0  1  0.871980  0.131053  0.749119  1
  Lu  Lu1  1  0.129671  0.866652  0.251365  1
  Al  Al2  1  0.516925  0.780097  0.747766  1
  Al  Al3  1  0.782804  0.518307  0.249395  1
  Al  Al4  1  0.481469  0.219020  0.252253  1
  Al  Al5  1  0.217890  0.483163  0.750479  1
  Al  Al6  1  0.624212  0.378869  0.952362  1
  Al  Al7  1  0.375482  0.622043  0.048842  1
  Al  Al8  1  0.623418  0.377087  0.545418  1
  Al  Al9  1  0.375993  0.623503  0.453293  1
  Al  Al10  1  0.416040  0.147785  0.749784  1
  Al  Al11  1  0.147746  0.416559  0.250481  1
  Al  Al12  1  0.581339  0.850900  0.249978  1
  Al  Al13  1  0.853609  0.585654  0.749584  1
  Al  Al14  1  0.844992  0.154074  0.398643  1
  Al  Al15  1  0.155721  0.845190  0.600466  1
  Al  Al16  1  0.845819  0.155702  0.102904  1
  Al  Al17  1  0.155220  0.843627  0.897962  1
  Al  Al18  1  0.775282  0.775036  0.001348  1
  Al  Al19  1  0.777070  0.776886  0.498003  1
  Al  Al20  1  0.224953  0.224753  0.000561  1
  Al  Al21  1  0.222612  0.222973  0.500180  1
  Os  Os22  1  0.000232  0.500584  0.000636  1
  Os  Os23  1  0.499444  0.999914  0.499422  1
  Os  Os24  1  0.000186  0.500654  0.499343  1
  Rh  Rh25  1  0.499891  0.999917  0.000412  1
