# generated using pymatgen
data_TbCe3(BiRh2)2
_symmetry_space_group_name_H-M   'P 1'
_cell_length_a   7.77155093
_cell_length_b   7.77155015
_cell_length_c   3.73126700
_cell_angle_alpha   90.00000000
_cell_angle_beta   90.00000000
_cell_angle_gamma   88.67765065
_symmetry_Int_Tables_number   1
_chemical_formula_structural   TbCe3(BiRh2)2
_chemical_formula_sum   'Tb1 Ce3 Bi2 Rh4'
_cell_volume   225.29730848
_cell_formula_units_Z   1
loop_
 _symmetry_equiv_pos_site_id
 _symmetry_equiv_pos_as_xyz
  1  'x, y, z'
loop_
 _atom_site_type_symbol
 _atom_site_label
 _atom_site_symmetry_multiplicity
 _atom_site_fract_x
 _atom_site_fract_y
 _atom_site_fract_z
 _atom_site_occupancy
  Tb  Tb0  1  0.669504  0.169504  0.500000  1
  Ce  Ce1  1  0.328481  0.828481  0.500000  1
  Ce  Ce2  1  0.170088  0.325541  0.500000  1
  Ce  Ce3  1  0.825541  0.670088  0.500000  1
  Bi  Bi4  1  0.993536  0.002577  0.000000  1
  Bi  Bi5  1  0.502577  0.493536  0.000000  1
  Rh  Rh6  1  0.139505  0.639505  0.000000  1
  Rh  Rh7  1  0.882063  0.382063  0.000000  1
  Rh  Rh8  1  0.627638  0.861066  0.000000  1
  Rh  Rh9  1  0.361066  0.127638  0.000000  1
