# generated using pymatgen
data_CeTm15(CoHg)4
_symmetry_space_group_name_H-M   'P 1'
_cell_length_a   9.34738767
_cell_length_b   9.34738795
_cell_length_c   9.34738755
_cell_angle_alpha   59.65484698
_cell_angle_beta   59.65484942
_cell_angle_gamma   59.65484757
_symmetry_Int_Tables_number   1
_chemical_formula_structural   CeTm15(CoHg)4
_chemical_formula_sum   'Ce1 Tm15 Co4 Hg4'
_cell_volume   572.97608398
_cell_formula_units_Z   1
loop_
 _symmetry_equiv_pos_site_id
 _symmetry_equiv_pos_as_xyz
  1  'x, y, z'
loop_
 _atom_site_type_symbol
 _atom_site_label
 _atom_site_symmetry_multiplicity
 _atom_site_fract_x
 _atom_site_fract_y
 _atom_site_fract_z
 _atom_site_occupancy
  Ce  Ce0  1  0.340717  0.340717  0.340717  1
  Tm  Tm1  1  0.349043  0.349043  0.951138  1
  Tm  Tm2  1  0.349043  0.951138  0.349043  1
  Tm  Tm3  1  0.951138  0.349043  0.349043  1
  Tm  Tm4  1  0.813625  0.188532  0.188532  1
  Tm  Tm5  1  0.188332  0.813327  0.813327  1
  Tm  Tm6  1  0.188532  0.813625  0.188532  1
  Tm  Tm7  1  0.813327  0.188332  0.813327  1
  Tm  Tm8  1  0.188532  0.188532  0.813625  1
  Tm  Tm9  1  0.813327  0.813327  0.188332  1
  Tm  Tm10  1  0.938522  0.561345  0.561345  1
  Tm  Tm11  1  0.561393  0.937758  0.937758  1
  Tm  Tm12  1  0.561345  0.938522  0.561345  1
  Tm  Tm13  1  0.937758  0.561393  0.937758  1
  Tm  Tm14  1  0.561345  0.561345  0.938522  1
  Tm  Tm15  1  0.937758  0.937758  0.561393  1
  Co  Co16  1  0.142581  0.142581  0.142581  1
  Co  Co17  1  0.147816  0.147816  0.569785  1
  Co  Co18  1  0.147816  0.569785  0.147816  1
  Co  Co19  1  0.569785  0.147816  0.147816  1
  Hg  Hg20  1  0.583616  0.583616  0.583616  1
  Hg  Hg21  1  0.583967  0.583967  0.246717  1
  Hg  Hg22  1  0.583967  0.246717  0.583967  1
  Hg  Hg23  1  0.246717  0.583967  0.583967  1
