# generated using pymatgen
data_Er16In4IrPd2Pt
_symmetry_space_group_name_H-M   'P 1'
_cell_length_a   9.62399117
_cell_length_b   9.64136595
_cell_length_c   9.63762209
_cell_angle_alpha   60.10432577
_cell_angle_beta   60.04677466
_cell_angle_gamma   60.05959417
_symmetry_Int_Tables_number   1
_chemical_formula_structural   Er16In4IrPd2Pt
_chemical_formula_sum   'Er16 In4 Ir1 Pd2 Pt1'
_cell_volume   633.34320939
_cell_formula_units_Z   1
loop_
 _symmetry_equiv_pos_site_id
 _symmetry_equiv_pos_as_xyz
  1  'x, y, z'
loop_
 _atom_site_type_symbol
 _atom_site_label
 _atom_site_symmetry_multiplicity
 _atom_site_fract_x
 _atom_site_fract_y
 _atom_site_fract_z
 _atom_site_occupancy
  Er  Er0  1  0.062745  0.062394  0.435775  1
  Er  Er1  1  0.647573  0.058902  0.645952  1
  Er  Er2  1  0.189301  0.808610  0.191505  1
  Er  Er3  1  0.439085  0.062394  0.435775  1
  Er  Er4  1  0.185435  0.193803  0.809420  1
  Er  Er5  1  0.652679  0.646355  0.650697  1
  Er  Er6  1  0.050270  0.646355  0.650697  1
  Er  Er7  1  0.437478  0.062322  0.062723  1
  Er  Er8  1  0.650277  0.644190  0.055258  1
  Er  Er9  1  0.190242  0.809888  0.809628  1
  Er  Er10  1  0.811342  0.193803  0.809420  1
  Er  Er11  1  0.810251  0.192711  0.186787  1
  Er  Er12  1  0.810584  0.808610  0.191505  1
  Er  Er13  1  0.063125  0.435293  0.438458  1
  Er  Er14  1  0.441554  0.434608  0.061877  1
  Er  Er15  1  0.061961  0.434608  0.061877  1
  In  In16  1  0.750727  0.416745  0.416507  1
  In  In17  1  0.416641  0.417247  0.749473  1
  In  In18  1  0.416617  0.749681  0.417086  1
  In  In19  1  0.416021  0.416745  0.416507  1
  Ir  Ir20  1  0.856077  0.428430  0.859417  1
  Pd  Pd21  1  0.854616  0.858109  0.857430  1
  Pd  Pd22  1  0.429846  0.858109  0.857430  1
  Pt  Pt23  1  0.855556  0.860089  0.428801  1
