# generated using pymatgen
data_Ho6Lu3Zn4
_symmetry_space_group_name_H-M   'P 1'
_cell_length_a   8.49852759
_cell_length_b   8.49852747
_cell_length_c   8.47759381
_cell_angle_alpha   94.88802404
_cell_angle_beta   95.04622448
_cell_angle_gamma   145.81814688
_symmetry_Int_Tables_number   1
_chemical_formula_structural   Ho6Lu3Zn4
_chemical_formula_sum   'Ho6 Lu3 Zn4'
_cell_volume   328.73141614
_cell_formula_units_Z   1
loop_
 _symmetry_equiv_pos_site_id
 _symmetry_equiv_pos_as_xyz
  1  'x, y, z'
loop_
 _atom_site_type_symbol
 _atom_site_label
 _atom_site_symmetry_multiplicity
 _atom_site_fract_x
 _atom_site_fract_y
 _atom_site_fract_z
 _atom_site_occupancy
  Ho  Ho0  1  0.501967  0.500711  0.002680  1
  Ho  Ho1  1  0.596756  0.883225  0.479983  1
  Ho  Ho2  1  0.399639  0.114729  0.514367  1
  Ho  Ho3  1  0.115387  0.599585  0.714972  1
  Ho  Ho4  1  0.887259  0.818224  0.705485  1
  Ho  Ho5  1  0.818514  0.112524  0.931039  1
  Lu  Lu6  1  0.182768  0.890415  0.073184  1
  Lu  Lu7  1  0.112550  0.182479  0.295029  1
  Lu  Lu8  1  0.885019  0.399129  0.284150  1
  Zn  Zn9  1  0.391675  0.737085  0.128762  1
  Zn  Zn10  1  0.737320  0.603165  0.340488  1
  Zn  Zn11  1  0.263683  0.393639  0.657321  1
  Zn  Zn12  1  0.607456  0.265084  0.872539  1
