# generated using pymatgen
data_Ni3Mo6RhN2
_symmetry_space_group_name_H-M   'P 1'
_cell_length_a   6.70861000
_cell_length_b   6.70739553
_cell_length_c   6.70952073
_cell_angle_alpha   89.96904959
_cell_angle_beta   90.00000000
_cell_angle_gamma   90.00000000
_symmetry_Int_Tables_number   1
_chemical_formula_structural   Ni3Mo6RhN2
_chemical_formula_sum   'Ni6 Mo12 Rh2 N4'
_cell_volume   301.91027838
_cell_formula_units_Z   2
loop_
 _symmetry_equiv_pos_site_id
 _symmetry_equiv_pos_as_xyz
  1  'x, y, z'
loop_
 _atom_site_type_symbol
 _atom_site_label
 _atom_site_symmetry_multiplicity
 _atom_site_fract_x
 _atom_site_fract_y
 _atom_site_fract_z
 _atom_site_occupancy
  Ni  Ni0  1  0.183196  0.317416  0.565894  1
  Ni  Ni1  1  0.683196  0.682584  0.434106  1
  Ni  Ni2  1  0.936506  0.439448  0.320686  1
  Ni  Ni3  1  0.564463  0.931422  0.192724  1
  Ni  Ni4  1  0.436506  0.560552  0.679314  1
  Ni  Ni5  1  0.064463  0.068578  0.807276  1
  Mo  Mo6  1  0.374516  0.950695  0.545951  1
  Mo  Mo7  1  0.874516  0.049305  0.454049  1
  Mo  Mo8  1  0.125481  0.447489  0.950262  1
  Mo  Mo9  1  0.625481  0.552511  0.049738  1
  Mo  Mo10  1  0.799378  0.376884  0.698917  1
  Mo  Mo11  1  0.703342  0.871772  0.798901  1
  Mo  Mo12  1  0.203342  0.128228  0.201099  1
  Mo  Mo13  1  0.299378  0.623116  0.301083  1
  Mo  Mo14  1  0.948234  0.796592  0.127375  1
  Mo  Mo15  1  0.048966  0.701136  0.622789  1
  Mo  Mo16  1  0.448234  0.203408  0.872625  1
  Mo  Mo17  1  0.548966  0.298864  0.377211  1
  Rh  Rh18  1  0.315461  0.815261  0.932915  1
  Rh  Rh19  1  0.815461  0.184739  0.067085  1
  N  N20  1  0.624482  0.124696  0.626551  1
  N  N21  1  0.124482  0.875304  0.373449  1
  N  N22  1  0.875976  0.624536  0.875949  1
  N  N23  1  0.375976  0.375464  0.124051  1
