# generated using pymatgen
data_DyTm3Ga7Au5
_symmetry_space_group_name_H-M   'P 1'
_cell_length_a   4.31536600
_cell_length_b   6.98954375
_cell_length_c   10.30671600
_cell_angle_alpha   90.11366462
_cell_angle_beta   90.00000000
_cell_angle_gamma   90.00000000
_symmetry_Int_Tables_number   1
_chemical_formula_structural   DyTm3Ga7Au5
_chemical_formula_sum   'Dy1 Tm3 Ga7 Au5'
_cell_volume   310.87508576
_cell_formula_units_Z   1
loop_
 _symmetry_equiv_pos_site_id
 _symmetry_equiv_pos_as_xyz
  1  'x, y, z'
loop_
 _atom_site_type_symbol
 _atom_site_label
 _atom_site_symmetry_multiplicity
 _atom_site_fract_x
 _atom_site_fract_y
 _atom_site_fract_z
 _atom_site_occupancy
  Dy  Dy0  1  0.000000  0.231899  0.828801  1
  Tm  Tm1  1  0.500000  0.767876  0.177121  1
  Tm  Tm2  1  0.500000  0.267041  0.330795  1
  Tm  Tm3  1  0.000000  0.740804  0.662799  1
  Ga  Ga4  1  0.500000  0.928786  0.849126  1
  Ga  Ga5  1  0.500000  0.432399  0.653780  1
  Ga  Ga6  1  0.000000  0.069958  0.145940  1
  Ga  Ga7  1  0.000000  0.566638  0.350366  1
  Ga  Ga8  1  0.500000  0.208551  0.035847  1
  Ga  Ga9  1  0.000000  0.292300  0.536823  1
  Ga  Ga10  1  0.000000  0.787493  0.963638  1
  Au  Au11  1  0.500000  0.545645  0.899255  1
  Au  Au12  1  0.500000  0.049821  0.606039  1
  Au  Au13  1  0.000000  0.456584  0.107292  1
  Au  Au14  1  0.000000  0.962621  0.389042  1
  Au  Au15  1  0.500000  0.691583  0.463337  1
