# generated using pymatgen
data_Ti2CdTc2C3
_symmetry_space_group_name_H-M   'P 1'
_cell_length_a   3.00598600
_cell_length_b   3.00598529
_cell_length_c   24.58605600
_cell_angle_alpha   90.00000000
_cell_angle_beta   90.00000000
_cell_angle_gamma   119.99998577
_symmetry_Int_Tables_number   1
_chemical_formula_structural   Ti2CdTc2C3
_chemical_formula_sum   'Ti4 Cd2 Tc4 C6'
_cell_volume   192.39481575
_cell_formula_units_Z   2
loop_
 _symmetry_equiv_pos_site_id
 _symmetry_equiv_pos_as_xyz
  1  'x, y, z'
loop_
 _atom_site_type_symbol
 _atom_site_label
 _atom_site_symmetry_multiplicity
 _atom_site_fract_x
 _atom_site_fract_y
 _atom_site_fract_z
 _atom_site_occupancy
  Ti  Ti0  1  0.333333  0.666667  0.448432  1
  Ti  Ti1  1  0.666667  0.333333  0.551568  1
  Ti  Ti2  1  0.666667  0.333333  0.948432  1
  Ti  Ti3  1  0.333333  0.666667  0.051568  1
  Cd  Cd4  1  0.333333  0.666667  0.250000  1
  Cd  Cd5  1  0.666667  0.333333  0.750000  1
  Tc  Tc6  1  0.000000  0.000000  0.349860  1
  Tc  Tc7  1  0.000000  0.000000  0.650140  1
  Tc  Tc8  1  0.000000  0.000000  0.849860  1
  Tc  Tc9  1  0.000000  0.000000  0.150140  1
  C  C10  1  0.000000  0.000000  0.500000  1
  C  C11  1  0.000000  0.000000  0.000000  1
  C  C12  1  0.666667  0.333333  0.395505  1
  C  C13  1  0.333333  0.666667  0.604495  1
  C  C14  1  0.333333  0.666667  0.895505  1
  C  C15  1  0.666667  0.333333  0.104495  1
