# generated using pymatgen
data_LiSmCo4As3
_symmetry_space_group_name_H-M   'P 1'
_cell_length_a   3.86741900
_cell_length_b   10.76973800
_cell_length_c   12.39268600
_cell_angle_alpha   90.00000000
_cell_angle_beta   90.00000000
_cell_angle_gamma   90.00000000
_symmetry_Int_Tables_number   1
_chemical_formula_structural   LiSmCo4As3
_chemical_formula_sum   'Li4 Sm4 Co16 As12'
_cell_volume   516.16887207
_cell_formula_units_Z   4
loop_
 _symmetry_equiv_pos_site_id
 _symmetry_equiv_pos_as_xyz
  1  'x, y, z'
loop_
 _atom_site_type_symbol
 _atom_site_label
 _atom_site_symmetry_multiplicity
 _atom_site_fract_x
 _atom_site_fract_y
 _atom_site_fract_z
 _atom_site_occupancy
  Li  Li0  1  0.250000  0.699131  0.993939  1
  Li  Li1  1  0.250000  0.800869  0.493939  1
  Li  Li2  1  0.750000  0.300869  0.006061  1
  Li  Li3  1  0.750000  0.199131  0.506061  1
  Sm  Sm4  1  0.250000  0.578170  0.699759  1
  Sm  Sm5  1  0.250000  0.921830  0.199759  1
  Sm  Sm6  1  0.750000  0.421830  0.300241  1
  Sm  Sm7  1  0.750000  0.078170  0.800241  1
  Co  Co8  1  0.250000  0.407221  0.486033  1
  Co  Co9  1  0.250000  0.092779  0.986033  1
  Co  Co10  1  0.750000  0.592779  0.513967  1
  Co  Co11  1  0.750000  0.907221  0.013967  1
  Co  Co12  1  0.250000  0.215351  0.173437  1
  Co  Co13  1  0.250000  0.284649  0.673437  1
  Co  Co14  1  0.750000  0.784649  0.826563  1
  Co  Co15  1  0.750000  0.715351  0.326563  1
  Co  Co16  1  0.250000  0.881060  0.699279  1
  Co  Co17  1  0.250000  0.618940  0.199279  1
  Co  Co18  1  0.750000  0.118940  0.300721  1
  Co  Co19  1  0.750000  0.381060  0.800721  1
  Co  Co20  1  0.250000  0.468743  0.932040  1
  Co  Co21  1  0.250000  0.031257  0.432040  1
  Co  Co22  1  0.750000  0.531257  0.067960  1
  Co  Co23  1  0.750000  0.968743  0.567960  1
  As  As24  1  0.250000  0.420536  0.114930  1
  As  As25  1  0.250000  0.079464  0.614930  1
  As  As26  1  0.750000  0.579464  0.885070  1
  As  As27  1  0.750000  0.920536  0.385070  1
  As  As28  1  0.250000  0.271603  0.861485  1
  As  As29  1  0.250000  0.228397  0.361485  1
  As  As30  1  0.750000  0.728397  0.138515  1
  As  As31  1  0.750000  0.771603  0.638515  1
  As  As32  1  0.250000  0.604329  0.394581  1
  As  As33  1  0.250000  0.895671  0.894581  1
  As  As34  1  0.750000  0.395671  0.605419  1
  As  As35  1  0.750000  0.104329  0.105419  1
