# generated using pymatgen
data_CaNd4Eu3(SiN3)4
_symmetry_space_group_name_H-M   'P 1'
_cell_length_a   6.00359608
_cell_length_b   6.00359420
_cell_length_c   11.69007446
_cell_angle_alpha   89.94713385
_cell_angle_beta   90.05286759
_cell_angle_gamma   125.80189426
_symmetry_Int_Tables_number   1
_chemical_formula_structural   CaNd4Eu3(SiN3)4
_chemical_formula_sum   'Ca1 Nd4 Eu3 Si4 N12'
_cell_volume   341.73110499
_cell_formula_units_Z   1
loop_
 _symmetry_equiv_pos_site_id
 _symmetry_equiv_pos_as_xyz
  1  'x, y, z'
loop_
 _atom_site_type_symbol
 _atom_site_label
 _atom_site_symmetry_multiplicity
 _atom_site_fract_x
 _atom_site_fract_y
 _atom_site_fract_z
 _atom_site_occupancy
  Ca  Ca0  1  0.639915  0.360085  0.073564  1
  Nd  Nd1  1  0.052489  0.947511  0.857094  1
  Nd  Nd2  1  0.950099  0.049901  0.143215  1
  Nd  Nd3  1  0.447867  0.552133  0.355454  1
  Nd  Nd4  1  0.553840  0.446160  0.643211  1
  Eu  Eu5  1  0.362459  0.637541  0.927047  1
  Eu  Eu6  1  0.861177  0.138823  0.573320  1
  Eu  Eu7  1  0.139242  0.860758  0.425775  1
  Si  Si8  1  0.748677  0.251323  0.836625  1
  Si  Si9  1  0.250584  0.749416  0.164427  1
  Si  Si10  1  0.749605  0.250395  0.331450  1
  Si  Si11  1  0.249745  0.750255  0.667116  1
  N  N12  1  0.585881  0.414119  0.861560  1
  N  N13  1  0.414885  0.585115  0.141682  1
  N  N14  1  0.913266  0.086734  0.356867  1
  N  N15  1  0.086160  0.913840  0.642435  1
  N  N16  1  0.539909  0.960765  0.751629  1
  N  N17  1  0.957031  0.541737  0.247540  1
  N  N18  1  0.458263  0.042969  0.247540  1
  N  N19  1  0.039235  0.460091  0.751629  1
  N  N20  1  0.846987  0.153013  0.957867  1
  N  N21  1  0.152230  0.847770  0.043112  1
  N  N22  1  0.652039  0.347961  0.453964  1
  N  N23  1  0.348415  0.651585  0.545878  1
