# generated using pymatgen
data_Sm2Co10Mo2P7
_symmetry_space_group_name_H-M   'P 1'
_cell_length_a   9.07667939
_cell_length_b   9.11217032
_cell_length_c   3.72374400
_cell_angle_alpha   90.00000000
_cell_angle_beta   90.00000000
_cell_angle_gamma   119.67222889
_symmetry_Int_Tables_number   1
_chemical_formula_structural   Sm2Co10Mo2P7
_chemical_formula_sum   'Sm2 Co10 Mo2 P7'
_cell_volume   267.59883776
_cell_formula_units_Z   1
loop_
 _symmetry_equiv_pos_site_id
 _symmetry_equiv_pos_as_xyz
  1  'x, y, z'
loop_
 _atom_site_type_symbol
 _atom_site_label
 _atom_site_symmetry_multiplicity
 _atom_site_fract_x
 _atom_site_fract_y
 _atom_site_fract_z
 _atom_site_occupancy
  Sm  Sm0  1  0.667216  0.334620  0.500000  1
  Sm  Sm1  1  0.336228  0.666294  0.000000  1
  Co  Co2  1  0.723232  0.877475  0.000000  1
  Co  Co3  1  0.939380  0.370817  0.000000  1
  Co  Co4  1  0.158205  0.281172  0.000000  1
  Co  Co5  1  0.385859  0.437067  0.500000  1
  Co  Co6  1  0.118181  0.839664  0.000000  1
  Co  Co7  1  0.430576  0.059591  0.000000  1
  Co  Co8  1  0.046990  0.615854  0.500000  1
  Co  Co9  1  0.564957  0.947667  0.500000  1
  Co  Co10  1  0.630252  0.569488  0.000000  1
  Co  Co11  1  0.875786  0.781384  0.500000  1
  Mo  Mo12  1  0.216563  0.098502  0.500000  1
  Mo  Mo13  1  0.903570  0.120733  0.500000  1
  P  P14  1  0.410843  0.302470  0.000000  1
  P  P15  1  0.290239  0.884151  0.500000  1
  P  P16  1  0.696220  0.107365  0.000000  1
  P  P17  1  0.600487  0.709415  0.500000  1
  P  P18  1  0.890971  0.591246  0.000000  1
  P  P19  1  0.114169  0.408122  0.500000  1
  P  P20  1  0.000080  0.996904  0.000000  1
