# generated using pymatgen
data_Sr8YInSn6
_symmetry_space_group_name_H-M   'P 1'
_cell_length_a   9.71045096
_cell_length_b   9.71011005
_cell_length_c   9.71045100
_cell_angle_alpha   96.82795662
_cell_angle_beta   96.83032456
_cell_angle_gamma   139.65965533
_symmetry_Int_Tables_number   1
_chemical_formula_structural   Sr8YInSn6
_chemical_formula_sum   'Sr8 Y1 In1 Sn6'
_cell_volume   556.33073103
_cell_formula_units_Z   1
loop_
 _symmetry_equiv_pos_site_id
 _symmetry_equiv_pos_as_xyz
  1  'x, y, z'
loop_
 _atom_site_type_symbol
 _atom_site_label
 _atom_site_symmetry_multiplicity
 _atom_site_fract_x
 _atom_site_fract_y
 _atom_site_fract_z
 _atom_site_occupancy
  Sr  Sr0  1  0.083549  0.211634  0.297126  1
  Sr  Sr1  1  0.914486  0.786400  0.702878  1
  Sr  Sr2  1  0.788382  0.085506  0.871917  1
  Sr  Sr3  1  0.416481  0.713601  0.128087  1
  Sr  Sr4  1  0.213588  0.916462  0.128088  1
  Sr  Sr5  1  0.585490  0.288364  0.871920  1
  Sr  Sr6  1  0.711627  0.583540  0.297127  1
  Sr  Sr7  1  0.286415  0.414496  0.702878  1
  Y  Y8  1  0.250009  0.749999  0.500006  1
  In  In9  1  0.749974  0.250000  0.499977  1
  Sn  Sn10  1  0.139629  0.639626  0.790767  1
  Sn  Sn11  1  0.848861  0.348857  0.209244  1
  Sn  Sn12  1  0.360392  0.151142  0.500004  1
  Sn  Sn13  1  0.651140  0.860372  0.500002  1
  Sn  Sn14  1  0.249992  0.250001  0.999990  1
  Sn  Sn15  1  0.749989  0.750000  0.999988  1
