# generated using pymatgen
data_TmSc3Al4(NiRh)2
_symmetry_space_group_name_H-M   'P 1'
_cell_length_a   4.18134700
_cell_length_b   6.46578031
_cell_length_c   7.54966672
_cell_angle_alpha   89.34630086
_cell_angle_beta   90.00000000
_cell_angle_gamma   90.00000000
_symmetry_Int_Tables_number   1
_chemical_formula_structural   TmSc3Al4(NiRh)2
_chemical_formula_sum   'Tm1 Sc3 Al4 Ni2 Rh2'
_cell_volume   204.09702202
_cell_formula_units_Z   1
loop_
 _symmetry_equiv_pos_site_id
 _symmetry_equiv_pos_as_xyz
  1  'x, y, z'
loop_
 _atom_site_type_symbol
 _atom_site_label
 _atom_site_symmetry_multiplicity
 _atom_site_fract_x
 _atom_site_fract_y
 _atom_site_fract_z
 _atom_site_occupancy
  Tm  Tm0  1  0.750000  0.032750  0.672460  1
  Sc  Sc1  1  0.250000  0.968585  0.318432  1
  Sc  Sc2  1  0.750000  0.535581  0.831040  1
  Sc  Sc3  1  0.250000  0.471430  0.178528  1
  Al  Al4  1  0.750000  0.634549  0.432861  1
  Al  Al5  1  0.750000  0.137198  0.068744  1
  Al  Al6  1  0.250000  0.356448  0.548989  1
  Al  Al7  1  0.250000  0.853423  0.949707  1
  Ni  Ni8  1  0.750000  0.761834  0.122589  1
  Ni  Ni9  1  0.750000  0.268032  0.371164  1
  Rh  Rh10  1  0.250000  0.247041  0.884087  1
  Rh  Rh11  1  0.250000  0.733128  0.621399  1
