# generated using pymatgen
data_Dy2Ho14Cd4TcPt3
_symmetry_space_group_name_H-M   'P 1'
_cell_length_a   9.68644745
_cell_length_b   9.68644784
_cell_length_c   9.68500869
_cell_angle_alpha   59.33082820
_cell_angle_beta   59.33082749
_cell_angle_gamma   59.36634007
_symmetry_Int_Tables_number   1
_chemical_formula_structural   Dy2Ho14Cd4TcPt3
_chemical_formula_sum   'Dy2 Ho14 Cd4 Tc1 Pt3'
_cell_volume   632.94531393
_cell_formula_units_Z   1
loop_
 _symmetry_equiv_pos_site_id
 _symmetry_equiv_pos_as_xyz
  1  'x, y, z'
loop_
 _atom_site_type_symbol
 _atom_site_label
 _atom_site_symmetry_multiplicity
 _atom_site_fract_x
 _atom_site_fract_y
 _atom_site_fract_z
 _atom_site_occupancy
  Dy  Dy0  1  0.602041  0.602041  0.602097  1
  Dy  Dy1  1  0.600740  0.600740  0.197320  1
  Ho  Ho2  1  0.600850  0.197474  0.600778  1
  Ho  Ho3  1  0.197474  0.600850  0.600778  1
  Ho  Ho4  1  0.065232  0.438296  0.438422  1
  Ho  Ho5  1  0.439333  0.059533  0.059580  1
  Ho  Ho6  1  0.438296  0.065232  0.438422  1
  Ho  Ho7  1  0.059533  0.439333  0.059580  1
  Ho  Ho8  1  0.438174  0.438174  0.065123  1
  Ho  Ho9  1  0.059361  0.059361  0.439588  1
  Ho  Ho10  1  0.185501  0.815213  0.814955  1
  Ho  Ho11  1  0.806673  0.187757  0.187763  1
  Ho  Ho12  1  0.815213  0.185501  0.814955  1
  Ho  Ho13  1  0.187757  0.806673  0.187763  1
  Ho  Ho14  1  0.815237  0.815237  0.185227  1
  Ho  Ho15  1  0.188112  0.188112  0.806229  1
  Cd  Cd16  1  0.830223  0.830223  0.829852  1
  Cd  Cd17  1  0.831218  0.831218  0.503891  1
  Cd  Cd18  1  0.831256  0.503876  0.831015  1
  Cd  Cd19  1  0.503876  0.831256  0.831015  1
  Tc  Tc20  1  0.393645  0.393645  0.394369  1
  Pt  Pt21  1  0.393829  0.393829  0.822482  1
  Pt  Pt22  1  0.393458  0.822965  0.394395  1
  Pt  Pt23  1  0.822965  0.393458  0.394395  1
