# generated using pymatgen
data_Er2VIr3
_symmetry_space_group_name_H-M   'P 1'
_cell_length_a   5.12203760
_cell_length_b   5.54433541
_cell_length_c   5.54433600
_cell_angle_alpha   59.99999649
_cell_angle_beta   57.23302157
_cell_angle_gamma   57.23302834
_symmetry_Int_Tables_number   1
_chemical_formula_structural   Er2VIr3
_chemical_formula_sum   'Er2 V1 Ir3'
_cell_volume   106.44774574
_cell_formula_units_Z   1
loop_
 _symmetry_equiv_pos_site_id
 _symmetry_equiv_pos_as_xyz
  1  'x, y, z'
loop_
 _atom_site_type_symbol
 _atom_site_label
 _atom_site_symmetry_multiplicity
 _atom_site_fract_x
 _atom_site_fract_y
 _atom_site_fract_z
 _atom_site_occupancy
  Er  Er0  1  0.005877  0.998041  0.998041  1
  Er  Er1  1  0.244125  0.251958  0.251958  1
  V  V2  1  0.124999  0.625001  0.625001  1
  Ir  Ir3  1  0.625000  0.625001  0.625001  1
  Ir  Ir4  1  0.625000  0.625001  0.125000  1
  Ir  Ir5  1  0.625000  0.125000  0.625001  1
