# generated using pymatgen
data_Li4P4IrRh3
_symmetry_space_group_name_H-M   'P 1'
_cell_length_a   3.88112800
_cell_length_b   6.55525339
_cell_length_c   6.70852062
_cell_angle_alpha   89.93339786
_cell_angle_beta   90.00000000
_cell_angle_gamma   90.00000000
_symmetry_Int_Tables_number   1
_chemical_formula_structural   Li4P4IrRh3
_chemical_formula_sum   'Li4 P4 Ir1 Rh3'
_cell_volume   170.67657349
_cell_formula_units_Z   1
loop_
 _symmetry_equiv_pos_site_id
 _symmetry_equiv_pos_as_xyz
  1  'x, y, z'
loop_
 _atom_site_type_symbol
 _atom_site_label
 _atom_site_symmetry_multiplicity
 _atom_site_fract_x
 _atom_site_fract_y
 _atom_site_fract_z
 _atom_site_occupancy
  Li  Li0  1  0.250000  0.020433  0.839187  1
  Li  Li1  1  0.250000  0.523264  0.663126  1
  Li  Li2  1  0.750000  0.979627  0.161967  1
  Li  Li3  1  0.750000  0.478724  0.335540  1
  P  P4  1  0.250000  0.787775  0.372818  1
  P  P5  1  0.250000  0.286480  0.128062  1
  P  P6  1  0.750000  0.213387  0.624871  1
  P  P7  1  0.750000  0.712627  0.874104  1
  Ir  Ir8  1  0.250000  0.144081  0.443861  1
  Rh  Rh9  1  0.250000  0.643924  0.056698  1
  Rh  Rh10  1  0.750000  0.854517  0.556265  1
  Rh  Rh11  1  0.750000  0.355161  0.943502  1
