# generated using pymatgen
data_Hf18ZnFeMo8
_symmetry_space_group_name_H-M   'P 1'
_cell_length_a   8.69934200
_cell_length_b   8.69934135
_cell_length_c   8.51164800
_cell_angle_alpha   90.00000000
_cell_angle_beta   90.00000000
_cell_angle_gamma   119.99999485
_symmetry_Int_Tables_number   1
_chemical_formula_structural   Hf18ZnFeMo8
_chemical_formula_sum   'Hf18 Zn1 Fe1 Mo8'
_cell_volume   557.84954926
_cell_formula_units_Z   1
loop_
 _symmetry_equiv_pos_site_id
 _symmetry_equiv_pos_as_xyz
  1  'x, y, z'
loop_
 _atom_site_type_symbol
 _atom_site_label
 _atom_site_symmetry_multiplicity
 _atom_site_fract_x
 _atom_site_fract_y
 _atom_site_fract_z
 _atom_site_occupancy
  Hf  Hf0  1  0.202887  0.797113  0.441354  1
  Hf  Hf1  1  0.202887  0.405774  0.441354  1
  Hf  Hf2  1  0.594226  0.797113  0.441354  1
  Hf  Hf3  1  0.805032  0.194968  0.551032  1
  Hf  Hf4  1  0.805032  0.610065  0.551032  1
  Hf  Hf5  1  0.389935  0.194968  0.551032  1
  Hf  Hf6  1  0.805032  0.194968  0.948968  1
  Hf  Hf7  1  0.805032  0.610065  0.948968  1
  Hf  Hf8  1  0.389935  0.194968  0.948968  1
  Hf  Hf9  1  0.202887  0.797113  0.058646  1
  Hf  Hf10  1  0.202887  0.405774  0.058646  1
  Hf  Hf11  1  0.594226  0.797113  0.058646  1
  Hf  Hf12  1  0.540496  0.459504  0.250000  1
  Hf  Hf13  1  0.540496  0.080991  0.250000  1
  Hf  Hf14  1  0.919009  0.459504  0.250000  1
  Hf  Hf15  1  0.459349  0.540651  0.750000  1
  Hf  Hf16  1  0.459349  0.918699  0.750000  1
  Hf  Hf17  1  0.081301  0.540651  0.750000  1
  Zn  Zn18  1  0.666667  0.333333  0.750000  1
  Fe  Fe19  1  0.333333  0.666667  0.250000  1
  Mo  Mo20  1  0.888120  0.111880  0.250000  1
  Mo  Mo21  1  0.888120  0.776238  0.250000  1
  Mo  Mo22  1  0.223762  0.111880  0.250000  1
  Mo  Mo23  1  0.111745  0.888255  0.750000  1
  Mo  Mo24  1  0.111745  0.223492  0.750000  1
  Mo  Mo25  1  0.776508  0.888255  0.750000  1
  Mo  Mo26  1  0.000000  0.000000  0.497326  1
  Mo  Mo27  1  0.000000  0.000000  0.002674  1
