# generated using pymatgen
data_Lu12Co4HgRh
_symmetry_space_group_name_H-M   'P 1'
_cell_length_a   8.07178157
_cell_length_b   8.07178185
_cell_length_c   8.07178113
_cell_angle_alpha   111.04606828
_cell_angle_beta   111.14106107
_cell_angle_gamma   106.27311352
_symmetry_Int_Tables_number   1
_chemical_formula_structural   Lu12Co4HgRh
_chemical_formula_sum   'Lu12 Co4 Hg1 Rh1'
_cell_volume   403.90312254
_cell_formula_units_Z   1
loop_
 _symmetry_equiv_pos_site_id
 _symmetry_equiv_pos_as_xyz
  1  'x, y, z'
loop_
 _atom_site_type_symbol
 _atom_site_label
 _atom_site_symmetry_multiplicity
 _atom_site_fract_x
 _atom_site_fract_y
 _atom_site_fract_z
 _atom_site_occupancy
  Lu  Lu0  1  0.416927  0.222850  0.194077  1
  Lu  Lu1  1  0.583073  0.777150  0.805923  1
  Lu  Lu2  1  0.028773  0.222850  0.805923  1
  Lu  Lu3  1  0.971227  0.777150  0.194077  1
  Lu  Lu4  1  0.184647  0.284297  0.468945  1
  Lu  Lu5  1  0.815353  0.715703  0.531055  1
  Lu  Lu6  1  0.184647  0.715703  0.900349  1
  Lu  Lu7  1  0.815353  0.284297  0.099651  1
  Lu  Lu8  1  0.315696  0.621856  0.306160  1
  Lu  Lu9  1  0.684304  0.378144  0.693840  1
  Lu  Lu10  1  0.315696  0.009536  0.693840  1
  Lu  Lu11  1  0.684304  0.990464  0.306160  1
  Co  Co12  1  0.372401  0.000000  0.372401  1
  Co  Co13  1  0.627599  0.000000  0.627599  1
  Co  Co14  1  0.113747  0.613747  0.500000  1
  Co  Co15  1  0.886253  0.386253  0.500000  1
  Hg  Hg16  1  0.500000  0.500000  0.000000  1
  Rh  Rh17  1  0.000000  0.000000  0.000000  1
