# generated using pymatgen
data_La5Nd11Cd4Pd3Ru
_symmetry_space_group_name_H-M   'P 1'
_cell_length_a   10.07863461
_cell_length_b   10.11314316
_cell_length_c   10.11314499
_cell_angle_alpha   59.56212472
_cell_angle_beta   59.61511251
_cell_angle_gamma   59.61511069
_symmetry_Int_Tables_number   1
_chemical_formula_structural   La5Nd11Cd4Pd3Ru
_chemical_formula_sum   'La5 Nd11 Cd4 Pd3 Ru1'
_cell_volume   722.21567011
_cell_formula_units_Z   1
loop_
 _symmetry_equiv_pos_site_id
 _symmetry_equiv_pos_as_xyz
  1  'x, y, z'
loop_
 _atom_site_type_symbol
 _atom_site_label
 _atom_site_symmetry_multiplicity
 _atom_site_fract_x
 _atom_site_fract_y
 _atom_site_fract_z
 _atom_site_occupancy
  La  La0  1  0.351365  0.352678  0.352678  1
  La  La1  1  0.347301  0.347326  0.949524  1
  La  La2  1  0.347301  0.949524  0.347326  1
  La  La3  1  0.949716  0.347888  0.347888  1
  La  La4  1  0.820387  0.187743  0.187743  1
  Nd  Nd5  1  0.189002  0.809297  0.809297  1
  Nd  Nd6  1  0.189671  0.816261  0.188279  1
  Nd  Nd7  1  0.809116  0.189133  0.808245  1
  Nd  Nd8  1  0.189671  0.188279  0.816261  1
  Nd  Nd9  1  0.809116  0.808245  0.189133  1
  Nd  Nd10  1  0.934726  0.565890  0.565890  1
  Nd  Nd11  1  0.560558  0.935788  0.935788  1
  Nd  Nd12  1  0.565038  0.934662  0.566252  1
  Nd  Nd13  1  0.936468  0.561070  0.935430  1
  Nd  Nd14  1  0.565038  0.566252  0.934662  1
  Nd  Nd15  1  0.936468  0.935430  0.561070  1
  Cd  Cd16  1  0.580259  0.580192  0.580192  1
  Cd  Cd17  1  0.580075  0.581381  0.257168  1
  Cd  Cd18  1  0.580075  0.257168  0.581381  1
  Cd  Cd19  1  0.257031  0.580547  0.580547  1
  Pd  Pd20  1  0.144771  0.144664  0.571068  1
  Pd  Pd21  1  0.144771  0.571068  0.144664  1
  Pd  Pd22  1  0.571337  0.144895  0.144895  1
  Ru  Ru23  1  0.140739  0.144619  0.144619  1
