# generated using pymatgen
data_Ho13Th3(ZnIr)4
_symmetry_space_group_name_H-M   'P 1'
_cell_length_a   9.58133719
_cell_length_b   9.56067399
_cell_length_c   9.56067400
_cell_angle_alpha   59.99999995
_cell_angle_beta   60.07131443
_cell_angle_gamma   60.07132290
_symmetry_Int_Tables_number   1
_chemical_formula_structural   Ho13Th3(ZnIr)4
_chemical_formula_sum   'Ho13 Th3 Zn4 Ir4'
_cell_volume   619.94829049
_cell_formula_units_Z   1
loop_
 _symmetry_equiv_pos_site_id
 _symmetry_equiv_pos_as_xyz
  1  'x, y, z'
loop_
 _atom_site_type_symbol
 _atom_site_label
 _atom_site_symmetry_multiplicity
 _atom_site_fract_x
 _atom_site_fract_y
 _atom_site_fract_z
 _atom_site_occupancy
  Ho  Ho0  1  0.938226  0.353925  0.353925  1
  Ho  Ho1  1  0.809716  0.191407  0.191407  1
  Ho  Ho2  1  0.189470  0.810792  0.810792  1
  Ho  Ho3  1  0.189470  0.810792  0.188945  1
  Ho  Ho4  1  0.809716  0.191407  0.807469  1
  Ho  Ho5  1  0.189470  0.188945  0.810792  1
  Ho  Ho6  1  0.809716  0.807469  0.191407  1
  Ho  Ho7  1  0.935365  0.564291  0.564291  1
  Ho  Ho8  1  0.565886  0.934106  0.934106  1
  Ho  Ho9  1  0.565886  0.934106  0.565902  1
  Ho  Ho10  1  0.935365  0.564291  0.936051  1
  Ho  Ho11  1  0.565886  0.565902  0.934106  1
  Ho  Ho12  1  0.935365  0.936051  0.564291  1
  Th  Th13  1  0.352437  0.353400  0.353400  1
  Th  Th14  1  0.352437  0.353400  0.940764  1
  Th  Th15  1  0.352437  0.940764  0.353400  1
  Zn  Zn16  1  0.584293  0.581135  0.581135  1
  Zn  Zn17  1  0.584293  0.581135  0.253439  1
  Zn  Zn18  1  0.584293  0.253439  0.581135  1
  Zn  Zn19  1  0.250163  0.583279  0.583279  1
  Ir  Ir20  1  0.142864  0.142945  0.142945  1
  Ir  Ir21  1  0.142864  0.142945  0.571245  1
  Ir  Ir22  1  0.142864  0.571245  0.142945  1
  Ir  Ir23  1  0.571522  0.142826  0.142826  1
