# generated using pymatgen
data_Yb7ZrAs6
_symmetry_space_group_name_H-M   'P 1'
_cell_length_a   7.52161124
_cell_length_b   7.63179624
_cell_length_c   7.63179625
_cell_angle_alpha   109.76183814
_cell_angle_beta   109.17902164
_cell_angle_gamma   109.17901514
_symmetry_Int_Tables_number   1
_chemical_formula_structural   Yb7ZrAs6
_chemical_formula_sum   'Yb7 Zr1 As6'
_cell_volume   338.45112260
_cell_formula_units_Z   1
loop_
 _symmetry_equiv_pos_site_id
 _symmetry_equiv_pos_as_xyz
  1  'x, y, z'
loop_
 _atom_site_type_symbol
 _atom_site_label
 _atom_site_symmetry_multiplicity
 _atom_site_fract_x
 _atom_site_fract_y
 _atom_site_fract_z
 _atom_site_occupancy
  Yb  Yb0  1  0.501358  0.001092  0.645160  1
  Yb  Yb1  1  0.366149  0.361490  0.363220  1
  Yb  Yb2  1  0.002929  0.136780  0.498270  1
  Yb  Yb3  1  0.856198  0.854840  0.855932  1
  Yb  Yb4  1  0.000266  0.644068  0.498908  1
  Yb  Yb5  1  0.633921  0.500000  0.000000  1
  Yb  Yb6  1  0.504659  0.001730  0.138510  1
  Zr  Zr7  1  0.124545  0.500000  0.000000  1
  As  As8  1  0.890511  0.261383  0.120321  1
  As  As9  1  0.129128  0.858938  0.238617  1
  As  As10  1  0.366011  0.620948  0.756942  1
  As  As11  1  0.245063  0.135993  0.879052  1
  As  As12  1  0.770190  0.379679  0.641062  1
  As  As13  1  0.609070  0.743058  0.364007  1
