# generated using pymatgen
data_Ho4Tm(SiSb)2
_symmetry_space_group_name_H-M   'P 1'
_cell_length_a   8.48691469
_cell_length_b   8.48691511
_cell_length_c   7.82147300
_cell_angle_alpha   90.00000000
_cell_angle_beta   90.00000000
_cell_angle_gamma   125.32772420
_symmetry_Int_Tables_number   1
_chemical_formula_structural   Ho4Tm(SiSb)2
_chemical_formula_sum   'Ho8 Tm2 Si4 Sb4'
_cell_volume   459.62406437
_cell_formula_units_Z   2
loop_
 _symmetry_equiv_pos_site_id
 _symmetry_equiv_pos_as_xyz
  1  'x, y, z'
loop_
 _atom_site_type_symbol
 _atom_site_label
 _atom_site_symmetry_multiplicity
 _atom_site_fract_x
 _atom_site_fract_y
 _atom_site_fract_z
 _atom_site_occupancy
  Ho  Ho0  1  0.540348  0.791572  0.165368  1
  Ho  Ho1  1  0.291572  0.040348  0.334632  1
  Ho  Ho2  1  0.208428  0.459652  0.834632  1
  Ho  Ho3  1  0.959652  0.708428  0.665368  1
  Ho  Ho4  1  0.708428  0.959652  0.665368  1
  Ho  Ho5  1  0.459652  0.208428  0.834632  1
  Ho  Ho6  1  0.791572  0.540348  0.165368  1
  Ho  Ho7  1  0.040348  0.291572  0.334632  1
  Tm  Tm8  1  0.500000  0.500000  0.500000  1
  Tm  Tm9  1  0.000000  0.000000  0.000000  1
  Si  Si10  1  0.632840  0.632840  0.868222  1
  Si  Si11  1  0.132840  0.132840  0.631778  1
  Si  Si12  1  0.867160  0.867160  0.368222  1
  Si  Si13  1  0.367160  0.367160  0.131778  1
  Sb  Sb14  1  0.294109  0.705891  0.500000  1
  Sb  Sb15  1  0.205891  0.794109  0.000000  1
  Sb  Sb16  1  0.705891  0.294109  0.500000  1
  Sb  Sb17  1  0.794109  0.205891  0.000000  1
