# generated using pymatgen
data_Tb4Dy7TmCo4
_symmetry_space_group_name_H-M   'P 1'
_cell_length_a   6.20478591
_cell_length_b   6.92908927
_cell_length_c   9.48431511
_cell_angle_alpha   90.00832071
_cell_angle_beta   89.80257174
_cell_angle_gamma   89.99259474
_symmetry_Int_Tables_number   1
_chemical_formula_structural   Tb4Dy7TmCo4
_chemical_formula_sum   'Tb4 Dy7 Tm1 Co4'
_cell_volume   407.76161951
_cell_formula_units_Z   1
loop_
 _symmetry_equiv_pos_site_id
 _symmetry_equiv_pos_as_xyz
  1  'x, y, z'
loop_
 _atom_site_type_symbol
 _atom_site_label
 _atom_site_symmetry_multiplicity
 _atom_site_fract_x
 _atom_site_fract_y
 _atom_site_fract_z
 _atom_site_occupancy
  Tb  Tb0  1  0.859118  0.544851  0.248998  1
  Tb  Tb1  1  0.640903  0.043179  0.249723  1
  Tb  Tb2  1  0.142114  0.456670  0.750732  1
  Tb  Tb3  1  0.357215  0.955814  0.750697  1
  Dy  Dy4  1  0.174646  0.174230  0.431630  1
  Dy  Dy5  1  0.674721  0.325757  0.569112  1
  Dy  Dy6  1  0.823830  0.825307  0.933006  1
  Dy  Dy7  1  0.675092  0.325821  0.932935  1
  Dy  Dy8  1  0.823646  0.824764  0.569151  1
  Dy  Dy9  1  0.324053  0.674433  0.429571  1
  Dy  Dy10  1  0.176050  0.174922  0.068035  1
  Tm  Tm11  1  0.325592  0.674935  0.068201  1
  Co  Co12  1  0.053536  0.886732  0.247891  1
  Co  Co13  1  0.450317  0.387594  0.247078  1
  Co  Co14  1  0.949046  0.112381  0.749223  1
  Co  Co15  1  0.550119  0.612612  0.754018  1
