# generated using pymatgen
data_Dy2Ho14MgIn(HgIr2)2
_symmetry_space_group_name_H-M   'P 1'
_cell_length_a   9.61628553
_cell_length_b   9.56097748
_cell_length_c   9.57133900
_cell_angle_alpha   59.96415441
_cell_angle_beta   60.15450495
_cell_angle_gamma   60.06982417
_symmetry_Int_Tables_number   1
_chemical_formula_structural   Dy2Ho14MgIn(HgIr2)2
_chemical_formula_sum   'Dy2 Ho14 Mg1 In1 Hg2 Ir4'
_cell_volume   623.13607773
_cell_formula_units_Z   1
loop_
 _symmetry_equiv_pos_site_id
 _symmetry_equiv_pos_as_xyz
  1  'x, y, z'
loop_
 _atom_site_type_symbol
 _atom_site_label
 _atom_site_symmetry_multiplicity
 _atom_site_fract_x
 _atom_site_fract_y
 _atom_site_fract_z
 _atom_site_occupancy
  Dy  Dy0  1  0.561881  0.563634  0.939409  1
  Dy  Dy1  1  0.937102  0.939065  0.562196  1
  Ho  Ho2  1  0.349837  0.348095  0.346779  1
  Ho  Ho3  1  0.350157  0.348313  0.954898  1
  Ho  Ho4  1  0.350964  0.954226  0.347626  1
  Ho  Ho5  1  0.943132  0.352435  0.352123  1
  Ho  Ho6  1  0.808314  0.190076  0.191906  1
  Ho  Ho7  1  0.186935  0.811247  0.812071  1
  Ho  Ho8  1  0.186084  0.811533  0.189638  1
  Ho  Ho9  1  0.807942  0.190683  0.809294  1
  Ho  Ho10  1  0.187449  0.188806  0.811601  1
  Ho  Ho11  1  0.807649  0.808801  0.191885  1
  Ho  Ho12  1  0.938903  0.561129  0.561805  1
  Ho  Ho13  1  0.560831  0.939137  0.937695  1
  Ho  Ho14  1  0.560710  0.941162  0.562811  1
  Ho  Ho15  1  0.937943  0.561062  0.939654  1
  Mg  Mg16  1  0.283047  0.571419  0.572187  1
  In  In17  1  0.582760  0.584175  0.584391  1
  Hg  Hg18  1  0.582685  0.586738  0.244109  1
  Hg  Hg19  1  0.582349  0.243069  0.587287  1
  Ir  Ir20  1  0.139208  0.144415  0.142560  1
  Ir  Ir21  1  0.139335  0.144395  0.573702  1
  Ir  Ir22  1  0.138784  0.574447  0.143325  1
  Ir  Ir23  1  0.575994  0.141939  0.141046  1
