# generated using pymatgen
data_Rb2VAuS4
_symmetry_space_group_name_H-M   'P 1'
_cell_length_a   13.75414810
_cell_length_b   12.25360648
_cell_length_c   7.44469098
_cell_angle_alpha   84.84354176
_cell_angle_beta   62.53554642
_cell_angle_gamma   32.62091607
_symmetry_Int_Tables_number   1
_chemical_formula_structural   Rb2VAuS4
_chemical_formula_sum   'Rb4 V2 Au2 S8'
_cell_volume   468.87968204
_cell_formula_units_Z   2
loop_
 _symmetry_equiv_pos_site_id
 _symmetry_equiv_pos_as_xyz
  1  'x, y, z'
loop_
 _atom_site_type_symbol
 _atom_site_label
 _atom_site_symmetry_multiplicity
 _atom_site_fract_x
 _atom_site_fract_y
 _atom_site_fract_z
 _atom_site_occupancy
  Rb  Rb0  1  0.678174  0.678174  0.321826  1
  Rb  Rb1  1  0.321826  0.321826  0.678174  1
  Rb  Rb2  1  0.928174  0.928174  0.571826  1
  Rb  Rb3  1  0.571826  0.571826  0.928174  1
  V  V4  1  0.750000  0.750000  0.750000  1
  V  V5  1  0.500000  0.500000  0.500000  1
  Au  Au6  1  0.000000  0.000000  0.000000  1
  Au  Au7  1  0.250000  0.250000  0.250000  1
  S  S8  1  0.392432  0.998771  0.916063  1
  S  S9  1  0.692736  0.916063  0.998771  1
  S  S10  1  0.916063  0.692736  0.392432  1
  S  S11  1  0.998771  0.392432  0.692736  1
  S  S12  1  0.251229  0.857568  0.557264  1
  S  S13  1  0.557264  0.333937  0.251229  1
  S  S14  1  0.333937  0.557264  0.857568  1
  S  S15  1  0.857568  0.251229  0.333937  1
