# generated using pymatgen
data_Tb8Hg3Ir
_symmetry_space_group_name_H-M   'P 1'
_cell_length_a   10.24352800
_cell_length_b   10.24352709
_cell_length_c   7.23341200
_cell_angle_alpha   90.00000000
_cell_angle_beta   90.00000000
_cell_angle_gamma   119.99999648
_symmetry_Int_Tables_number   1
_chemical_formula_structural   Tb8Hg3Ir
_chemical_formula_sum   'Tb16 Hg6 Ir2'
_cell_volume   657.31407012
_cell_formula_units_Z   2
loop_
 _symmetry_equiv_pos_site_id
 _symmetry_equiv_pos_as_xyz
  1  'x, y, z'
loop_
 _atom_site_type_symbol
 _atom_site_label
 _atom_site_symmetry_multiplicity
 _atom_site_fract_x
 _atom_site_fract_y
 _atom_site_fract_z
 _atom_site_occupancy
  Tb  Tb0  1  0.828112  0.656227  0.483971  1
  Tb  Tb1  1  0.343773  0.171888  0.483971  1
  Tb  Tb2  1  0.828112  0.171888  0.483971  1
  Tb  Tb3  1  0.171888  0.343773  0.983971  1
  Tb  Tb4  1  0.656227  0.828112  0.983971  1
  Tb  Tb5  1  0.171888  0.828112  0.983971  1
  Tb  Tb6  1  0.666667  0.333333  0.173248  1
  Tb  Tb7  1  0.333333  0.666667  0.673248  1
  Tb  Tb8  1  0.537285  0.074570  0.792480  1
  Tb  Tb9  1  0.925430  0.462715  0.792480  1
  Tb  Tb10  1  0.537285  0.462715  0.792480  1
  Tb  Tb11  1  0.462715  0.925430  0.292480  1
  Tb  Tb12  1  0.074570  0.537285  0.292480  1
  Tb  Tb13  1  0.462715  0.537285  0.292480  1
  Tb  Tb14  1  0.000000  0.000000  0.771493  1
  Tb  Tb15  1  0.000000  0.000000  0.271493  1
  Hg  Hg16  1  0.832904  0.665808  0.044962  1
  Hg  Hg17  1  0.334192  0.167096  0.044962  1
  Hg  Hg18  1  0.832904  0.167096  0.044962  1
  Hg  Hg19  1  0.167096  0.334192  0.544962  1
  Hg  Hg20  1  0.665808  0.832904  0.544962  1
  Hg  Hg21  1  0.167096  0.832904  0.544962  1
  Ir  Ir22  1  0.666667  0.333333  0.554059  1
  Ir  Ir23  1  0.333333  0.666667  0.054059  1
