# generated using pymatgen
data_Nd2HfAlIr2
_symmetry_space_group_name_H-M   'P 1'
_cell_length_a   4.50774300
_cell_length_b   7.21797300
_cell_length_c   8.10978988
_cell_angle_alpha   88.63189598
_cell_angle_beta   90.00000000
_cell_angle_gamma   90.00000000
_symmetry_Int_Tables_number   1
_chemical_formula_structural   Nd2HfAlIr2
_chemical_formula_sum   'Nd4 Hf2 Al2 Ir4'
_cell_volume   263.79112684
_cell_formula_units_Z   2
loop_
 _symmetry_equiv_pos_site_id
 _symmetry_equiv_pos_as_xyz
  1  'x, y, z'
loop_
 _atom_site_type_symbol
 _atom_site_label
 _atom_site_symmetry_multiplicity
 _atom_site_fract_x
 _atom_site_fract_y
 _atom_site_fract_z
 _atom_site_occupancy
  Nd  Nd0  1  0.250000  0.529211  0.165949  1
  Nd  Nd1  1  0.750000  0.470789  0.834051  1
  Nd  Nd2  1  0.750000  0.978801  0.695714  1
  Nd  Nd3  1  0.250000  0.021199  0.304286  1
  Hf  Hf4  1  0.250000  0.637740  0.576202  1
  Hf  Hf5  1  0.750000  0.362260  0.423798  1
  Al  Al6  1  0.750000  0.852553  0.068629  1
  Al  Al7  1  0.250000  0.147447  0.931371  1
  Ir  Ir8  1  0.250000  0.785368  0.890639  1
  Ir  Ir9  1  0.750000  0.214632  0.109361  1
  Ir  Ir10  1  0.750000  0.724519  0.399689  1
  Ir  Ir11  1  0.250000  0.275481  0.600311  1
