# generated using pymatgen
data_Lu10InGaSb4
_symmetry_space_group_name_H-M   'P 1'
_cell_length_a   6.27528500
_cell_length_b   8.70535902
_cell_length_c   8.70926800
_cell_angle_alpha   119.98516233
_cell_angle_beta   90.00005478
_cell_angle_gamma   89.99989364
_symmetry_Int_Tables_number   1
_chemical_formula_structural   Lu10InGaSb4
_chemical_formula_sum   'Lu10 In1 Ga1 Sb4'
_cell_volume   412.09499631
_cell_formula_units_Z   1
loop_
 _symmetry_equiv_pos_site_id
 _symmetry_equiv_pos_as_xyz
  1  'x, y, z'
loop_
 _atom_site_type_symbol
 _atom_site_label
 _atom_site_symmetry_multiplicity
 _atom_site_fract_x
 _atom_site_fract_y
 _atom_site_fract_z
 _atom_site_occupancy
  Lu  Lu0  1  0.503035  0.341220  0.677557  1
  Lu  Lu1  1  0.503035  0.663663  0.322443  1
  Lu  Lu2  1  0.996952  0.663658  0.322422  1
  Lu  Lu3  1  0.996952  0.341238  0.677578  1
  Lu  Lu4  1  0.750042  0.243719  0.000000  1
  Lu  Lu5  1  0.749972  0.754815  0.769479  1
  Lu  Lu6  1  0.749972  0.985337  0.230521  1
  Lu  Lu7  1  0.249965  0.761286  0.000000  1
  Lu  Lu8  1  0.250005  0.241793  0.236571  1
  Lu  Lu9  1  0.250005  0.005222  0.763429  1
  In  In10  1  0.249954  0.395681  0.000000  1
  Ga  Ga11  1  0.750056  0.603562  0.000000  1
  Sb  Sb12  1  0.749995  0.387596  0.391782  1
  Sb  Sb13  1  0.749995  0.995813  0.608218  1
  Sb  Sb14  1  0.250035  0.610171  0.604946  1
  Sb  Sb15  1  0.250035  0.005227  0.395054  1
