# generated using pymatgen
data_TmSi7Ir3
_symmetry_space_group_name_H-M   'P 1'
_cell_length_a   8.03679758
_cell_length_b   8.03679751
_cell_length_c   8.03679766
_cell_angle_alpha   56.48476191
_cell_angle_beta   56.48476246
_cell_angle_gamma   56.48476432
_symmetry_Int_Tables_number   1
_chemical_formula_structural   TmSi7Ir3
_chemical_formula_sum   'Tm2 Si14 Ir6'
_cell_volume   337.23204387
_cell_formula_units_Z   2
loop_
 _symmetry_equiv_pos_site_id
 _symmetry_equiv_pos_as_xyz
  1  'x, y, z'
loop_
 _atom_site_type_symbol
 _atom_site_label
 _atom_site_symmetry_multiplicity
 _atom_site_fract_x
 _atom_site_fract_y
 _atom_site_fract_z
 _atom_site_occupancy
  Tm  Tm0  1  0.000000  0.000000  0.000000  1
  Tm  Tm1  1  0.500000  0.500000  0.500000  1
  Si  Si2  1  0.750000  0.750000  0.750000  1
  Si  Si3  1  0.250000  0.250000  0.250000  1
  Si  Si4  1  0.850543  0.064306  0.672285  1
  Si  Si5  1  0.672285  0.850543  0.064306  1
  Si  Si6  1  0.064306  0.672285  0.850543  1
  Si  Si7  1  0.649457  0.827715  0.435694  1
  Si  Si8  1  0.435694  0.649457  0.827715  1
  Si  Si9  1  0.827715  0.435694  0.649457  1
  Si  Si10  1  0.172285  0.564306  0.350543  1
  Si  Si11  1  0.564306  0.350543  0.172285  1
  Si  Si12  1  0.350543  0.172285  0.564306  1
  Si  Si13  1  0.935694  0.327715  0.149457  1
  Si  Si14  1  0.327715  0.149457  0.935694  1
  Si  Si15  1  0.149457  0.935694  0.327715  1
  Ir  Ir16  1  0.071575  0.428425  0.750000  1
  Ir  Ir17  1  0.250000  0.928425  0.571575  1
  Ir  Ir18  1  0.571575  0.250000  0.928425  1
  Ir  Ir19  1  0.928425  0.571575  0.250000  1
  Ir  Ir20  1  0.428425  0.750000  0.071575  1
  Ir  Ir21  1  0.750000  0.071575  0.428425  1
