# generated using pymatgen
data_NdY2Si2Ni
_symmetry_space_group_name_H-M   'P 1'
_cell_length_a   4.14599800
_cell_length_b   11.52907800
_cell_length_c   11.39762900
_cell_angle_alpha   90.00000000
_cell_angle_beta   90.00000000
_cell_angle_gamma   90.00000000
_symmetry_Int_Tables_number   1
_chemical_formula_structural   NdY2Si2Ni
_chemical_formula_sum   'Nd4 Y8 Si8 Ni4'
_cell_volume   544.80135866
_cell_formula_units_Z   4
loop_
 _symmetry_equiv_pos_site_id
 _symmetry_equiv_pos_as_xyz
  1  'x, y, z'
loop_
 _atom_site_type_symbol
 _atom_site_label
 _atom_site_symmetry_multiplicity
 _atom_site_fract_x
 _atom_site_fract_y
 _atom_site_fract_z
 _atom_site_occupancy
  Nd  Nd0  1  0.250000  0.125509  0.557130  1
  Nd  Nd1  1  0.250000  0.374491  0.057130  1
  Nd  Nd2  1  0.750000  0.874491  0.442870  1
  Nd  Nd3  1  0.750000  0.625509  0.942870  1
  Y  Y4  1  0.250000  0.805188  0.715159  1
  Y  Y5  1  0.250000  0.694812  0.215159  1
  Y  Y6  1  0.750000  0.194812  0.284841  1
  Y  Y7  1  0.750000  0.305188  0.784841  1
  Y  Y8  1  0.250000  0.058314  0.883937  1
  Y  Y9  1  0.250000  0.441686  0.383937  1
  Y  Y10  1  0.750000  0.941686  0.116063  1
  Y  Y11  1  0.750000  0.558314  0.616063  1
  Si  Si12  1  0.250000  0.492689  0.797886  1
  Si  Si13  1  0.250000  0.007311  0.297886  1
  Si  Si14  1  0.750000  0.507311  0.202114  1
  Si  Si15  1  0.750000  0.992689  0.702114  1
  Si  Si16  1  0.250000  0.817598  0.973616  1
  Si  Si17  1  0.250000  0.682402  0.473616  1
  Si  Si18  1  0.750000  0.182402  0.026384  1
  Si  Si19  1  0.750000  0.317598  0.526384  1
  Ni  Ni20  1  0.250000  0.368188  0.628561  1
  Ni  Ni21  1  0.250000  0.131812  0.128561  1
  Ni  Ni22  1  0.750000  0.631812  0.371439  1
  Ni  Ni23  1  0.750000  0.868188  0.871439  1
