# generated using pymatgen
data_Ho7Er3IrRu3
_symmetry_space_group_name_H-M   'P 1'
_cell_length_a   6.30546138
_cell_length_b   7.28977250
_cell_length_c   8.40610400
_cell_angle_alpha   96.79949018
_cell_angle_beta   111.90982162
_cell_angle_gamma   90.11309038
_symmetry_Int_Tables_number   1
_chemical_formula_structural   Ho7Er3IrRu3
_chemical_formula_sum   'Ho7 Er3 Ir1 Ru3'
_cell_volume   355.51337880
_cell_formula_units_Z   1
loop_
 _symmetry_equiv_pos_site_id
 _symmetry_equiv_pos_as_xyz
  1  'x, y, z'
loop_
 _atom_site_type_symbol
 _atom_site_label
 _atom_site_symmetry_multiplicity
 _atom_site_fract_x
 _atom_site_fract_y
 _atom_site_fract_z
 _atom_site_occupancy
  Ho  Ho0  1  0.792560  0.582294  0.814661  1
  Ho  Ho1  1  0.978524  0.915039  0.186973  1
  Ho  Ho2  1  0.208160  0.415380  0.185991  1
  Ho  Ho3  1  0.024323  0.085638  0.814756  1
  Ho  Ho4  1  0.204976  0.684103  0.564463  1
  Ho  Ho5  1  0.642072  0.815685  0.434334  1
  Ho  Ho6  1  0.793642  0.314786  0.434777  1
  Er  Er7  1  0.356959  0.185673  0.563839  1
  Er  Er8  1  0.419843  0.749686  0.000390  1
  Er  Er9  1  0.580117  0.251366  0.000658  1
  Ir  Ir10  1  0.601095  0.923635  0.779051  1
  Ru  Ru11  1  0.823571  0.576633  0.219896  1
  Ru  Ru12  1  0.396099  0.075888  0.220588  1
  Ru  Ru13  1  0.178059  0.424192  0.779620  1
