# generated using pymatgen
data_Dy5Si12Ir2Rh17
_symmetry_space_group_name_H-M   'P 1'
_cell_length_a   12.81626700
_cell_length_b   12.82156093
_cell_length_c   3.97001300
_cell_angle_alpha   90.00000000
_cell_angle_beta   90.00000000
_cell_angle_gamma   119.98634513
_symmetry_Int_Tables_number   1
_chemical_formula_structural   Dy5Si12Ir2Rh17
_chemical_formula_sum   'Dy5 Si12 Ir2 Rh17'
_cell_volume   565.04722725
_cell_formula_units_Z   1
loop_
 _symmetry_equiv_pos_site_id
 _symmetry_equiv_pos_as_xyz
  1  'x, y, z'
loop_
 _atom_site_type_symbol
 _atom_site_label
 _atom_site_symmetry_multiplicity
 _atom_site_fract_x
 _atom_site_fract_y
 _atom_site_fract_z
 _atom_site_occupancy
  Dy  Dy0  1  0.333401  0.666310  0.500000  1
  Dy  Dy1  1  0.667092  0.333690  0.500000  1
  Dy  Dy2  1  0.000380  0.814359  0.000000  1
  Dy  Dy3  1  0.186021  0.185641  0.000000  1
  Dy  Dy4  1  0.813968  0.000000  0.000000  1
  Si  Si5  1  0.000151  0.628104  0.500000  1
  Si  Si6  1  0.372047  0.371896  0.500000  1
  Si  Si7  1  0.628078  0.000000  0.500000  1
  Si  Si8  1  0.521833  0.686605  0.000000  1
  Si  Si9  1  0.313061  0.833929  0.000000  1
  Si  Si10  1  0.164875  0.477951  0.000000  1
  Si  Si11  1  0.479132  0.166071  0.000000  1
  Si  Si12  1  0.686924  0.522049  0.000000  1
  Si  Si13  1  0.835228  0.313395  0.000000  1
  Si  Si14  1  0.999960  0.183477  0.500000  1
  Si  Si15  1  0.816484  0.816523  0.500000  1
  Si  Si16  1  0.181236  0.000000  0.500000  1
  Ir  Ir17  1  0.279837  0.000000  0.000000  1
  Ir  Ir18  1  0.998290  0.000000  0.500000  1
  Rh  Rh19  1  0.513036  0.873249  0.000000  1
  Rh  Rh20  1  0.126565  0.639438  0.000000  1
  Rh  Rh21  1  0.360322  0.486894  0.000000  1
  Rh  Rh22  1  0.487128  0.360562  0.000000  1
  Rh  Rh23  1  0.873428  0.513106  0.000000  1
  Rh  Rh24  1  0.639787  0.126751  0.000000  1
  Rh  Rh25  1  0.000633  0.445297  0.500000  1
  Rh  Rh26  1  0.555336  0.554703  0.500000  1
  Rh  Rh27  1  0.445038  0.000000  0.500000  1
  Rh  Rh28  1  0.999948  0.279806  0.000000  1
  Rh  Rh29  1  0.720142  0.720194  0.000000  1
  Rh  Rh30  1  0.623549  0.806625  0.500000  1
  Rh  Rh31  1  0.193161  0.816569  0.500000  1
  Rh  Rh32  1  0.183220  0.376023  0.500000  1
  Rh  Rh33  1  0.376591  0.183431  0.500000  1
  Rh  Rh34  1  0.807196  0.623977  0.500000  1
  Rh  Rh35  1  0.816923  0.193375  0.500000  1
