# generated using pymatgen
data_Tm6FeCo15(P6W)2
_symmetry_space_group_name_H-M   'P 1'
_cell_length_a   3.69993500
_cell_length_b   10.54188400
_cell_length_c   12.17637400
_cell_angle_alpha   90.00000000
_cell_angle_beta   90.00000000
_cell_angle_gamma   90.00000000
_symmetry_Int_Tables_number   1
_chemical_formula_structural   Tm6FeCo15(P6W)2
_chemical_formula_sum   'Tm6 Fe1 Co15 P12 W2'
_cell_volume   474.93076879
_cell_formula_units_Z   1
loop_
 _symmetry_equiv_pos_site_id
 _symmetry_equiv_pos_as_xyz
  1  'x, y, z'
loop_
 _atom_site_type_symbol
 _atom_site_label
 _atom_site_symmetry_multiplicity
 _atom_site_fract_x
 _atom_site_fract_y
 _atom_site_fract_z
 _atom_site_occupancy
  Tm  Tm0  1  0.000000  0.500000  0.525026  1
  Tm  Tm1  1  0.500000  0.000000  0.474747  1
  Tm  Tm2  1  0.500000  0.819141  0.204637  1
  Tm  Tm3  1  0.500000  0.180859  0.204637  1
  Tm  Tm4  1  0.000000  0.679231  0.795863  1
  Tm  Tm5  1  0.000000  0.320769  0.795863  1
  Fe  Fe6  1  0.000000  0.500000  0.987439  1
  Co  Co7  1  0.500000  0.500000  0.699899  1
  Co  Co8  1  0.000000  0.000000  0.299591  1
  Co  Co9  1  0.500000  0.000000  0.013404  1
  Co  Co10  1  0.500000  0.330878  0.990828  1
  Co  Co11  1  0.500000  0.669122  0.990828  1
  Co  Co12  1  0.000000  0.166615  0.009462  1
  Co  Co13  1  0.000000  0.833385  0.009462  1
  Co  Co14  1  0.500000  0.295682  0.431811  1
  Co  Co15  1  0.500000  0.704318  0.431811  1
  Co  Co16  1  0.000000  0.204395  0.568519  1
  Co  Co17  1  0.000000  0.795605  0.568519  1
  Co  Co18  1  0.500000  0.877743  0.706669  1
  Co  Co19  1  0.500000  0.122257  0.706669  1
  Co  Co20  1  0.000000  0.622711  0.293127  1
  Co  Co21  1  0.000000  0.377289  0.293127  1
  P  P22  1  0.500000  0.500000  0.881668  1
  P  P23  1  0.000000  0.000000  0.120321  1
  P  P24  1  0.500000  0.500000  0.351901  1
  P  P25  1  0.000000  0.000000  0.647854  1
  P  P26  1  0.500000  0.311870  0.616533  1
  P  P27  1  0.500000  0.688130  0.616533  1
  P  P28  1  0.000000  0.187966  0.383621  1
  P  P29  1  0.000000  0.812034  0.383621  1
  P  P30  1  0.500000  0.843383  0.891642  1
  P  P31  1  0.500000  0.156617  0.891642  1
  P  P32  1  0.000000  0.655746  0.106684  1
  P  P33  1  0.000000  0.344254  0.106684  1
  W  W34  1  0.500000  0.500000  0.156765  1
  W  W35  1  0.000000  0.000000  0.842592  1
