# generated using pymatgen
data_Zr10Tl2(GaSb)3
_symmetry_space_group_name_H-M   'P 1'
_cell_length_a   8.67273500
_cell_length_b   8.67273518
_cell_length_c   5.87206400
_cell_angle_alpha   90.00000000
_cell_angle_beta   90.00000000
_cell_angle_gamma   119.87210306
_symmetry_Int_Tables_number   1
_chemical_formula_structural   Zr10Tl2(GaSb)3
_chemical_formula_sum   'Zr10 Tl2 Ga3 Sb3'
_cell_volume   382.99388503
_cell_formula_units_Z   1
loop_
 _symmetry_equiv_pos_site_id
 _symmetry_equiv_pos_as_xyz
  1  'x, y, z'
loop_
 _atom_site_type_symbol
 _atom_site_label
 _atom_site_symmetry_multiplicity
 _atom_site_fract_x
 _atom_site_fract_y
 _atom_site_fract_z
 _atom_site_occupancy
  Zr  Zr0  1  0.280098  0.280098  0.750000  1
  Zr  Zr1  1  0.735414  0.735414  0.250000  1
  Zr  Zr2  1  0.722799  0.984650  0.750000  1
  Zr  Zr3  1  0.001561  0.265509  0.250000  1
  Zr  Zr4  1  0.339533  0.665494  0.502450  1
  Zr  Zr5  1  0.665494  0.339533  0.502450  1
  Zr  Zr6  1  0.984650  0.722799  0.750000  1
  Zr  Zr7  1  0.339533  0.665494  0.997550  1
  Zr  Zr8  1  0.265509  0.001561  0.250000  1
  Zr  Zr9  1  0.665494  0.339533  0.997550  1
  Tl  Tl10  1  0.378802  0.996758  0.750000  1
  Tl  Tl11  1  0.996758  0.378802  0.750000  1
  Ga  Ga12  1  0.002945  0.002945  0.512073  1
  Ga  Ga13  1  0.613115  0.613115  0.750000  1
  Ga  Ga14  1  0.002945  0.002945  0.987927  1
  Sb  Sb15  1  0.611503  0.002928  0.250000  1
  Sb  Sb16  1  0.390920  0.390920  0.250000  1
  Sb  Sb17  1  0.002928  0.611503  0.250000  1
