# generated using pymatgen
data_DySi4IrRh5
_symmetry_space_group_name_H-M   'P 1'
_cell_length_a   6.99533100
_cell_length_b   7.02985121
_cell_length_c   3.80893100
_cell_angle_alpha   90.00000000
_cell_angle_beta   90.00000000
_cell_angle_gamma   119.83769859
_symmetry_Int_Tables_number   1
_chemical_formula_structural   DySi4IrRh5
_chemical_formula_sum   'Dy1 Si4 Ir1 Rh5'
_cell_volume   162.47856995
_cell_formula_units_Z   1
loop_
 _symmetry_equiv_pos_site_id
 _symmetry_equiv_pos_as_xyz
  1  'x, y, z'
loop_
 _atom_site_type_symbol
 _atom_site_label
 _atom_site_symmetry_multiplicity
 _atom_site_fract_x
 _atom_site_fract_y
 _atom_site_fract_z
 _atom_site_occupancy
  Dy  Dy0  1  0.999887  0.999774  0.000000  1
  Si  Si1  1  0.332876  0.665751  0.000000  1
  Si  Si2  1  0.399480  0.199360  0.500000  1
  Si  Si3  1  0.799880  0.199360  0.500000  1
  Si  Si4  1  0.800957  0.601914  0.500000  1
  Ir  Ir5  1  0.532946  0.065890  0.000000  1
  Rh  Rh6  1  0.533871  0.468088  0.000000  1
  Rh  Rh7  1  0.934217  0.468088  0.000000  1
  Rh  Rh8  1  0.197379  0.394757  0.500000  1
  Rh  Rh9  1  0.197655  0.801844  0.500000  1
  Rh  Rh10  1  0.604189  0.801844  0.500000  1
