# generated using pymatgen
data_NdYTm4(Co3P2)6
_symmetry_space_group_name_H-M   'P 1'
_cell_length_a   3.68930100
_cell_length_b   10.49438800
_cell_length_c   12.14526000
_cell_angle_alpha   90.00000000
_cell_angle_beta   90.00000000
_cell_angle_gamma   90.00000000
_symmetry_Int_Tables_number   1
_chemical_formula_structural   NdYTm4(Co3P2)6
_chemical_formula_sum   'Nd1 Y1 Tm4 Co18 P12'
_cell_volume   470.22749876
_cell_formula_units_Z   1
loop_
 _symmetry_equiv_pos_site_id
 _symmetry_equiv_pos_as_xyz
  1  'x, y, z'
loop_
 _atom_site_type_symbol
 _atom_site_label
 _atom_site_symmetry_multiplicity
 _atom_site_fract_x
 _atom_site_fract_y
 _atom_site_fract_z
 _atom_site_occupancy
  Nd  Nd0  1  0.000000  0.500000  0.522602  1
  Y  Y1  1  0.500000  0.000000  0.478108  1
  Tm  Tm2  1  0.500000  0.818158  0.205630  1
  Tm  Tm3  1  0.500000  0.181842  0.205630  1
  Tm  Tm4  1  0.000000  0.682837  0.795041  1
  Tm  Tm5  1  0.000000  0.317163  0.795041  1
  Co  Co6  1  0.500000  0.500000  0.156541  1
  Co  Co7  1  0.000000  0.000000  0.841661  1
  Co  Co8  1  0.500000  0.500000  0.706577  1
  Co  Co9  1  0.000000  0.000000  0.295180  1
  Co  Co10  1  0.000000  0.500000  0.986531  1
  Co  Co11  1  0.500000  0.000000  0.014227  1
  Co  Co12  1  0.500000  0.332836  0.994480  1
  Co  Co13  1  0.500000  0.667164  0.994480  1
  Co  Co14  1  0.000000  0.166472  0.005368  1
  Co  Co15  1  0.000000  0.833528  0.005368  1
  Co  Co16  1  0.500000  0.294250  0.429373  1
  Co  Co17  1  0.500000  0.705750  0.429373  1
  Co  Co18  1  0.000000  0.200872  0.570421  1
  Co  Co19  1  0.000000  0.799128  0.570421  1
  Co  Co20  1  0.500000  0.879503  0.711580  1
  Co  Co21  1  0.500000  0.120497  0.711580  1
  Co  Co22  1  0.000000  0.621880  0.287935  1
  Co  Co23  1  0.000000  0.378120  0.287935  1
  P  P24  1  0.500000  0.500000  0.883135  1
  P  P25  1  0.000000  0.000000  0.117767  1
  P  P26  1  0.500000  0.500000  0.339543  1
  P  P27  1  0.000000  0.000000  0.657012  1
  P  P28  1  0.500000  0.307371  0.618268  1
  P  P29  1  0.500000  0.692629  0.618268  1
  P  P30  1  0.000000  0.188828  0.382776  1
  P  P31  1  0.000000  0.811172  0.382776  1
  P  P32  1  0.500000  0.847063  0.893245  1
  P  P33  1  0.500000  0.152937  0.893245  1
  P  P34  1  0.000000  0.654124  0.106440  1
  P  P35  1  0.000000  0.345876  0.106440  1
