# generated using pymatgen
data_LuFeCoSi2
_symmetry_space_group_name_H-M   'P 1'
_cell_length_a   5.48720209
_cell_length_b   5.48720256
_cell_length_c   5.48720222
_cell_angle_alpha   138.41295841
_cell_angle_beta   138.41296875
_cell_angle_gamma   60.27111327
_symmetry_Int_Tables_number   1
_chemical_formula_structural   LuFeCoSi2
_chemical_formula_sum   'Lu1 Fe1 Co1 Si2'
_cell_volume   72.02915814
_cell_formula_units_Z   1
loop_
 _symmetry_equiv_pos_site_id
 _symmetry_equiv_pos_as_xyz
  1  'x, y, z'
loop_
 _atom_site_type_symbol
 _atom_site_label
 _atom_site_symmetry_multiplicity
 _atom_site_fract_x
 _atom_site_fract_y
 _atom_site_fract_z
 _atom_site_occupancy
  Lu  Lu0  1  0.000000  0.000000  0.000000  1
  Fe  Fe1  1  0.250000  0.750000  0.500000  1
  Co  Co2  1  0.750000  0.250000  0.500000  1
  Si  Si3  1  0.370279  0.370279  0.000000  1
  Si  Si4  1  0.629721  0.629721  0.000000  1
