# generated using pymatgen
data_CaNdTh2(Al3Ir)6
_symmetry_space_group_name_H-M   'P 1'
_cell_length_a   7.63330772
_cell_length_b   7.62070050
_cell_length_c   9.55368800
_cell_angle_alpha   90.00000000
_cell_angle_beta   90.00000000
_cell_angle_gamma   119.39588055
_symmetry_Int_Tables_number   1
_chemical_formula_structural   CaNdTh2(Al3Ir)6
_chemical_formula_sum   'Ca1 Nd1 Th2 Al18 Ir6'
_cell_volume   484.19585019
_cell_formula_units_Z   1
loop_
 _symmetry_equiv_pos_site_id
 _symmetry_equiv_pos_as_xyz
  1  'x, y, z'
loop_
 _atom_site_type_symbol
 _atom_site_label
 _atom_site_symmetry_multiplicity
 _atom_site_fract_x
 _atom_site_fract_y
 _atom_site_fract_z
 _atom_site_occupancy
  Ca  Ca0  1  0.004923  0.327782  0.750000  1
  Nd  Nd1  1  0.327973  0.003903  0.750000  1
  Th  Th2  1  0.994756  0.670836  0.250000  1
  Th  Th3  1  0.672359  0.996436  0.250000  1
  Al  Al4  1  0.133687  0.134930  0.250000  1
  Al  Al5  1  0.872014  0.871625  0.750000  1
  Al  Al6  1  0.005284  0.335815  0.068830  1
  Al  Al7  1  0.997915  0.661903  0.921053  1
  Al  Al8  1  0.997915  0.661903  0.578947  1
  Al  Al9  1  0.335770  0.005654  0.427635  1
  Al  Al10  1  0.005284  0.335815  0.431170  1
  Al  Al11  1  0.666720  0.999967  0.579018  1
  Al  Al12  1  0.666720  0.999967  0.920982  1
  Al  Al13  1  0.335770  0.005654  0.072365  1
  Al  Al14  1  0.332272  0.333826  0.550727  1
  Al  Al15  1  0.663214  0.663532  0.456291  1
  Al  Al16  1  0.663214  0.663532  0.043709  1
  Al  Al17  1  0.332272  0.333826  0.949273  1
  Al  Al18  1  0.339478  0.543694  0.250000  1
  Al  Al19  1  0.659048  0.450384  0.750000  1
  Al  Al20  1  0.543477  0.340531  0.250000  1
  Al  Al21  1  0.450435  0.659585  0.750000  1
  Ir  Ir22  1  0.671954  0.328940  0.003102  1
  Ir  Ir23  1  0.329828  0.673551  0.002800  1
  Ir  Ir24  1  0.329828  0.673551  0.497200  1
  Ir  Ir25  1  0.671954  0.328940  0.496898  1
  Ir  Ir26  1  0.997968  0.996959  0.003607  1
  Ir  Ir27  1  0.997968  0.996959  0.496393  1
