# generated using pymatgen
data_Pr7Sn23Ir6
_symmetry_space_group_name_H-M   'P 1'
_cell_length_a   10.01958500
_cell_length_b   10.01958562
_cell_length_c   10.27354400
_cell_angle_alpha   90.00000000
_cell_angle_beta   90.00000000
_cell_angle_gamma   120.00000784
_symmetry_Int_Tables_number   1
_chemical_formula_structural   Pr7Sn23Ir6
_chemical_formula_sum   'Pr7 Sn23 Ir6'
_cell_volume   893.20342052
_cell_formula_units_Z   1
loop_
 _symmetry_equiv_pos_site_id
 _symmetry_equiv_pos_as_xyz
  1  'x, y, z'
loop_
 _atom_site_type_symbol
 _atom_site_label
 _atom_site_symmetry_multiplicity
 _atom_site_fract_x
 _atom_site_fract_y
 _atom_site_fract_z
 _atom_site_occupancy
  Pr  Pr0  1  0.000000  0.000000  0.000000  1
  Pr  Pr1  1  0.477917  0.522083  0.305621  1
  Pr  Pr2  1  0.522083  0.477917  0.694379  1
  Pr  Pr3  1  0.477917  0.955834  0.305621  1
  Pr  Pr4  1  0.522083  0.044166  0.694379  1
  Pr  Pr5  1  0.044166  0.522083  0.305621  1
  Pr  Pr6  1  0.955834  0.477917  0.694379  1
  Sn  Sn7  1  0.352157  0.000000  0.000000  1
  Sn  Sn8  1  0.647843  0.000000  0.000000  1
  Sn  Sn9  1  0.000000  0.352157  0.000000  1
  Sn  Sn10  1  0.000000  0.647843  0.000000  1
  Sn  Sn11  1  0.647843  0.647843  0.000000  1
  Sn  Sn12  1  0.352157  0.352157  0.000000  1
  Sn  Sn13  1  0.333333  0.666667  0.824877  1
  Sn  Sn14  1  0.666667  0.333333  0.175123  1
  Sn  Sn15  1  0.000000  0.000000  0.500000  1
  Sn  Sn16  1  0.778974  0.221026  0.453188  1
  Sn  Sn17  1  0.221026  0.778974  0.546812  1
  Sn  Sn18  1  0.778974  0.557949  0.453188  1
  Sn  Sn19  1  0.221026  0.442051  0.546812  1
  Sn  Sn20  1  0.442051  0.221026  0.453188  1
  Sn  Sn21  1  0.557949  0.778974  0.546812  1
  Sn  Sn22  1  0.333333  0.666667  0.112550  1
  Sn  Sn23  1  0.666667  0.333333  0.887450  1
  Sn  Sn24  1  0.116101  0.883899  0.283225  1
  Sn  Sn25  1  0.883899  0.116101  0.716775  1
  Sn  Sn26  1  0.116101  0.232203  0.283225  1
  Sn  Sn27  1  0.883899  0.767797  0.716775  1
  Sn  Sn28  1  0.767797  0.883899  0.283225  1
  Sn  Sn29  1  0.232203  0.116101  0.716775  1
  Ir  Ir30  1  0.832238  0.167762  0.196716  1
  Ir  Ir31  1  0.167762  0.832238  0.803284  1
  Ir  Ir32  1  0.832238  0.664476  0.196716  1
  Ir  Ir33  1  0.167762  0.335524  0.803284  1
  Ir  Ir34  1  0.335524  0.167762  0.196716  1
  Ir  Ir35  1  0.664476  0.832238  0.803284  1
