# generated using pymatgen
data_Dy16Cd3NiHgIr3
_symmetry_space_group_name_H-M   'P 1'
_cell_length_a   9.59138435
_cell_length_b   9.59138358
_cell_length_c   9.59138475
_cell_angle_alpha   60.32823218
_cell_angle_beta   60.32823301
_cell_angle_gamma   60.32823171
_symmetry_Int_Tables_number   1
_chemical_formula_structural   Dy16Cd3NiHgIr3
_chemical_formula_sum   'Dy16 Cd3 Ni1 Hg1 Ir3'
_cell_volume   628.55335518
_cell_formula_units_Z   1
loop_
 _symmetry_equiv_pos_site_id
 _symmetry_equiv_pos_as_xyz
  1  'x, y, z'
loop_
 _atom_site_type_symbol
 _atom_site_label
 _atom_site_symmetry_multiplicity
 _atom_site_fract_x
 _atom_site_fract_y
 _atom_site_fract_z
 _atom_site_occupancy
  Dy  Dy0  1  0.598482  0.598482  0.598482  1
  Dy  Dy1  1  0.599114  0.599114  0.201689  1
  Dy  Dy2  1  0.599114  0.201689  0.599114  1
  Dy  Dy3  1  0.201689  0.599114  0.599114  1
  Dy  Dy4  1  0.061178  0.439919  0.439919  1
  Dy  Dy5  1  0.438271  0.059648  0.059648  1
  Dy  Dy6  1  0.439919  0.061178  0.439919  1
  Dy  Dy7  1  0.059648  0.438271  0.059648  1
  Dy  Dy8  1  0.439919  0.439919  0.061178  1
  Dy  Dy9  1  0.059648  0.059648  0.438271  1
  Dy  Dy10  1  0.188133  0.811655  0.811655  1
  Dy  Dy11  1  0.813742  0.187112  0.187112  1
  Dy  Dy12  1  0.811655  0.188133  0.811655  1
  Dy  Dy13  1  0.187112  0.813742  0.187112  1
  Dy  Dy14  1  0.811655  0.811655  0.188133  1
  Dy  Dy15  1  0.187112  0.187112  0.813742  1
  Cd  Cd16  1  0.831368  0.831368  0.506060  1
  Cd  Cd17  1  0.831368  0.506060  0.831368  1
  Cd  Cd18  1  0.506060  0.831368  0.831368  1
  Ni  Ni19  1  0.392086  0.392086  0.392086  1
  Hg  Hg20  1  0.833547  0.833547  0.833547  1
  Ir  Ir21  1  0.392181  0.392181  0.824816  1
  Ir  Ir22  1  0.392181  0.824816  0.392181  1
  Ir  Ir23  1  0.824816  0.392181  0.392181  1
