# generated using pymatgen
data_CeSm2(Bi2Rh)4
_symmetry_space_group_name_H-M   'P 1'
_cell_length_a   4.20296300
_cell_length_b   10.96549300
_cell_length_c   16.87837200
_cell_angle_alpha   90.00000000
_cell_angle_beta   90.00000000
_cell_angle_gamma   90.00000000
_symmetry_Int_Tables_number   1
_chemical_formula_structural   CeSm2(Bi2Rh)4
_chemical_formula_sum   'Ce2 Sm4 Bi16 Rh8'
_cell_volume   777.88300514
_cell_formula_units_Z   2
loop_
 _symmetry_equiv_pos_site_id
 _symmetry_equiv_pos_as_xyz
  1  'x, y, z'
loop_
 _atom_site_type_symbol
 _atom_site_label
 _atom_site_symmetry_multiplicity
 _atom_site_fract_x
 _atom_site_fract_y
 _atom_site_fract_z
 _atom_site_occupancy
  Ce  Ce0  1  0.500000  0.000000  0.500000  1
  Ce  Ce1  1  0.500000  0.500000  0.000000  1
  Sm  Sm2  1  0.500000  0.867373  0.193830  1
  Sm  Sm3  1  0.500000  0.132627  0.806170  1
  Sm  Sm4  1  0.500000  0.367373  0.306170  1
  Sm  Sm5  1  0.500000  0.632627  0.693830  1
  Bi  Bi6  1  0.000000  0.114348  0.214893  1
  Bi  Bi7  1  0.000000  0.885652  0.785107  1
  Bi  Bi8  1  0.000000  0.614348  0.285107  1
  Bi  Bi9  1  0.000000  0.385652  0.714893  1
  Bi  Bi10  1  0.000000  0.399642  0.145647  1
  Bi  Bi11  1  0.000000  0.600358  0.854353  1
  Bi  Bi12  1  0.000000  0.899642  0.354353  1
  Bi  Bi13  1  0.000000  0.100358  0.645647  1
  Bi  Bi14  1  0.500000  0.128317  0.038682  1
  Bi  Bi15  1  0.500000  0.871683  0.961318  1
  Bi  Bi16  1  0.500000  0.628317  0.461318  1
  Bi  Bi17  1  0.500000  0.371683  0.538682  1
  Bi  Bi18  1  0.000000  0.697129  0.083994  1
  Bi  Bi19  1  0.000000  0.302871  0.916006  1
  Bi  Bi20  1  0.000000  0.197129  0.416006  1
  Bi  Bi21  1  0.000000  0.802871  0.583994  1
  Rh  Rh22  1  0.000000  0.953699  0.082801  1
  Rh  Rh23  1  0.000000  0.046301  0.917199  1
  Rh  Rh24  1  0.000000  0.453699  0.417199  1
  Rh  Rh25  1  0.000000  0.546301  0.582801  1
  Rh  Rh26  1  0.500000  0.579947  0.173038  1
  Rh  Rh27  1  0.500000  0.420053  0.826962  1
  Rh  Rh28  1  0.500000  0.079947  0.326962  1
  Rh  Rh29  1  0.500000  0.920053  0.673038  1
