# generated using pymatgen
data_SmTm5(Si3Ru)8
_symmetry_space_group_name_H-M   'P 1'
_cell_length_a   10.10211980
_cell_length_b   10.10212056
_cell_length_c   8.11832761
_cell_angle_alpha   89.90580318
_cell_angle_beta   90.09419539
_cell_angle_gamma   132.59887773
_symmetry_Int_Tables_number   1
_chemical_formula_structural   SmTm5(Si3Ru)8
_chemical_formula_sum   'Sm1 Tm5 Si24 Ru8'
_cell_volume   609.86520526
_cell_formula_units_Z   1
loop_
 _symmetry_equiv_pos_site_id
 _symmetry_equiv_pos_as_xyz
  1  'x, y, z'
loop_
 _atom_site_type_symbol
 _atom_site_label
 _atom_site_symmetry_multiplicity
 _atom_site_fract_x
 _atom_site_fract_y
 _atom_site_fract_z
 _atom_site_occupancy
  Sm  Sm0  1  0.997433  0.497433  0.250000  1
  Tm  Tm1  1  0.497544  0.997544  0.250000  1
  Tm  Tm2  1  0.002244  0.502244  0.750000  1
  Tm  Tm3  1  0.501978  0.001978  0.750000  1
  Tm  Tm4  1  0.499973  0.499976  0.500163  1
  Tm  Tm5  1  0.999976  0.999973  0.999837  1
  Si  Si6  1  0.388465  0.155590  0.005047  1
  Si  Si7  1  0.655590  0.888465  0.494953  1
  Si  Si8  1  0.112567  0.346897  0.506577  1
  Si  Si9  1  0.846897  0.612567  0.993423  1
  Si  Si10  1  0.611345  0.844183  0.995506  1
  Si  Si11  1  0.344183  0.111345  0.504494  1
  Si  Si12  1  0.887457  0.653704  0.496689  1
  Si  Si13  1  0.153704  0.387457  0.003311  1
  Si  Si14  1  0.611862  0.377421  0.229231  1
  Si  Si15  1  0.877421  0.111862  0.270769  1
  Si  Si16  1  0.888533  0.122481  0.728080  1
  Si  Si17  1  0.622481  0.388533  0.771920  1
  Si  Si18  1  0.386720  0.620411  0.771829  1
  Si  Si19  1  0.120411  0.886720  0.728171  1
  Si  Si20  1  0.704122  0.293832  0.998586  1
  Si  Si21  1  0.793832  0.204122  0.501414  1
  Si  Si22  1  0.295742  0.705964  0.998664  1
  Si  Si23  1  0.205964  0.795742  0.501336  1
  Si  Si24  1  0.167611  0.167767  0.332857  1
  Si  Si25  1  0.667767  0.667611  0.167143  1
  Si  Si26  1  0.332324  0.332273  0.833087  1
  Si  Si27  1  0.832273  0.832324  0.666913  1
  Si  Si28  1  0.379273  0.613501  0.228646  1
  Si  Si29  1  0.113501  0.879273  0.271354  1
  Ru  Ru30  1  0.626854  0.626475  0.872767  1
  Ru  Ru31  1  0.126475  0.126854  0.627233  1
  Ru  Ru32  1  0.873759  0.873602  0.372268  1
  Ru  Ru33  1  0.373602  0.373759  0.127732  1
  Ru  Ru34  1  0.334116  0.672468  0.501611  1
  Ru  Ru35  1  0.172468  0.834116  0.998389  1
  Ru  Ru36  1  0.665937  0.327593  0.502350  1
  Ru  Ru37  1  0.827593  0.165937  0.997650  1
