# generated using pymatgen
data_Y16Cd2Hg2Ir3Pt
_symmetry_space_group_name_H-M   'P 1'
_cell_length_a   9.66576830
_cell_length_b   9.66576773
_cell_length_c   9.66422291
_cell_angle_alpha   60.13917430
_cell_angle_beta   60.13917518
_cell_angle_gamma   60.16366303
_symmetry_Int_Tables_number   1
_chemical_formula_structural   Y16Cd2Hg2Ir3Pt
_chemical_formula_sum   'Y16 Cd2 Hg2 Ir3 Pt1'
_cell_volume   640.57741333
_cell_formula_units_Z   1
loop_
 _symmetry_equiv_pos_site_id
 _symmetry_equiv_pos_as_xyz
  1  'x, y, z'
loop_
 _atom_site_type_symbol
 _atom_site_label
 _atom_site_symmetry_multiplicity
 _atom_site_fract_x
 _atom_site_fract_y
 _atom_site_fract_z
 _atom_site_occupancy
  Y  Y0  1  0.348700  0.348700  0.348137  1
  Y  Y1  1  0.353113  0.353113  0.947426  1
  Y  Y2  1  0.354217  0.944907  0.353325  1
  Y  Y3  1  0.944907  0.354217  0.353325  1
  Y  Y4  1  0.805220  0.190985  0.191722  1
  Y  Y5  1  0.187775  0.809614  0.809809  1
  Y  Y6  1  0.190985  0.805220  0.191722  1
  Y  Y7  1  0.809614  0.187775  0.809809  1
  Y  Y8  1  0.190647  0.190647  0.806002  1
  Y  Y9  1  0.808796  0.808796  0.189139  1
  Y  Y10  1  0.938183  0.561834  0.562733  1
  Y  Y11  1  0.562960  0.936616  0.938652  1
  Y  Y12  1  0.561834  0.938183  0.562733  1
  Y  Y13  1  0.936616  0.562960  0.938652  1
  Y  Y14  1  0.561896  0.561896  0.939465  1
  Y  Y15  1  0.937377  0.937377  0.563663  1
  Cd  Cd16  1  0.580179  0.257939  0.580718  1
  Cd  Cd17  1  0.257939  0.580179  0.580718  1
  Hg  Hg18  1  0.583853  0.583853  0.585901  1
  Hg  Hg19  1  0.584472  0.584472  0.244607  1
  Ir  Ir20  1  0.141979  0.141979  0.574121  1
  Ir  Ir21  1  0.141604  0.574585  0.142295  1
  Ir  Ir22  1  0.574585  0.141604  0.142295  1
  Pt  Pt23  1  0.142551  0.142551  0.143030  1
