# generated using pymatgen
data_Er5Co19(SiP5)2
_symmetry_space_group_name_H-M   'P 1'
_cell_length_a   11.99809400
_cell_length_b   12.00670748
_cell_length_c   3.67239600
_cell_angle_alpha   90.00000000
_cell_angle_beta   90.00000000
_cell_angle_gamma   119.97627180
_symmetry_Int_Tables_number   1
_chemical_formula_structural   Er5Co19(SiP5)2
_chemical_formula_sum   'Er5 Co19 Si2 P10'
_cell_volume   458.26861809
_cell_formula_units_Z   1
loop_
 _symmetry_equiv_pos_site_id
 _symmetry_equiv_pos_as_xyz
  1  'x, y, z'
loop_
 _atom_site_type_symbol
 _atom_site_label
 _atom_site_symmetry_multiplicity
 _atom_site_fract_x
 _atom_site_fract_y
 _atom_site_fract_z
 _atom_site_occupancy
  Er  Er0  1  0.332822  0.665799  0.000000  1
  Er  Er1  1  0.667024  0.334201  0.000000  1
  Er  Er2  1  0.999947  0.184605  0.500000  1
  Er  Er3  1  0.815342  0.815395  0.500000  1
  Er  Er4  1  0.187684  0.000000  0.500000  1
  Co  Co5  1  0.621635  0.824897  0.000000  1
  Co  Co6  1  0.179004  0.801707  0.000000  1
  Co  Co7  1  0.202308  0.377226  0.000000  1
  Co  Co8  1  0.377297  0.198293  0.000000  1
  Co  Co9  1  0.825082  0.622774  0.000000  1
  Co  Co10  1  0.796739  0.175103  0.000000  1
  Co  Co11  1  0.002011  0.557973  0.000000  1
  Co  Co12  1  0.444038  0.442027  0.000000  1
  Co  Co13  1  0.551844  0.000000  0.000000  1
  Co  Co14  1  0.514445  0.641697  0.500000  1
  Co  Co15  1  0.357957  0.874654  0.500000  1
  Co  Co16  1  0.127667  0.485468  0.500000  1
  Co  Co17  1  0.483303  0.125346  0.500000  1
  Co  Co18  1  0.642199  0.514532  0.500000  1
  Co  Co19  1  0.872748  0.358303  0.500000  1
  Co  Co20  1  0.001167  0.716793  0.500000  1
  Co  Co21  1  0.284374  0.283207  0.500000  1
  Co  Co22  1  0.714489  0.000000  0.500000  1
  Co  Co23  1  0.999929  0.000000  0.000000  1
  Si  Si24  1  0.999881  0.368498  0.000000  1
  Si  Si25  1  0.631383  0.631502  0.000000  1
  P  P26  1  0.367820  0.000000  0.000000  1
  P  P27  1  0.519030  0.833159  0.500000  1
  P  P28  1  0.165764  0.685498  0.500000  1
  P  P29  1  0.314208  0.479515  0.500000  1
  P  P30  1  0.480266  0.314502  0.500000  1
  P  P31  1  0.834694  0.520485  0.500000  1
  P  P32  1  0.685871  0.166841  0.500000  1
  P  P33  1  0.000524  0.819365  0.000000  1
  P  P34  1  0.181158  0.180635  0.000000  1
  P  P35  1  0.818345  0.000000  0.000000  1
