# generated using pymatgen
data_Nd7Ho13(Si7Au)2
_symmetry_space_group_name_H-M   'P 1'
_cell_length_a   7.54194546
_cell_length_b   7.89884023
_cell_length_c   15.03706400
_cell_angle_alpha   89.84238426
_cell_angle_beta   89.94514242
_cell_angle_gamma   89.92170504
_symmetry_Int_Tables_number   1
_chemical_formula_structural   Nd7Ho13(Si7Au)2
_chemical_formula_sum   'Nd7 Ho13 Si14 Au2'
_cell_volume   895.79269968
_cell_formula_units_Z   1
loop_
 _symmetry_equiv_pos_site_id
 _symmetry_equiv_pos_as_xyz
  1  'x, y, z'
loop_
 _atom_site_type_symbol
 _atom_site_label
 _atom_site_symmetry_multiplicity
 _atom_site_fract_x
 _atom_site_fract_y
 _atom_site_fract_z
 _atom_site_occupancy
  Nd  Nd0  1  0.975644  0.825919  0.092968  1
  Nd  Nd1  1  0.476203  0.673879  0.408323  1
  Nd  Nd2  1  0.527285  0.317342  0.898596  1
  Nd  Nd3  1  0.026472  0.182608  0.598273  1
  Nd  Nd4  1  0.026300  0.182483  0.900206  1
  Nd  Nd5  1  0.528554  0.317318  0.600214  1
  Nd  Nd6  1  0.477499  0.672476  0.092815  1
  Ho  Ho7  1  0.645325  0.981673  0.251129  1
  Ho  Ho8  1  0.148614  0.517976  0.250960  1
  Ho  Ho9  1  0.849694  0.489096  0.749202  1
  Ho  Ho10  1  0.350217  0.011803  0.749765  1
  Ho  Ho11  1  0.970248  0.820078  0.403910  1
  Ho  Ho12  1  0.684292  0.824360  0.875391  1
  Ho  Ho13  1  0.181926  0.679574  0.623100  1
  Ho  Ho14  1  0.816737  0.317937  0.121688  1
  Ho  Ho15  1  0.314372  0.178624  0.380447  1
  Ho  Ho16  1  0.315590  0.179648  0.121391  1
  Ho  Ho17  1  0.816305  0.317495  0.379121  1
  Ho  Ho18  1  0.183021  0.676731  0.875437  1
  Ho  Ho19  1  0.685847  0.825887  0.624477  1
  Si  Si20  1  0.733700  0.124533  0.749688  1
  Si  Si21  1  0.231974  0.377757  0.749251  1
  Si  Si22  1  0.018188  0.112952  0.251456  1
  Si  Si23  1  0.519587  0.382237  0.250242  1
  Si  Si24  1  0.478241  0.615880  0.749544  1
  Si  Si25  1  0.979916  0.887234  0.749374  1
  Si  Si26  1  0.856257  0.531426  0.959502  1
  Si  Si27  1  0.360687  0.970990  0.542218  1
  Si  Si28  1  0.642470  0.030040  0.037743  1
  Si  Si29  1  0.141123  0.472556  0.461156  1
  Si  Si30  1  0.142900  0.469544  0.037930  1
  Si  Si31  1  0.647213  0.027373  0.461319  1
  Si  Si32  1  0.357017  0.969323  0.958760  1
  Si  Si33  1  0.856103  0.535425  0.539044  1
  Au  Au34  1  0.769526  0.624730  0.252006  1
  Au  Au35  1  0.264951  0.875096  0.253354  1
