# generated using pymatgen
data_Pr16YLu3Sn16
_symmetry_space_group_name_H-M   'P 1'
_cell_length_a   8.25661801
_cell_length_b   8.41684601
_cell_length_c   16.00042400
_cell_angle_alpha   90.00000000
_cell_angle_beta   90.00000000
_cell_angle_gamma   89.99465308
_symmetry_Int_Tables_number   1
_chemical_formula_structural   Pr16YLu3Sn16
_chemical_formula_sum   'Pr16 Y1 Lu3 Sn16'
_cell_volume   1111.94437831
_cell_formula_units_Z   1
loop_
 _symmetry_equiv_pos_site_id
 _symmetry_equiv_pos_as_xyz
  1  'x, y, z'
loop_
 _atom_site_type_symbol
 _atom_site_label
 _atom_site_symmetry_multiplicity
 _atom_site_fract_x
 _atom_site_fract_y
 _atom_site_fract_z
 _atom_site_occupancy
  Pr  Pr0  1  0.367590  0.838277  0.879381  1
  Pr  Pr1  1  0.866751  0.662425  0.620679  1
  Pr  Pr2  1  0.632709  0.162055  0.379296  1
  Pr  Pr3  1  0.132781  0.337944  0.120849  1
  Pr  Pr4  1  0.632709  0.162055  0.120704  1
  Pr  Pr5  1  0.132781  0.337944  0.379151  1
  Pr  Pr6  1  0.367590  0.838277  0.620619  1
  Pr  Pr7  1  0.866751  0.662425  0.879321  1
  Pr  Pr8  1  0.518982  0.318426  0.901436  1
  Pr  Pr9  1  0.018543  0.181194  0.598640  1
  Pr  Pr10  1  0.481342  0.681382  0.401312  1
  Pr  Pr11  1  0.981365  0.818606  0.098655  1
  Pr  Pr12  1  0.481342  0.681382  0.098688  1
  Pr  Pr13  1  0.981365  0.818606  0.401345  1
  Pr  Pr14  1  0.518982  0.318426  0.598564  1
  Pr  Pr15  1  0.018543  0.181194  0.901360  1
  Y  Y16  1  0.198235  0.501743  0.750000  1
  Lu  Lu17  1  0.699017  0.998162  0.750000  1
  Lu  Lu18  1  0.800965  0.498173  0.250000  1
  Lu  Lu19  1  0.300982  0.001753  0.250000  1
  Sn  Sn20  1  0.291787  0.033539  0.045020  1
  Sn  Sn21  1  0.791797  0.466509  0.454982  1
  Sn  Sn22  1  0.708196  0.966443  0.544953  1
  Sn  Sn23  1  0.208212  0.533617  0.955393  1
  Sn  Sn24  1  0.708196  0.966443  0.955047  1
  Sn  Sn25  1  0.208212  0.533617  0.544607  1
  Sn  Sn26  1  0.291787  0.033539  0.454980  1
  Sn  Sn27  1  0.791797  0.466509  0.045018  1
  Sn  Sn28  1  0.563668  0.616496  0.750000  1
  Sn  Sn29  1  0.062670  0.883808  0.750000  1
  Sn  Sn30  1  0.437128  0.383654  0.250000  1
  Sn  Sn31  1  0.937108  0.116395  0.250000  1
  Sn  Sn32  1  0.323690  0.146615  0.750000  1
  Sn  Sn33  1  0.823585  0.352324  0.750000  1
  Sn  Sn34  1  0.676480  0.852457  0.250000  1
  Sn  Sn35  1  0.176360  0.647590  0.250000  1
