# generated using pymatgen
data_Pr8Er12Si15Au
_symmetry_space_group_name_H-M   'P 1'
_cell_length_a   7.51481212
_cell_length_b   7.77913957
_cell_length_c   14.82886600
_cell_angle_alpha   89.88171303
_cell_angle_beta   89.46051381
_cell_angle_gamma   90.23126686
_symmetry_Int_Tables_number   1
_chemical_formula_structural   Pr8Er12Si15Au
_chemical_formula_sum   'Pr8 Er12 Si15 Au1'
_cell_volume   866.82989597
_cell_formula_units_Z   1
loop_
 _symmetry_equiv_pos_site_id
 _symmetry_equiv_pos_as_xyz
  1  'x, y, z'
loop_
 _atom_site_type_symbol
 _atom_site_label
 _atom_site_symmetry_multiplicity
 _atom_site_fract_x
 _atom_site_fract_y
 _atom_site_fract_z
 _atom_site_occupancy
  Pr  Pr0  1  0.016299  0.175920  0.399494  1
  Pr  Pr1  1  0.519103  0.321804  0.398720  1
  Pr  Pr2  1  0.478047  0.678015  0.901896  1
  Pr  Pr3  1  0.485052  0.679205  0.599948  1
  Pr  Pr4  1  0.980761  0.827604  0.598862  1
  Pr  Pr5  1  0.978202  0.822495  0.902231  1
  Pr  Pr6  1  0.520302  0.321387  0.098034  1
  Pr  Pr7  1  0.021441  0.178860  0.099603  1
  Er  Er8  1  0.330421  0.177008  0.623658  1
  Er  Er9  1  0.672367  0.822934  0.375269  1
  Er  Er10  1  0.658401  0.991252  0.750243  1
  Er  Er11  1  0.174774  0.672611  0.376273  1
  Er  Er12  1  0.823192  0.320555  0.878042  1
  Er  Er13  1  0.824004  0.325736  0.622625  1
  Er  Er14  1  0.843796  0.492555  0.251262  1
  Er  Er15  1  0.343826  0.005015  0.249503  1
  Er  Er16  1  0.322072  0.177205  0.877297  1
  Er  Er17  1  0.176376  0.677422  0.123029  1
  Er  Er18  1  0.678485  0.823327  0.123330  1
  Er  Er19  1  0.157687  0.507837  0.749552  1
  Si  Si20  1  0.274832  0.881378  0.750705  1
  Si  Si21  1  0.469794  0.614618  0.248065  1
  Si  Si22  1  0.030858  0.118408  0.751484  1
  Si  Si23  1  0.532775  0.385184  0.752397  1
  Si  Si24  1  0.971361  0.883347  0.249935  1
  Si  Si25  1  0.722539  0.121466  0.248493  1
  Si  Si26  1  0.852931  0.532869  0.039239  1
  Si  Si27  1  0.353128  0.966973  0.039587  1
  Si  Si28  1  0.145602  0.467040  0.961248  1
  Si  Si29  1  0.649483  0.034572  0.537734  1
  Si  Si30  1  0.349629  0.965852  0.460404  1
  Si  Si31  1  0.841236  0.535824  0.458233  1
  Si  Si32  1  0.777092  0.619782  0.752645  1
  Si  Si33  1  0.224768  0.376637  0.248610  1
  Si  Si34  1  0.645628  0.031428  0.960545  1
  Au  Au35  1  0.153734  0.465875  0.541807  1
