# generated using pymatgen
data_DyEr2Fe8Ru
_symmetry_space_group_name_H-M   'P 1'
_cell_length_a   8.78957101
_cell_length_b   8.78957087
_cell_length_c   8.78957033
_cell_angle_alpha   33.54234593
_cell_angle_beta   33.54234542
_cell_angle_gamma   33.54234192
_symmetry_Int_Tables_number   1
_chemical_formula_structural   DyEr2Fe8Ru
_chemical_formula_sum   'Dy1 Er2 Fe8 Ru1'
_cell_volume   184.66445533
_cell_formula_units_Z   1
loop_
 _symmetry_equiv_pos_site_id
 _symmetry_equiv_pos_as_xyz
  1  'x, y, z'
loop_
 _atom_site_type_symbol
 _atom_site_label
 _atom_site_symmetry_multiplicity
 _atom_site_fract_x
 _atom_site_fract_y
 _atom_site_fract_z
 _atom_site_occupancy
  Dy  Dy0  1  0.000000  0.000000  0.000000  1
  Er  Er1  1  0.141768  0.141768  0.141768  1
  Er  Er2  1  0.858232  0.858232  0.858232  1
  Fe  Fe3  1  0.418229  0.418229  0.923156  1
  Fe  Fe4  1  0.923156  0.418229  0.418229  1
  Fe  Fe5  1  0.581771  0.076844  0.581771  1
  Fe  Fe6  1  0.581771  0.581771  0.076844  1
  Fe  Fe7  1  0.418229  0.923156  0.418229  1
  Fe  Fe8  1  0.076844  0.581771  0.581771  1
  Fe  Fe9  1  0.332817  0.332817  0.332817  1
  Fe  Fe10  1  0.667183  0.667183  0.667183  1
  Ru  Ru11  1  0.500000  0.500000  0.500000  1
