# generated using pymatgen
data_Er8NbSi16Mo11
_symmetry_space_group_name_H-M   'P 1'
_cell_length_a   6.75612803
_cell_length_b   6.94422704
_cell_length_c   12.92028700
_cell_angle_alpha   90.00000000
_cell_angle_beta   90.00000000
_cell_angle_gamma   90.18240895
_symmetry_Int_Tables_number   1
_chemical_formula_structural   Er8NbSi16Mo11
_chemical_formula_sum   'Er8 Nb1 Si16 Mo11'
_cell_volume   606.16623658
_cell_formula_units_Z   1
loop_
 _symmetry_equiv_pos_site_id
 _symmetry_equiv_pos_as_xyz
  1  'x, y, z'
loop_
 _atom_site_type_symbol
 _atom_site_label
 _atom_site_symmetry_multiplicity
 _atom_site_fract_x
 _atom_site_fract_y
 _atom_site_fract_z
 _atom_site_occupancy
  Er  Er0  1  0.499082  0.331713  0.093899  1
  Er  Er1  1  0.995923  0.169569  0.406210  1
  Er  Er2  1  0.503027  0.667656  0.594317  1
  Er  Er3  1  0.003984  0.832560  0.905991  1
  Er  Er4  1  0.503027  0.667656  0.905683  1
  Er  Er5  1  0.003984  0.832560  0.594009  1
  Er  Er6  1  0.499082  0.331713  0.406101  1
  Er  Er7  1  0.995923  0.169569  0.093790  1
  Nb  Nb8  1  0.837332  0.504582  0.250000  1
  Si  Si9  1  0.803735  0.631510  0.750000  1
  Si  Si10  1  0.303257  0.869828  0.750000  1
  Si  Si11  1  0.203202  0.366162  0.250000  1
  Si  Si12  1  0.697070  0.126280  0.250000  1
  Si  Si13  1  0.533799  0.367068  0.750000  1
  Si  Si14  1  0.035270  0.133276  0.750000  1
  Si  Si15  1  0.461088  0.632819  0.250000  1
  Si  Si16  1  0.966678  0.873320  0.250000  1
  Si  Si17  1  0.660164  0.040443  0.547335  1
  Si  Si18  1  0.160854  0.457248  0.953093  1
  Si  Si19  1  0.338290  0.959028  0.047075  1
  Si  Si20  1  0.838616  0.542849  0.456864  1
  Si  Si21  1  0.338290  0.959028  0.452925  1
  Si  Si22  1  0.838616  0.542849  0.043136  1
  Si  Si23  1  0.660164  0.040443  0.952665  1
  Si  Si24  1  0.160854  0.457248  0.546907  1
  Mo  Mo25  1  0.667562  0.996653  0.750000  1
  Mo  Mo26  1  0.165043  0.500978  0.750000  1
  Mo  Mo27  1  0.332334  0.001269  0.250000  1
  Mo  Mo28  1  0.828984  0.336145  0.626085  1
  Mo  Mo29  1  0.331391  0.165106  0.874615  1
  Mo  Mo30  1  0.169357  0.662962  0.124420  1
  Mo  Mo31  1  0.667140  0.832845  0.375697  1
  Mo  Mo32  1  0.169357  0.662962  0.375580  1
  Mo  Mo33  1  0.667140  0.832845  0.124303  1
  Mo  Mo34  1  0.828984  0.336145  0.873915  1
  Mo  Mo35  1  0.331391  0.165106  0.625385  1
