# generated using pymatgen
data_Ca3CdRuRh3O14
_symmetry_space_group_name_H-M   'P 1'
_cell_length_a   7.31604140
_cell_length_b   7.28599696
_cell_length_c   7.20370226
_cell_angle_alpha   59.62137317
_cell_angle_beta   59.84739525
_cell_angle_gamma   60.13574956
_symmetry_Int_Tables_number   1
_chemical_formula_structural   Ca3CdRuRh3O14
_chemical_formula_sum   'Ca3 Cd1 Ru1 Rh3 O14'
_cell_volume   270.69932046
_cell_formula_units_Z   1
loop_
 _symmetry_equiv_pos_site_id
 _symmetry_equiv_pos_as_xyz
  1  'x, y, z'
loop_
 _atom_site_type_symbol
 _atom_site_label
 _atom_site_symmetry_multiplicity
 _atom_site_fract_x
 _atom_site_fract_y
 _atom_site_fract_z
 _atom_site_occupancy
  Ca  Ca0  1  0.125000  0.625000  0.125000  1
  Ca  Ca1  1  0.625000  0.125000  0.125000  1
  Ca  Ca2  1  0.125000  0.125000  0.125000  1
  Cd  Cd3  1  0.125000  0.125000  0.625000  1
  Ru  Ru4  1  0.125000  0.625000  0.625000  1
  Rh  Rh5  1  0.625000  0.125000  0.625000  1
  Rh  Rh6  1  0.625000  0.625000  0.125000  1
  Rh  Rh7  1  0.625000  0.625000  0.625000  1
  O  O8  1  0.709521  0.698014  0.295340  1
  O  O9  1  0.946066  0.557282  0.558601  1
  O  O10  1  0.540479  0.952876  0.954660  1
  O  O11  1  0.946066  0.938051  0.558601  1
  O  O12  1  0.949687  0.553223  0.943868  1
  O  O13  1  0.545010  0.949979  0.555033  1
  O  O14  1  0.300313  0.696777  0.306132  1
  O  O15  1  0.303934  0.692718  0.691399  1
  O  O16  1  0.709521  0.297124  0.295340  1
  O  O17  1  0.704990  0.300021  0.694967  1
  O  O18  1  0.540479  0.551986  0.954660  1
  O  O19  1  0.303934  0.311949  0.691399  1
  O  O20  1  0.242469  0.245049  0.267434  1
  O  O21  1  0.007531  0.004951  0.982566  1
