# generated using pymatgen
data_Tb4Ga18CoNiRh4
_symmetry_space_group_name_H-M   'P 1'
_cell_length_a   7.54940669
_cell_length_b   7.54940626
_cell_length_c   9.46929658
_cell_angle_alpha   90.01983293
_cell_angle_beta   90.01983084
_cell_angle_gamma   120.07498457
_symmetry_Int_Tables_number   1
_chemical_formula_structural   Tb4Ga18CoNiRh4
_chemical_formula_sum   'Tb4 Ga18 Co1 Ni1 Rh4'
_cell_volume   467.03047283
_cell_formula_units_Z   1
loop_
 _symmetry_equiv_pos_site_id
 _symmetry_equiv_pos_as_xyz
  1  'x, y, z'
loop_
 _atom_site_type_symbol
 _atom_site_label
 _atom_site_symmetry_multiplicity
 _atom_site_fract_x
 _atom_site_fract_y
 _atom_site_fract_z
 _atom_site_occupancy
  Tb  Tb0  1  0.996360  0.662384  0.249639  1
  Tb  Tb1  1  0.003640  0.337616  0.750361  1
  Tb  Tb2  1  0.662384  0.996360  0.249639  1
  Tb  Tb3  1  0.337616  0.003640  0.750361  1
  Ga  Ga4  1  0.112878  0.112878  0.248222  1
  Ga  Ga5  1  0.887122  0.887122  0.751778  1
  Ga  Ga6  1  0.000308  0.326329  0.076706  1
  Ga  Ga7  1  0.999692  0.673671  0.923294  1
  Ga  Ga8  1  0.999910  0.671617  0.578386  1
  Ga  Ga9  1  0.328383  0.000090  0.421614  1
  Ga  Ga10  1  0.000090  0.328383  0.421614  1
  Ga  Ga11  1  0.671617  0.999910  0.578386  1
  Ga  Ga12  1  0.673671  0.999692  0.923294  1
  Ga  Ga13  1  0.326329  0.000308  0.076706  1
  Ga  Ga14  1  0.328687  0.328687  0.562739  1
  Ga  Ga15  1  0.671313  0.671313  0.437261  1
  Ga  Ga16  1  0.675125  0.675125  0.061050  1
  Ga  Ga17  1  0.324875  0.324875  0.938950  1
  Ga  Ga18  1  0.337949  0.543048  0.249631  1
  Ga  Ga19  1  0.662051  0.456952  0.750369  1
  Ga  Ga20  1  0.543048  0.337949  0.249631  1
  Ga  Ga21  1  0.456952  0.662051  0.750369  1
  Co  Co22  1  0.000000  0.000000  0.000000  1
  Ni  Ni23  1  0.000000  0.000000  0.500000  1
  Rh  Rh24  1  0.671561  0.328439  0.000000  1
  Rh  Rh25  1  0.328439  0.671561  0.000000  1
  Rh  Rh26  1  0.328560  0.671440  0.500000  1
  Rh  Rh27  1  0.671440  0.328560  0.500000  1
