# generated using pymatgen
data_La8Y12Si15Pd
_symmetry_space_group_name_H-M   'P 1'
_cell_length_a   7.56477700
_cell_length_b   7.94396521
_cell_length_c   14.98713500
_cell_angle_alpha   90.00000000
_cell_angle_beta   90.00000000
_cell_angle_gamma   90.11574614
_symmetry_Int_Tables_number   1
_chemical_formula_structural   La8Y12Si15Pd
_chemical_formula_sum   'La8 Y12 Si15 Pd1'
_cell_volume   900.63992835
_cell_formula_units_Z   1
loop_
 _symmetry_equiv_pos_site_id
 _symmetry_equiv_pos_as_xyz
  1  'x, y, z'
loop_
 _atom_site_type_symbol
 _atom_site_label
 _atom_site_symmetry_multiplicity
 _atom_site_fract_x
 _atom_site_fract_y
 _atom_site_fract_z
 _atom_site_occupancy
  La  La0  1  0.018762  0.181698  0.097434  1
  La  La1  1  0.984546  0.820419  0.904001  1
  La  La2  1  0.482904  0.677264  0.903735  1
  La  La3  1  0.984546  0.820419  0.595999  1
  La  La4  1  0.518148  0.322051  0.096879  1
  La  La5  1  0.018762  0.181698  0.402566  1
  La  La6  1  0.518148  0.322051  0.403121  1
  La  La7  1  0.482904  0.677264  0.596265  1
  Y  Y8  1  0.153225  0.513866  0.750000  1
  Y  Y9  1  0.842548  0.489308  0.250000  1
  Y  Y10  1  0.343257  0.011438  0.250000  1
  Y  Y11  1  0.659892  0.990183  0.750000  1
  Y  Y12  1  0.318731  0.173750  0.624577  1
  Y  Y13  1  0.678284  0.824985  0.375318  1
  Y  Y14  1  0.177529  0.678807  0.376264  1
  Y  Y15  1  0.678284  0.824985  0.124682  1
  Y  Y16  1  0.821998  0.322311  0.623139  1
  Y  Y17  1  0.318731  0.173750  0.875423  1
  Y  Y18  1  0.821998  0.322311  0.876861  1
  Y  Y19  1  0.177529  0.678807  0.123736  1
  Si  Si20  1  0.973135  0.886062  0.250000  1
  Si  Si21  1  0.471276  0.614070  0.250000  1
  Si  Si22  1  0.526935  0.389077  0.750000  1
  Si  Si23  1  0.279635  0.873414  0.750000  1
  Si  Si24  1  0.722442  0.122692  0.250000  1
  Si  Si25  1  0.223121  0.378954  0.250000  1
  Si  Si26  1  0.769959  0.618193  0.750000  1
  Si  Si27  1  0.147427  0.470559  0.539043  1
  Si  Si28  1  0.853589  0.532747  0.461563  1
  Si  Si29  1  0.354928  0.968692  0.461553  1
  Si  Si30  1  0.853589  0.532747  0.038437  1
  Si  Si31  1  0.647201  0.030877  0.538487  1
  Si  Si32  1  0.147427  0.470559  0.960957  1
  Si  Si33  1  0.647201  0.030877  0.961513  1
  Si  Si34  1  0.354928  0.968692  0.038447  1
  Pd  Pd35  1  0.026480  0.104422  0.750000  1
