# generated using pymatgen
data_Zr2Ta2TiIr
_symmetry_space_group_name_H-M   'P 1'
_cell_length_a   5.35648566
_cell_length_b   5.36216532
_cell_length_c   5.35648634
_cell_angle_alpha   62.70574935
_cell_angle_beta   62.78633668
_cell_angle_gamma   62.70576091
_symmetry_Int_Tables_number   1
_chemical_formula_structural   Zr2Ta2TiIr
_chemical_formula_sum   'Zr2 Ta2 Ti1 Ir1'
_cell_volume   115.40220460
_cell_formula_units_Z   1
loop_
 _symmetry_equiv_pos_site_id
 _symmetry_equiv_pos_as_xyz
  1  'x, y, z'
loop_
 _atom_site_type_symbol
 _atom_site_label
 _atom_site_symmetry_multiplicity
 _atom_site_fract_x
 _atom_site_fract_y
 _atom_site_fract_z
 _atom_site_occupancy
  Zr  Zr0  1  0.500460  0.499941  0.500460  1
  Zr  Zr1  1  0.749540  0.750059  0.749540  1
  Ta  Ta2  1  0.625000  0.125000  0.125000  1
  Ta  Ta3  1  0.125000  0.125000  0.625000  1
  Ti  Ti4  1  0.125000  0.625000  0.125000  1
  Ir  Ir5  1  0.125000  0.125000  0.125000  1
