# generated using pymatgen
data_Co6Si(MoW2)2
_symmetry_space_group_name_H-M   'P 1'
_cell_length_a   8.91128545
_cell_length_b   8.91128587
_cell_length_c   8.91128617
_cell_angle_alpha   30.99756426
_cell_angle_beta   30.99755838
_cell_angle_gamma   30.99756166
_symmetry_Int_Tables_number   1
_chemical_formula_structural   Co6Si(MoW2)2
_chemical_formula_sum   'Co6 Si1 Mo2 W4'
_cell_volume   166.50117798
_cell_formula_units_Z   1
loop_
 _symmetry_equiv_pos_site_id
 _symmetry_equiv_pos_as_xyz
  1  'x, y, z'
loop_
 _atom_site_type_symbol
 _atom_site_label
 _atom_site_symmetry_multiplicity
 _atom_site_fract_x
 _atom_site_fract_y
 _atom_site_fract_z
 _atom_site_occupancy
  Co  Co0  1  0.091524  0.091524  0.587567  1
  Co  Co1  1  0.411821  0.908869  0.908869  1
  Co  Co2  1  0.587567  0.091524  0.091524  1
  Co  Co3  1  0.908869  0.908869  0.411821  1
  Co  Co4  1  0.908869  0.411821  0.908869  1
  Co  Co5  1  0.091524  0.587567  0.091524  1
  Si  Si6  1  0.999997  0.999997  0.999997  1
  Mo  Mo7  1  0.168095  0.168095  0.168095  1
  Mo  Mo8  1  0.347248  0.347248  0.347248  1
  W  W9  1  0.831987  0.831987  0.831987  1
  W  W10  1  0.652834  0.652834  0.652834  1
  W  W11  1  0.449974  0.449974  0.449974  1
  W  W12  1  0.549688  0.549688  0.549688  1
