# generated using pymatgen
data_SrY3Si5Rh9
_symmetry_space_group_name_H-M   'P 1'
_cell_length_a   11.67091623
_cell_length_b   11.67091584
_cell_length_c   11.67091536
_cell_angle_alpha   27.74124311
_cell_angle_beta   27.74124586
_cell_angle_gamma   27.74124742
_symmetry_Int_Tables_number   1
_chemical_formula_structural   SrY3Si5Rh9
_chemical_formula_sum   'Sr1 Y3 Si5 Rh9'
_cell_volume   304.11633224
_cell_formula_units_Z   1
loop_
 _symmetry_equiv_pos_site_id
 _symmetry_equiv_pos_as_xyz
  1  'x, y, z'
loop_
 _atom_site_type_symbol
 _atom_site_label
 _atom_site_symmetry_multiplicity
 _atom_site_fract_x
 _atom_site_fract_y
 _atom_site_fract_z
 _atom_site_occupancy
  Sr  Sr0  1  0.948153  0.948153  0.948153  1
  Y  Y1  1  0.851019  0.851019  0.851019  1
  Y  Y2  1  0.148654  0.148654  0.148654  1
  Y  Y3  1  0.050230  0.050230  0.050230  1
  Si  Si4  1  0.278529  0.278529  0.278529  1
  Si  Si5  1  0.499781  0.499781  0.499781  1
  Si  Si6  1  0.388420  0.388420  0.388420  1
  Si  Si7  1  0.722057  0.722057  0.722057  1
  Si  Si8  1  0.612049  0.612049  0.612049  1
  Rh  Rh9  1  0.607801  0.607801  0.109510  1
  Rh  Rh10  1  0.890879  0.391201  0.391201  1
  Rh  Rh11  1  0.501059  0.000599  0.501059  1
  Rh  Rh12  1  0.391201  0.890879  0.391201  1
  Rh  Rh13  1  0.501059  0.501059  0.000599  1
  Rh  Rh14  1  0.109510  0.607801  0.607801  1
  Rh  Rh15  1  0.000599  0.501059  0.501059  1
  Rh  Rh16  1  0.391201  0.391201  0.890879  1
  Rh  Rh17  1  0.607801  0.109510  0.607801  1
