# generated using pymatgen
data_Mg4Mn3Rh8W
_symmetry_space_group_name_H-M   'P 1'
_cell_length_a   6.10048700
_cell_length_b   6.10072700
_cell_length_c   6.11541300
_cell_angle_alpha   90.00000000
_cell_angle_beta   90.00000000
_cell_angle_gamma   90.00000000
_symmetry_Int_Tables_number   1
_chemical_formula_structural   Mg4Mn3Rh8W
_chemical_formula_sum   'Mg4 Mn3 Rh8 W1'
_cell_volume   227.59980697
_cell_formula_units_Z   1
loop_
 _symmetry_equiv_pos_site_id
 _symmetry_equiv_pos_as_xyz
  1  'x, y, z'
loop_
 _atom_site_type_symbol
 _atom_site_label
 _atom_site_symmetry_multiplicity
 _atom_site_fract_x
 _atom_site_fract_y
 _atom_site_fract_z
 _atom_site_occupancy
  Mg  Mg0  1  0.750056  0.250000  0.000000  1
  Mg  Mg1  1  0.249959  0.750000  0.000000  1
  Mg  Mg2  1  0.750074  0.250000  0.499999  1
  Mg  Mg3  1  0.249951  0.750000  0.500001  1
  Mn  Mn4  1  0.749966  0.750000  0.000000  1
  Mn  Mn5  1  0.750000  0.750000  0.499999  1
  Mn  Mn6  1  0.249972  0.250000  0.500001  1
  Rh  Rh7  1  0.002159  0.002159  0.247775  1
  Rh  Rh8  1  0.002159  0.497841  0.247775  1
  Rh  Rh9  1  0.497844  0.002162  0.247791  1
  Rh  Rh10  1  0.497844  0.497838  0.247791  1
  Rh  Rh11  1  0.497842  0.002162  0.752210  1
  Rh  Rh12  1  0.497842  0.497838  0.752210  1
  Rh  Rh13  1  0.002159  0.002159  0.752225  1
  Rh  Rh14  1  0.002159  0.497841  0.752225  1
  W  W15  1  0.250011  0.250000  0.000000  1
