# generated using pymatgen
data_Er3Hf(Al3Ir)6
_symmetry_space_group_name_H-M   'P 1'
_cell_length_a   7.53661512
_cell_length_b   7.52775734
_cell_length_c   9.39251200
_cell_angle_alpha   90.00000000
_cell_angle_beta   90.00000000
_cell_angle_gamma   119.57258068
_symmetry_Int_Tables_number   1
_chemical_formula_structural   Er3Hf(Al3Ir)6
_chemical_formula_sum   'Er3 Hf1 Al18 Ir6'
_cell_volume   463.45626966
_cell_formula_units_Z   1
loop_
 _symmetry_equiv_pos_site_id
 _symmetry_equiv_pos_as_xyz
  1  'x, y, z'
loop_
 _atom_site_type_symbol
 _atom_site_label
 _atom_site_symmetry_multiplicity
 _atom_site_fract_x
 _atom_site_fract_y
 _atom_site_fract_z
 _atom_site_occupancy
  Er  Er0  1  0.005724  0.327168  0.750000  1
  Er  Er1  1  0.671645  0.996049  0.250000  1
  Er  Er2  1  0.328530  0.006356  0.750000  1
  Hf  Hf3  1  0.997727  0.673330  0.250000  1
  Al  Al4  1  0.126223  0.123821  0.250000  1
  Al  Al5  1  0.870736  0.869685  0.750000  1
  Al  Al6  1  0.000244  0.337965  0.079082  1
  Al  Al7  1  0.999211  0.664706  0.928008  1
  Al  Al8  1  0.999211  0.664706  0.571992  1
  Al  Al9  1  0.332710  0.998255  0.420758  1
  Al  Al10  1  0.000244  0.337965  0.420918  1
  Al  Al11  1  0.664316  0.998408  0.575160  1
  Al  Al12  1  0.664316  0.998408  0.924840  1
  Al  Al13  1  0.332710  0.998255  0.079242  1
  Al  Al14  1  0.333649  0.333761  0.551791  1
  Al  Al15  1  0.669011  0.666898  0.442727  1
  Al  Al16  1  0.669011  0.666898  0.057273  1
  Al  Al17  1  0.333649  0.333761  0.948209  1
  Al  Al18  1  0.336319  0.549570  0.250000  1
  Al  Al19  1  0.660569  0.451687  0.750000  1
  Al  Al20  1  0.554975  0.344130  0.250000  1
  Al  Al21  1  0.450362  0.659458  0.750000  1
  Ir  Ir22  1  0.672853  0.328456  0.001093  1
  Ir  Ir23  1  0.327229  0.672349  0.001763  1
  Ir  Ir24  1  0.327229  0.672349  0.498237  1
  Ir  Ir25  1  0.672853  0.328456  0.498907  1
  Ir  Ir26  1  0.999373  0.998577  0.001270  1
  Ir  Ir27  1  0.999373  0.998577  0.498730  1
