# generated using pymatgen
data_Dy20AsRu11
_symmetry_space_group_name_H-M   'P 1'
_cell_length_a   10.83809874
_cell_length_b   10.83809807
_cell_length_c   6.39802125
_cell_angle_alpha   90.15344315
_cell_angle_beta   90.15343736
_cell_angle_gamma   89.84247152
_symmetry_Int_Tables_number   1
_chemical_formula_structural   Dy20AsRu11
_chemical_formula_sum   'Dy20 As1 Ru11'
_cell_volume   751.53136471
_cell_formula_units_Z   1
loop_
 _symmetry_equiv_pos_site_id
 _symmetry_equiv_pos_as_xyz
  1  'x, y, z'
loop_
 _atom_site_type_symbol
 _atom_site_label
 _atom_site_symmetry_multiplicity
 _atom_site_fract_x
 _atom_site_fract_y
 _atom_site_fract_z
 _atom_site_occupancy
  Dy  Dy0  1  0.291485  0.087121  0.378605  1
  Dy  Dy1  1  0.292974  0.918529  0.876009  1
  Dy  Dy2  1  0.708906  0.087586  0.878491  1
  Dy  Dy3  1  0.707974  0.912557  0.379216  1
  Dy  Dy4  1  0.591788  0.794550  0.877534  1
  Dy  Dy5  1  0.587819  0.205628  0.377019  1
  Dy  Dy6  1  0.415371  0.797164  0.372258  1
  Dy  Dy7  1  0.412907  0.208952  0.877327  1
  Dy  Dy8  1  0.205450  0.408212  0.622466  1
  Dy  Dy9  1  0.202836  0.584629  0.127742  1
  Dy  Dy10  1  0.794372  0.412181  0.122981  1
  Dy  Dy11  1  0.791048  0.587093  0.622673  1
  Dy  Dy12  1  0.912879  0.708515  0.121395  1
  Dy  Dy13  1  0.912414  0.291094  0.621509  1
  Dy  Dy14  1  0.081471  0.707026  0.623991  1
  Dy  Dy15  1  0.087443  0.292026  0.120784  1
  Dy  Dy16  1  0.999930  0.999705  0.499384  1
  Dy  Dy17  1  0.000295  0.000070  0.000616  1
  Dy  Dy18  1  0.502581  0.497055  0.002925  1
  Dy  Dy19  1  0.502945  0.497419  0.497075  1
  As  As20  1  0.344953  0.655047  0.750000  1
  Ru  Ru21  1  0.846519  0.153481  0.250000  1
  Ru  Ru22  1  0.847164  0.846508  0.750504  1
  Ru  Ru23  1  0.153492  0.152836  0.749496  1
  Ru  Ru24  1  0.153553  0.846447  0.250000  1
  Ru  Ru25  1  0.652595  0.347405  0.750000  1
  Ru  Ru26  1  0.648589  0.651083  0.252184  1
  Ru  Ru27  1  0.348917  0.351411  0.247816  1
  Ru  Ru28  1  0.500295  0.998720  0.122512  1
  Ru  Ru29  1  0.500716  0.000961  0.625490  1
  Ru  Ru30  1  0.999039  0.499284  0.874510  1
  Ru  Ru31  1  0.001280  0.499705  0.377488  1
