# generated using pymatgen
data_Zr12Al7Zn5N2
_symmetry_space_group_name_H-M   'P 1'
_cell_length_a   8.61223846
_cell_length_b   8.61925172
_cell_length_c   8.61925200
_cell_angle_alpha   59.99999894
_cell_angle_beta   59.97305721
_cell_angle_gamma   59.97304678
_symmetry_Int_Tables_number   1
_chemical_formula_structural   Zr12Al7Zn5N2
_chemical_formula_sum   'Zr12 Al7 Zn5 N2'
_cell_volume   452.23395872
_cell_formula_units_Z   1
loop_
 _symmetry_equiv_pos_site_id
 _symmetry_equiv_pos_as_xyz
  1  'x, y, z'
loop_
 _atom_site_type_symbol
 _atom_site_label
 _atom_site_symmetry_multiplicity
 _atom_site_fract_x
 _atom_site_fract_y
 _atom_site_fract_z
 _atom_site_occupancy
  Zr  Zr0  1  0.188605  0.810728  0.189939  1
  Zr  Zr1  1  0.439126  0.060629  0.439617  1
  Zr  Zr2  1  0.439126  0.060629  0.060629  1
  Zr  Zr3  1  0.439126  0.439617  0.060629  1
  Zr  Zr4  1  0.188605  0.810728  0.810728  1
  Zr  Zr5  1  0.061271  0.439224  0.060282  1
  Zr  Zr6  1  0.810411  0.810350  0.189620  1
  Zr  Zr7  1  0.061271  0.439224  0.439224  1
  Zr  Zr8  1  0.188605  0.189939  0.810728  1
  Zr  Zr9  1  0.810411  0.189620  0.189620  1
  Zr  Zr10  1  0.810411  0.189620  0.810350  1
  Zr  Zr11  1  0.061271  0.060282  0.439224  1
  Al  Al12  1  0.832308  0.501605  0.833044  1
  Al  Al13  1  0.417017  0.416688  0.749605  1
  Al  Al14  1  0.749018  0.416994  0.416994  1
  Al  Al15  1  0.417017  0.416688  0.416688  1
  Al  Al16  1  0.832308  0.833044  0.501605  1
  Al  Al17  1  0.417017  0.749605  0.416688  1
  Al  Al18  1  0.832308  0.833044  0.833044  1
  Zn  Zn19  1  0.504394  0.831869  0.831869  1
  Zn  Zn20  1  0.624849  0.124614  0.625269  1
  Zn  Zn21  1  0.624849  0.625269  0.124614  1
  Zn  Zn22  1  0.124615  0.625128  0.625128  1
  Zn  Zn23  1  0.624849  0.625269  0.625269  1
  N  N24  1  0.001030  0.999657  0.999657  1
  N  N25  1  0.250181  0.249940  0.249940  1
