# generated using pymatgen
data_Er8Tm4Co4SnRu
_symmetry_space_group_name_H-M   'P 1'
_cell_length_a   8.19234800
_cell_length_b   8.19234911
_cell_length_c   8.19234804
_cell_angle_alpha   111.39162986
_cell_angle_beta   110.79933897
_cell_angle_gamma   106.26993922
_symmetry_Int_Tables_number   1
_chemical_formula_structural   Er8Tm4Co4SnRu
_chemical_formula_sum   'Er8 Tm4 Co4 Sn1 Ru1'
_cell_volume   422.26030549
_cell_formula_units_Z   1
loop_
 _symmetry_equiv_pos_site_id
 _symmetry_equiv_pos_as_xyz
  1  'x, y, z'
loop_
 _atom_site_type_symbol
 _atom_site_label
 _atom_site_symmetry_multiplicity
 _atom_site_fract_x
 _atom_site_fract_y
 _atom_site_fract_z
 _atom_site_occupancy
  Er  Er0  1  0.412255  0.218126  0.194128  1
  Er  Er1  1  0.587745  0.781874  0.805872  1
  Er  Er2  1  0.023998  0.218126  0.805872  1
  Er  Er3  1  0.976002  0.781874  0.194128  1
  Er  Er4  1  0.183780  0.283604  0.467384  1
  Er  Er5  1  0.816220  0.716396  0.532616  1
  Er  Er6  1  0.183780  0.716396  0.900176  1
  Er  Er7  1  0.816220  0.283604  0.099824  1
  Tm  Tm8  1  0.313563  0.620911  0.307347  1
  Tm  Tm9  1  0.686437  0.379089  0.692653  1
  Tm  Tm10  1  0.313563  0.006217  0.692653  1
  Tm  Tm11  1  0.686437  0.993783  0.307347  1
  Co  Co12  1  0.375794  0.000000  0.375794  1
  Co  Co13  1  0.624206  0.000000  0.624206  1
  Co  Co14  1  0.111960  0.611960  0.500000  1
  Co  Co15  1  0.888040  0.388040  0.500000  1
  Sn  Sn16  1  0.500000  0.500000  0.000000  1
  Ru  Ru17  1  0.000000  0.000000  0.000000  1
