# generated using pymatgen
data_CePr5FeBr10
_symmetry_space_group_name_H-M   'P 1'
_cell_length_a   7.65352729
_cell_length_b   9.35350385
_cell_length_c   9.66930700
_cell_angle_alpha   107.88953789
_cell_angle_beta   97.42160888
_cell_angle_gamma   104.64872971
_symmetry_Int_Tables_number   1
_chemical_formula_structural   CePr5FeBr10
_chemical_formula_sum   'Ce1 Pr5 Fe1 Br10'
_cell_volume   621.02704537
_cell_formula_units_Z   1
loop_
 _symmetry_equiv_pos_site_id
 _symmetry_equiv_pos_as_xyz
  1  'x, y, z'
loop_
 _atom_site_type_symbol
 _atom_site_label
 _atom_site_symmetry_multiplicity
 _atom_site_fract_x
 _atom_site_fract_y
 _atom_site_fract_z
 _atom_site_occupancy
  Ce  Ce0  1  0.534837  0.240337  0.423332  1
  Pr  Pr1  1  0.462742  0.774068  0.580085  1
  Pr  Pr2  1  0.128753  0.355868  0.313720  1
  Pr  Pr3  1  0.871202  0.639519  0.685312  1
  Pr  Pr4  1  0.629657  0.554876  0.248982  1
  Pr  Pr5  1  0.371256  0.444923  0.751287  1
  Fe  Fe6  1  0.504638  0.475735  0.493071  1
  Br  Br7  1  0.156978  0.044306  0.230185  1
  Br  Br8  1  0.839053  0.952696  0.768466  1
  Br  Br9  1  0.246870  0.422674  0.049521  1
  Br  Br10  1  0.752672  0.586937  0.954135  1
  Br  Br11  1  0.704496  0.247598  0.153384  1
  Br  Br12  1  0.298543  0.756090  0.844952  1
  Br  Br13  1  0.047957  0.679770  0.417675  1
  Br  Br14  1  0.955094  0.321419  0.583352  1
  Br  Br15  1  0.413165  0.128003  0.672550  1
  Br  Br16  1  0.582089  0.875181  0.329992  1
