# generated using pymatgen
data_Y13Er3MgHg3Ir4
_symmetry_space_group_name_H-M   'P 1'
_cell_length_a   9.63606293
_cell_length_b   9.63874797
_cell_length_c   9.63874800
_cell_angle_alpha   59.99999989
_cell_angle_beta   59.99078196
_cell_angle_gamma   59.99077726
_symmetry_Int_Tables_number   1
_chemical_formula_structural   Y13Er3MgHg3Ir4
_chemical_formula_sum   'Y13 Er3 Mg1 Hg3 Ir4'
_cell_volume   632.94407654
_cell_formula_units_Z   1
loop_
 _symmetry_equiv_pos_site_id
 _symmetry_equiv_pos_as_xyz
  1  'x, y, z'
loop_
 _atom_site_type_symbol
 _atom_site_label
 _atom_site_symmetry_multiplicity
 _atom_site_fract_x
 _atom_site_fract_y
 _atom_site_fract_z
 _atom_site_occupancy
  Y  Y0  1  0.192860  0.602380  0.602380  1
  Y  Y1  1  0.058971  0.440690  0.440690  1
  Y  Y2  1  0.437501  0.061862  0.061862  1
  Y  Y3  1  0.437501  0.061862  0.438776  1
  Y  Y4  1  0.058971  0.440690  0.059649  1
  Y  Y5  1  0.437501  0.438776  0.061862  1
  Y  Y6  1  0.058971  0.059649  0.440690  1
  Y  Y7  1  0.186112  0.812744  0.812744  1
  Y  Y8  1  0.811419  0.187778  0.187778  1
  Y  Y9  1  0.811419  0.187778  0.813024  1
  Y  Y10  1  0.186112  0.812744  0.188401  1
  Y  Y11  1  0.811419  0.813024  0.187778  1
  Y  Y12  1  0.186112  0.188401  0.812744  1
  Er  Er13  1  0.599639  0.597808  0.597808  1
  Er  Er14  1  0.599639  0.597808  0.204743  1
  Er  Er15  1  0.599639  0.204743  0.597808  1
  Mg  Mg16  1  0.536517  0.821161  0.821161  1
  Hg  Hg17  1  0.830812  0.836278  0.836278  1
  Hg  Hg18  1  0.830812  0.836278  0.496633  1
  Hg  Hg19  1  0.830812  0.496633  0.836278  1
  Ir  Ir20  1  0.392000  0.393220  0.393220  1
  Ir  Ir21  1  0.392000  0.393220  0.821559  1
  Ir  Ir22  1  0.392000  0.821559  0.393220  1
  Ir  Ir23  1  0.821263  0.392912  0.392912  1
