# generated using pymatgen
data_Pu4Al(SiB4)2
_symmetry_space_group_name_H-M   'P 1'
_cell_length_a   7.13779200
_cell_length_b   7.13779200
_cell_length_c   7.71130800
_cell_angle_alpha   90.00000000
_cell_angle_beta   90.00000000
_cell_angle_gamma   90.00000000
_symmetry_Int_Tables_number   1
_chemical_formula_structural   Pu4Al(SiB4)2
_chemical_formula_sum   'Pu8 Al2 Si4 B16'
_cell_volume   392.87629552
_cell_formula_units_Z   2
loop_
 _symmetry_equiv_pos_site_id
 _symmetry_equiv_pos_as_xyz
  1  'x, y, z'
loop_
 _atom_site_type_symbol
 _atom_site_label
 _atom_site_symmetry_multiplicity
 _atom_site_fract_x
 _atom_site_fract_y
 _atom_site_fract_z
 _atom_site_occupancy
  Pu  Pu0  1  0.682000  0.182000  0.236452  1
  Pu  Pu1  1  0.318000  0.818000  0.763548  1
  Pu  Pu2  1  0.318000  0.818000  0.236452  1
  Pu  Pu3  1  0.818000  0.682000  0.236452  1
  Pu  Pu4  1  0.818000  0.682000  0.763548  1
  Pu  Pu5  1  0.682000  0.182000  0.763548  1
  Pu  Pu6  1  0.182000  0.318000  0.763548  1
  Pu  Pu7  1  0.182000  0.318000  0.236452  1
  Al  Al8  1  0.000000  0.000000  0.500000  1
  Al  Al9  1  0.500000  0.500000  0.500000  1
  Si  Si10  1  0.118056  0.618056  0.500000  1
  Si  Si11  1  0.881944  0.381944  0.500000  1
  Si  Si12  1  0.381944  0.118056  0.500000  1
  Si  Si13  1  0.618056  0.881944  0.500000  1
  B  B14  1  0.173886  0.040676  0.000000  1
  B  B15  1  0.826114  0.959324  0.000000  1
  B  B16  1  0.959324  0.173886  0.000000  1
  B  B17  1  0.326114  0.540676  0.000000  1
  B  B18  1  0.040676  0.826114  0.000000  1
  B  B19  1  0.673886  0.459324  0.000000  1
  B  B20  1  0.540676  0.673886  0.000000  1
  B  B21  1  0.459324  0.326114  0.000000  1
  B  B22  1  0.089581  0.589581  0.000000  1
  B  B23  1  0.910419  0.410419  0.000000  1
  B  B24  1  0.410419  0.089581  0.000000  1
  B  B25  1  0.589581  0.910419  0.000000  1
  B  B26  1  0.000000  0.000000  0.168860  1
  B  B27  1  0.000000  0.000000  0.831140  1
  B  B28  1  0.500000  0.500000  0.831140  1
  B  B29  1  0.500000  0.500000  0.168860  1
