# generated using pymatgen
data_Ca2Cd3O5
_symmetry_space_group_name_H-M   'P 1'
_cell_length_a   5.88126297
_cell_length_b   5.88126302
_cell_length_c   7.54099656
_cell_angle_alpha   130.05442934
_cell_angle_beta   130.05442891
_cell_angle_gamma   48.42010555
_symmetry_Int_Tables_number   1
_chemical_formula_structural   Ca2Cd3O5
_chemical_formula_sum   'Ca2 Cd3 O5'
_cell_volume   138.26573021
_cell_formula_units_Z   1
loop_
 _symmetry_equiv_pos_site_id
 _symmetry_equiv_pos_as_xyz
  1  'x, y, z'
loop_
 _atom_site_type_symbol
 _atom_site_label
 _atom_site_symmetry_multiplicity
 _atom_site_fract_x
 _atom_site_fract_y
 _atom_site_fract_z
 _atom_site_occupancy
  Ca  Ca0  1  0.997198  0.997198  0.994384  1
  Ca  Ca1  1  0.402834  0.402834  0.205674  1
  Cd  Cd2  1  0.802745  0.802745  0.401459  1
  Cd  Cd3  1  0.199987  0.199987  0.599979  1
  Cd  Cd4  1  0.597216  0.597216  0.798478  1
  O  O5  1  0.500518  0.500518  0.002259  1
  O  O6  1  0.899603  0.899603  0.197859  1
  O  O7  1  0.298584  0.298584  0.399185  1
  O  O8  1  0.699988  0.699988  0.600117  1
  O  O9  1  0.101328  0.101328  0.800606  1
