# generated using pymatgen
data_Ti4Nb4Si2Sb4Pd
_symmetry_space_group_name_H-M   'P 1'
_cell_length_a   5.00921722
_cell_length_b   7.79816368
_cell_length_c   7.79816402
_cell_angle_alpha   96.31566050
_cell_angle_beta   108.73425694
_cell_angle_gamma   71.26574859
_symmetry_Int_Tables_number   1
_chemical_formula_structural   Ti4Nb4Si2Sb4Pd
_chemical_formula_sum   'Ti4 Nb4 Si2 Sb4 Pd1'
_cell_volume   273.18620909
_cell_formula_units_Z   1
loop_
 _symmetry_equiv_pos_site_id
 _symmetry_equiv_pos_as_xyz
  1  'x, y, z'
loop_
 _atom_site_type_symbol
 _atom_site_label
 _atom_site_symmetry_multiplicity
 _atom_site_fract_x
 _atom_site_fract_y
 _atom_site_fract_z
 _atom_site_occupancy
  Ti  Ti0  1  0.710318  0.715441  0.123887  1
  Ti  Ti1  1  0.301872  0.284559  0.876113  1
  Ti  Ti2  1  0.789682  0.123887  0.715441  1
  Ti  Ti3  1  0.198128  0.876113  0.284559  1
  Nb  Nb4  1  0.413916  0.875613  0.716016  1
  Nb  Nb5  1  0.573514  0.124387  0.283984  1
  Nb  Nb6  1  0.926486  0.283984  0.124387  1
  Nb  Nb7  1  0.086084  0.716016  0.875613  1
  Si  Si8  1  0.250000  0.000000  0.000000  1
  Si  Si9  1  0.750000  0.000000  0.000000  1
  Sb  Sb10  1  0.377910  0.503070  0.197237  1
  Sb  Sb11  1  0.683743  0.496930  0.802763  1
  Sb  Sb12  1  0.816257  0.802763  0.496930  1
  Sb  Sb13  1  0.122090  0.197237  0.503070  1
  Pd  Pd14  1  0.250000  0.500000  0.500000  1
