# generated using pymatgen
data_Nb6Co6Mo
_symmetry_space_group_name_H-M   'P 1'
_cell_length_a   9.22496838
_cell_length_b   9.22496884
_cell_length_c   9.22496859
_cell_angle_alpha   31.12458185
_cell_angle_beta   31.12457817
_cell_angle_gamma   31.12458368
_symmetry_Int_Tables_number   1
_chemical_formula_structural   Nb6Co6Mo
_chemical_formula_sum   'Nb6 Co6 Mo1'
_cell_volume   186.11113090
_cell_formula_units_Z   1
loop_
 _symmetry_equiv_pos_site_id
 _symmetry_equiv_pos_as_xyz
  1  'x, y, z'
loop_
 _atom_site_type_symbol
 _atom_site_label
 _atom_site_symmetry_multiplicity
 _atom_site_fract_x
 _atom_site_fract_y
 _atom_site_fract_z
 _atom_site_occupancy
  Nb  Nb0  1  0.834359  0.834359  0.834359  1
  Nb  Nb1  1  0.165641  0.165641  0.165641  1
  Nb  Nb2  1  0.652923  0.652923  0.652923  1
  Nb  Nb3  1  0.347077  0.347077  0.347077  1
  Nb  Nb4  1  0.549566  0.549566  0.549566  1
  Nb  Nb5  1  0.450434  0.450434  0.450434  1
  Co  Co6  1  0.907065  0.417242  0.907065  1
  Co  Co7  1  0.907065  0.907065  0.417242  1
  Co  Co8  1  0.417242  0.907065  0.907065  1
  Co  Co9  1  0.092935  0.582758  0.092935  1
  Co  Co10  1  0.092935  0.092935  0.582758  1
  Co  Co11  1  0.582758  0.092935  0.092935  1
  Mo  Mo12  1  0.000000  0.000000  0.000000  1
