# generated using pymatgen
data_YSc(Tc2Ge)4
_symmetry_space_group_name_H-M   'P 1'
_cell_length_a   7.34882223
_cell_length_b   7.34882223
_cell_length_c   4.26414900
_cell_angle_alpha   90.00000000
_cell_angle_beta   90.00000000
_cell_angle_gamma   88.34737676
_symmetry_Int_Tables_number   1
_chemical_formula_structural   YSc(Tc2Ge)4
_chemical_formula_sum   'Y1 Sc1 Tc8 Ge4'
_cell_volume   230.19038117
_cell_formula_units_Z   1
loop_
 _symmetry_equiv_pos_site_id
 _symmetry_equiv_pos_as_xyz
  1  'x, y, z'
loop_
 _atom_site_type_symbol
 _atom_site_label
 _atom_site_symmetry_multiplicity
 _atom_site_fract_x
 _atom_site_fract_y
 _atom_site_fract_z
 _atom_site_occupancy
  Y  Y0  1  0.500000  0.500000  0.500000  1
  Sc  Sc1  1  0.000000  0.000000  0.000000  1
  Tc  Tc2  1  0.605972  0.143883  0.000000  1
  Tc  Tc3  1  0.394028  0.856117  0.000000  1
  Tc  Tc4  1  0.653061  0.903982  0.500000  1
  Tc  Tc5  1  0.096018  0.346939  0.500000  1
  Tc  Tc6  1  0.346939  0.096018  0.500000  1
  Tc  Tc7  1  0.903982  0.653061  0.500000  1
  Tc  Tc8  1  0.143883  0.605972  0.000000  1
  Tc  Tc9  1  0.856117  0.394028  0.000000  1
  Ge  Ge10  1  0.289367  0.289367  0.000000  1
  Ge  Ge11  1  0.710633  0.710633  0.000000  1
  Ge  Ge12  1  0.800517  0.199483  0.500000  1
  Ge  Ge13  1  0.199483  0.800517  0.500000  1
