# generated using pymatgen
data_DySc7Ga3Fe
_symmetry_space_group_name_H-M   'P 1'
_cell_length_a   9.41881400
_cell_length_b   9.41881383
_cell_length_c   6.59149900
_cell_angle_alpha   90.00000000
_cell_angle_beta   90.00000000
_cell_angle_gamma   120.00000060
_symmetry_Int_Tables_number   1
_chemical_formula_structural   DySc7Ga3Fe
_chemical_formula_sum   'Dy2 Sc14 Ga6 Fe2'
_cell_volume   506.41580696
_cell_formula_units_Z   2
loop_
 _symmetry_equiv_pos_site_id
 _symmetry_equiv_pos_as_xyz
  1  'x, y, z'
loop_
 _atom_site_type_symbol
 _atom_site_label
 _atom_site_symmetry_multiplicity
 _atom_site_fract_x
 _atom_site_fract_y
 _atom_site_fract_z
 _atom_site_occupancy
  Dy  Dy0  1  0.000000  0.000000  0.229494  1
  Dy  Dy1  1  0.000000  0.000000  0.729494  1
  Sc  Sc2  1  0.177513  0.822487  0.508479  1
  Sc  Sc3  1  0.644973  0.822487  0.508479  1
  Sc  Sc4  1  0.177513  0.355027  0.508479  1
  Sc  Sc5  1  0.822487  0.177513  0.008479  1
  Sc  Sc6  1  0.355027  0.177513  0.008479  1
  Sc  Sc7  1  0.822487  0.644973  0.008479  1
  Sc  Sc8  1  0.333333  0.666667  0.826886  1
  Sc  Sc9  1  0.666667  0.333333  0.326886  1
  Sc  Sc10  1  0.464828  0.535172  0.209635  1
  Sc  Sc11  1  0.070344  0.535172  0.209635  1
  Sc  Sc12  1  0.464828  0.929656  0.209635  1
  Sc  Sc13  1  0.535172  0.464828  0.709635  1
  Sc  Sc14  1  0.929656  0.464828  0.709635  1
  Sc  Sc15  1  0.535172  0.070344  0.709635  1
  Ga  Ga16  1  0.166174  0.833826  0.961484  1
  Ga  Ga17  1  0.667651  0.833826  0.961484  1
  Ga  Ga18  1  0.166174  0.332349  0.961484  1
  Ga  Ga19  1  0.833826  0.166174  0.461484  1
  Ga  Ga20  1  0.332349  0.166174  0.461484  1
  Ga  Ga21  1  0.833826  0.667651  0.461484  1
  Fe  Fe22  1  0.333333  0.666667  0.442246  1
  Fe  Fe23  1  0.666667  0.333333  0.942246  1
