# generated using pymatgen
data_Er4Al21Pt10
_symmetry_space_group_name_H-M   'P 1'
_cell_length_a   10.97784353
_cell_length_b   10.97784446
_cell_length_c   16.00140834
_cell_angle_alpha   55.94162108
_cell_angle_beta   55.94161705
_cell_angle_gamma   22.05801333
_symmetry_Int_Tables_number   1
_chemical_formula_structural   Er4Al21Pt10
_chemical_formula_sum   'Er4 Al21 Pt10'
_cell_volume   594.74021139
_cell_formula_units_Z   1
loop_
 _symmetry_equiv_pos_site_id
 _symmetry_equiv_pos_as_xyz
  1  'x, y, z'
loop_
 _atom_site_type_symbol
 _atom_site_label
 _atom_site_symmetry_multiplicity
 _atom_site_fract_x
 _atom_site_fract_y
 _atom_site_fract_z
 _atom_site_occupancy
  Er  Er0  1  0.877730  0.877730  0.334177  1
  Er  Er1  1  0.122270  0.122270  0.665823  1
  Er  Er2  1  0.229003  0.229003  0.176213  1
  Er  Er3  1  0.770997  0.770997  0.823787  1
  Al  Al4  1  0.459300  0.459300  0.368919  1
  Al  Al5  1  0.540700  0.540700  0.631081  1
  Al  Al6  1  0.800523  0.800523  0.001274  1
  Al  Al7  1  0.199477  0.199477  0.998726  1
  Al  Al8  1  0.701180  0.701180  0.497131  1
  Al  Al9  1  0.298820  0.298820  0.502869  1
  Al  Al10  1  0.884169  0.884169  0.550112  1
  Al  Al11  1  0.115831  0.115831  0.449888  1
  Al  Al12  1  0.615089  0.615089  0.297214  1
  Al  Al13  1  0.384911  0.384911  0.702786  1
  Al  Al14  1  0.750777  0.750777  0.293422  1
  Al  Al15  1  0.249223  0.249223  0.706578  1
  Al  Al16  1  0.602262  0.602262  0.003277  1
  Al  Al17  1  0.397738  0.397738  0.996723  1
  Al  Al18  1  0.992482  0.992482  0.092210  1
  Al  Al19  1  0.007518  0.007518  0.907790  1
  Al  Al20  1  0.935743  0.935743  0.796313  1
  Al  Al21  1  0.064257  0.064257  0.203687  1
  Al  Al22  1  0.500000  0.500000  0.500000  1
  Al  Al23  1  0.371035  0.371035  0.195372  1
  Al  Al24  1  0.628965  0.628965  0.804628  1
  Pt  Pt25  1  0.493528  0.493528  0.186891  1
  Pt  Pt26  1  0.506472  0.506472  0.813109  1
  Pt  Pt27  1  0.866954  0.866954  0.103123  1
  Pt  Pt28  1  0.133046  0.133046  0.896877  1
  Pt  Pt29  1  0.749262  0.749262  0.614755  1
  Pt  Pt30  1  0.250738  0.250738  0.385245  1
  Pt  Pt31  1  0.656393  0.656393  0.111707  1
  Pt  Pt32  1  0.343607  0.343607  0.888293  1
  Pt  Pt33  1  0.973691  0.973691  0.611890  1
  Pt  Pt34  1  0.026309  0.026309  0.388110  1
