# generated using pymatgen
data_Ba4Tb3DyEr4O16
_symmetry_space_group_name_H-M   'P 1'
_cell_length_a   3.47418000
_cell_length_b   10.48620113
_cell_length_c   12.20626416
_cell_angle_alpha   90.01829045
_cell_angle_beta   90.00000000
_cell_angle_gamma   90.00000000
_symmetry_Int_Tables_number   1
_chemical_formula_structural   Ba4Tb3DyEr4O16
_chemical_formula_sum   'Ba4 Tb3 Dy1 Er4 O16'
_cell_volume   444.68577958
_cell_formula_units_Z   1
loop_
 _symmetry_equiv_pos_site_id
 _symmetry_equiv_pos_as_xyz
  1  'x, y, z'
loop_
 _atom_site_type_symbol
 _atom_site_label
 _atom_site_symmetry_multiplicity
 _atom_site_fract_x
 _atom_site_fract_y
 _atom_site_fract_z
 _atom_site_occupancy
  Ba  Ba0  1  0.750000  0.253257  0.148923  1
  Ba  Ba1  1  0.750000  0.753231  0.351218  1
  Ba  Ba2  1  0.250000  0.746595  0.850947  1
  Ba  Ba3  1  0.250000  0.246908  0.648921  1
  Tb  Tb4  1  0.750000  0.925154  0.111413  1
  Tb  Tb5  1  0.750000  0.425273  0.388713  1
  Tb  Tb6  1  0.250000  0.074820  0.888587  1
  Dy  Dy7  1  0.250000  0.574424  0.611367  1
  Er  Er8  1  0.750000  0.423280  0.891489  1
  Er  Er9  1  0.750000  0.923068  0.608402  1
  Er  Er10  1  0.250000  0.576820  0.108392  1
  Er  Er11  1  0.250000  0.076782  0.391577  1
  O  O12  1  0.750000  0.212416  0.840887  1
  O  O13  1  0.750000  0.711564  0.658752  1
  O  O14  1  0.250000  0.787592  0.159104  1
  O  O15  1  0.250000  0.287613  0.340899  1
  O  O16  1  0.750000  0.114260  0.517271  1
  O  O17  1  0.750000  0.614239  0.982761  1
  O  O18  1  0.250000  0.885824  0.482730  1
  O  O19  1  0.250000  0.385753  0.017205  1
  O  O20  1  0.750000  0.018977  0.284676  1
  O  O21  1  0.750000  0.518967  0.215350  1
  O  O22  1  0.250000  0.981018  0.715309  1
  O  O23  1  0.250000  0.481337  0.784227  1
  O  O24  1  0.750000  0.430281  0.574782  1
  O  O25  1  0.750000  0.929595  0.925454  1
  O  O26  1  0.250000  0.570518  0.426094  1
  O  O27  1  0.250000  0.070433  0.074550  1
