# generated using pymatgen
data_Hf18Mo7P2W
_symmetry_space_group_name_H-M   'P 1'
_cell_length_a   8.65530400
_cell_length_b   8.65530301
_cell_length_c   8.62531200
_cell_angle_alpha   90.00000000
_cell_angle_beta   90.00000000
_cell_angle_gamma   120.00000378
_symmetry_Int_Tables_number   1
_chemical_formula_structural   Hf18Mo7P2W
_chemical_formula_sum   'Hf18 Mo7 P2 W1'
_cell_volume   559.59011157
_cell_formula_units_Z   1
loop_
 _symmetry_equiv_pos_site_id
 _symmetry_equiv_pos_as_xyz
  1  'x, y, z'
loop_
 _atom_site_type_symbol
 _atom_site_label
 _atom_site_symmetry_multiplicity
 _atom_site_fract_x
 _atom_site_fract_y
 _atom_site_fract_z
 _atom_site_occupancy
  Hf  Hf0  1  0.197623  0.802377  0.452339  1
  Hf  Hf1  1  0.197623  0.395246  0.452339  1
  Hf  Hf2  1  0.604754  0.802377  0.452339  1
  Hf  Hf3  1  0.802377  0.197623  0.547661  1
  Hf  Hf4  1  0.802377  0.604754  0.547661  1
  Hf  Hf5  1  0.395246  0.197623  0.547661  1
  Hf  Hf6  1  0.802471  0.197529  0.952138  1
  Hf  Hf7  1  0.802471  0.604942  0.952138  1
  Hf  Hf8  1  0.395058  0.197529  0.952138  1
  Hf  Hf9  1  0.197529  0.802471  0.047862  1
  Hf  Hf10  1  0.197529  0.395058  0.047862  1
  Hf  Hf11  1  0.604942  0.802471  0.047862  1
  Hf  Hf12  1  0.539084  0.460916  0.249571  1
  Hf  Hf13  1  0.539084  0.078167  0.249571  1
  Hf  Hf14  1  0.921833  0.460916  0.249571  1
  Hf  Hf15  1  0.460916  0.539084  0.750429  1
  Hf  Hf16  1  0.460916  0.921833  0.750429  1
  Hf  Hf17  1  0.078167  0.539084  0.750429  1
  Mo  Mo18  1  0.889123  0.110877  0.250338  1
  Mo  Mo19  1  0.889123  0.778247  0.250338  1
  Mo  Mo20  1  0.221753  0.110877  0.250338  1
  Mo  Mo21  1  0.110877  0.889123  0.749662  1
  Mo  Mo22  1  0.110877  0.221753  0.749662  1
  Mo  Mo23  1  0.778247  0.889123  0.749662  1
  Mo  Mo24  1  0.000000  0.000000  0.000000  1
  P  P25  1  0.333333  0.666667  0.249717  1
  P  P26  1  0.666667  0.333333  0.750283  1
  W  W27  1  0.000000  0.000000  0.500000  1
