# generated using pymatgen
data_ThPa2(ZnPt)4
_symmetry_space_group_name_H-M   'P 1'
_cell_length_a   8.30478437
_cell_length_b   8.30478443
_cell_length_c   8.30478504
_cell_angle_alpha   152.72336558
_cell_angle_beta   123.80096954
_cell_angle_gamma   63.56937308
_symmetry_Int_Tables_number   1
_chemical_formula_structural   ThPa2(ZnPt)4
_chemical_formula_sum   'Th1 Pa2 Zn4 Pt4'
_cell_volume   216.28944724
_cell_formula_units_Z   1
loop_
 _symmetry_equiv_pos_site_id
 _symmetry_equiv_pos_as_xyz
  1  'x, y, z'
loop_
 _atom_site_type_symbol
 _atom_site_label
 _atom_site_symmetry_multiplicity
 _atom_site_fract_x
 _atom_site_fract_y
 _atom_site_fract_z
 _atom_site_occupancy
  Th  Th0  1  0.500000  0.000000  0.500000  1
  Pa  Pa1  1  0.874291  0.874291  0.000000  1
  Pa  Pa2  1  0.125709  0.125709  0.000000  1
  Zn  Zn3  1  0.474995  0.675284  0.799710  1
  Zn  Zn4  1  0.875574  0.675284  0.200290  1
  Zn  Zn5  1  0.124426  0.324716  0.799710  1
  Zn  Zn6  1  0.525005  0.324716  0.200290  1
  Pt  Pt7  1  0.273886  0.773886  0.500000  1
  Pt  Pt8  1  0.726114  0.226114  0.500000  1
  Pt  Pt9  1  0.809172  0.500000  0.309172  1
  Pt  Pt10  1  0.190828  0.500000  0.690828  1
