# generated using pymatgen
data_HoEr7(WC2)4
_symmetry_space_group_name_H-M   'P 1'
_cell_length_a   5.71084196
_cell_length_b   5.71084292
_cell_length_c   9.78020356
_cell_angle_alpha   89.93253331
_cell_angle_beta   89.93253290
_cell_angle_gamma   89.99643089
_symmetry_Int_Tables_number   1
_chemical_formula_structural   HoEr7(WC2)4
_chemical_formula_sum   'Ho1 Er7 W4 C8'
_cell_volume   318.96839139
_cell_formula_units_Z   1
loop_
 _symmetry_equiv_pos_site_id
 _symmetry_equiv_pos_as_xyz
  1  'x, y, z'
loop_
 _atom_site_type_symbol
 _atom_site_label
 _atom_site_symmetry_multiplicity
 _atom_site_fract_x
 _atom_site_fract_y
 _atom_site_fract_z
 _atom_site_occupancy
  Ho  Ho0  1  0.799168  0.799168  0.657847  1
  Er  Er1  1  0.200226  0.200226  0.341910  1
  Er  Er2  1  0.300483  0.701226  0.842502  1
  Er  Er3  1  0.701226  0.300483  0.842502  1
  Er  Er4  1  0.701390  0.300207  0.158032  1
  Er  Er5  1  0.300207  0.701390  0.158032  1
  Er  Er6  1  0.199942  0.199942  0.657487  1
  Er  Er7  1  0.798859  0.798859  0.342094  1
  W  W8  1  0.320382  0.676878  0.499291  1
  W  W9  1  0.822771  0.822771  0.000664  1
  W  W10  1  0.179330  0.179330  0.000590  1
  W  W11  1  0.676878  0.320382  0.499291  1
  C  C12  1  0.000445  0.000445  0.156485  1
  C  C13  1  0.498473  0.498473  0.655842  1
  C  C14  1  0.497983  0.999259  0.498883  1
  C  C15  1  0.499388  0.499388  0.343531  1
  C  C16  1  0.001214  0.001214  0.844686  1
  C  C17  1  0.500993  0.001385  0.000725  1
  C  C18  1  0.001385  0.500993  0.000725  1
  C  C19  1  0.999259  0.497983  0.498883  1
