# generated using pymatgen
data_Pr2DyY(Zn5Sn)2
_symmetry_space_group_name_H-M   'P 1'
_cell_length_a   8.49235623
_cell_length_b   8.49235574
_cell_length_c   9.04487300
_cell_angle_alpha   90.00000000
_cell_angle_beta   90.00000000
_cell_angle_gamma   149.70024635
_symmetry_Int_Tables_number   1
_chemical_formula_structural   Pr2DyY(Zn5Sn)2
_chemical_formula_sum   'Pr2 Dy1 Y1 Zn10 Sn2'
_cell_volume   329.10964418
_cell_formula_units_Z   1
loop_
 _symmetry_equiv_pos_site_id
 _symmetry_equiv_pos_as_xyz
  1  'x, y, z'
loop_
 _atom_site_type_symbol
 _atom_site_label
 _atom_site_symmetry_multiplicity
 _atom_site_fract_x
 _atom_site_fract_y
 _atom_site_fract_z
 _atom_site_occupancy
  Pr  Pr0  1  0.999985  0.000015  0.500016  1
  Pr  Pr1  1  0.999985  0.000015  0.999984  1
  Dy  Dy2  1  0.794592  0.205408  0.750000  1
  Y  Y3  1  0.205338  0.794662  0.250000  1
  Zn  Zn4  1  0.812464  0.187536  0.390502  1
  Zn  Zn5  1  0.187588  0.812412  0.609606  1
  Zn  Zn6  1  0.812464  0.187536  0.109498  1
  Zn  Zn7  1  0.187588  0.812412  0.890394  1
  Zn  Zn8  1  0.658190  0.341810  0.482628  1
  Zn  Zn9  1  0.341804  0.658196  0.517489  1
  Zn  Zn10  1  0.658190  0.341810  0.017372  1
  Zn  Zn11  1  0.341804  0.658196  0.982511  1
  Zn  Zn12  1  0.394257  0.605743  0.250000  1
  Zn  Zn13  1  0.605777  0.394223  0.750000  1
  Sn  Sn14  1  0.557042  0.442958  0.250000  1
  Sn  Sn15  1  0.442931  0.557069  0.750000  1
