# generated using pymatgen
data_Ce2Tm3TcOs
_symmetry_space_group_name_H-M   'P 1'
_cell_length_a   6.28822008
_cell_length_b   7.05582585
_cell_length_c   8.73003800
_cell_angle_alpha   96.02348627
_cell_angle_beta   111.10931592
_cell_angle_gamma   89.99999889
_symmetry_Int_Tables_number   1
_chemical_formula_structural   Ce2Tm3TcOs
_chemical_formula_sum   'Ce4 Tm6 Tc2 Os2'
_cell_volume   359.05373093
_cell_formula_units_Z   2
loop_
 _symmetry_equiv_pos_site_id
 _symmetry_equiv_pos_as_xyz
  1  'x, y, z'
loop_
 _atom_site_type_symbol
 _atom_site_label
 _atom_site_symmetry_multiplicity
 _atom_site_fract_x
 _atom_site_fract_y
 _atom_site_fract_z
 _atom_site_occupancy
  Ce  Ce0  1  0.786309  0.095159  0.808071  1
  Ce  Ce1  1  0.978237  0.404841  0.191929  1
  Ce  Ce2  1  0.200704  0.913295  0.190770  1
  Ce  Ce3  1  0.009934  0.586705  0.809230  1
  Tm  Tm4  1  0.206736  0.186386  0.570997  1
  Tm  Tm5  1  0.635738  0.313614  0.429003  1
  Tm  Tm6  1  0.789105  0.812365  0.432702  1
  Tm  Tm7  1  0.356404  0.687635  0.567298  1
  Tm  Tm8  1  0.417295  0.250000  0.000000  1
  Tm  Tm9  1  0.567963  0.750000  0.000000  1
  Tc  Tc10  1  0.647124  0.408510  0.783574  1
  Tc  Tc11  1  0.863549  0.091490  0.216426  1
  Os  Os12  1  0.382368  0.586593  0.223836  1
  Os  Os13  1  0.158533  0.913407  0.776164  1
