# generated using pymatgen
data_La2PrNd(Zn5Sn)2
_symmetry_space_group_name_H-M   'P 1'
_cell_length_a   8.62690921
_cell_length_b   8.62690974
_cell_length_c   9.13486100
_cell_angle_alpha   90.00000000
_cell_angle_beta   90.00000000
_cell_angle_gamma   149.51985593
_symmetry_Int_Tables_number   1
_chemical_formula_structural   La2PrNd(Zn5Sn)2
_chemical_formula_sum   'La2 Pr1 Nd1 Zn10 Sn2'
_cell_volume   344.84639539
_cell_formula_units_Z   1
loop_
 _symmetry_equiv_pos_site_id
 _symmetry_equiv_pos_as_xyz
  1  'x, y, z'
loop_
 _atom_site_type_symbol
 _atom_site_label
 _atom_site_symmetry_multiplicity
 _atom_site_fract_x
 _atom_site_fract_y
 _atom_site_fract_z
 _atom_site_occupancy
  La  La0  1  0.999896  0.000104  0.500106  1
  La  La1  1  0.999896  0.000104  0.999894  1
  Pr  Pr2  1  0.205614  0.794386  0.250000  1
  Nd  Nd3  1  0.794304  0.205696  0.750000  1
  Zn  Zn4  1  0.813307  0.186693  0.391089  1
  Zn  Zn5  1  0.186899  0.813101  0.609467  1
  Zn  Zn6  1  0.813307  0.186693  0.108911  1
  Zn  Zn7  1  0.186899  0.813101  0.890533  1
  Zn  Zn8  1  0.657018  0.342982  0.484439  1
  Zn  Zn9  1  0.343010  0.656990  0.516111  1
  Zn  Zn10  1  0.657018  0.342982  0.015561  1
  Zn  Zn11  1  0.343010  0.656990  0.983889  1
  Zn  Zn12  1  0.395375  0.604625  0.250000  1
  Zn  Zn13  1  0.604747  0.395253  0.750000  1
  Sn  Sn14  1  0.556921  0.443079  0.250000  1
  Sn  Sn15  1  0.442779  0.557221  0.750000  1
