# generated using pymatgen
data_Ta6CrS12
_symmetry_space_group_name_H-M   'P 1'
_cell_length_a   5.78071801
_cell_length_b   5.78071809
_cell_length_c   12.72310345
_cell_angle_alpha   85.68185075
_cell_angle_beta   85.68185098
_cell_angle_gamma   119.98696621
_symmetry_Int_Tables_number   1
_chemical_formula_structural   Ta6CrS12
_chemical_formula_sum   'Ta6 Cr1 S12'
_cell_volume   364.05358400
_cell_formula_units_Z   1
loop_
 _symmetry_equiv_pos_site_id
 _symmetry_equiv_pos_as_xyz
  1  'x, y, z'
loop_
 _atom_site_type_symbol
 _atom_site_label
 _atom_site_symmetry_multiplicity
 _atom_site_fract_x
 _atom_site_fract_y
 _atom_site_fract_z
 _atom_site_occupancy
  Ta  Ta0  1  0.080152  0.080152  0.758514  1
  Ta  Ta1  1  0.412860  0.746138  0.760344  1
  Ta  Ta2  1  0.746138  0.412860  0.760344  1
  Ta  Ta3  1  0.253862  0.587140  0.239656  1
  Ta  Ta4  1  0.587140  0.253862  0.239656  1
  Ta  Ta5  1  0.919848  0.919848  0.241486  1
  Cr  Cr6  1  0.000000  0.000000  0.000000  1
  S  S7  1  0.294788  0.294788  0.114484  1
  S  S8  1  0.629161  0.962008  0.114458  1
  S  S9  1  0.962008  0.629161  0.114458  1
  S  S10  1  0.037992  0.370839  0.885542  1
  S  S11  1  0.370839  0.037992  0.885542  1
  S  S12  1  0.705212  0.705212  0.885516  1
  S  S13  1  0.213734  0.213734  0.364272  1
  S  S14  1  0.544430  0.879116  0.364197  1
  S  S15  1  0.879116  0.544430  0.364197  1
  S  S16  1  0.120884  0.455570  0.635803  1
  S  S17  1  0.455570  0.120884  0.635803  1
  S  S18  1  0.786266  0.786266  0.635728  1
