# generated using pymatgen
data_CaNd2Zr(GaO3)4
_symmetry_space_group_name_H-M   'P 1'
_cell_length_a   10.99279610
_cell_length_b   11.05456776
_cell_length_c   11.06620789
_cell_angle_alpha   109.36635135
_cell_angle_beta   109.42802004
_cell_angle_gamma   109.29921647
_symmetry_Int_Tables_number   1
_chemical_formula_structural   CaNd2Zr(GaO3)4
_chemical_formula_sum   'Ca4 Nd8 Zr4 Ga16 O48'
_cell_volume   1039.27433190
_cell_formula_units_Z   4
loop_
 _symmetry_equiv_pos_site_id
 _symmetry_equiv_pos_as_xyz
  1  'x, y, z'
loop_
 _atom_site_type_symbol
 _atom_site_label
 _atom_site_symmetry_multiplicity
 _atom_site_fract_x
 _atom_site_fract_y
 _atom_site_fract_z
 _atom_site_occupancy
  Ca  Ca0  1  0.622589  0.238583  0.372169  1
  Ca  Ca1  1  0.873467  0.121294  0.243720  1
  Ca  Ca2  1  0.126533  0.878706  0.756280  1
  Ca  Ca3  1  0.377411  0.761417  0.627831  1
  Nd  Nd4  1  0.249761  0.624245  0.876242  1
  Nd  Nd5  1  0.628385  0.370536  0.749517  1
  Nd  Nd6  1  0.126017  0.251325  0.880654  1
  Nd  Nd7  1  0.249903  0.122817  0.369243  1
  Nd  Nd8  1  0.873983  0.748675  0.119346  1
  Nd  Nd9  1  0.750097  0.877183  0.630757  1
  Nd  Nd10  1  0.371615  0.629464  0.250483  1
  Nd  Nd11  1  0.750239  0.375755  0.123758  1
  Zr  Zr12  1  0.000000  0.000000  0.500000  1
  Zr  Zr13  1  0.500000  0.000000  0.000000  1
  Zr  Zr14  1  0.000000  0.500000  0.500000  1
  Zr  Zr15  1  0.500000  0.500000  0.500000  1
  Ga  Ga16  1  0.883447  0.635743  0.761447  1
  Ga  Ga17  1  0.625446  0.750179  0.874967  1
  Ga  Ga18  1  0.868156  0.252184  0.627905  1
  Ga  Ga19  1  0.246812  0.871190  0.128207  1
  Ga  Ga20  1  0.254299  0.375111  0.632312  1
  Ga  Ga21  1  0.500000  0.500000  0.000000  1
  Ga  Ga22  1  0.000000  0.000000  0.000000  1
  Ga  Ga23  1  0.624320  0.874702  0.249839  1
  Ga  Ga24  1  0.375680  0.125298  0.750161  1
  Ga  Ga25  1  0.500000  0.000000  0.500000  1
  Ga  Ga26  1  0.753188  0.128810  0.871792  1
  Ga  Ga27  1  0.745701  0.624889  0.367688  1
  Ga  Ga28  1  0.131844  0.747816  0.372095  1
  Ga  Ga29  1  0.000000  0.500000  0.000000  1
  Ga  Ga30  1  0.374554  0.249821  0.125033  1
  Ga  Ga31  1  0.116553  0.364257  0.238553  1
  O  O32  1  0.294853  0.876711  0.981974  1
  O  O33  1  0.417021  0.291953  0.318736  1
  O  O34  1  0.689183  0.485912  0.607518  1
  O  O35  1  0.027727  0.625061  0.710460  1
  O  O36  1  0.474150  0.791101  0.877670  1
  O  O37  1  0.206867  0.520106  0.624206  1
  O  O38  1  0.878294  0.295779  0.481615  1
  O  O39  1  0.021365  0.403152  0.821323  1
  O  O40  1  0.673013  0.201540  0.582217  1
  O  O41  1  0.398940  0.017539  0.320692  1
  O  O42  1  0.623346  0.022382  0.205351  1
  O  O43  1  0.618424  0.595533  0.915872  1
  O  O44  1  0.081135  0.174556  0.199824  1
  O  O45  1  0.404234  0.376824  0.586586  1
  O  O46  1  0.298953  0.417722  0.825213  1
  O  O47  1  0.103917  0.184709  0.480485  1
  O  O48  1  0.881970  0.583522  0.906697  1
  O  O49  1  0.820084  0.899978  0.018922  1
  O  O50  1  0.914566  0.100062  0.624315  1
  O  O51  1  0.199920  0.675641  0.081516  1
  O  O52  1  0.584757  0.880589  0.403894  1
  O  O53  1  0.817644  0.912941  0.291380  1
  O  O54  1  0.524235  0.321208  0.902500  1
  O  O55  1  0.094595  0.915877  0.119535  1
  O  O56  1  0.905405  0.084123  0.880465  1
  O  O57  1  0.475765  0.678792  0.097500  1
  O  O58  1  0.182356  0.087059  0.708620  1
  O  O59  1  0.415243  0.119411  0.596106  1
  O  O60  1  0.800080  0.324359  0.918484  1
  O  O61  1  0.085434  0.899938  0.375685  1
  O  O62  1  0.179916  0.100022  0.981078  1
  O  O63  1  0.118030  0.416478  0.093303  1
  O  O64  1  0.896083  0.815291  0.519515  1
  O  O65  1  0.701047  0.582278  0.174787  1
  O  O66  1  0.595766  0.623176  0.413414  1
  O  O67  1  0.918865  0.825444  0.800176  1
  O  O68  1  0.381576  0.404467  0.084128  1
  O  O69  1  0.376654  0.977618  0.794649  1
  O  O70  1  0.601060  0.982461  0.679308  1
  O  O71  1  0.326987  0.798460  0.417783  1
  O  O72  1  0.978635  0.596848  0.178677  1
  O  O73  1  0.121706  0.704221  0.518385  1
  O  O74  1  0.793133  0.479894  0.375794  1
  O  O75  1  0.525850  0.208899  0.122330  1
  O  O76  1  0.972273  0.374939  0.289540  1
  O  O77  1  0.310817  0.514088  0.392482  1
  O  O78  1  0.582979  0.708047  0.681264  1
  O  O79  1  0.705147  0.123289  0.018026  1
