# generated using pymatgen
data_Y4V3B16Os
_symmetry_space_group_name_H-M   'P 1'
_cell_length_a   3.50497800
_cell_length_b   5.98880537
_cell_length_c   11.58003073
_cell_angle_alpha   89.95945539
_cell_angle_beta   90.00000000
_cell_angle_gamma   90.00000000
_symmetry_Int_Tables_number   1
_chemical_formula_structural   Y4V3B16Os
_chemical_formula_sum   'Y4 V3 B16 Os1'
_cell_volume   243.07209204
_cell_formula_units_Z   1
loop_
 _symmetry_equiv_pos_site_id
 _symmetry_equiv_pos_as_xyz
  1  'x, y, z'
loop_
 _atom_site_type_symbol
 _atom_site_label
 _atom_site_symmetry_multiplicity
 _atom_site_fract_x
 _atom_site_fract_y
 _atom_site_fract_z
 _atom_site_occupancy
  Y  Y0  1  0.000000  0.623521  0.352177  1
  Y  Y1  1  0.000000  0.375948  0.649242  1
  Y  Y2  1  0.000000  0.126494  0.152959  1
  Y  Y3  1  0.000000  0.873696  0.846188  1
  V  V4  1  0.000000  0.368941  0.917429  1
  V  V5  1  0.000000  0.125894  0.415824  1
  V  V6  1  0.000000  0.874066  0.581959  1
  B  B7  1  0.500000  0.783782  0.185599  1
  B  B8  1  0.500000  0.215307  0.814461  1
  B  B9  1  0.500000  0.285756  0.314442  1
  B  B10  1  0.500000  0.714899  0.685099  1
  B  B11  1  0.500000  0.864175  0.031749  1
  B  B12  1  0.500000  0.135035  0.968731  1
  B  B13  1  0.500000  0.364047  0.467171  1
  B  B14  1  0.500000  0.636323  0.532929  1
  B  B15  1  0.500000  0.886881  0.453084  1
  B  B16  1  0.500000  0.113926  0.546425  1
  B  B17  1  0.500000  0.387222  0.048400  1
  B  B18  1  0.500000  0.615056  0.953033  1
  B  B19  1  0.500000  0.975344  0.307396  1
  B  B20  1  0.500000  0.023867  0.691843  1
  B  B21  1  0.500000  0.476311  0.192560  1
  B  B22  1  0.500000  0.523764  0.807616  1
  Os  Os23  1  0.000000  0.629741  0.083683  1
