# generated using pymatgen
data_Li2MgNi5(P3O11)2
_symmetry_space_group_name_H-M   'P 1'
_cell_length_a   8.33642059
_cell_length_b   9.11874400
_cell_length_c   10.68782242
_cell_angle_alpha   90.00000000
_cell_angle_beta   90.11086106
_cell_angle_gamma   90.00000000
_symmetry_Int_Tables_number   1
_chemical_formula_structural   Li2MgNi5(P3O11)2
_chemical_formula_sum   'Li4 Mg2 Ni10 P12 O44'
_cell_volume   812.46199954
_cell_formula_units_Z   2
loop_
 _symmetry_equiv_pos_site_id
 _symmetry_equiv_pos_as_xyz
  1  'x, y, z'
loop_
 _atom_site_type_symbol
 _atom_site_label
 _atom_site_symmetry_multiplicity
 _atom_site_fract_x
 _atom_site_fract_y
 _atom_site_fract_z
 _atom_site_occupancy
  Li  Li0  1  0.023593  0.813822  0.750561  1
  Li  Li1  1  0.476407  0.313822  0.749439  1
  Li  Li2  1  0.976407  0.186178  0.249439  1
  Li  Li3  1  0.523593  0.686178  0.250561  1
  Mg  Mg4  1  0.000000  0.000000  0.500000  1
  Mg  Mg5  1  0.500000  0.500000  0.000000  1
  Ni  Ni6  1  0.857857  0.543338  0.090602  1
  Ni  Ni7  1  0.642143  0.043338  0.409398  1
  Ni  Ni8  1  0.142140  0.456423  0.590404  1
  Ni  Ni9  1  0.357860  0.956423  0.909596  1
  Ni  Ni10  1  0.142143  0.456662  0.909398  1
  Ni  Ni11  1  0.357857  0.956662  0.590602  1
  Ni  Ni12  1  0.857860  0.543577  0.409596  1
  Ni  Ni13  1  0.642140  0.043577  0.090404  1
  Ni  Ni14  1  0.000000  0.000000  0.000000  1
  Ni  Ni15  1  0.500000  0.500000  0.500000  1
  P  P16  1  0.213831  0.711076  0.109061  1
  P  P17  1  0.286169  0.211076  0.390939  1
  P  P18  1  0.785745  0.289510  0.608487  1
  P  P19  1  0.714255  0.789510  0.891513  1
  P  P20  1  0.786169  0.288924  0.890939  1
  P  P21  1  0.713831  0.788924  0.609061  1
  P  P22  1  0.214255  0.710490  0.391513  1
  P  P23  1  0.285745  0.210490  0.108487  1
  P  P24  1  0.287676  0.648196  0.749848  1
  P  P25  1  0.212324  0.148196  0.750152  1
  P  P26  1  0.712324  0.351804  0.250152  1
  P  P27  1  0.787676  0.851804  0.249848  1
  O  O28  1  0.200440  0.851451  0.030169  1
  O  O29  1  0.299560  0.351451  0.469831  1
  O  O30  1  0.799592  0.149183  0.529911  1
  O  O31  1  0.700408  0.649183  0.970089  1
  O  O32  1  0.799560  0.148549  0.969831  1
  O  O33  1  0.700440  0.648549  0.530169  1
  O  O34  1  0.200408  0.850817  0.470089  1
  O  O35  1  0.299592  0.350817  0.029911  1
  O  O36  1  0.603457  0.889226  0.250375  1
  O  O37  1  0.896543  0.389226  0.249625  1
  O  O38  1  0.396543  0.110774  0.749625  1
  O  O39  1  0.103457  0.610774  0.750375  1
  O  O40  1  0.852781  0.927132  0.131756  1
  O  O41  1  0.647219  0.427132  0.368244  1
  O  O42  1  0.144235  0.073245  0.632817  1
  O  O43  1  0.355765  0.573245  0.867183  1
  O  O44  1  0.147219  0.072868  0.868244  1
  O  O45  1  0.352781  0.572868  0.631756  1
  O  O46  1  0.855765  0.926755  0.367183  1
  O  O47  1  0.644235  0.426755  0.132817  1
  O  O48  1  0.383178  0.649784  0.115390  1
  O  O49  1  0.116822  0.149784  0.384610  1
  O  O50  1  0.616150  0.350782  0.615624  1
  O  O51  1  0.883850  0.850782  0.884376  1
  O  O52  1  0.616822  0.350216  0.884610  1
  O  O53  1  0.883178  0.850216  0.615390  1
  O  O54  1  0.383850  0.649218  0.384376  1
  O  O55  1  0.116150  0.149218  0.115624  1
  O  O56  1  0.310411  0.817147  0.749782  1
  O  O57  1  0.189589  0.317147  0.750218  1
  O  O58  1  0.689589  0.182853  0.250218  1
  O  O59  1  0.810411  0.682853  0.249782  1
  O  O60  1  0.089236  0.597506  0.062806  1
  O  O61  1  0.410764  0.097506  0.437194  1
  O  O62  1  0.910488  0.402881  0.562812  1
  O  O63  1  0.589512  0.902881  0.937188  1
  O  O64  1  0.910764  0.402494  0.937194  1
  O  O65  1  0.589236  0.902494  0.562806  1
  O  O66  1  0.089512  0.597119  0.437188  1
  O  O67  1  0.410488  0.097119  0.062812  1
  O  O68  1  0.161907  0.758737  0.250268  1
  O  O69  1  0.338093  0.258737  0.249732  1
  O  O70  1  0.838093  0.241263  0.749732  1
  O  O71  1  0.661907  0.741263  0.750268  1
