# generated using pymatgen
data_Lu2Sb5
_symmetry_space_group_name_H-M   'P 1'
_cell_length_a   4.19172500
_cell_length_b   13.05569505
_cell_length_c   14.46513285
_cell_angle_alpha   78.45107125
_cell_angle_beta   90.00000000
_cell_angle_gamma   90.00000000
_symmetry_Int_Tables_number   1
_chemical_formula_structural   Lu2Sb5
_chemical_formula_sum   'Lu8 Sb20'
_cell_volume   775.59016566
_cell_formula_units_Z   4
loop_
 _symmetry_equiv_pos_site_id
 _symmetry_equiv_pos_as_xyz
  1  'x, y, z'
loop_
 _atom_site_type_symbol
 _atom_site_label
 _atom_site_symmetry_multiplicity
 _atom_site_fract_x
 _atom_site_fract_y
 _atom_site_fract_z
 _atom_site_occupancy
  Lu  Lu0  1  0.750000  0.339180  0.144265  1
  Lu  Lu1  1  0.250000  0.954252  0.359263  1
  Lu  Lu2  1  0.250000  0.660820  0.855735  1
  Lu  Lu3  1  0.250000  0.669867  0.576328  1
  Lu  Lu4  1  0.750000  0.045748  0.640737  1
  Lu  Lu5  1  0.750000  0.330133  0.423672  1
  Lu  Lu6  1  0.250000  0.394437  0.770487  1
  Lu  Lu7  1  0.750000  0.605563  0.229513  1
  Sb  Sb8  1  0.750000  0.844924  0.829764  1
  Sb  Sb9  1  0.250000  0.860839  0.677548  1
  Sb  Sb10  1  0.250000  0.142611  0.484673  1
  Sb  Sb11  1  0.750000  0.277783  0.936828  1
  Sb  Sb12  1  0.250000  0.142726  0.777524  1
  Sb  Sb13  1  0.750000  0.571706  0.447326  1
  Sb  Sb14  1  0.750000  0.139161  0.322452  1
  Sb  Sb15  1  0.250000  0.715839  0.346713  1
  Sb  Sb16  1  0.750000  0.284161  0.653287  1
  Sb  Sb17  1  0.750000  0.857274  0.222476  1
  Sb  Sb18  1  0.250000  0.420518  0.975423  1
  Sb  Sb19  1  0.250000  0.428294  0.552674  1
  Sb  Sb20  1  0.750000  0.576064  0.734192  1
  Sb  Sb21  1  0.250000  0.423936  0.265808  1
  Sb  Sb22  1  0.750000  0.857389  0.515327  1
  Sb  Sb23  1  0.750000  0.027942  0.912333  1
  Sb  Sb24  1  0.250000  0.722217  0.063172  1
  Sb  Sb25  1  0.250000  0.972058  0.087667  1
  Sb  Sb26  1  0.250000  0.155076  0.170236  1
  Sb  Sb27  1  0.750000  0.579482  0.024577  1
