# generated using pymatgen
data_Cs4SbWBr12
_symmetry_space_group_name_H-M   'P 1'
_cell_length_a   8.02396600
_cell_length_b   8.02396600
_cell_length_c   11.16995300
_cell_angle_alpha   90.00000000
_cell_angle_beta   90.00000000
_cell_angle_gamma   90.00000000
_symmetry_Int_Tables_number   1
_chemical_formula_structural   Cs4SbWBr12
_chemical_formula_sum   'Cs4 Sb1 W1 Br12'
_cell_volume   719.16659317
_cell_formula_units_Z   1
loop_
 _symmetry_equiv_pos_site_id
 _symmetry_equiv_pos_as_xyz
  1  'x, y, z'
loop_
 _atom_site_type_symbol
 _atom_site_label
 _atom_site_symmetry_multiplicity
 _atom_site_fract_x
 _atom_site_fract_y
 _atom_site_fract_z
 _atom_site_occupancy
  Cs  Cs0  1  0.500000  0.000000  0.722891  1
  Cs  Cs1  1  0.000000  0.500000  0.277109  1
  Cs  Cs2  1  0.500000  0.000000  0.277109  1
  Cs  Cs3  1  0.000000  0.500000  0.722891  1
  Sb  Sb4  1  0.500000  0.500000  0.500000  1
  W  W5  1  0.000000  0.000000  0.000000  1
  Br  Br6  1  0.000000  0.000000  0.774003  1
  Br  Br7  1  0.500000  0.500000  0.248136  1
  Br  Br8  1  0.748363  0.748363  0.500000  1
  Br  Br9  1  0.222383  0.222383  0.000000  1
  Br  Br10  1  0.748363  0.251637  0.500000  1
  Br  Br11  1  0.222383  0.777617  0.000000  1
  Br  Br12  1  0.000000  0.000000  0.225997  1
  Br  Br13  1  0.500000  0.500000  0.751864  1
  Br  Br14  1  0.251637  0.251637  0.500000  1
  Br  Br15  1  0.777617  0.777617  0.000000  1
  Br  Br16  1  0.251637  0.748363  0.500000  1
  Br  Br17  1  0.777617  0.222383  0.000000  1
