# generated using pymatgen
data_Tm3Ga3GePt2
_symmetry_space_group_name_H-M   'P 1'
_cell_length_a   7.10478300
_cell_length_b   7.10478176
_cell_length_c   4.00702600
_cell_angle_alpha   90.00000000
_cell_angle_beta   90.00000000
_cell_angle_gamma   119.99999181
_symmetry_Int_Tables_number   1
_chemical_formula_structural   Tm3Ga3GePt2
_chemical_formula_sum   'Tm3 Ga3 Ge1 Pt2'
_cell_volume   175.16784533
_cell_formula_units_Z   1
loop_
 _symmetry_equiv_pos_site_id
 _symmetry_equiv_pos_as_xyz
  1  'x, y, z'
loop_
 _atom_site_type_symbol
 _atom_site_label
 _atom_site_symmetry_multiplicity
 _atom_site_fract_x
 _atom_site_fract_y
 _atom_site_fract_z
 _atom_site_occupancy
  Tm  Tm0  1  0.407968  0.412921  0.500000  1
  Tm  Tm1  1  0.587079  0.995047  0.500000  1
  Tm  Tm2  1  0.004953  0.592032  0.500000  1
  Ga  Ga3  1  0.013796  0.253547  0.000000  1
  Ga  Ga4  1  0.746453  0.760249  0.000000  1
  Ga  Ga5  1  0.239751  0.986204  0.000000  1
  Ge  Ge6  1  0.666667  0.333333  0.000000  1
  Pt  Pt7  1  0.000000  0.000000  0.500000  1
  Pt  Pt8  1  0.333333  0.666667  0.000000  1
