# generated using pymatgen
data_Gd4Hf2Sn5
_symmetry_space_group_name_H-M   'P 1'
_cell_length_a   11.37994710
_cell_length_b   11.37994730
_cell_length_c   11.37994600
_cell_angle_alpha   148.42928376
_cell_angle_beta   131.88770253
_cell_angle_gamma   58.69005774
_symmetry_Int_Tables_number   1
_chemical_formula_structural   Gd4Hf2Sn5
_chemical_formula_sum   'Gd8 Hf4 Sn10'
_cell_volume   569.81207751
_cell_formula_units_Z   2
loop_
 _symmetry_equiv_pos_site_id
 _symmetry_equiv_pos_as_xyz
  1  'x, y, z'
loop_
 _atom_site_type_symbol
 _atom_site_label
 _atom_site_symmetry_multiplicity
 _atom_site_fract_x
 _atom_site_fract_y
 _atom_site_fract_z
 _atom_site_occupancy
  Gd  Gd0  1  0.668860  0.441474  0.227481  1
  Gd  Gd1  1  0.330113  0.558613  0.771441  1
  Gd  Gd2  1  0.213501  0.941110  0.271672  1
  Gd  Gd3  1  0.787886  0.058699  0.729341  1
  Gd  Gd4  1  0.256046  0.145919  0.110090  1
  Gd  Gd5  1  0.744770  0.854684  0.890349  1
  Gd  Gd6  1  0.036090  0.646066  0.390408  1
  Gd  Gd7  1  0.963262  0.354134  0.608834  1
  Hf  Hf8  1  0.302493  0.552633  0.250010  1
  Hf  Hf9  1  0.697602  0.447636  0.749952  1
  Hf  Hf10  1  0.697472  0.947362  0.249645  1
  Hf  Hf11  1  0.302643  0.052720  0.750155  1
  Sn  Sn12  1  0.585661  0.289692  0.295857  1
  Sn  Sn13  1  0.415733  0.710693  0.705044  1
  Sn  Sn14  1  0.993954  0.789987  0.204415  1
  Sn  Sn15  1  0.005543  0.210751  0.794783  1
  Sn  Sn16  1  0.999134  0.249305  0.250431  1
  Sn  Sn17  1  0.999114  0.748664  0.749743  1
  Sn  Sn18  1  0.482688  0.081274  0.401392  1
  Sn  Sn19  1  0.518207  0.918506  0.599604  1
  Sn  Sn20  1  0.680473  0.581416  0.099099  1
  Sn  Sn21  1  0.318755  0.418661  0.900251  1
