# generated using pymatgen
data_K5NpS6
_symmetry_space_group_name_H-M   'P 1'
_cell_length_a   7.61269848
_cell_length_b   7.61269824
_cell_length_c   7.52756554
_cell_angle_alpha   79.82873717
_cell_angle_beta   79.82874049
_cell_angle_gamma   119.61134556
_symmetry_Int_Tables_number   1
_chemical_formula_structural   K5NpS6
_chemical_formula_sum   'K5 Np1 S6'
_cell_volume   355.12306278
_cell_formula_units_Z   1
loop_
 _symmetry_equiv_pos_site_id
 _symmetry_equiv_pos_as_xyz
  1  'x, y, z'
loop_
 _atom_site_type_symbol
 _atom_site_label
 _atom_site_symmetry_multiplicity
 _atom_site_fract_x
 _atom_site_fract_y
 _atom_site_fract_z
 _atom_site_occupancy
  K  K0  1  0.333118  0.666882  0.000000  1
  K  K1  1  0.666882  0.333118  0.000000  1
  K  K2  1  0.500000  0.500000  0.500000  1
  K  K3  1  0.172128  0.827872  0.500000  1
  K  K4  1  0.827872  0.172128  0.500000  1
  Np  Np5  1  0.000000  0.000000  0.000000  1
  S  S6  1  0.930740  0.658378  0.209906  1
  S  S7  1  0.658378  0.930740  0.209906  1
  S  S8  1  0.069260  0.341622  0.790094  1
  S  S9  1  0.341622  0.069260  0.790094  1
  S  S10  1  0.800883  0.800883  0.797927  1
  S  S11  1  0.199117  0.199117  0.202073  1
