# generated using pymatgen
data_Lu15Pa(InCo)4
_symmetry_space_group_name_H-M   'P 1'
_cell_length_a   9.37698815
_cell_length_b   9.37698820
_cell_length_c   9.37698729
_cell_angle_alpha   59.64802672
_cell_angle_beta   59.64802713
_cell_angle_gamma   59.64803096
_symmetry_Int_Tables_number   1
_chemical_formula_structural   Lu15Pa(InCo)4
_chemical_formula_sum   'Lu15 Pa1 In4 Co4'
_cell_volume   578.34609601
_cell_formula_units_Z   1
loop_
 _symmetry_equiv_pos_site_id
 _symmetry_equiv_pos_as_xyz
  1  'x, y, z'
loop_
 _atom_site_type_symbol
 _atom_site_label
 _atom_site_symmetry_multiplicity
 _atom_site_fract_x
 _atom_site_fract_y
 _atom_site_fract_z
 _atom_site_occupancy
  Lu  Lu0  1  0.597912  0.597912  0.202920  1
  Lu  Lu1  1  0.597912  0.202920  0.597912  1
  Lu  Lu2  1  0.202920  0.597912  0.597912  1
  Lu  Lu3  1  0.064446  0.439196  0.439196  1
  Lu  Lu4  1  0.438421  0.063553  0.063553  1
  Lu  Lu5  1  0.439196  0.064446  0.439196  1
  Lu  Lu6  1  0.063553  0.438421  0.063553  1
  Lu  Lu7  1  0.439196  0.439196  0.064446  1
  Lu  Lu8  1  0.063553  0.063553  0.438421  1
  Lu  Lu9  1  0.189765  0.809501  0.809501  1
  Lu  Lu10  1  0.810505  0.187675  0.187675  1
  Lu  Lu11  1  0.809501  0.189765  0.809501  1
  Lu  Lu12  1  0.187675  0.810505  0.187675  1
  Lu  Lu13  1  0.809501  0.809501  0.189765  1
  Lu  Lu14  1  0.187675  0.187675  0.810505  1
  Pa  Pa15  1  0.584094  0.584094  0.584094  1
  In  In16  1  0.833273  0.833273  0.833273  1
  In  In17  1  0.832494  0.832494  0.499700  1
  In  In18  1  0.832494  0.499700  0.832494  1
  In  In19  1  0.499700  0.832494  0.832494  1
  Co  Co20  1  0.391530  0.391530  0.391530  1
  Co  Co21  1  0.404738  0.404738  0.815208  1
  Co  Co22  1  0.404738  0.815208  0.404738  1
  Co  Co23  1  0.815208  0.404738  0.404738  1
