# generated using pymatgen
data_Dy3YCo4(CuO5)4
_symmetry_space_group_name_H-M   'P 1'
_cell_length_a   5.62357000
_cell_length_b   7.46476000
_cell_length_c   8.37093300
_cell_angle_alpha   89.99766123
_cell_angle_beta   90.00000000
_cell_angle_gamma   90.00000000
_symmetry_Int_Tables_number   1
_chemical_formula_structural   Dy3YCo4(CuO5)4
_chemical_formula_sum   'Dy3 Y1 Co4 Cu4 O20'
_cell_volume   351.40005118
_cell_formula_units_Z   1
loop_
 _symmetry_equiv_pos_site_id
 _symmetry_equiv_pos_as_xyz
  1  'x, y, z'
loop_
 _atom_site_type_symbol
 _atom_site_label
 _atom_site_symmetry_multiplicity
 _atom_site_fract_x
 _atom_site_fract_y
 _atom_site_fract_z
 _atom_site_occupancy
  Dy  Dy0  1  0.500000  0.351129  0.326954  1
  Dy  Dy1  1  0.500000  0.648747  0.673036  1
  Dy  Dy2  1  0.500000  0.148802  0.826891  1
  Y  Y3  1  0.500000  0.851047  0.173079  1
  Co  Co4  1  0.242230  0.000098  0.500131  1
  Co  Co5  1  0.757770  0.000098  0.500131  1
  Co  Co6  1  0.757747  0.499764  0.999901  1
  Co  Co7  1  0.242253  0.499764  0.999901  1
  Cu  Cu8  1  0.000000  0.072949  0.153483  1
  Cu  Cu9  1  0.000000  0.927661  0.846350  1
  Cu  Cu10  1  0.000000  0.427672  0.653581  1
  Cu  Cu11  1  0.000000  0.572068  0.346516  1
  O  O12  1  0.228393  0.000762  0.999633  1
  O  O13  1  0.771607  0.000762  0.999633  1
  O  O14  1  0.771402  0.500043  0.500093  1
  O  O15  1  0.228598  0.500043  0.500093  1
  O  O16  1  0.000000  0.351346  0.060393  1
  O  O17  1  0.000000  0.648473  0.939415  1
  O  O18  1  0.000000  0.148483  0.560807  1
  O  O19  1  0.000000  0.851624  0.439436  1
  O  O20  1  0.258024  0.093631  0.291846  1
  O  O21  1  0.741647  0.906725  0.708344  1
  O  O22  1  0.258353  0.906725  0.708344  1
  O  O23  1  0.741739  0.406777  0.791587  1
  O  O24  1  0.741976  0.093631  0.291846  1
  O  O25  1  0.258062  0.592337  0.208445  1
  O  O26  1  0.741938  0.592337  0.208445  1
  O  O27  1  0.258261  0.406777  0.791587  1
  O  O28  1  0.500000  0.337135  0.052136  1
  O  O29  1  0.500000  0.662354  0.947603  1
  O  O30  1  0.500000  0.162721  0.552259  1
  O  O31  1  0.500000  0.837516  0.448099  1
