# generated using pymatgen
data_Pr5Y3Sc12Si15Ag
_symmetry_space_group_name_H-M   'P 1'
_cell_length_a   7.23476170
_cell_length_b   7.46805155
_cell_length_c   14.26482004
_cell_angle_alpha   90.06152793
_cell_angle_beta   89.65664237
_cell_angle_gamma   90.25794222
_symmetry_Int_Tables_number   1
_chemical_formula_structural   Pr5Y3Sc12Si15Ag
_chemical_formula_sum   'Pr5 Y3 Sc12 Si15 Ag1'
_cell_volume   770.70006850
_cell_formula_units_Z   1
loop_
 _symmetry_equiv_pos_site_id
 _symmetry_equiv_pos_as_xyz
  1  'x, y, z'
loop_
 _atom_site_type_symbol
 _atom_site_label
 _atom_site_symmetry_multiplicity
 _atom_site_fract_x
 _atom_site_fract_y
 _atom_site_fract_z
 _atom_site_occupancy
  Pr  Pr0  1  0.491572  0.674673  0.598712  1
  Pr  Pr1  1  0.989271  0.833482  0.596839  1
  Pr  Pr2  1  0.987821  0.829001  0.903189  1
  Pr  Pr3  1  0.511733  0.327548  0.096590  1
  Pr  Pr4  1  0.013674  0.171757  0.097945  1
  Y  Y5  1  0.008664  0.173080  0.396419  1
  Y  Y6  1  0.512994  0.323131  0.397906  1
  Y  Y7  1  0.487833  0.676246  0.901373  1
  Sc  Sc8  1  0.342877  0.173404  0.627392  1
  Sc  Sc9  1  0.665791  0.824222  0.374126  1
  Sc  Sc10  1  0.664327  0.999473  0.752746  1
  Sc  Sc11  1  0.166752  0.675547  0.372373  1
  Sc  Sc12  1  0.829721  0.323829  0.876896  1
  Sc  Sc13  1  0.823333  0.325518  0.624702  1
  Sc  Sc14  1  0.837837  0.500614  0.252132  1
  Sc  Sc15  1  0.338680  0.998116  0.249870  1
  Sc  Sc16  1  0.328854  0.174640  0.876463  1
  Sc  Sc17  1  0.171219  0.675900  0.125836  1
  Sc  Sc18  1  0.669996  0.823451  0.125524  1
  Sc  Sc19  1  0.162762  0.498712  0.754497  1
  Si  Si20  1  0.288977  0.880018  0.752096  1
  Si  Si21  1  0.465632  0.621511  0.249814  1
  Si  Si22  1  0.036789  0.129648  0.749859  1
  Si  Si23  1  0.535224  0.380181  0.753735  1
  Si  Si24  1  0.964625  0.877516  0.250502  1
  Si  Si25  1  0.711540  0.121878  0.251516  1
  Si  Si26  1  0.848481  0.537694  0.039303  1
  Si  Si27  1  0.348775  0.958146  0.038784  1
  Si  Si28  1  0.155441  0.465712  0.960798  1
  Si  Si29  1  0.654326  0.042294  0.535151  1
  Si  Si30  1  0.340978  0.966972  0.458541  1
  Si  Si31  1  0.836264  0.534366  0.455982  1
  Si  Si32  1  0.787409  0.619315  0.753431  1
  Si  Si33  1  0.213465  0.377254  0.251908  1
  Si  Si34  1  0.649802  0.032881  0.959448  1
  Ag  Ag35  1  0.156560  0.452275  0.537601  1
