# generated using pymatgen
data_TbBi3(Rh2O7)2
_symmetry_space_group_name_H-M   'P 1'
_cell_length_a   7.29939730
_cell_length_b   7.29939791
_cell_length_c   7.29939771
_cell_angle_alpha   60.50796167
_cell_angle_beta   60.50795893
_cell_angle_gamma   60.50796019
_symmetry_Int_Tables_number   1
_chemical_formula_structural   TbBi3(Rh2O7)2
_chemical_formula_sum   'Tb1 Bi3 Rh4 O14'
_cell_volume   278.16536143
_cell_formula_units_Z   1
loop_
 _symmetry_equiv_pos_site_id
 _symmetry_equiv_pos_as_xyz
  1  'x, y, z'
loop_
 _atom_site_type_symbol
 _atom_site_label
 _atom_site_symmetry_multiplicity
 _atom_site_fract_x
 _atom_site_fract_y
 _atom_site_fract_z
 _atom_site_occupancy
  Tb  Tb0  1  0.125000  0.125000  0.125000  1
  Bi  Bi1  1  0.125000  0.625000  0.125000  1
  Bi  Bi2  1  0.625000  0.125000  0.125000  1
  Bi  Bi3  1  0.125000  0.125000  0.625000  1
  Rh  Rh4  1  0.625000  0.625000  0.625000  1
  Rh  Rh5  1  0.625000  0.625000  0.125000  1
  Rh  Rh6  1  0.125000  0.625000  0.625000  1
  Rh  Rh7  1  0.625000  0.125000  0.625000  1
  O  O8  1  0.248989  0.248989  0.248989  1
  O  O9  1  0.288894  0.715444  0.288894  1
  O  O10  1  0.961106  0.961106  0.534556  1
  O  O11  1  0.542904  0.957111  0.542904  1
  O  O12  1  0.707096  0.707096  0.292889  1
  O  O13  1  0.957111  0.542904  0.542904  1
  O  O14  1  0.707096  0.292889  0.707096  1
  O  O15  1  0.288894  0.288894  0.715444  1
  O  O16  1  0.715444  0.288894  0.288894  1
  O  O17  1  0.292889  0.707096  0.707096  1
  O  O18  1  0.961106  0.534556  0.961106  1
  O  O19  1  0.542904  0.542904  0.957111  1
  O  O20  1  0.001011  0.001011  0.001011  1
  O  O21  1  0.534556  0.961106  0.961106  1
