# generated using pymatgen
data_CePa(CoP)4
_symmetry_space_group_name_H-M   'P 1'
_cell_length_a   3.98712000
_cell_length_b   3.98712000
_cell_length_c   8.91654200
_cell_angle_alpha   90.00000000
_cell_angle_beta   90.00000000
_cell_angle_gamma   90.00000000
_symmetry_Int_Tables_number   1
_chemical_formula_structural   CePa(CoP)4
_chemical_formula_sum   'Ce1 Pa1 Co4 P4'
_cell_volume   141.74739072
_cell_formula_units_Z   1
loop_
 _symmetry_equiv_pos_site_id
 _symmetry_equiv_pos_as_xyz
  1  'x, y, z'
loop_
 _atom_site_type_symbol
 _atom_site_label
 _atom_site_symmetry_multiplicity
 _atom_site_fract_x
 _atom_site_fract_y
 _atom_site_fract_z
 _atom_site_occupancy
  Ce  Ce0  1  0.500000  0.000000  0.249017  1
  Pa  Pa1  1  0.000000  0.500000  0.748654  1
  Co  Co2  1  0.000000  0.500000  0.108638  1
  Co  Co3  1  0.500000  0.000000  0.884845  1
  Co  Co4  1  0.000000  0.000000  0.505744  1
  Co  Co5  1  0.500000  0.500000  0.505744  1
  P  P6  1  0.000000  0.500000  0.367229  1
  P  P7  1  0.500000  0.500000  0.998198  1
  P  P8  1  0.500000  0.000000  0.633732  1
  P  P9  1  0.000000  0.000000  0.998198  1
