# generated using pymatgen
data_Tm7Th3(Sn3C)2
_symmetry_space_group_name_H-M   'P 1'
_cell_length_a   9.03438878
_cell_length_b   9.02340050
_cell_length_c   6.48699300
_cell_angle_alpha   90.00000000
_cell_angle_beta   90.00000000
_cell_angle_gamma   120.21770184
_symmetry_Int_Tables_number   1
_chemical_formula_structural   Tm7Th3(Sn3C)2
_chemical_formula_sum   'Tm7 Th3 Sn6 C2'
_cell_volume   456.96840000
_cell_formula_units_Z   1
loop_
 _symmetry_equiv_pos_site_id
 _symmetry_equiv_pos_as_xyz
  1  'x, y, z'
loop_
 _atom_site_type_symbol
 _atom_site_label
 _atom_site_symmetry_multiplicity
 _atom_site_fract_x
 _atom_site_fract_y
 _atom_site_fract_z
 _atom_site_occupancy
  Tm  Tm0  1  0.332953  0.666013  0.500533  1
  Tm  Tm1  1  0.666954  0.334387  0.500482  1
  Tm  Tm2  1  0.666954  0.334387  0.999518  1
  Tm  Tm3  1  0.332953  0.666013  0.999467  1
  Tm  Tm4  1  0.214955  0.001945  0.750000  1
  Tm  Tm5  1  0.784117  0.001343  0.250000  1
  Tm  Tm6  1  0.999902  0.214127  0.750000  1
  Th  Th7  1  0.000700  0.779472  0.250000  1
  Th  Th8  1  0.779515  0.781139  0.750000  1
  Th  Th9  1  0.219835  0.220667  0.250000  1
  Sn  Sn10  1  0.593992  0.004139  0.750000  1
  Sn  Sn11  1  0.414248  0.001453  0.250000  1
  Sn  Sn12  1  0.003344  0.594423  0.750000  1
  Sn  Sn13  1  0.997145  0.403398  0.250000  1
  Sn  Sn14  1  0.399221  0.399145  0.750000  1
  Sn  Sn15  1  0.593890  0.599230  0.250000  1
  C  C16  1  0.999661  0.999359  0.500337  1
  C  C17  1  0.999661  0.999359  0.999663  1
