# generated using pymatgen
data_SrIn2NiIr8
_symmetry_space_group_name_H-M   'P 1'
_cell_length_a   5.24654400
_cell_length_b   8.82165200
_cell_length_c   8.82165200
_cell_angle_alpha   90.00000000
_cell_angle_beta   90.00000000
_cell_angle_gamma   90.00000000
_symmetry_Int_Tables_number   1
_chemical_formula_structural   SrIn2NiIr8
_chemical_formula_sum   'Sr2 In4 Ni2 Ir16'
_cell_volume   408.29415479
_cell_formula_units_Z   2
loop_
 _symmetry_equiv_pos_site_id
 _symmetry_equiv_pos_as_xyz
  1  'x, y, z'
loop_
 _atom_site_type_symbol
 _atom_site_label
 _atom_site_symmetry_multiplicity
 _atom_site_fract_x
 _atom_site_fract_y
 _atom_site_fract_z
 _atom_site_occupancy
  Sr  Sr0  1  0.000000  0.500000  0.500000  1
  Sr  Sr1  1  0.000000  0.000000  0.000000  1
  In  In2  1  0.000000  0.625246  0.125246  1
  In  In3  1  0.000000  0.374754  0.874754  1
  In  In4  1  0.000000  0.874754  0.625246  1
  In  In5  1  0.000000  0.125246  0.374754  1
  Ni  Ni6  1  0.500000  0.000000  0.500000  1
  Ni  Ni7  1  0.500000  0.500000  0.000000  1
  Ir  Ir8  1  0.756833  0.172556  0.672556  1
  Ir  Ir9  1  0.756833  0.827444  0.327444  1
  Ir  Ir10  1  0.756833  0.327444  0.172556  1
  Ir  Ir11  1  0.756833  0.672556  0.827444  1
  Ir  Ir12  1  0.243167  0.827444  0.327444  1
  Ir  Ir13  1  0.243167  0.172556  0.672556  1
  Ir  Ir14  1  0.243167  0.672556  0.827444  1
  Ir  Ir15  1  0.243167  0.327444  0.172556  1
  Ir  Ir16  1  0.500000  0.709650  0.565402  1
  Ir  Ir17  1  0.500000  0.290350  0.434598  1
  Ir  Ir18  1  0.500000  0.790350  0.065402  1
  Ir  Ir19  1  0.500000  0.209650  0.934598  1
  Ir  Ir20  1  0.500000  0.565402  0.290350  1
  Ir  Ir21  1  0.500000  0.434598  0.709650  1
  Ir  Ir22  1  0.500000  0.065402  0.209650  1
  Ir  Ir23  1  0.500000  0.934598  0.790350  1
