# generated using pymatgen
data_Dy15Er(AgRh)4
_symmetry_space_group_name_H-M   'P 1'
_cell_length_a   9.52491969
_cell_length_b   9.49049013
_cell_length_c   9.52491882
_cell_angle_alpha   60.11949300
_cell_angle_beta   60.24466037
_cell_angle_gamma   60.11949389
_symmetry_Int_Tables_number   1
_chemical_formula_structural   Dy15Er(AgRh)4
_chemical_formula_sum   'Dy15 Er1 Ag4 Rh4'
_cell_volume   611.05145400
_cell_formula_units_Z   1
loop_
 _symmetry_equiv_pos_site_id
 _symmetry_equiv_pos_as_xyz
  1  'x, y, z'
loop_
 _atom_site_type_symbol
 _atom_site_label
 _atom_site_symmetry_multiplicity
 _atom_site_fract_x
 _atom_site_fract_y
 _atom_site_fract_z
 _atom_site_occupancy
  Dy  Dy0  1  0.188113  0.186504  0.813720  1
  Dy  Dy1  1  0.435235  0.063532  0.064892  1
  Dy  Dy2  1  0.435861  0.064139  0.435861  1
  Dy  Dy3  1  0.064527  0.435473  0.064527  1
  Dy  Dy4  1  0.646821  0.058382  0.646821  1
  Dy  Dy5  1  0.188113  0.811664  0.813720  1
  Dy  Dy6  1  0.064892  0.063532  0.435235  1
  Dy  Dy7  1  0.813720  0.186504  0.188113  1
  Dy  Dy8  1  0.813720  0.811664  0.188113  1
  Dy  Dy9  1  0.645770  0.647580  0.059070  1
  Dy  Dy10  1  0.646821  0.647976  0.646821  1
  Dy  Dy11  1  0.064892  0.436341  0.435235  1
  Dy  Dy12  1  0.059070  0.647580  0.645770  1
  Dy  Dy13  1  0.812960  0.187040  0.812960  1
  Dy  Dy14  1  0.435235  0.436341  0.064892  1
  Er  Er15  1  0.187809  0.812191  0.187809  1
  Ag  Ag16  1  0.417214  0.747078  0.417214  1
  Ag  Ag17  1  0.417416  0.418344  0.745896  1
  Ag  Ag18  1  0.745896  0.418344  0.417416  1
  Ag  Ag19  1  0.417214  0.418496  0.417214  1
  Rh  Rh20  1  0.855985  0.430063  0.855985  1
  Rh  Rh21  1  0.856087  0.856635  0.430643  1
  Rh  Rh22  1  0.430643  0.856635  0.856087  1
  Rh  Rh23  1  0.855985  0.857965  0.855985  1
