# generated using pymatgen
data_Y3Al3ZnSiPt
_symmetry_space_group_name_H-M   'P 1'
_cell_length_a   7.00168200
_cell_length_b   7.00168108
_cell_length_c   4.22048200
_cell_angle_alpha   90.00000000
_cell_angle_beta   90.00000000
_cell_angle_gamma   119.99999488
_symmetry_Int_Tables_number   1
_chemical_formula_structural   Y3Al3ZnSiPt
_chemical_formula_sum   'Y3 Al3 Zn1 Si1 Pt1'
_cell_volume   179.18325189
_cell_formula_units_Z   1
loop_
 _symmetry_equiv_pos_site_id
 _symmetry_equiv_pos_as_xyz
  1  'x, y, z'
loop_
 _atom_site_type_symbol
 _atom_site_label
 _atom_site_symmetry_multiplicity
 _atom_site_fract_x
 _atom_site_fract_y
 _atom_site_fract_z
 _atom_site_occupancy
  Y  Y0  1  0.417103  0.997062  0.000000  1
  Y  Y1  1  0.002938  0.420041  0.000000  1
  Y  Y2  1  0.579959  0.582897  0.000000  1
  Al  Al3  1  0.767056  0.005968  0.500000  1
  Al  Al4  1  0.238912  0.232944  0.500000  1
  Al  Al5  1  0.994032  0.761088  0.500000  1
  Zn  Zn6  1  0.666666  0.333333  0.500000  1
  Si  Si7  1  0.333333  0.666666  0.500000  1
  Pt  Pt8  1  0.000000  0.000000  0.000000  1
