# generated using pymatgen
data_Tb3Cd5Pt
_symmetry_space_group_name_H-M   'P 1'
_cell_length_a   8.12074600
_cell_length_b   8.12074658
_cell_length_c   3.82845800
_cell_angle_alpha   90.00000000
_cell_angle_beta   90.00000000
_cell_angle_gamma   119.99999765
_symmetry_Int_Tables_number   1
_chemical_formula_structural   Tb3Cd5Pt
_chemical_formula_sum   'Tb3 Cd5 Pt1'
_cell_volume   218.64845537
_cell_formula_units_Z   1
loop_
 _symmetry_equiv_pos_site_id
 _symmetry_equiv_pos_as_xyz
  1  'x, y, z'
loop_
 _atom_site_type_symbol
 _atom_site_label
 _atom_site_symmetry_multiplicity
 _atom_site_fract_x
 _atom_site_fract_y
 _atom_site_fract_z
 _atom_site_occupancy
  Tb  Tb0  1  0.613956  0.038345  0.000000  1
  Tb  Tb1  1  0.961655  0.575610  0.000000  1
  Tb  Tb2  1  0.424390  0.386044  0.000000  1
  Cd  Cd3  1  0.269504  0.990334  0.500000  1
  Cd  Cd4  1  0.009666  0.279170  0.500000  1
  Cd  Cd5  1  0.720830  0.730496  0.500000  1
  Cd  Cd6  1  0.333333  0.666667  0.500000  1
  Cd  Cd7  1  0.000000  0.000000  0.000000  1
  Pt  Pt8  1  0.666667  0.333333  0.500000  1
