# generated using pymatgen
data_Hf10Al2Sn5Sb
_symmetry_space_group_name_H-M   'P 1'
_cell_length_a   8.68810500
_cell_length_b   8.67678215
_cell_length_c   5.80822000
_cell_angle_alpha   90.00000000
_cell_angle_beta   90.00000000
_cell_angle_gamma   120.04318095
_symmetry_Int_Tables_number   1
_chemical_formula_structural   Hf10Al2Sn5Sb
_chemical_formula_sum   'Hf10 Al2 Sn5 Sb1'
_cell_volume   379.02539527
_cell_formula_units_Z   1
loop_
 _symmetry_equiv_pos_site_id
 _symmetry_equiv_pos_as_xyz
  1  'x, y, z'
loop_
 _atom_site_type_symbol
 _atom_site_label
 _atom_site_symmetry_multiplicity
 _atom_site_fract_x
 _atom_site_fract_y
 _atom_site_fract_z
 _atom_site_occupancy
  Hf  Hf0  1  0.728524  0.730021  0.250000  1
  Hf  Hf1  1  0.727921  0.000000  0.750000  1
  Hf  Hf2  1  0.998504  0.269979  0.250000  1
  Hf  Hf3  1  0.000731  0.728770  0.750000  1
  Hf  Hf4  1  0.271961  0.271230  0.750000  1
  Hf  Hf5  1  0.272203  0.000000  0.250000  1
  Hf  Hf6  1  0.333887  0.667245  0.500302  1
  Hf  Hf7  1  0.666642  0.332755  0.999698  1
  Hf  Hf8  1  0.666642  0.332755  0.500302  1
  Hf  Hf9  1  0.333887  0.667245  0.999698  1
  Al  Al10  1  0.000620  0.000000  0.999188  1
  Al  Al11  1  0.000620  0.000000  0.500812  1
  Sn  Sn12  1  0.385916  0.000000  0.750000  1
  Sn  Sn13  1  0.386422  0.386489  0.250000  1
  Sn  Sn14  1  0.999933  0.613511  0.250000  1
  Sn  Sn15  1  0.000548  0.386960  0.750000  1
  Sn  Sn16  1  0.613588  0.613040  0.750000  1
  Sb  Sb17  1  0.611452  0.000000  0.250000  1
