# generated using pymatgen
data_TbLuFe3Re14C3
_symmetry_space_group_name_H-M   'P 1'
_cell_length_a   6.92205512
_cell_length_b   6.92205582
_cell_length_c   6.92205476
_cell_angle_alpha   82.44565993
_cell_angle_beta   82.44566098
_cell_angle_gamma   82.44565521
_symmetry_Int_Tables_number   1
_chemical_formula_structural   TbLuFe3Re14C3
_chemical_formula_sum   'Tb1 Lu1 Fe3 Re14 C3'
_cell_volume   323.72923326
_cell_formula_units_Z   1
loop_
 _symmetry_equiv_pos_site_id
 _symmetry_equiv_pos_as_xyz
  1  'x, y, z'
loop_
 _atom_site_type_symbol
 _atom_site_label
 _atom_site_symmetry_multiplicity
 _atom_site_fract_x
 _atom_site_fract_y
 _atom_site_fract_z
 _atom_site_occupancy
  Tb  Tb0  1  0.351255  0.351255  0.351255  1
  Lu  Lu1  1  0.649346  0.649346  0.649346  1
  Fe  Fe2  1  0.000415  0.000415  0.499501  1
  Fe  Fe3  1  0.000415  0.499501  0.000415  1
  Fe  Fe4  1  0.499501  0.000415  0.000415  1
  Re  Re5  1  0.102081  0.102081  0.102081  1
  Re  Re6  1  0.897496  0.897496  0.897496  1
  Re  Re7  1  0.722320  0.277897  0.999819  1
  Re  Re8  1  0.277897  0.999819  0.722320  1
  Re  Re9  1  0.999819  0.722320  0.277897  1
  Re  Re10  1  0.277897  0.722320  0.999819  1
  Re  Re11  1  0.722320  0.999819  0.277897  1
  Re  Re12  1  0.999819  0.277897  0.722320  1
  Re  Re13  1  0.138698  0.653686  0.653686  1
  Re  Re14  1  0.653686  0.653686  0.138698  1
  Re  Re15  1  0.653686  0.138698  0.653686  1
  Re  Re16  1  0.347287  0.859185  0.347287  1
  Re  Re17  1  0.347287  0.347287  0.859185  1
  Re  Re18  1  0.859185  0.347287  0.347287  1
  C  C19  1  0.502131  0.502131  0.995330  1
  C  C20  1  0.502131  0.995330  0.502131  1
  C  C21  1  0.995330  0.502131  0.502131  1
