# generated using pymatgen
data_TbLu(AgPb)2
_symmetry_space_group_name_H-M   'P 1'
_cell_length_a   4.81859500
_cell_length_b   4.81859589
_cell_length_c   7.46227300
_cell_angle_alpha   90.00000000
_cell_angle_beta   90.00000000
_cell_angle_gamma   119.99998701
_symmetry_Int_Tables_number   1
_chemical_formula_structural   TbLu(AgPb)2
_chemical_formula_sum   'Tb1 Lu1 Ag2 Pb2'
_cell_volume   150.05233347
_cell_formula_units_Z   1
loop_
 _symmetry_equiv_pos_site_id
 _symmetry_equiv_pos_as_xyz
  1  'x, y, z'
loop_
 _atom_site_type_symbol
 _atom_site_label
 _atom_site_symmetry_multiplicity
 _atom_site_fract_x
 _atom_site_fract_y
 _atom_site_fract_z
 _atom_site_occupancy
  Tb  Tb0  1  0.000000  0.000000  0.503388  1
  Lu  Lu1  1  0.000000  0.000000  0.002198  1
  Ag  Ag2  1  0.666667  0.333333  0.317216  1
  Ag  Ag3  1  0.333333  0.666667  0.820621  1
  Pb  Pb4  1  0.333333  0.666667  0.221586  1
  Pb  Pb5  1  0.666667  0.333333  0.725391  1
