# generated using pymatgen
data_Pr6PaO12
_symmetry_space_group_name_H-M   'P 1'
_cell_length_a   6.90060659
_cell_length_b   6.90060560
_cell_length_c   6.90060701
_cell_angle_alpha   99.07694860
_cell_angle_beta   99.07695062
_cell_angle_gamma   99.07696965
_symmetry_Int_Tables_number   1
_chemical_formula_structural   Pr6PaO12
_chemical_formula_sum   'Pr6 Pa1 O12'
_cell_volume   314.74616859
_cell_formula_units_Z   1
loop_
 _symmetry_equiv_pos_site_id
 _symmetry_equiv_pos_as_xyz
  1  'x, y, z'
loop_
 _atom_site_type_symbol
 _atom_site_label
 _atom_site_symmetry_multiplicity
 _atom_site_fract_x
 _atom_site_fract_y
 _atom_site_fract_z
 _atom_site_occupancy
  Pr  Pr0  1  0.303788  0.609179  0.140418  1
  Pr  Pr1  1  0.609179  0.140418  0.303788  1
  Pr  Pr2  1  0.390821  0.859582  0.696212  1
  Pr  Pr3  1  0.696212  0.390821  0.859582  1
  Pr  Pr4  1  0.859582  0.696212  0.390821  1
  Pr  Pr5  1  0.140418  0.303788  0.609179  1
  Pa  Pa6  1  0.000000  0.000000  0.000000  1
  O  O7  1  0.437671  0.177192  0.587089  1
  O  O8  1  0.931903  0.693260  0.053389  1
  O  O9  1  0.177192  0.587089  0.437671  1
  O  O10  1  0.822808  0.412911  0.562329  1
  O  O11  1  0.562329  0.822808  0.412911  1
  O  O12  1  0.587089  0.437671  0.177192  1
  O  O13  1  0.412911  0.562329  0.822808  1
  O  O14  1  0.946611  0.068097  0.306740  1
  O  O15  1  0.053389  0.931903  0.693260  1
  O  O16  1  0.693260  0.053389  0.931903  1
  O  O17  1  0.068097  0.306740  0.946611  1
  O  O18  1  0.306740  0.946611  0.068097  1
