# generated using pymatgen
data_Ti6NbGa8Mo3
_symmetry_space_group_name_H-M   'P 1'
_cell_length_a   7.83448300
_cell_length_b   7.83448385
_cell_length_c   5.36756000
_cell_angle_alpha   90.00000000
_cell_angle_beta   90.00000000
_cell_angle_gamma   120.00000062
_symmetry_Int_Tables_number   1
_chemical_formula_structural   Ti6NbGa8Mo3
_chemical_formula_sum   'Ti6 Nb1 Ga8 Mo3'
_cell_volume   285.31740744
_cell_formula_units_Z   1
loop_
 _symmetry_equiv_pos_site_id
 _symmetry_equiv_pos_as_xyz
  1  'x, y, z'
loop_
 _atom_site_type_symbol
 _atom_site_label
 _atom_site_symmetry_multiplicity
 _atom_site_fract_x
 _atom_site_fract_y
 _atom_site_fract_z
 _atom_site_occupancy
  Ti  Ti0  1  0.712962  0.713838  0.751182  1
  Ti  Ti1  1  0.286162  0.999123  0.751182  1
  Ti  Ti2  1  0.000877  0.287038  0.751182  1
  Ti  Ti3  1  0.286162  0.287038  0.248818  1
  Ti  Ti4  1  0.712962  0.999123  0.248818  1
  Ti  Ti5  1  0.000877  0.713838  0.248818  1
  Nb  Nb6  1  0.666667  0.333333  0.500000  1
  Ga  Ga7  1  0.000000  0.000000  0.000000  1
  Ga  Ga8  1  0.000000  0.000000  0.500000  1
  Ga  Ga9  1  0.377327  0.379252  0.750979  1
  Ga  Ga10  1  0.620748  0.998074  0.750979  1
  Ga  Ga11  1  0.001926  0.622673  0.750979  1
  Ga  Ga12  1  0.620748  0.622673  0.249021  1
  Ga  Ga13  1  0.377327  0.998074  0.249021  1
  Ga  Ga14  1  0.001926  0.379252  0.249021  1
  Mo  Mo15  1  0.666667  0.333333  0.000000  1
  Mo  Mo16  1  0.333333  0.666667  0.000000  1
  Mo  Mo17  1  0.333333  0.666667  0.500000  1
