# generated using pymatgen
data_La3Nd(SeO3)6
_symmetry_space_group_name_H-M   'P 1'
_cell_length_a   7.24902222
_cell_length_b   8.19827201
_cell_length_c   9.46563488
_cell_angle_alpha   69.60162014
_cell_angle_beta   76.31521479
_cell_angle_gamma   64.48350345
_symmetry_Int_Tables_number   1
_chemical_formula_structural   La3Nd(SeO3)6
_chemical_formula_sum   'La3 Nd1 Se6 O18'
_cell_volume   473.34251593
_cell_formula_units_Z   1
loop_
 _symmetry_equiv_pos_site_id
 _symmetry_equiv_pos_as_xyz
  1  'x, y, z'
loop_
 _atom_site_type_symbol
 _atom_site_label
 _atom_site_symmetry_multiplicity
 _atom_site_fract_x
 _atom_site_fract_y
 _atom_site_fract_z
 _atom_site_occupancy
  La  La0  1  0.629408  0.348241  0.326014  1
  La  La1  1  0.370410  0.651261  0.674612  1
  La  La2  1  0.229426  0.308565  0.126794  1
  Nd  Nd3  1  0.768191  0.691958  0.873006  1
  Se  Se4  1  0.453626  0.175713  0.746214  1
  Se  Se5  1  0.193388  0.762941  0.030152  1
  Se  Se6  1  0.862559  0.781470  0.496732  1
  Se  Se7  1  0.806064  0.240252  0.966894  1
  Se  Se8  1  0.549258  0.821647  0.251313  1
  Se  Se9  1  0.135107  0.217587  0.507267  1
  O  O10  1  0.669762  0.020456  0.834935  1
  O  O11  1  0.330826  0.974534  0.164863  1
  O  O12  1  0.638672  0.790198  0.620521  1
  O  O13  1  0.358947  0.212934  0.384150  1
  O  O14  1  0.393216  0.777642  0.892348  1
  O  O15  1  0.327780  0.331859  0.855977  1
  O  O16  1  0.900875  0.347485  0.050790  1
  O  O17  1  0.536948  0.331705  0.595413  1
  O  O18  1  0.700331  0.439041  0.824306  1
  O  O19  1  0.096708  0.657904  0.944731  1
  O  O20  1  0.172825  0.988428  0.581564  1
  O  O21  1  0.022169  0.689484  0.643643  1
  O  O22  1  0.609811  0.221517  0.106858  1
  O  O23  1  0.675543  0.665578  0.141556  1
  O  O24  1  0.468853  0.665546  0.404387  1
  O  O25  1  0.297636  0.566172  0.174503  1
  O  O26  1  0.827723  0.009727  0.418892  1
  O  O27  1  0.973938  0.310154  0.361563  1
