# generated using pymatgen
data_Tb3Ga5Pt
_symmetry_space_group_name_H-M   'P 1'
_cell_length_a   7.00114400
_cell_length_b   7.00114352
_cell_length_c   4.29680700
_cell_angle_alpha   90.00000000
_cell_angle_beta   90.00000000
_cell_angle_gamma   120.00000229
_symmetry_Int_Tables_number   1
_chemical_formula_structural   Tb3Ga5Pt
_chemical_formula_sum   'Tb3 Ga5 Pt1'
_cell_volume   182.39564272
_cell_formula_units_Z   1
loop_
 _symmetry_equiv_pos_site_id
 _symmetry_equiv_pos_as_xyz
  1  'x, y, z'
loop_
 _atom_site_type_symbol
 _atom_site_label
 _atom_site_symmetry_multiplicity
 _atom_site_fract_x
 _atom_site_fract_y
 _atom_site_fract_z
 _atom_site_occupancy
  Tb  Tb0  1  0.586069  0.000000  0.000000  1
  Tb  Tb1  1  0.413932  0.413932  0.000000  1
  Tb  Tb2  1  0.000000  0.586068  0.000000  1
  Ga  Ga3  1  0.241451  0.000000  0.499999  1
  Ga  Ga4  1  0.000000  0.241451  0.499999  1
  Ga  Ga5  1  0.666667  0.333333  0.499999  1
  Ga  Ga6  1  0.333333  0.666667  0.499999  1
  Ga  Ga7  1  0.758549  0.758549  0.499999  1
  Pt  Pt8  1  0.000000  0.000000  0.000000  1
