# generated using pymatgen
data_Cs2Mn3BiF12
_symmetry_space_group_name_H-M   'P 1'
_cell_length_a   7.49944660
_cell_length_b   7.85063851
_cell_length_c   10.48160100
_cell_angle_alpha   90.17809904
_cell_angle_beta   87.64172156
_cell_angle_gamma   87.27894020
_symmetry_Int_Tables_number   1
_chemical_formula_structural   Cs2Mn3BiF12
_chemical_formula_sum   'Cs4 Mn6 Bi2 F24'
_cell_volume   615.88313305
_cell_formula_units_Z   2
loop_
 _symmetry_equiv_pos_site_id
 _symmetry_equiv_pos_as_xyz
  1  'x, y, z'
loop_
 _atom_site_type_symbol
 _atom_site_label
 _atom_site_symmetry_multiplicity
 _atom_site_fract_x
 _atom_site_fract_y
 _atom_site_fract_z
 _atom_site_occupancy
  Cs  Cs0  1  0.512514  0.745509  0.612020  1
  Cs  Cs1  1  0.487486  0.254491  0.387980  1
  Cs  Cs2  1  0.005267  0.259901  0.141270  1
  Cs  Cs3  1  0.994733  0.740099  0.858730  1
  Mn  Mn4  1  0.804152  0.741258  0.211739  1
  Mn  Mn5  1  0.195848  0.258742  0.788261  1
  Mn  Mn6  1  0.000000  0.500000  0.500000  1
  Mn  Mn7  1  0.000000  0.000000  0.500000  1
  Mn  Mn8  1  0.500000  0.000000  0.000000  1
  Mn  Mn9  1  0.500000  0.500000  0.000000  1
  Bi  Bi10  1  0.723751  0.226956  0.745377  1
  Bi  Bi11  1  0.276249  0.773044  0.254623  1
  F  F12  1  0.052496  0.675266  0.126449  1
  F  F13  1  0.947504  0.324734  0.873551  1
  F  F14  1  0.563297  0.761179  0.314723  1
  F  F15  1  0.436703  0.238821  0.685277  1
  F  F16  1  0.755532  0.428399  0.587033  1
  F  F17  1  0.244468  0.571601  0.412967  1
  F  F18  1  0.733602  0.064875  0.556696  1
  F  F19  1  0.266398  0.935125  0.443304  1
  F  F20  1  0.653197  0.962267  0.820788  1
  F  F21  1  0.346803  0.037733  0.179212  1
  F  F22  1  0.613687  0.530209  0.837057  1
  F  F23  1  0.386313  0.469791  0.162943  1
  F  F24  1  0.593755  0.245343  0.968517  1
  F  F25  1  0.406245  0.754657  0.031483  1
  F  F26  1  0.287134  0.447921  0.916687  1
  F  F27  1  0.712866  0.552079  0.083313  1
  F  F28  1  0.259580  0.060099  0.908128  1
  F  F29  1  0.740420  0.939901  0.091872  1
  F  F30  1  0.026994  0.085286  0.691404  1
  F  F31  1  0.973006  0.914714  0.308596  1
  F  F32  1  0.953600  0.739347  0.557463  1
  F  F33  1  0.046400  0.260653  0.442537  1
  F  F34  1  0.122592  0.451609  0.654367  1
  F  F35  1  0.877408  0.548391  0.345633  1
