# generated using pymatgen
data_Ho4B8Os3Ru
_symmetry_space_group_name_H-M   'P 1'
_cell_length_a   5.30848600
_cell_length_b   5.89871701
_cell_length_c   6.35951439
_cell_angle_alpha   89.82434997
_cell_angle_beta   90.00000000
_cell_angle_gamma   90.00000000
_symmetry_Int_Tables_number   1
_chemical_formula_structural   Ho4B8Os3Ru
_chemical_formula_sum   'Ho4 B8 Os3 Ru1'
_cell_volume   199.13617043
_cell_formula_units_Z   1
loop_
 _symmetry_equiv_pos_site_id
 _symmetry_equiv_pos_as_xyz
  1  'x, y, z'
loop_
 _atom_site_type_symbol
 _atom_site_label
 _atom_site_symmetry_multiplicity
 _atom_site_fract_x
 _atom_site_fract_y
 _atom_site_fract_z
 _atom_site_occupancy
  Ho  Ho0  1  0.250000  0.510315  0.835503  1
  Ho  Ho1  1  0.250000  0.011700  0.665813  1
  Ho  Ho2  1  0.750000  0.489407  0.163335  1
  Ho  Ho3  1  0.750000  0.989571  0.336104  1
  B  B4  1  0.082774  0.865129  0.039123  1
  B  B5  1  0.417684  0.363952  0.460503  1
  B  B6  1  0.582141  0.136224  0.960693  1
  B  B7  1  0.915927  0.633783  0.536509  1
  B  B8  1  0.917859  0.136224  0.960693  1
  B  B9  1  0.584073  0.633783  0.536509  1
  B  B10  1  0.417226  0.865129  0.039123  1
  B  B11  1  0.082316  0.363952  0.460503  1
  Os  Os12  1  0.250000  0.678637  0.319396  1
  Os  Os13  1  0.250000  0.177299  0.183197  1
  Os  Os14  1  0.750000  0.321945  0.682735  1
  Ru  Ru15  1  0.750000  0.822950  0.820258  1
