# generated using pymatgen
data_Tb14Dy5SnIr12
_symmetry_space_group_name_H-M   'P 1'
_cell_length_a   10.91633305
_cell_length_b   10.91495003
_cell_length_c   6.35099101
_cell_angle_alpha   90.00262922
_cell_angle_beta   89.99324740
_cell_angle_gamma   89.99159124
_symmetry_Int_Tables_number   1
_chemical_formula_structural   Tb14Dy5SnIr12
_chemical_formula_sum   'Tb14 Dy5 Sn1 Ir12'
_cell_volume   756.72837514
_cell_formula_units_Z   1
loop_
 _symmetry_equiv_pos_site_id
 _symmetry_equiv_pos_as_xyz
  1  'x, y, z'
loop_
 _atom_site_type_symbol
 _atom_site_label
 _atom_site_symmetry_multiplicity
 _atom_site_fract_x
 _atom_site_fract_y
 _atom_site_fract_z
 _atom_site_occupancy
  Tb  Tb0  1  0.284088  0.084968  0.380277  1
  Tb  Tb1  1  0.291495  0.910893  0.882478  1
  Tb  Tb2  1  0.708464  0.089060  0.882568  1
  Tb  Tb3  1  0.715851  0.915096  0.380413  1
  Tb  Tb4  1  0.589128  0.791071  0.882414  1
  Tb  Tb5  1  0.588301  0.208357  0.378885  1
  Tb  Tb6  1  0.411630  0.791635  0.378910  1
  Tb  Tb7  1  0.410812  0.208920  0.882444  1
  Tb  Tb8  1  0.208258  0.411740  0.621125  1
  Tb  Tb9  1  0.208837  0.589088  0.117532  1
  Tb  Tb10  1  0.791181  0.410827  0.117592  1
  Tb  Tb11  1  0.791755  0.588346  0.621099  1
  Tb  Tb12  1  0.911030  0.708415  0.117489  1
  Tb  Tb13  1  0.915141  0.284155  0.619668  1
  Dy  Dy14  1  0.084866  0.715638  0.619419  1
  Dy  Dy15  1  0.088992  0.291818  0.117205  1
  Dy  Dy16  1  0.000079  0.000082  0.000022  1
  Dy  Dy17  1  0.499989  0.499964  0.000042  1
  Dy  Dy18  1  0.500003  0.500013  0.500026  1
  Sn  Sn19  1  0.000050  0.999897  0.500088  1
  Ir  Ir20  1  0.848370  0.155084  0.247844  1
  Ir  Ir21  1  0.845105  0.848143  0.751974  1
  Ir  Ir22  1  0.154948  0.151886  0.752442  1
  Ir  Ir23  1  0.151715  0.844881  0.248280  1
  Ir  Ir24  1  0.654552  0.347294  0.746072  1
  Ir  Ir25  1  0.652707  0.654576  0.253887  1
  Ir  Ir26  1  0.347124  0.345391  0.253848  1
  Ir  Ir27  1  0.345275  0.652772  0.745964  1
  Ir  Ir28  1  0.500001  0.999999  0.126136  1
  Ir  Ir29  1  0.499999  0.000001  0.621040  1
  Ir  Ir30  1  0.000121  0.499977  0.873862  1
  Ir  Ir31  1  0.000132  0.500013  0.378956  1
