# generated using pymatgen
data_PrEu3Al6(O3F)4
_symmetry_space_group_name_H-M   'P 1'
_cell_length_a   7.85287661
_cell_length_b   7.85287616
_cell_length_c   7.85287800
_cell_angle_alpha   109.45057201
_cell_angle_beta   109.45057084
_cell_angle_gamma   109.45055492
_symmetry_Int_Tables_number   1
_chemical_formula_structural   PrEu3Al6(O3F)4
_chemical_formula_sum   'Pr1 Eu3 Al6 O12 F4'
_cell_volume   373.07500357
_cell_formula_units_Z   1
loop_
 _symmetry_equiv_pos_site_id
 _symmetry_equiv_pos_as_xyz
  1  'x, y, z'
loop_
 _atom_site_type_symbol
 _atom_site_label
 _atom_site_symmetry_multiplicity
 _atom_site_fract_x
 _atom_site_fract_y
 _atom_site_fract_z
 _atom_site_occupancy
  Pr  Pr0  1  0.313534  0.313534  0.313534  1
  Eu  Eu1  1  0.690525  0.000675  0.000675  1
  Eu  Eu2  1  0.000675  0.690525  0.000675  1
  Eu  Eu3  1  0.000675  0.000675  0.690525  1
  Al  Al4  1  0.247687  0.749518  0.498605  1
  Al  Al5  1  0.749518  0.247687  0.498605  1
  Al  Al6  1  0.749518  0.498605  0.247687  1
  Al  Al7  1  0.247687  0.498605  0.749518  1
  Al  Al8  1  0.498605  0.247687  0.749518  1
  Al  Al9  1  0.498605  0.749518  0.247687  1
  O  O10  1  0.277570  0.556744  0.556744  1
  O  O11  1  0.714255  0.278771  0.278771  1
  O  O12  1  0.997785  0.437236  0.719111  1
  O  O13  1  0.556744  0.556744  0.277570  1
  O  O14  1  0.997785  0.719111  0.437236  1
  O  O15  1  0.278771  0.278771  0.714255  1
  O  O16  1  0.437236  0.719111  0.997785  1
  O  O17  1  0.719111  0.437236  0.997785  1
  O  O18  1  0.556744  0.277570  0.556744  1
  O  O19  1  0.719111  0.997785  0.437236  1
  O  O20  1  0.437236  0.997785  0.719111  1
  O  O21  1  0.278771  0.714255  0.278771  1
  F  F22  1  0.780644  0.780644  0.780644  1
  F  F23  1  0.228052  0.011577  0.011577  1
  F  F24  1  0.011577  0.228052  0.011577  1
  F  F25  1  0.011577  0.011577  0.228052  1
