# generated using pymatgen
data_Pr2DyLu(ZnSn)4
_symmetry_space_group_name_H-M   'P 1'
_cell_length_a   4.54810000
_cell_length_b   4.54810125
_cell_length_c   16.10534400
_cell_angle_alpha   90.00000000
_cell_angle_beta   90.00000000
_cell_angle_gamma   120.00000549
_symmetry_Int_Tables_number   1
_chemical_formula_structural   Pr2DyLu(ZnSn)4
_chemical_formula_sum   'Pr2 Dy1 Lu1 Zn4 Sn4'
_cell_volume   288.50991461
_cell_formula_units_Z   1
loop_
 _symmetry_equiv_pos_site_id
 _symmetry_equiv_pos_as_xyz
  1  'x, y, z'
loop_
 _atom_site_type_symbol
 _atom_site_label
 _atom_site_symmetry_multiplicity
 _atom_site_fract_x
 _atom_site_fract_y
 _atom_site_fract_z
 _atom_site_occupancy
  Pr  Pr0  1  0.000000  0.000000  0.501366  1
  Pr  Pr1  1  0.000000  0.000000  0.998634  1
  Dy  Dy2  1  0.000000  0.000000  0.250000  1
  Lu  Lu3  1  0.000000  0.000000  0.750000  1
  Zn  Zn4  1  0.333333  0.666667  0.337331  1
  Zn  Zn5  1  0.666667  0.333333  0.664820  1
  Zn  Zn6  1  0.666667  0.333333  0.835180  1
  Zn  Zn7  1  0.333333  0.666667  0.162669  1
  Sn  Sn8  1  0.333333  0.666667  0.879950  1
  Sn  Sn9  1  0.666667  0.333333  0.118901  1
  Sn  Sn10  1  0.666667  0.333333  0.381099  1
  Sn  Sn11  1  0.333333  0.666667  0.620050  1
