# generated using pymatgen
data_Tb3Y5(HoRu2)2
_symmetry_space_group_name_H-M   'P 1'
_cell_length_a   6.36898613
_cell_length_b   7.29944290
_cell_length_c   8.53926013
_cell_angle_alpha   96.63686803
_cell_angle_beta   112.04129204
_cell_angle_gamma   90.01829732
_symmetry_Int_Tables_number   1
_chemical_formula_structural   Tb3Y5(HoRu2)2
_chemical_formula_sum   'Tb3 Y5 Ho2 Ru4'
_cell_volume   365.09828382
_cell_formula_units_Z   1
loop_
 _symmetry_equiv_pos_site_id
 _symmetry_equiv_pos_as_xyz
  1  'x, y, z'
loop_
 _atom_site_type_symbol
 _atom_site_label
 _atom_site_symmetry_multiplicity
 _atom_site_fract_x
 _atom_site_fract_y
 _atom_site_fract_z
 _atom_site_occupancy
  Tb  Tb0  1  0.978268  0.914880  0.186214  1
  Tb  Tb1  1  0.791743  0.584857  0.813468  1
  Tb  Tb2  1  0.022080  0.084956  0.813867  1
  Y  Y3  1  0.208483  0.415841  0.186446  1
  Y  Y4  1  0.640625  0.814879  0.434378  1
  Y  Y5  1  0.206428  0.685118  0.565887  1
  Y  Y6  1  0.359444  0.185279  0.565693  1
  Y  Y7  1  0.793232  0.314762  0.433880  1
  Ho  Ho8  1  0.420747  0.749525  0.999592  1
  Ho  Ho9  1  0.579254  0.250448  0.000295  1
  Ru  Ru10  1  0.821057  0.576431  0.218170  1
  Ru  Ru11  1  0.604372  0.924800  0.781838  1
  Ru  Ru12  1  0.177809  0.424187  0.782055  1
  Ru  Ru13  1  0.396459  0.074035  0.218217  1
