# generated using pymatgen
data_Sm3Er3MnSi24Ru7
_symmetry_space_group_name_H-M   'P 1'
_cell_length_a   10.10501912
_cell_length_b   10.10443173
_cell_length_c   8.14460951
_cell_angle_alpha   90.10152301
_cell_angle_beta   89.94254075
_cell_angle_gamma   132.49101207
_symmetry_Int_Tables_number   1
_chemical_formula_structural   Sm3Er3MnSi24Ru7
_chemical_formula_sum   'Sm3 Er3 Mn1 Si24 Ru7'
_cell_volume   613.21378021
_cell_formula_units_Z   1
loop_
 _symmetry_equiv_pos_site_id
 _symmetry_equiv_pos_as_xyz
  1  'x, y, z'
loop_
 _atom_site_type_symbol
 _atom_site_label
 _atom_site_symmetry_multiplicity
 _atom_site_fract_x
 _atom_site_fract_y
 _atom_site_fract_z
 _atom_site_occupancy
  Sm  Sm0  1  0.497887  0.997358  0.248996  1
  Sm  Sm1  1  0.003606  0.502140  0.750879  1
  Sm  Sm2  1  0.502473  0.003968  0.750877  1
  Er  Er3  1  0.997534  0.498109  0.248958  1
  Er  Er4  1  0.501843  0.501869  0.500084  1
  Er  Er5  1  0.999732  0.999725  0.998012  1
  Mn  Mn6  1  0.623747  0.624180  0.874448  1
  Si  Si7  1  0.386446  0.154047  0.004788  1
  Si  Si8  1  0.654430  0.887252  0.495238  1
  Si  Si9  1  0.112312  0.343549  0.504694  1
  Si  Si10  1  0.840341  0.614594  0.989786  1
  Si  Si11  1  0.615739  0.842674  0.988526  1
  Si  Si12  1  0.345775  0.113372  0.506257  1
  Si  Si13  1  0.887859  0.655679  0.493978  1
  Si  Si14  1  0.155347  0.387078  0.006133  1
  Si  Si15  1  0.611427  0.378712  0.228513  1
  Si  Si16  1  0.878283  0.110422  0.271754  1
  Si  Si17  1  0.887975  0.120849  0.729371  1
  Si  Si18  1  0.624274  0.396859  0.771540  1
  Si  Si19  1  0.397951  0.625623  0.771611  1
  Si  Si20  1  0.122555  0.889289  0.729288  1
  Si  Si21  1  0.706058  0.296578  0.001755  1
  Si  Si22  1  0.796487  0.206926  0.498521  1
  Si  Si23  1  0.293795  0.703300  0.001683  1
  Si  Si24  1  0.204261  0.793758  0.498659  1
  Si  Si25  1  0.166798  0.166692  0.333848  1
  Si  Si26  1  0.667990  0.668291  0.161186  1
  Si  Si27  1  0.337635  0.337731  0.832491  1
  Si  Si28  1  0.825521  0.825542  0.673775  1
  Si  Si29  1  0.376949  0.610099  0.229100  1
  Si  Si30  1  0.109059  0.876420  0.271138  1
  Ru  Ru31  1  0.124618  0.124085  0.628597  1
  Ru  Ru32  1  0.872015  0.871958  0.374872  1
  Ru  Ru33  1  0.373919  0.373936  0.126979  1
  Ru  Ru34  1  0.329556  0.666274  0.500592  1
  Ru  Ru35  1  0.164424  0.827801  0.001246  1
  Ru  Ru36  1  0.670755  0.334034  0.499779  1
  Ru  Ru37  1  0.832618  0.169220  0.002048  1
