# generated using pymatgen
data_Tb6Al19Si5(Os3Ru)2
_symmetry_space_group_name_H-M   'P 1'
_cell_length_a   8.71559600
_cell_length_b   8.69952099
_cell_length_c   9.61432700
_cell_angle_alpha   90.00000000
_cell_angle_beta   90.00000000
_cell_angle_gamma   120.06114372
_symmetry_Int_Tables_number   1
_chemical_formula_structural   Tb6Al19Si5(Os3Ru)2
_chemical_formula_sum   'Tb6 Al19 Si5 Os6 Ru2'
_cell_volume   630.91963374
_cell_formula_units_Z   1
loop_
 _symmetry_equiv_pos_site_id
 _symmetry_equiv_pos_as_xyz
  1  'x, y, z'
loop_
 _atom_site_type_symbol
 _atom_site_label
 _atom_site_symmetry_multiplicity
 _atom_site_fract_x
 _atom_site_fract_y
 _atom_site_fract_z
 _atom_site_occupancy
  Tb  Tb0  1  0.194357  0.388712  0.250000  1
  Tb  Tb1  1  0.806084  0.612170  0.750000  1
  Tb  Tb2  1  0.609045  0.806456  0.250000  1
  Tb  Tb3  1  0.388985  0.194596  0.750000  1
  Tb  Tb4  1  0.197412  0.806456  0.250000  1
  Tb  Tb5  1  0.805610  0.194596  0.750000  1
  Al  Al6  1  0.164539  0.329076  0.578226  1
  Al  Al7  1  0.835083  0.670168  0.421255  1
  Al  Al8  1  0.670396  0.835550  0.577371  1
  Al  Al9  1  0.835083  0.670168  0.078745  1
  Al  Al10  1  0.328512  0.165273  0.421697  1
  Al  Al11  1  0.164539  0.329076  0.921774  1
  Al  Al12  1  0.165156  0.835550  0.577371  1
  Al  Al13  1  0.328512  0.165273  0.078303  1
  Al  Al14  1  0.836759  0.165273  0.421697  1
  Al  Al15  1  0.670396  0.835550  0.922629  1
  Al  Al16  1  0.836759  0.165273  0.078303  1
  Al  Al17  1  0.165156  0.835550  0.922629  1
  Al  Al18  1  0.436793  0.873588  0.750000  1
  Al  Al19  1  0.872108  0.433133  0.250000  1
  Al  Al20  1  0.128136  0.564671  0.750000  1
  Al  Al21  1  0.561026  0.433133  0.250000  1
  Al  Al22  1  0.436534  0.564671  0.750000  1
  Al  Al23  1  0.999768  0.999537  0.250000  1
  Al  Al24  1  0.000284  0.000569  0.750000  1
  Si  Si25  1  0.332605  0.665211  0.036694  1
  Si  Si26  1  0.667385  0.334769  0.961830  1
  Si  Si27  1  0.667385  0.334769  0.538170  1
  Si  Si28  1  0.332605  0.665211  0.463306  1
  Si  Si29  1  0.564022  0.128043  0.250000  1
  Os  Os30  1  0.500910  0.001820  0.006098  1
  Os  Os31  1  0.998907  0.498925  0.000468  1
  Os  Os32  1  0.500910  0.001820  0.493902  1
  Os  Os33  1  0.500018  0.498925  0.000468  1
  Os  Os34  1  0.998907  0.498925  0.499532  1
  Os  Os35  1  0.500018  0.498925  0.499532  1
  Ru  Ru36  1  0.999647  0.999294  0.999879  1
  Ru  Ru37  1  0.999647  0.999294  0.500121  1
