# generated using pymatgen
data_CsAl(SnS3)2
_symmetry_space_group_name_H-M   'P 1'
_cell_length_a   9.32655854
_cell_length_b   9.32655765
_cell_length_c   9.32655900
_cell_angle_alpha   39.62799097
_cell_angle_beta   39.62799757
_cell_angle_gamma   39.62799722
_symmetry_Int_Tables_number   1
_chemical_formula_structural   CsAl(SnS3)2
_chemical_formula_sum   'Cs1 Al1 Sn2 S6'
_cell_volume   297.14087427
_cell_formula_units_Z   1
loop_
 _symmetry_equiv_pos_site_id
 _symmetry_equiv_pos_as_xyz
  1  'x, y, z'
loop_
 _atom_site_type_symbol
 _atom_site_label
 _atom_site_symmetry_multiplicity
 _atom_site_fract_x
 _atom_site_fract_y
 _atom_site_fract_z
 _atom_site_occupancy
  Cs  Cs0  1  0.998554  0.998554  0.998554  1
  Al  Al1  1  0.166596  0.166596  0.166596  1
  Sn  Sn2  1  0.501068  0.501068  0.501068  1
  Sn  Sn3  1  0.832519  0.832519  0.832519  1
  S  S4  1  0.538935  0.221438  0.905610  1
  S  S5  1  0.905610  0.538935  0.221438  1
  S  S6  1  0.221438  0.905610  0.538935  1
  S  S7  1  0.791054  0.113711  0.430516  1
  S  S8  1  0.113711  0.430516  0.791054  1
  S  S9  1  0.430516  0.791054  0.113711  1
