# generated using pymatgen
data_Lu8Ti11Si16Mo
_symmetry_space_group_name_H-M   'P 1'
_cell_length_a   6.78402454
_cell_length_b   6.95071261
_cell_length_c   13.19001451
_cell_angle_alpha   90.02797312
_cell_angle_beta   89.93322913
_cell_angle_gamma   89.91763977
_symmetry_Int_Tables_number   1
_chemical_formula_structural   Lu8Ti11Si16Mo
_chemical_formula_sum   'Lu8 Ti11 Si16 Mo1'
_cell_volume   621.95823178
_cell_formula_units_Z   1
loop_
 _symmetry_equiv_pos_site_id
 _symmetry_equiv_pos_as_xyz
  1  'x, y, z'
loop_
 _atom_site_type_symbol
 _atom_site_label
 _atom_site_symmetry_multiplicity
 _atom_site_fract_x
 _atom_site_fract_y
 _atom_site_fract_z
 _atom_site_occupancy
  Lu  Lu0  1  0.503836  0.328259  0.095267  1
  Lu  Lu1  1  0.003390  0.172893  0.404395  1
  Lu  Lu2  1  0.496062  0.671173  0.595593  1
  Lu  Lu3  1  0.996517  0.828139  0.902912  1
  Lu  Lu4  1  0.495867  0.672507  0.902923  1
  Lu  Lu5  1  0.997749  0.828638  0.595549  1
  Lu  Lu6  1  0.502765  0.326399  0.406513  1
  Lu  Lu7  1  0.004169  0.172692  0.095562  1
  Ti  Ti8  1  0.836055  0.324593  0.626722  1
  Ti  Ti9  1  0.333632  0.175294  0.874102  1
  Ti  Ti10  1  0.164992  0.675046  0.127082  1
  Ti  Ti11  1  0.662854  0.827466  0.374528  1
  Ti  Ti12  1  0.163872  0.675272  0.374291  1
  Ti  Ti13  1  0.664662  0.823501  0.126655  1
  Ti  Ti14  1  0.835568  0.323888  0.871738  1
  Ti  Ti15  1  0.660779  0.009763  0.748056  1
  Ti  Ti16  1  0.164748  0.489617  0.748151  1
  Ti  Ti17  1  0.337059  0.992037  0.250163  1
  Ti  Ti18  1  0.837600  0.509759  0.250333  1
  Si  Si19  1  0.658283  0.036758  0.542522  1
  Si  Si20  1  0.160196  0.462920  0.958837  1
  Si  Si21  1  0.340380  0.962108  0.040765  1
  Si  Si22  1  0.839239  0.536360  0.459001  1
  Si  Si23  1  0.337139  0.961986  0.461480  1
  Si  Si24  1  0.839115  0.538203  0.040014  1
  Si  Si25  1  0.661316  0.037712  0.958844  1
  Si  Si26  1  0.162888  0.461268  0.541930  1
  Si  Si27  1  0.537185  0.374727  0.749406  1
  Si  Si28  1  0.039558  0.123135  0.749266  1
  Si  Si29  1  0.462899  0.623921  0.250815  1
  Si  Si30  1  0.962823  0.877563  0.250331  1
  Si  Si31  1  0.795625  0.626563  0.748860  1
  Si  Si32  1  0.296397  0.873192  0.749630  1
  Si  Si33  1  0.205134  0.372488  0.250503  1
  Si  Si34  1  0.704155  0.128894  0.250129  1
  Mo  Mo35  1  0.335492  0.175264  0.627130  1
