# generated using pymatgen
data_Tb7Dy3(IrRu)3
_symmetry_space_group_name_H-M   'P 1'
_cell_length_a   10.87649722
_cell_length_b   10.87149100
_cell_length_c   6.41770603
_cell_angle_alpha   90.00000000
_cell_angle_beta   89.95739629
_cell_angle_gamma   90.00000000
_symmetry_Int_Tables_number   1
_chemical_formula_structural   Tb7Dy3(IrRu)3
_chemical_formula_sum   'Tb14 Dy6 Ir6 Ru6'
_cell_volume   758.85336465
_cell_formula_units_Z   2
loop_
 _symmetry_equiv_pos_site_id
 _symmetry_equiv_pos_as_xyz
  1  'x, y, z'
loop_
 _atom_site_type_symbol
 _atom_site_label
 _atom_site_symmetry_multiplicity
 _atom_site_fract_x
 _atom_site_fract_y
 _atom_site_fract_z
 _atom_site_occupancy
  Tb  Tb0  1  0.292766  0.086726  0.379077  1
  Tb  Tb1  1  0.292766  0.913274  0.879077  1
  Tb  Tb2  1  0.707904  0.086774  0.878615  1
  Tb  Tb3  1  0.707904  0.913226  0.378615  1
  Tb  Tb4  1  0.587751  0.793335  0.879277  1
  Tb  Tb5  1  0.587751  0.206665  0.379277  1
  Tb  Tb6  1  0.413071  0.793520  0.378600  1
  Tb  Tb7  1  0.413071  0.206480  0.878600  1
  Tb  Tb8  1  0.206375  0.413172  0.620852  1
  Tb  Tb9  1  0.206375  0.586828  0.120852  1
  Tb  Tb10  1  0.793474  0.412259  0.121284  1
  Tb  Tb11  1  0.793474  0.587741  0.621284  1
  Tb  Tb12  1  0.913132  0.707402  0.120731  1
  Tb  Tb13  1  0.913132  0.292598  0.620731  1
  Dy  Dy14  1  0.086415  0.707604  0.621464  1
  Dy  Dy15  1  0.086415  0.292396  0.121464  1
  Dy  Dy16  1  0.998608  0.000544  0.499859  1
  Dy  Dy17  1  0.998608  0.999456  0.999859  1
  Dy  Dy18  1  0.499990  0.500291  0.000143  1
  Dy  Dy19  1  0.499990  0.499709  0.500143  1
  Ir  Ir20  1  0.153445  0.153358  0.750522  1
  Ir  Ir21  1  0.153445  0.846642  0.250522  1
  Ir  Ir22  1  0.652024  0.348268  0.749735  1
  Ir  Ir23  1  0.652024  0.651732  0.249735  1
  Ir  Ir24  1  0.347527  0.347271  0.250229  1
  Ir  Ir25  1  0.347527  0.652729  0.750229  1
  Ru  Ru26  1  0.847621  0.152632  0.249667  1
  Ru  Ru27  1  0.847621  0.847368  0.749667  1
  Ru  Ru28  1  0.500070  0.000118  0.123699  1
  Ru  Ru29  1  0.500070  0.999882  0.623699  1
  Ru  Ru30  1  0.999825  0.500286  0.876245  1
  Ru  Ru31  1  0.999825  0.499714  0.376245  1
