# generated using pymatgen
data_K8Sc6BBr20
_symmetry_space_group_name_H-M   'P 1'
_cell_length_a   11.68033800
_cell_length_b   11.68033785
_cell_length_c   11.68033800
_cell_angle_alpha   120.00000041
_cell_angle_beta   90.00000000
_cell_angle_gamma   120.00000041
_symmetry_Int_Tables_number   1
_chemical_formula_structural   K8Sc6BBr20
_chemical_formula_sum   'K8 Sc6 B1 Br20'
_cell_volume   1126.81137482
_cell_formula_units_Z   1
loop_
 _symmetry_equiv_pos_site_id
 _symmetry_equiv_pos_as_xyz
  1  'x, y, z'
loop_
 _atom_site_type_symbol
 _atom_site_label
 _atom_site_symmetry_multiplicity
 _atom_site_fract_x
 _atom_site_fract_y
 _atom_site_fract_z
 _atom_site_occupancy
  K  K0  1  0.359711  0.719421  0.079132  1
  K  K1  1  0.640289  0.280579  0.359711  1
  K  K2  1  0.079132  0.719421  0.359711  1
  K  K3  1  0.640289  0.719421  0.359711  1
  K  K4  1  0.359711  0.280579  0.640289  1
  K  K5  1  0.920867  0.280579  0.640289  1
  K  K6  1  0.359711  0.719421  0.640289  1
  K  K7  1  0.640289  0.280579  0.920867  1
  Sc  Sc8  1  0.851001  0.000000  0.149000  1
  Sc  Sc9  1  0.149000  0.000000  0.149000  1
  Sc  Sc10  1  0.149000  0.298000  0.149000  1
  Sc  Sc11  1  0.851000  0.000000  0.851000  1
  Sc  Sc12  1  0.149000  0.000000  0.851001  1
  Sc  Sc13  1  0.851001  0.702001  0.851001  1
  B  B14  1  0.000000  0.000000  0.000000  1
  Br  Br15  1  0.327003  0.000000  0.000000  1
  Br  Br16  1  0.672998  0.000000  0.000000  1
  Br  Br17  1  0.000000  0.327003  0.000000  1
  Br  Br18  1  0.327003  0.327003  0.000000  1
  Br  Br19  1  0.000000  0.672998  0.000000  1
  Br  Br20  1  0.672998  0.672998  0.000000  1
  Br  Br21  1  0.750000  0.500000  0.250000  1
  Br  Br22  1  0.318604  0.000000  0.318604  1
  Br  Br23  1  0.318604  0.637206  0.318604  1
  Br  Br24  1  0.681397  0.000000  0.318604  1
  Br  Br25  1  0.000000  0.000000  0.327003  1
  Br  Br26  1  0.000000  0.327003  0.327003  1
  Br  Br27  1  0.327003  0.327003  0.327003  1
  Br  Br28  1  0.000000  0.000000  0.672998  1
  Br  Br29  1  0.000000  0.672998  0.672998  1
  Br  Br30  1  0.672998  0.672998  0.672998  1
  Br  Br31  1  0.681397  0.000000  0.681397  1
  Br  Br32  1  0.318604  0.000000  0.681397  1
  Br  Br33  1  0.681397  0.362793  0.681397  1
  Br  Br34  1  0.250000  0.500000  0.750000  1
