# generated using pymatgen
data_Ho2CoMoRu2
_symmetry_space_group_name_H-M   'P 1'
_cell_length_a   5.50259753
_cell_length_b   5.15983070
_cell_length_c   5.50259768
_cell_angle_alpha   123.58254653
_cell_angle_beta   119.13807349
_cell_angle_gamma   89.65796334
_symmetry_Int_Tables_number   1
_chemical_formula_structural   Ho2CoMoRu2
_chemical_formula_sum   'Ho2 Co1 Mo1 Ru2'
_cell_volume   105.97707486
_cell_formula_units_Z   1
loop_
 _symmetry_equiv_pos_site_id
 _symmetry_equiv_pos_as_xyz
  1  'x, y, z'
loop_
 _atom_site_type_symbol
 _atom_site_label
 _atom_site_symmetry_multiplicity
 _atom_site_fract_x
 _atom_site_fract_y
 _atom_site_fract_z
 _atom_site_occupancy
  Ho  Ho0  1  0.371669  0.115964  0.244295  1
  Ho  Ho1  1  0.628331  0.884036  0.755705  1
  Co  Co2  1  0.000000  0.500000  0.000000  1
  Mo  Mo3  1  0.000000  0.000000  0.500000  1
  Ru  Ru4  1  0.000000  0.500000  0.500000  1
  Ru  Ru5  1  0.500000  0.500000  0.000000  1
