# generated using pymatgen
data_Hf4Mn5Fe3Si7P
_symmetry_space_group_name_H-M   'P 1'
_cell_length_a   5.03821700
_cell_length_b   7.06869385
_cell_length_c   7.42989097
_cell_angle_alpha   89.98786615
_cell_angle_beta   90.00000000
_cell_angle_gamma   90.00000000
_symmetry_Int_Tables_number   1
_chemical_formula_structural   Hf4Mn5Fe3Si7P
_chemical_formula_sum   'Hf4 Mn5 Fe3 Si7 P1'
_cell_volume   264.60525982
_cell_formula_units_Z   1
loop_
 _symmetry_equiv_pos_site_id
 _symmetry_equiv_pos_as_xyz
  1  'x, y, z'
loop_
 _atom_site_type_symbol
 _atom_site_label
 _atom_site_symmetry_multiplicity
 _atom_site_fract_x
 _atom_site_fract_y
 _atom_site_fract_z
 _atom_site_occupancy
  Hf  Hf0  1  0.750000  0.901976  0.252232  1
  Hf  Hf1  1  0.250000  0.091389  0.748809  1
  Hf  Hf2  1  0.750000  0.406207  0.746689  1
  Hf  Hf3  1  0.250000  0.597826  0.257143  1
  Mn  Mn4  1  0.750000  0.510393  0.119595  1
  Mn  Mn5  1  0.998714  0.747569  0.609266  1
  Mn  Mn6  1  0.500498  0.255650  0.384646  1
  Mn  Mn7  1  0.999502  0.255650  0.384646  1
  Mn  Mn8  1  0.501286  0.747569  0.609266  1
  Fe  Fe9  1  0.250000  0.487981  0.889630  1
  Fe  Fe10  1  0.750000  0.010534  0.886621  1
  Fe  Fe11  1  0.250000  0.988560  0.111580  1
  Si  Si12  1  0.250000  0.447094  0.589056  1
  Si  Si13  1  0.750000  0.050991  0.583637  1
  Si  Si14  1  0.250000  0.953741  0.414396  1
  Si  Si15  1  0.998952  0.748666  0.949399  1
  Si  Si16  1  0.500986  0.248827  0.049568  1
  Si  Si17  1  0.999014  0.248827  0.049568  1
  Si  Si18  1  0.501048  0.748666  0.949399  1
  P  P19  1  0.750000  0.551883  0.414852  1
