# generated using pymatgen
data_Ho4Hf5Si8Ag
_symmetry_space_group_name_H-M   'P 1'
_cell_length_a   7.28481656
_cell_length_b   7.28481620
_cell_length_c   13.15524200
_cell_angle_alpha   90.00000000
_cell_angle_beta   90.00000000
_cell_angle_gamma   89.78966229
_symmetry_Int_Tables_number   1
_chemical_formula_structural   Ho4Hf5Si8Ag
_chemical_formula_sum   'Ho8 Hf10 Si16 Ag2'
_cell_volume   698.12490936
_cell_formula_units_Z   2
loop_
 _symmetry_equiv_pos_site_id
 _symmetry_equiv_pos_as_xyz
  1  'x, y, z'
loop_
 _atom_site_type_symbol
 _atom_site_label
 _atom_site_symmetry_multiplicity
 _atom_site_fract_x
 _atom_site_fract_y
 _atom_site_fract_z
 _atom_site_occupancy
  Ho  Ho0  1  0.997254  0.347701  0.212399  1
  Ho  Ho1  1  0.002746  0.652299  0.712399  1
  Ho  Ho2  1  0.148703  0.502662  0.466128  1
  Ho  Ho3  1  0.497338  0.851297  0.033872  1
  Ho  Ho4  1  0.851297  0.497338  0.966128  1
  Ho  Ho5  1  0.502662  0.148703  0.533872  1
  Ho  Ho6  1  0.347701  0.997254  0.787601  1
  Ho  Ho7  1  0.652299  0.002746  0.287601  1
  Hf  Hf8  1  0.320742  0.679258  0.250000  1
  Hf  Hf9  1  0.679258  0.320742  0.750000  1
  Hf  Hf10  1  0.139863  0.998863  0.378917  1
  Hf  Hf11  1  0.860137  0.001137  0.878917  1
  Hf  Hf12  1  0.508104  0.643831  0.625055  1
  Hf  Hf13  1  0.356169  0.491896  0.874945  1
  Hf  Hf14  1  0.491896  0.356169  0.125055  1
  Hf  Hf15  1  0.643831  0.508104  0.374945  1
  Hf  Hf16  1  0.998863  0.139863  0.621083  1
  Hf  Hf17  1  0.001137  0.860137  0.121083  1
  Si  Si18  1  0.356746  0.296657  0.319532  1
  Si  Si19  1  0.643254  0.703343  0.819532  1
  Si  Si20  1  0.226528  0.865779  0.574339  1
  Si  Si21  1  0.134221  0.773472  0.925661  1
  Si  Si22  1  0.773472  0.134221  0.074339  1
  Si  Si23  1  0.865779  0.226528  0.425661  1
  Si  Si24  1  0.296657  0.356746  0.680468  1
  Si  Si25  1  0.703343  0.643254  0.180468  1
  Si  Si26  1  0.294065  0.052744  0.190778  1
  Si  Si27  1  0.705935  0.947256  0.690778  1
  Si  Si28  1  0.434208  0.789838  0.436001  1
  Si  Si29  1  0.210162  0.565792  0.063999  1
  Si  Si30  1  0.565792  0.210162  0.936001  1
  Si  Si31  1  0.789838  0.434208  0.563999  1
  Si  Si32  1  0.052744  0.294065  0.809222  1
  Si  Si33  1  0.947256  0.705935  0.309222  1
  Ag  Ag34  1  0.178378  0.178378  0.000000  1
  Ag  Ag35  1  0.821622  0.821622  0.500000  1
