# generated using pymatgen
data_Li2HfZr(NiAs)4
_symmetry_space_group_name_H-M   'P 1'
_cell_length_a   3.91005800
_cell_length_b   6.35687057
_cell_length_c   7.15587686
_cell_angle_alpha   88.04641579
_cell_angle_beta   90.00000000
_cell_angle_gamma   90.00000000
_symmetry_Int_Tables_number   1
_chemical_formula_structural   Li2HfZr(NiAs)4
_chemical_formula_sum   'Li2 Hf1 Zr1 Ni4 As4'
_cell_volume   177.76118199
_cell_formula_units_Z   1
loop_
 _symmetry_equiv_pos_site_id
 _symmetry_equiv_pos_as_xyz
  1  'x, y, z'
loop_
 _atom_site_type_symbol
 _atom_site_label
 _atom_site_symmetry_multiplicity
 _atom_site_fract_x
 _atom_site_fract_y
 _atom_site_fract_z
 _atom_site_occupancy
  Li  Li0  1  0.250000  0.484560  0.185255  1
  Li  Li1  1  0.750000  0.515166  0.814544  1
  Hf  Hf2  1  0.250000  0.982049  0.305309  1
  Zr  Zr3  1  0.750000  0.017691  0.693690  1
  Ni  Ni4  1  0.250000  0.841476  0.936001  1
  Ni  Ni5  1  0.750000  0.158105  0.067537  1
  Ni  Ni6  1  0.750000  0.654085  0.435298  1
  Ni  Ni7  1  0.250000  0.346818  0.562708  1
  As  As8  1  0.250000  0.722623  0.618851  1
  As  As9  1  0.750000  0.276412  0.379872  1
  As  As10  1  0.750000  0.769844  0.111278  1
  As  As11  1  0.250000  0.231170  0.889658  1
