# generated using pymatgen
data_Ta3Al2B4Ru10W
_symmetry_space_group_name_H-M   'P 1'
_cell_length_a   9.29183520
_cell_length_b   9.29183520
_cell_length_c   2.98823300
_cell_angle_alpha   90.00000000
_cell_angle_beta   90.00000000
_cell_angle_gamma   90.12122850
_symmetry_Int_Tables_number   1
_chemical_formula_structural   Ta3Al2B4Ru10W
_chemical_formula_sum   'Ta3 Al2 B4 Ru10 W1'
_cell_volume   257.99808502
_cell_formula_units_Z   1
loop_
 _symmetry_equiv_pos_site_id
 _symmetry_equiv_pos_as_xyz
  1  'x, y, z'
loop_
 _atom_site_type_symbol
 _atom_site_label
 _atom_site_symmetry_multiplicity
 _atom_site_fract_x
 _atom_site_fract_y
 _atom_site_fract_z
 _atom_site_occupancy
  Ta  Ta0  1  0.177594  0.322406  0.000000  1
  Ta  Ta1  1  0.322096  0.822915  0.000000  1
  Ta  Ta2  1  0.677085  0.177904  0.000000  1
  Al  Al3  1  0.499079  0.499405  0.000000  1
  Al  Al4  1  0.000595  0.000921  0.000000  1
  B  B5  1  0.625238  0.874762  0.000000  1
  B  B6  1  0.375201  0.124799  0.000000  1
  B  B7  1  0.125629  0.624620  0.000000  1
  B  B8  1  0.875380  0.374371  0.000000  1
  Ru  Ru9  1  0.572469  0.713527  0.500000  1
  Ru  Ru10  1  0.431790  0.284667  0.500000  1
  Ru  Ru11  1  0.063984  0.783792  0.500000  1
  Ru  Ru12  1  0.930801  0.215498  0.500000  1
  Ru  Ru13  1  0.284502  0.569199  0.500000  1
  Ru  Ru14  1  0.716208  0.436016  0.500000  1
  Ru  Ru15  1  0.215333  0.068210  0.500000  1
  Ru  Ru16  1  0.786473  0.927531  0.500000  1
  Ru  Ru17  1  0.500697  0.999303  0.500000  1
  Ru  Ru18  1  0.997813  0.502187  0.500000  1
  W  W19  1  0.822032  0.677968  0.000000  1
