# generated using pymatgen
data_Ti4NbSb2C3
_symmetry_space_group_name_H-M   'P 1'
_cell_length_a   16.39305556
_cell_length_b   16.39305532
_cell_length_c   16.39305404
_cell_angle_alpha   11.22476791
_cell_angle_beta   11.22477067
_cell_angle_gamma   11.22476695
_symmetry_Int_Tables_number   1
_chemical_formula_structural   Ti4NbSb2C3
_chemical_formula_sum   'Ti4 Nb1 Sb2 C3'
_cell_volume   145.02516236
_cell_formula_units_Z   1
loop_
 _symmetry_equiv_pos_site_id
 _symmetry_equiv_pos_as_xyz
  1  'x, y, z'
loop_
 _atom_site_type_symbol
 _atom_site_label
 _atom_site_symmetry_multiplicity
 _atom_site_fract_x
 _atom_site_fract_y
 _atom_site_fract_z
 _atom_site_occupancy
  Ti  Ti0  1  0.214644  0.214644  0.214644  1
  Ti  Ti1  1  0.311453  0.311453  0.311453  1
  Ti  Ti2  1  0.688547  0.688547  0.688547  1
  Ti  Ti3  1  0.785356  0.785356  0.785356  1
  Nb  Nb4  1  0.500000  0.500000  0.500000  1
  Sb  Sb5  1  0.403688  0.403688  0.403688  1
  Sb  Sb6  1  0.596312  0.596312  0.596312  1
  C  C7  1  0.138866  0.138866  0.138866  1
  C  C8  1  0.861134  0.861134  0.861134  1
  C  C9  1  0.000000  0.000000  0.000000  1
