# generated using pymatgen
data_Dy17Mg(ScIr6)2
_symmetry_space_group_name_H-M   'P 1'
_cell_length_a   10.78851900
_cell_length_b   10.78851900
_cell_length_c   6.30227500
_cell_angle_alpha   90.00000000
_cell_angle_beta   90.00000000
_cell_angle_gamma   90.00000000
_symmetry_Int_Tables_number   1
_chemical_formula_structural   Dy17Mg(ScIr6)2
_chemical_formula_sum   'Dy17 Mg1 Sc2 Ir12'
_cell_volume   733.53528807
_cell_formula_units_Z   1
loop_
 _symmetry_equiv_pos_site_id
 _symmetry_equiv_pos_as_xyz
  1  'x, y, z'
loop_
 _atom_site_type_symbol
 _atom_site_label
 _atom_site_symmetry_multiplicity
 _atom_site_fract_x
 _atom_site_fract_y
 _atom_site_fract_z
 _atom_site_occupancy
  Dy  Dy0  1  0.287602  0.087274  0.379685  1
  Dy  Dy1  1  0.287784  0.914619  0.878236  1
  Dy  Dy2  1  0.712216  0.085381  0.878236  1
  Dy  Dy3  1  0.712398  0.912726  0.379685  1
  Dy  Dy4  1  0.584313  0.784628  0.878695  1
  Dy  Dy5  1  0.588095  0.207900  0.379328  1
  Dy  Dy6  1  0.411905  0.792100  0.379328  1
  Dy  Dy7  1  0.415687  0.215372  0.878695  1
  Dy  Dy8  1  0.207900  0.411905  0.620672  1
  Dy  Dy9  1  0.215372  0.584313  0.121305  1
  Dy  Dy10  1  0.784628  0.415687  0.121305  1
  Dy  Dy11  1  0.792100  0.588095  0.620672  1
  Dy  Dy12  1  0.914619  0.712216  0.121764  1
  Dy  Dy13  1  0.912726  0.287602  0.620315  1
  Dy  Dy14  1  0.087274  0.712398  0.620315  1
  Dy  Dy15  1  0.085381  0.287784  0.121764  1
  Dy  Dy16  1  0.500000  0.500000  0.500000  1
  Mg  Mg17  1  0.500000  0.500000  0.000000  1
  Sc  Sc18  1  0.000000  0.000000  0.500000  1
  Sc  Sc19  1  0.000000  0.000000  0.000000  1
  Ir  Ir20  1  0.853401  0.146735  0.248667  1
  Ir  Ir21  1  0.853265  0.853401  0.751333  1
  Ir  Ir22  1  0.146735  0.146599  0.751333  1
  Ir  Ir23  1  0.146599  0.853265  0.248667  1
  Ir  Ir24  1  0.655733  0.345439  0.746855  1
  Ir  Ir25  1  0.654561  0.655733  0.253145  1
  Ir  Ir26  1  0.345439  0.344267  0.253145  1
  Ir  Ir27  1  0.344267  0.654561  0.746855  1
  Ir  Ir28  1  0.500000  0.000000  0.121603  1
  Ir  Ir29  1  0.500000  0.000000  0.625798  1
  Ir  Ir30  1  0.000000  0.500000  0.878397  1
  Ir  Ir31  1  0.000000  0.500000  0.374202  1
