# generated using pymatgen
data_Th6Cd23Os
_symmetry_space_group_name_H-M   'P 1'
_cell_length_a   10.10903025
_cell_length_b   10.10903247
_cell_length_c   10.10902900
_cell_angle_alpha   60.00008471
_cell_angle_beta   60.00007367
_cell_angle_gamma   59.99998081
_symmetry_Int_Tables_number   1
_chemical_formula_structural   Th6Cd23Os
_chemical_formula_sum   'Th6 Cd23 Os1'
_cell_volume   730.48951833
_cell_formula_units_Z   1
loop_
 _symmetry_equiv_pos_site_id
 _symmetry_equiv_pos_as_xyz
  1  'x, y, z'
loop_
 _atom_site_type_symbol
 _atom_site_label
 _atom_site_symmetry_multiplicity
 _atom_site_fract_x
 _atom_site_fract_y
 _atom_site_fract_z
 _atom_site_occupancy
  Th  Th0  1  0.802479  0.802481  0.197519  1
  Th  Th1  1  0.197519  0.802481  0.197520  1
  Th  Th2  1  0.802481  0.197519  0.197521  1
  Th  Th3  1  0.197521  0.197519  0.802481  1
  Th  Th4  1  0.802481  0.197519  0.802480  1
  Th  Th5  1  0.197519  0.802481  0.802479  1
  Cd  Cd6  1  0.831065  0.831065  0.506803  1
  Cd  Cd7  1  0.831065  0.506803  0.831065  1
  Cd  Cd8  1  0.506803  0.831065  0.831065  1
  Cd  Cd9  1  0.831065  0.831064  0.831065  1
  Cd  Cd10  1  0.168935  0.168935  0.493197  1
  Cd  Cd11  1  0.168935  0.493197  0.168935  1
  Cd  Cd12  1  0.493197  0.168935  0.168935  1
  Cd  Cd13  1  0.168935  0.168936  0.168935  1
  Cd  Cd14  1  0.620822  0.620822  0.137536  1
  Cd  Cd15  1  0.620822  0.137536  0.620822  1
  Cd  Cd16  1  0.137536  0.620822  0.620822  1
  Cd  Cd17  1  0.620822  0.620822  0.620822  1
  Cd  Cd18  1  0.379178  0.379178  0.862464  1
  Cd  Cd19  1  0.379178  0.862464  0.379178  1
  Cd  Cd20  1  0.862464  0.379178  0.379178  1
  Cd  Cd21  1  0.379178  0.379178  0.379178  1
  Cd  Cd22  1  0.000000  0.000000  0.500000  1
  Cd  Cd23  1  0.500000  0.000000  0.500000  1
  Cd  Cd24  1  0.000000  0.500000  0.500000  1
  Cd  Cd25  1  0.500000  0.500000  0.000000  1
  Cd  Cd26  1  0.000000  0.500000  0.000000  1
  Cd  Cd27  1  0.500000  0.000000  0.000000  1
  Cd  Cd28  1  0.500000  0.500000  0.500000  1
  Os  Os29  1  0.000000  0.000000  0.000000  1
