# generated using pymatgen
data_Nd5CoPd2
_symmetry_space_group_name_H-M   'P 1'
_cell_length_a   8.58016500
_cell_length_b   8.29318700
_cell_length_c   12.00578200
_cell_angle_alpha   90.00000000
_cell_angle_beta   90.00000000
_cell_angle_gamma   90.00000000
_symmetry_Int_Tables_number   1
_chemical_formula_structural   Nd5CoPd2
_chemical_formula_sum   'Nd20 Co4 Pd8'
_cell_volume   854.29438330
_cell_formula_units_Z   4
loop_
 _symmetry_equiv_pos_site_id
 _symmetry_equiv_pos_as_xyz
  1  'x, y, z'
loop_
 _atom_site_type_symbol
 _atom_site_label
 _atom_site_symmetry_multiplicity
 _atom_site_fract_x
 _atom_site_fract_y
 _atom_site_fract_z
 _atom_site_occupancy
  Nd  Nd0  1  0.964577  0.750000  0.495397  1
  Nd  Nd1  1  0.035423  0.250000  0.504603  1
  Nd  Nd2  1  0.464577  0.250000  0.004603  1
  Nd  Nd3  1  0.535423  0.750000  0.995397  1
  Nd  Nd4  1  0.833973  0.750000  0.793851  1
  Nd  Nd5  1  0.166027  0.250000  0.206149  1
  Nd  Nd6  1  0.333973  0.250000  0.706149  1
  Nd  Nd7  1  0.666027  0.750000  0.293851  1
  Nd  Nd8  1  0.375890  0.750000  0.694948  1
  Nd  Nd9  1  0.624110  0.250000  0.305052  1
  Nd  Nd10  1  0.875890  0.250000  0.805052  1
  Nd  Nd11  1  0.124110  0.750000  0.194948  1
  Nd  Nd12  1  0.671329  0.035051  0.582354  1
  Nd  Nd13  1  0.328671  0.964949  0.417646  1
  Nd  Nd14  1  0.171329  0.964949  0.917646  1
  Nd  Nd15  1  0.328671  0.535051  0.417646  1
  Nd  Nd16  1  0.828671  0.035051  0.082354  1
  Nd  Nd17  1  0.671329  0.464949  0.582354  1
  Nd  Nd18  1  0.828671  0.464949  0.082354  1
  Nd  Nd19  1  0.171329  0.535051  0.917646  1
  Co  Co20  1  0.561829  0.750000  0.509185  1
  Co  Co21  1  0.438171  0.250000  0.490815  1
  Co  Co22  1  0.061829  0.250000  0.990815  1
  Co  Co23  1  0.938171  0.750000  0.009185  1
  Pd  Pd24  1  0.562745  0.476387  0.824842  1
  Pd  Pd25  1  0.437255  0.523613  0.175158  1
  Pd  Pd26  1  0.062745  0.523613  0.675158  1
  Pd  Pd27  1  0.437255  0.976387  0.175158  1
  Pd  Pd28  1  0.937255  0.476387  0.324842  1
  Pd  Pd29  1  0.562745  0.023613  0.824842  1
  Pd  Pd30  1  0.937255  0.023613  0.324842  1
  Pd  Pd31  1  0.062745  0.976387  0.675158  1
