# generated using pymatgen
data_Dy3Lu5(InPt)2
_symmetry_space_group_name_H-M   'P 1'
_cell_length_a   9.59996568
_cell_length_b   9.60009015
_cell_length_c   9.60522900
_cell_angle_alpha   59.98136574
_cell_angle_beta   59.98118651
_cell_angle_gamma   59.95233534
_symmetry_Int_Tables_number   1
_chemical_formula_structural   Dy3Lu5(InPt)2
_chemical_formula_sum   'Dy6 Lu10 In4 Pt4'
_cell_volume   625.54441269
_cell_formula_units_Z   2
loop_
 _symmetry_equiv_pos_site_id
 _symmetry_equiv_pos_as_xyz
  1  'x, y, z'
loop_
 _atom_site_type_symbol
 _atom_site_label
 _atom_site_symmetry_multiplicity
 _atom_site_fract_x
 _atom_site_fract_y
 _atom_site_fract_z
 _atom_site_occupancy
  Dy  Dy0  1  0.188626  0.811286  0.811175  1
  Dy  Dy1  1  0.811280  0.188628  0.188908  1
  Dy  Dy2  1  0.811282  0.188633  0.811177  1
  Dy  Dy3  1  0.188634  0.811280  0.188916  1
  Dy  Dy4  1  0.811778  0.811773  0.188229  1
  Dy  Dy5  1  0.189296  0.189292  0.810708  1
  Lu  Lu6  1  0.599937  0.599933  0.600166  1
  Lu  Lu7  1  0.599945  0.599950  0.199952  1
  Lu  Lu8  1  0.600083  0.199178  0.600375  1
  Lu  Lu9  1  0.199173  0.600087  0.600376  1
  Lu  Lu10  1  0.061060  0.439426  0.438940  1
  Lu  Lu11  1  0.439427  0.061066  0.060573  1
  Lu  Lu12  1  0.439424  0.061068  0.438945  1
  Lu  Lu13  1  0.061063  0.439427  0.060574  1
  Lu  Lu14  1  0.438834  0.438832  0.061163  1
  Lu  Lu15  1  0.060481  0.060489  0.439512  1
  In  In16  1  0.832500  0.832519  0.832479  1
  In  In17  1  0.832507  0.832475  0.502500  1
  In  In18  1  0.832601  0.502130  0.832633  1
  In  In19  1  0.502144  0.832591  0.832626  1
  Pt  Pt20  1  0.392378  0.392381  0.392668  1
  Pt  Pt21  1  0.392377  0.392377  0.822579  1
  Pt  Pt22  1  0.392057  0.823121  0.392413  1
  Pt  Pt23  1  0.823116  0.392058  0.392414  1
