# generated using pymatgen
data_Ga(Si5Ir4)3
_symmetry_space_group_name_H-M   'P 1'
_cell_length_a   3.71794000
_cell_length_b   5.86247129
_cell_length_c   19.10068296
_cell_angle_alpha   89.96364140
_cell_angle_beta   90.00000000
_cell_angle_gamma   90.00000000
_symmetry_Int_Tables_number   1
_chemical_formula_structural   Ga(Si5Ir4)3
_chemical_formula_sum   'Ga1 Si15 Ir12'
_cell_volume   416.32444788
_cell_formula_units_Z   1
loop_
 _symmetry_equiv_pos_site_id
 _symmetry_equiv_pos_as_xyz
  1  'x, y, z'
loop_
 _atom_site_type_symbol
 _atom_site_label
 _atom_site_symmetry_multiplicity
 _atom_site_fract_x
 _atom_site_fract_y
 _atom_site_fract_z
 _atom_site_occupancy
  Ga  Ga0  1  0.250000  0.973074  0.450824  1
  Si  Si1  1  0.750000  0.026367  0.549102  1
  Si  Si2  1  0.750000  0.473827  0.049878  1
  Si  Si3  1  0.250000  0.526254  0.950223  1
  Si  Si4  1  0.250000  0.076103  0.909194  1
  Si  Si5  1  0.750000  0.923782  0.090781  1
  Si  Si6  1  0.750000  0.575395  0.590251  1
  Si  Si7  1  0.250000  0.423580  0.410428  1
  Si  Si8  1  0.250000  0.720388  0.270395  1
  Si  Si9  1  0.750000  0.282442  0.730030  1
  Si  Si10  1  0.750000  0.214662  0.230836  1
  Si  Si11  1  0.250000  0.785299  0.769575  1
  Si  Si12  1  0.250000  0.386926  0.144022  1
  Si  Si13  1  0.750000  0.612538  0.856233  1
  Si  Si14  1  0.750000  0.890290  0.357328  1
  Si  Si15  1  0.250000  0.112484  0.642943  1
  Ir  Ir16  1  0.250000  0.393396  0.826603  1
  Ir  Ir17  1  0.750000  0.605332  0.173481  1
  Ir  Ir18  1  0.750000  0.892169  0.674240  1
  Ir  Ir19  1  0.250000  0.112714  0.321973  1
  Ir  Ir20  1  0.250000  0.499271  0.678100  1
  Ir  Ir21  1  0.750000  0.503552  0.322517  1
  Ir  Ir22  1  0.750000  0.999884  0.824175  1
  Ir  Ir23  1  0.250000  0.998328  0.174165  1
  Ir  Ir24  1  0.250000  0.314788  0.534720  1
  Ir  Ir25  1  0.750000  0.676420  0.468459  1
  Ir  Ir26  1  0.750000  0.803790  0.968642  1
  Ir  Ir27  1  0.250000  0.196947  0.030881  1
