# generated using pymatgen
data_TbDy9(SiHg)4
_symmetry_space_group_name_H-M   'P 1'
_cell_length_a   8.79122497
_cell_length_b   8.78853550
_cell_length_c   7.57680818
_cell_angle_alpha   89.97947564
_cell_angle_beta   90.00169906
_cell_angle_gamma   129.15018384
_symmetry_Int_Tables_number   1
_chemical_formula_structural   TbDy9(SiHg)4
_chemical_formula_sum   'Tb1 Dy9 Si4 Hg4'
_cell_volume   453.97343459
_cell_formula_units_Z   1
loop_
 _symmetry_equiv_pos_site_id
 _symmetry_equiv_pos_as_xyz
  1  'x, y, z'
loop_
 _atom_site_type_symbol
 _atom_site_label
 _atom_site_symmetry_multiplicity
 _atom_site_fract_x
 _atom_site_fract_y
 _atom_site_fract_z
 _atom_site_occupancy
  Tb  Tb0  1  0.055961  0.311422  0.322892  1
  Dy  Dy1  1  0.944254  0.689080  0.676861  1
  Dy  Dy2  1  0.444233  0.189193  0.823206  1
  Dy  Dy3  1  0.810846  0.555844  0.176714  1
  Dy  Dy4  1  0.555690  0.810687  0.176656  1
  Dy  Dy5  1  0.189366  0.444381  0.823268  1
  Dy  Dy6  1  0.689085  0.944030  0.676965  1
  Dy  Dy7  1  0.310764  0.055731  0.323110  1
  Dy  Dy8  1  0.000060  0.999798  0.999873  1
  Dy  Dy9  1  0.500097  0.500018  0.500029  1
  Si  Si10  1  0.382641  0.382130  0.120735  1
  Si  Si11  1  0.617999  0.617910  0.878848  1
  Si  Si12  1  0.117972  0.117726  0.621572  1
  Si  Si13  1  0.881812  0.881552  0.378924  1
  Hg  Hg14  1  0.781477  0.217926  0.999452  1
  Hg  Hg15  1  0.218017  0.781873  0.000029  1
  Hg  Hg16  1  0.717322  0.281785  0.500399  1
  Hg  Hg17  1  0.282405  0.718914  0.500466  1
