# generated using pymatgen
data_Y3Ho5Si12Ir3Rh
_symmetry_space_group_name_H-M   'P 1'
_cell_length_a   8.16782777
_cell_length_b   8.16782570
_cell_length_c   7.90998200
_cell_angle_alpha   89.99764218
_cell_angle_beta   90.00233797
_cell_angle_gamma   120.04964927
_symmetry_Int_Tables_number   1
_chemical_formula_structural   Y3Ho5Si12Ir3Rh
_chemical_formula_sum   'Y3 Ho5 Si12 Ir3 Rh1'
_cell_volume   456.77430438
_cell_formula_units_Z   1
loop_
 _symmetry_equiv_pos_site_id
 _symmetry_equiv_pos_as_xyz
  1  'x, y, z'
loop_
 _atom_site_type_symbol
 _atom_site_label
 _atom_site_symmetry_multiplicity
 _atom_site_fract_x
 _atom_site_fract_y
 _atom_site_fract_z
 _atom_site_occupancy
  Y  Y0  1  0.999989  0.000016  0.248752  1
  Y  Y1  1  0.999991  0.000008  0.750393  1
  Y  Y2  1  0.510107  0.489885  0.250147  1
  Ho  Ho3  1  0.509880  0.019630  0.250197  1
  Ho  Ho4  1  0.980373  0.490123  0.250196  1
  Ho  Ho5  1  0.490691  0.509309  0.749860  1
  Ho  Ho6  1  0.490684  0.981322  0.749857  1
  Ho  Ho7  1  0.018681  0.509318  0.749858  1
  Si  Si8  1  0.166956  0.833043  0.498798  1
  Si  Si9  1  0.166923  0.334052  0.499044  1
  Si  Si10  1  0.665948  0.833077  0.499044  1
  Si  Si11  1  0.833064  0.166937  0.500735  1
  Si  Si12  1  0.833207  0.666142  0.501118  1
  Si  Si13  1  0.333856  0.166791  0.501120  1
  Si  Si14  1  0.833164  0.166837  0.999386  1
  Si  Si15  1  0.833321  0.666362  0.999012  1
  Si  Si16  1  0.333634  0.166678  0.999011  1
  Si  Si17  1  0.167460  0.832538  0.999940  1
  Si  Si18  1  0.167386  0.335004  0.999683  1
  Si  Si19  1  0.664999  0.832614  0.999684  1
  Ir  Ir20  1  0.332975  0.667027  0.468919  1
  Ir  Ir21  1  0.666890  0.333109  0.534262  1
  Ir  Ir22  1  0.666879  0.333117  0.964277  1
  Rh  Rh23  1  0.332942  0.667062  0.036708  1
