# generated using pymatgen
data_NaDy4Si9P3Ir19
_symmetry_space_group_name_H-M   'P 1'
_cell_length_a   12.81678483
_cell_length_b   12.80492445
_cell_length_c   3.95603100
_cell_angle_alpha   90.00000000
_cell_angle_beta   90.00000000
_cell_angle_gamma   119.96939020
_symmetry_Int_Tables_number   1
_chemical_formula_structural   NaDy4Si9P3Ir19
_chemical_formula_sum   'Na1 Dy4 Si9 P3 Ir19'
_cell_volume   562.44531667
_cell_formula_units_Z   1
loop_
 _symmetry_equiv_pos_site_id
 _symmetry_equiv_pos_as_xyz
  1  'x, y, z'
loop_
 _atom_site_type_symbol
 _atom_site_label
 _atom_site_symmetry_multiplicity
 _atom_site_fract_x
 _atom_site_fract_y
 _atom_site_fract_z
 _atom_site_occupancy
  Na  Na0  1  0.000000  0.814827  0.000000  1
  Dy  Dy1  1  0.334483  0.666808  0.500000  1
  Dy  Dy2  1  0.665517  0.332324  0.500000  1
  Dy  Dy3  1  0.184037  0.183586  0.000000  1
  Dy  Dy4  1  0.815963  0.999549  0.000000  1
  Si  Si5  1  0.000000  0.634820  0.500000  1
  Si  Si6  1  0.366493  0.366493  0.500000  1
  Si  Si7  1  0.633507  0.000000  0.500000  1
  Si  Si8  1  0.519937  0.686141  0.000000  1
  Si  Si9  1  0.312170  0.832405  0.000000  1
  Si  Si10  1  0.167074  0.481207  0.000000  1
  Si  Si11  1  0.480063  0.166204  0.000000  1
  Si  Si12  1  0.687830  0.520235  0.000000  1
  Si  Si13  1  0.832926  0.314133  0.000000  1
  P  P14  1  0.000000  0.178956  0.500000  1
  P  P15  1  0.822747  0.819165  0.500000  1
  P  P16  1  0.177253  0.996417  0.500000  1
  Ir  Ir17  1  0.512018  0.872663  0.000000  1
  Ir  Ir18  1  0.126456  0.639476  0.000000  1
  Ir  Ir19  1  0.358755  0.486683  0.000000  1
  Ir  Ir20  1  0.487982  0.360645  0.000000  1
  Ir  Ir21  1  0.873544  0.513020  0.000000  1
  Ir  Ir22  1  0.641245  0.127928  0.000000  1
  Ir  Ir23  1  0.000000  0.447572  0.500000  1
  Ir  Ir24  1  0.549741  0.554263  0.500000  1
  Ir  Ir25  1  0.450259  0.004522  0.500000  1
  Ir  Ir26  1  0.000000  0.279171  0.000000  1
  Ir  Ir27  1  0.721133  0.722182  0.000000  1
  Ir  Ir28  1  0.278867  0.001049  0.000000  1
  Ir  Ir29  1  0.628132  0.808073  0.500000  1
  Ir  Ir30  1  0.195823  0.818703  0.500000  1
  Ir  Ir31  1  0.179380  0.372767  0.500000  1
  Ir  Ir32  1  0.371868  0.179941  0.500000  1
  Ir  Ir33  1  0.804177  0.622879  0.500000  1
  Ir  Ir34  1  0.820620  0.193387  0.500000  1
  Ir  Ir35  1  0.000000  0.001808  0.500000  1
