# generated using pymatgen
data_Pr16Cd2In2Co3Ir
_symmetry_space_group_name_H-M   'P 1'
_cell_length_a   9.96982326
_cell_length_b   9.93549292
_cell_length_c   9.94261200
_cell_angle_alpha   59.97629453
_cell_angle_beta   60.09024557
_cell_angle_gamma   60.07376126
_symmetry_Int_Tables_number   1
_chemical_formula_structural   Pr16Cd2In2Co3Ir
_chemical_formula_sum   'Pr16 Cd2 In2 Co3 Ir1'
_cell_volume   697.14237956
_cell_formula_units_Z   1
loop_
 _symmetry_equiv_pos_site_id
 _symmetry_equiv_pos_as_xyz
  1  'x, y, z'
loop_
 _atom_site_type_symbol
 _atom_site_label
 _atom_site_symmetry_multiplicity
 _atom_site_fract_x
 _atom_site_fract_y
 _atom_site_fract_z
 _atom_site_occupancy
  Pr  Pr0  1  0.342188  0.349968  0.348292  1
  Pr  Pr1  1  0.342188  0.349968  0.959550  1
  Pr  Pr2  1  0.344855  0.956673  0.349236  1
  Pr  Pr3  1  0.960122  0.348556  0.345661  1
  Pr  Pr4  1  0.814356  0.189665  0.191811  1
  Pr  Pr5  1  0.189931  0.809944  0.810442  1
  Pr  Pr6  1  0.189931  0.809944  0.189683  1
  Pr  Pr7  1  0.814356  0.189665  0.804168  1
  Pr  Pr8  1  0.188376  0.186550  0.812537  1
  Pr  Pr9  1  0.812450  0.802236  0.192657  1
  Pr  Pr10  1  0.940986  0.561376  0.561815  1
  Pr  Pr11  1  0.560392  0.943108  0.937632  1
  Pr  Pr12  1  0.560392  0.943108  0.558867  1
  Pr  Pr13  1  0.940986  0.561376  0.935823  1
  Pr  Pr14  1  0.561122  0.558904  0.939987  1
  Pr  Pr15  1  0.939169  0.939217  0.560807  1
  Cd  Cd16  1  0.578353  0.261319  0.580163  1
  Cd  Cd17  1  0.260637  0.578067  0.580647  1
  In  In18  1  0.580310  0.579564  0.581365  1
  In  In19  1  0.580310  0.579564  0.258761  1
  Co  Co20  1  0.140364  0.140910  0.140295  1
  Co  Co21  1  0.140364  0.140910  0.578430  1
  Co  Co22  1  0.141035  0.577691  0.140637  1
  Ir  Ir23  1  0.576824  0.141715  0.140730  1
