# generated using pymatgen
data_Gd16Zr3ScIr12
_symmetry_space_group_name_H-M   'P 1'
_cell_length_a   10.80539000
_cell_length_b   10.80539000
_cell_length_c   6.25433100
_cell_angle_alpha   90.00000000
_cell_angle_beta   90.00000000
_cell_angle_gamma   90.00000000
_symmetry_Int_Tables_number   1
_chemical_formula_structural   Gd16Zr3ScIr12
_chemical_formula_sum   'Gd16 Zr3 Sc1 Ir12'
_cell_volume   730.23350377
_cell_formula_units_Z   1
loop_
 _symmetry_equiv_pos_site_id
 _symmetry_equiv_pos_as_xyz
  1  'x, y, z'
loop_
 _atom_site_type_symbol
 _atom_site_label
 _atom_site_symmetry_multiplicity
 _atom_site_fract_x
 _atom_site_fract_y
 _atom_site_fract_z
 _atom_site_occupancy
  Gd  Gd0  1  0.289139  0.086186  0.370893  1
  Gd  Gd1  1  0.288374  0.912069  0.870834  1
  Gd  Gd2  1  0.711626  0.087931  0.870834  1
  Gd  Gd3  1  0.710861  0.913814  0.370893  1
  Gd  Gd4  1  0.587519  0.788723  0.872801  1
  Gd  Gd5  1  0.586301  0.214100  0.371462  1
  Gd  Gd6  1  0.413699  0.785900  0.371462  1
  Gd  Gd7  1  0.412481  0.211277  0.872801  1
  Gd  Gd8  1  0.214100  0.413699  0.628538  1
  Gd  Gd9  1  0.211277  0.587519  0.127199  1
  Gd  Gd10  1  0.788723  0.412481  0.127199  1
  Gd  Gd11  1  0.785900  0.586301  0.628538  1
  Gd  Gd12  1  0.912069  0.711626  0.129166  1
  Gd  Gd13  1  0.913814  0.289139  0.629107  1
  Gd  Gd14  1  0.086186  0.710861  0.629107  1
  Gd  Gd15  1  0.087931  0.288374  0.129166  1
  Zr  Zr16  1  0.000000  0.000000  0.500000  1
  Zr  Zr17  1  0.000000  0.000000  0.000000  1
  Zr  Zr18  1  0.500000  0.500000  0.000000  1
  Sc  Sc19  1  0.500000  0.500000  0.500000  1
  Ir  Ir20  1  0.855417  0.144481  0.250755  1
  Ir  Ir21  1  0.855519  0.855417  0.749245  1
  Ir  Ir22  1  0.144481  0.144583  0.749245  1
  Ir  Ir23  1  0.144583  0.855519  0.250755  1
  Ir  Ir24  1  0.644418  0.353630  0.753111  1
  Ir  Ir25  1  0.646370  0.644418  0.246889  1
  Ir  Ir26  1  0.353630  0.355582  0.246889  1
  Ir  Ir27  1  0.355582  0.646370  0.753111  1
  Ir  Ir28  1  0.500000  0.000000  0.118802  1
  Ir  Ir29  1  0.500000  0.000000  0.617242  1
  Ir  Ir30  1  0.000000  0.500000  0.881198  1
  Ir  Ir31  1  0.000000  0.500000  0.382758  1
