# generated using pymatgen
data_Cs2TeS2O9
_symmetry_space_group_name_H-M   'P 1'
_cell_length_a   7.70596910
_cell_length_b   7.75547929
_cell_length_c   9.76762537
_cell_angle_alpha   77.37893307
_cell_angle_beta   84.69693662
_cell_angle_gamma   78.31222106
_symmetry_Int_Tables_number   1
_chemical_formula_structural   Cs2TeS2O9
_chemical_formula_sum   'Cs4 Te2 S4 O18'
_cell_volume   557.12213298
_cell_formula_units_Z   2
loop_
 _symmetry_equiv_pos_site_id
 _symmetry_equiv_pos_as_xyz
  1  'x, y, z'
loop_
 _atom_site_type_symbol
 _atom_site_label
 _atom_site_symmetry_multiplicity
 _atom_site_fract_x
 _atom_site_fract_y
 _atom_site_fract_z
 _atom_site_occupancy
  Cs  Cs0  1  0.112925  0.377346  0.237581  1
  Cs  Cs1  1  0.357357  0.801527  0.410435  1
  Cs  Cs2  1  0.642644  0.198473  0.589565  1
  Cs  Cs3  1  0.887074  0.622655  0.762419  1
  Te  Te4  1  0.623045  0.117558  0.048506  1
  Te  Te5  1  0.376954  0.882442  0.951494  1
  S  S6  1  0.619041  0.467983  0.180199  1
  S  S7  1  0.847463  0.894791  0.323712  1
  S  S8  1  0.152537  0.105210  0.676287  1
  S  S9  1  0.380962  0.532015  0.819802  1
  O  O10  1  0.766854  0.461353  0.075099  1
  O  O11  1  0.386751  0.070518  0.084171  1
  O  O12  1  0.468529  0.622127  0.136725  1
  O  O13  1  0.535793  0.293864  0.192368  1
  O  O14  1  0.704982  0.905762  0.207334  1
  O  O15  1  0.906148  0.068174  0.292637  1
  O  O16  1  0.667147  0.467082  0.321571  1
  O  O17  1  0.989993  0.743833  0.305898  1
  O  O18  1  0.256113  0.138614  0.542097  1
  O  O19  1  0.743887  0.861386  0.457903  1
  O  O20  1  0.010007  0.256167  0.694102  1
  O  O21  1  0.332853  0.532919  0.678427  1
  O  O22  1  0.093851  0.931826  0.707362  1
  O  O23  1  0.295018  0.094237  0.792666  1
  O  O24  1  0.464206  0.706136  0.807633  1
  O  O25  1  0.531469  0.377874  0.863275  1
  O  O26  1  0.613248  0.929482  0.915830  1
  O  O27  1  0.233144  0.538647  0.924901  1
