# generated using pymatgen
data_Sb14P
_symmetry_space_group_name_H-M   'P 1'
_cell_length_a   4.23374400
_cell_length_b   4.23374485
_cell_length_c   27.94225300
_cell_angle_alpha   89.82390676
_cell_angle_beta   89.82390672
_cell_angle_gamma   60.25579835
_symmetry_Int_Tables_number   1
_chemical_formula_structural   Sb14P
_chemical_formula_sum   'Sb14 P1'
_cell_volume   434.86280124
_cell_formula_units_Z   1
loop_
 _symmetry_equiv_pos_site_id
 _symmetry_equiv_pos_as_xyz
  1  'x, y, z'
loop_
 _atom_site_type_symbol
 _atom_site_label
 _atom_site_symmetry_multiplicity
 _atom_site_fract_x
 _atom_site_fract_y
 _atom_site_fract_z
 _atom_site_occupancy
  Sb  Sb0  1  0.663807  0.663807  0.053648  1
  Sb  Sb1  1  0.667653  0.667653  0.271262  1
  Sb  Sb2  1  0.667543  0.667543  0.467738  1
  Sb  Sb3  1  0.668681  0.668681  0.682111  1
  Sb  Sb4  1  0.665893  0.665893  0.855313  1
  Sb  Sb5  1  0.332457  0.332457  0.132262  1
  Sb  Sb6  1  0.332347  0.332347  0.328738  1
  Sb  Sb7  1  0.336193  0.336193  0.546352  1
  Sb  Sb8  1  0.334107  0.334107  0.744687  1
  Sb  Sb9  1  0.331319  0.331319  0.917889  1
  Sb  Sb10  1  0.999078  0.999078  0.993822  1
  Sb  Sb11  1  0.997731  0.997731  0.190534  1
  Sb  Sb12  1  0.002269  0.002269  0.409466  1
  Sb  Sb13  1  0.000922  0.000922  0.606178  1
  P  P14  1  0.000000  0.000000  0.800000  1
