# generated using pymatgen
data_Li3Tm4Lu(B6Rh)4
_symmetry_space_group_name_H-M   'P 1'
_cell_length_a   3.52873400
_cell_length_b   8.86934442
_cell_length_c   11.23387222
_cell_angle_alpha   90.14751336
_cell_angle_beta   90.00000000
_cell_angle_gamma   90.00000000
_symmetry_Int_Tables_number   1
_chemical_formula_structural   Li3Tm4Lu(B6Rh)4
_chemical_formula_sum   'Li3 Tm4 Lu1 B24 Rh4'
_cell_volume   351.59159320
_cell_formula_units_Z   1
loop_
 _symmetry_equiv_pos_site_id
 _symmetry_equiv_pos_as_xyz
  1  'x, y, z'
loop_
 _atom_site_type_symbol
 _atom_site_label
 _atom_site_symmetry_multiplicity
 _atom_site_fract_x
 _atom_site_fract_y
 _atom_site_fract_z
 _atom_site_occupancy
  Li  Li0  1  0.500000  0.446813  0.121486  1
  Li  Li1  1  0.500000  0.553757  0.876424  1
  Li  Li2  1  0.500000  0.054410  0.625696  1
  Tm  Tm3  1  0.500000  0.320080  0.417239  1
  Tm  Tm4  1  0.500000  0.680143  0.590389  1
  Tm  Tm5  1  0.500000  0.181444  0.910744  1
  Tm  Tm6  1  0.500000  0.815977  0.081697  1
  Lu  Lu7  1  0.500000  0.945980  0.377258  1
  B  B8  1  0.000000  0.103088  0.475578  1
  B  B9  1  0.000000  0.899347  0.530484  1
  B  B10  1  0.000000  0.407767  0.974086  1
  B  B11  1  0.000000  0.591670  0.024141  1
  B  B12  1  0.000000  0.133080  0.318952  1
  B  B13  1  0.000000  0.872939  0.682342  1
  B  B14  1  0.000000  0.374834  0.819083  1
  B  B15  1  0.000000  0.623580  0.178901  1
  B  B16  1  0.000000  0.056738  0.065155  1
  B  B17  1  0.000000  0.944044  0.932630  1
  B  B18  1  0.000000  0.444561  0.568464  1
  B  B19  1  0.000000  0.553705  0.433874  1
  B  B20  1  0.000000  0.479516  0.284063  1
  B  B21  1  0.000000  0.520321  0.715822  1
  B  B22  1  0.000000  0.018772  0.784795  1
  B  B23  1  0.000000  0.983054  0.212370  1
  B  B24  1  0.000000  0.259334  0.078891  1
  B  B25  1  0.000000  0.741585  0.919092  1
  B  B26  1  0.000000  0.244140  0.582444  1
  B  B27  1  0.000000  0.751266  0.422180  1
  B  B28  1  0.000000  0.296519  0.234807  1
  B  B29  1  0.000000  0.705673  0.765431  1
  B  B30  1  0.000000  0.205972  0.735271  1
  B  B31  1  0.000000  0.790923  0.263389  1
  Rh  Rh32  1  0.500000  0.145017  0.177793  1
  Rh  Rh33  1  0.500000  0.857714  0.819979  1
  Rh  Rh34  1  0.500000  0.360222  0.683455  1
  Rh  Rh35  1  0.500000  0.636015  0.315595  1
