# generated using pymatgen
data_Dy6Ho2Sc12GaSi15
_symmetry_space_group_name_H-M   'P 1'
_cell_length_a   7.09666869
_cell_length_b   7.38842907
_cell_length_c   14.01435136
_cell_angle_alpha   89.93273883
_cell_angle_beta   89.97397341
_cell_angle_gamma   90.01669189
_symmetry_Int_Tables_number   1
_chemical_formula_structural   Dy6Ho2Sc12GaSi15
_chemical_formula_sum   'Dy6 Ho2 Sc12 Ga1 Si15'
_cell_volume   734.81713977
_cell_formula_units_Z   1
loop_
 _symmetry_equiv_pos_site_id
 _symmetry_equiv_pos_as_xyz
  1  'x, y, z'
loop_
 _atom_site_type_symbol
 _atom_site_label
 _atom_site_symmetry_multiplicity
 _atom_site_fract_x
 _atom_site_fract_y
 _atom_site_fract_z
 _atom_site_occupancy
  Dy  Dy0  1  0.011889  0.175441  0.097054  1
  Dy  Dy1  1  0.988021  0.824776  0.903452  1
  Dy  Dy2  1  0.487740  0.676275  0.903421  1
  Dy  Dy3  1  0.987403  0.826533  0.597519  1
  Dy  Dy4  1  0.512116  0.323904  0.096803  1
  Dy  Dy5  1  0.010990  0.174065  0.401657  1
  Ho  Ho6  1  0.512880  0.323297  0.401573  1
  Ho  Ho7  1  0.489884  0.678406  0.597630  1
  Sc  Sc8  1  0.161077  0.502612  0.751475  1
  Sc  Sc9  1  0.839006  0.497584  0.249901  1
  Sc  Sc10  1  0.338965  0.002508  0.249730  1
  Sc  Sc11  1  0.661376  0.996776  0.750109  1
  Sc  Sc12  1  0.332608  0.174089  0.626087  1
  Sc  Sc13  1  0.668353  0.823911  0.374340  1
  Sc  Sc14  1  0.169930  0.677355  0.373452  1
  Sc  Sc15  1  0.669551  0.823669  0.125301  1
  Sc  Sc16  1  0.828510  0.323253  0.625586  1
  Sc  Sc17  1  0.330291  0.175895  0.874936  1
  Sc  Sc18  1  0.830473  0.323042  0.874929  1
  Sc  Sc19  1  0.169161  0.676796  0.125394  1
  Ga  Ga20  1  0.160554  0.462662  0.539239  1
  Si  Si21  1  0.033727  0.117747  0.750693  1
  Si  Si22  1  0.966375  0.883282  0.249670  1
  Si  Si23  1  0.467572  0.615833  0.249994  1
  Si  Si24  1  0.532195  0.384900  0.749717  1
  Si  Si25  1  0.284781  0.872814  0.750283  1
  Si  Si26  1  0.714313  0.127281  0.249596  1
  Si  Si27  1  0.214495  0.372499  0.249544  1
  Si  Si28  1  0.785619  0.627105  0.750679  1
  Si  Si29  1  0.841043  0.535854  0.460379  1
  Si  Si30  1  0.341883  0.964336  0.460225  1
  Si  Si31  1  0.842259  0.535426  0.038717  1
  Si  Si32  1  0.657378  0.035736  0.539017  1
  Si  Si33  1  0.157703  0.464265  0.961655  1
  Si  Si34  1  0.657348  0.035316  0.960674  1
  Si  Si35  1  0.342530  0.964758  0.039569  1
