# generated using pymatgen
data_Tm2Mg2MnIr7
_symmetry_space_group_name_H-M   'P 1'
_cell_length_a   5.32631000
_cell_length_b   5.32630933
_cell_length_c   8.29562700
_cell_angle_alpha   90.00000000
_cell_angle_beta   90.00000000
_cell_angle_gamma   120.00000413
_symmetry_Int_Tables_number   1
_chemical_formula_structural   Tm2Mg2MnIr7
_chemical_formula_sum   'Tm2 Mg2 Mn1 Ir7'
_cell_volume   203.81336286
_cell_formula_units_Z   1
loop_
 _symmetry_equiv_pos_site_id
 _symmetry_equiv_pos_as_xyz
  1  'x, y, z'
loop_
 _atom_site_type_symbol
 _atom_site_label
 _atom_site_symmetry_multiplicity
 _atom_site_fract_x
 _atom_site_fract_y
 _atom_site_fract_z
 _atom_site_occupancy
  Tm  Tm0  1  0.333333  0.666667  0.072743  1
  Tm  Tm1  1  0.666667  0.333333  0.568704  1
  Mg  Mg2  1  0.666667  0.333333  0.935935  1
  Mg  Mg3  1  0.333333  0.666667  0.439890  1
  Mn  Mn4  1  0.000000  0.000000  0.993707  1
  Ir  Ir5  1  0.000000  0.000000  0.495961  1
  Ir  Ir6  1  0.829144  0.658288  0.243246  1
  Ir  Ir7  1  0.171926  0.828074  0.754441  1
  Ir  Ir8  1  0.656148  0.828074  0.754441  1
  Ir  Ir9  1  0.341712  0.170856  0.243246  1
  Ir  Ir10  1  0.829144  0.170856  0.243246  1
  Ir  Ir11  1  0.171926  0.343852  0.754441  1
