# generated using pymatgen
data_CsAlSe2O7
_symmetry_space_group_name_H-M   'P 1'
_cell_length_a   15.51632527
_cell_length_b   15.51632523
_cell_length_c   15.51632590
_cell_angle_alpha   19.91514642
_cell_angle_beta   19.91514486
_cell_angle_gamma   19.91514694
_symmetry_Int_Tables_number   1
_chemical_formula_structural   CsAlSe2O7
_chemical_formula_sum   'Cs2 Al2 Se4 O14'
_cell_volume   379.14700631
_cell_formula_units_Z   2
loop_
 _symmetry_equiv_pos_site_id
 _symmetry_equiv_pos_as_xyz
  1  'x, y, z'
loop_
 _atom_site_type_symbol
 _atom_site_label
 _atom_site_symmetry_multiplicity
 _atom_site_fract_x
 _atom_site_fract_y
 _atom_site_fract_z
 _atom_site_occupancy
  Cs  Cs0  1  0.000000  0.000000  0.000000  1
  Cs  Cs1  1  0.500000  0.500000  0.500000  1
  Al  Al2  1  0.097930  0.097930  0.097930  1
  Al  Al3  1  0.902070  0.902070  0.902070  1
  Se  Se4  1  0.390537  0.390537  0.390537  1
  Se  Se5  1  0.230911  0.230911  0.230911  1
  Se  Se6  1  0.609463  0.609463  0.609463  1
  Se  Se7  1  0.769089  0.769089  0.769089  1
  O  O8  1  0.231366  0.231366  0.743998  1
  O  O9  1  0.048439  0.542314  0.048439  1
  O  O10  1  0.951561  0.457686  0.951561  1
  O  O11  1  0.951561  0.951561  0.457686  1
  O  O12  1  0.048439  0.048439  0.542314  1
  O  O13  1  0.256002  0.768634  0.768634  1
  O  O14  1  0.457686  0.951561  0.951561  1
  O  O15  1  0.645455  0.645455  0.645455  1
  O  O16  1  0.743998  0.231366  0.231366  1
  O  O17  1  0.768634  0.256002  0.768634  1
  O  O18  1  0.231366  0.743998  0.231366  1
  O  O19  1  0.542314  0.048439  0.048439  1
  O  O20  1  0.354545  0.354545  0.354545  1
  O  O21  1  0.768634  0.768634  0.256002  1
