# generated using pymatgen
data_Tb5YAl24PdRu7
_symmetry_space_group_name_H-M   'P 1'
_cell_length_a   8.82856616
_cell_length_b   8.82487288
_cell_length_c   9.58547721
_cell_angle_alpha   89.89489089
_cell_angle_beta   90.10813553
_cell_angle_gamma   119.71320334
_symmetry_Int_Tables_number   1
_chemical_formula_structural   Tb5YAl24PdRu7
_chemical_formula_sum   'Tb5 Y1 Al24 Pd1 Ru7'
_cell_volume   648.61927287
_cell_formula_units_Z   1
loop_
 _symmetry_equiv_pos_site_id
 _symmetry_equiv_pos_as_xyz
  1  'x, y, z'
loop_
 _atom_site_type_symbol
 _atom_site_label
 _atom_site_symmetry_multiplicity
 _atom_site_fract_x
 _atom_site_fract_y
 _atom_site_fract_z
 _atom_site_occupancy
  Tb  Tb0  1  0.806242  0.193876  0.247761  1
  Tb  Tb1  1  0.809017  0.614116  0.249426  1
  Tb  Tb2  1  0.613903  0.808913  0.750553  1
  Tb  Tb3  1  0.193883  0.806092  0.752192  1
  Tb  Tb4  1  0.191062  0.386010  0.750588  1
  Y  Y5  1  0.386232  0.191193  0.249441  1
  Al  Al6  1  0.439144  0.877743  0.251166  1
  Al  Al7  1  0.122427  0.560822  0.251135  1
  Al  Al8  1  0.438093  0.561743  0.247599  1
  Al  Al9  1  0.560865  0.122557  0.748819  1
  Al  Al10  1  0.877593  0.439204  0.748874  1
  Al  Al11  1  0.561943  0.438010  0.752417  1
  Al  Al12  1  0.162815  0.837210  0.422877  1
  Al  Al13  1  0.155884  0.322727  0.421079  1
  Al  Al14  1  0.677316  0.844095  0.421037  1
  Al  Al15  1  0.837205  0.162821  0.577142  1
  Al  Al16  1  0.844125  0.677280  0.578944  1
  Al  Al17  1  0.322714  0.155905  0.578905  1
  Al  Al18  1  0.837301  0.162815  0.921690  1
  Al  Al19  1  0.837113  0.675744  0.922022  1
  Al  Al20  1  0.324201  0.162891  0.922040  1
  Al  Al21  1  0.162734  0.837242  0.078317  1
  Al  Al22  1  0.162926  0.324247  0.077970  1
  Al  Al23  1  0.675837  0.837114  0.078051  1
  Al  Al24  1  0.330058  0.669872  0.518978  1
  Al  Al25  1  0.669815  0.330062  0.481054  1
  Al  Al26  1  0.666634  0.333388  0.015204  1
  Al  Al27  1  0.333266  0.666555  0.984781  1
  Al  Al28  1  0.000596  0.999195  0.250082  1
  Al  Al29  1  0.999232  0.000745  0.749926  1
  Pd  Pd30  1  0.499931  0.499862  0.499889  1
  Ru  Ru31  1  0.000099  0.000063  0.499851  1
  Ru  Ru32  1  0.000127  0.000057  0.000185  1
  Ru  Ru33  1  0.499948  0.000055  0.499945  1
  Ru  Ru34  1  0.999917  0.499959  0.499944  1
  Ru  Ru35  1  0.499988  0.000017  0.999985  1
  Ru  Ru36  1  0.999866  0.499931  0.000075  1
  Ru  Ru37  1  0.499949  0.499871  0.000054  1
