# generated using pymatgen
data_Ce2SnIrAu
_symmetry_space_group_name_H-M   'P 1'
_cell_length_a   7.90275682
_cell_length_b   7.90275751
_cell_length_c   3.78847000
_cell_angle_alpha   90.00000000
_cell_angle_beta   90.00000000
_cell_angle_gamma   90.40919693
_symmetry_Int_Tables_number   1
_chemical_formula_structural   Ce2SnIrAu
_chemical_formula_sum   'Ce4 Sn2 Ir2 Au2'
_cell_volume   236.59744533
_cell_formula_units_Z   2
loop_
 _symmetry_equiv_pos_site_id
 _symmetry_equiv_pos_as_xyz
  1  'x, y, z'
loop_
 _atom_site_type_symbol
 _atom_site_label
 _atom_site_symmetry_multiplicity
 _atom_site_fract_x
 _atom_site_fract_y
 _atom_site_fract_z
 _atom_site_occupancy
  Ce  Ce0  1  0.687142  0.187142  0.500000  1
  Ce  Ce1  1  0.312858  0.812858  0.500000  1
  Ce  Ce2  1  0.161442  0.338558  0.500000  1
  Ce  Ce3  1  0.838558  0.661442  0.500000  1
  Sn  Sn4  1  0.000000  0.000000  0.000000  1
  Sn  Sn5  1  0.500000  0.500000  0.000000  1
  Ir  Ir6  1  0.131999  0.631999  0.000000  1
  Ir  Ir7  1  0.868001  0.368001  0.000000  1
  Au  Au8  1  0.626892  0.873108  0.000000  1
  Au  Au9  1  0.373108  0.126892  0.000000  1
