# generated using pymatgen
data_Pr6MgCr(Co4P3)4
_symmetry_space_group_name_H-M   'P 1'
_cell_length_a   3.78603600
_cell_length_b   10.75744000
_cell_length_c   12.50303700
_cell_angle_alpha   90.00000000
_cell_angle_beta   90.00000000
_cell_angle_gamma   90.00000000
_symmetry_Int_Tables_number   1
_chemical_formula_structural   Pr6MgCr(Co4P3)4
_chemical_formula_sum   'Pr6 Mg1 Cr1 Co16 P12'
_cell_volume   509.22437995
_cell_formula_units_Z   1
loop_
 _symmetry_equiv_pos_site_id
 _symmetry_equiv_pos_as_xyz
  1  'x, y, z'
loop_
 _atom_site_type_symbol
 _atom_site_label
 _atom_site_symmetry_multiplicity
 _atom_site_fract_x
 _atom_site_fract_y
 _atom_site_fract_z
 _atom_site_occupancy
  Pr  Pr0  1  0.000000  0.500000  0.525930  1
  Pr  Pr1  1  0.500000  0.000000  0.478208  1
  Pr  Pr2  1  0.500000  0.820027  0.206442  1
  Pr  Pr3  1  0.500000  0.179973  0.206442  1
  Pr  Pr4  1  0.000000  0.681921  0.794244  1
  Pr  Pr5  1  0.000000  0.318079  0.794244  1
  Mg  Mg6  1  0.500000  0.500000  0.151098  1
  Cr  Cr7  1  0.000000  0.000000  0.843055  1
  Co  Co8  1  0.500000  0.500000  0.705976  1
  Co  Co9  1  0.000000  0.000000  0.293947  1
  Co  Co10  1  0.000000  0.500000  0.986401  1
  Co  Co11  1  0.500000  0.000000  0.008883  1
  Co  Co12  1  0.500000  0.328533  0.993151  1
  Co  Co13  1  0.500000  0.671467  0.993151  1
  Co  Co14  1  0.000000  0.162974  0.000869  1
  Co  Co15  1  0.000000  0.837026  0.000869  1
  Co  Co16  1  0.500000  0.294585  0.433639  1
  Co  Co17  1  0.500000  0.705415  0.433639  1
  Co  Co18  1  0.000000  0.201602  0.571524  1
  Co  Co19  1  0.000000  0.798398  0.571524  1
  Co  Co20  1  0.500000  0.882649  0.709968  1
  Co  Co21  1  0.500000  0.117351  0.709968  1
  Co  Co22  1  0.000000  0.620375  0.297293  1
  Co  Co23  1  0.000000  0.379625  0.297293  1
  P  P24  1  0.500000  0.500000  0.887643  1
  P  P25  1  0.000000  0.000000  0.111341  1
  P  P26  1  0.500000  0.500000  0.349220  1
  P  P27  1  0.000000  0.000000  0.658136  1
  P  P28  1  0.500000  0.303629  0.614915  1
  P  P29  1  0.500000  0.696371  0.614915  1
  P  P30  1  0.000000  0.194166  0.388314  1
  P  P31  1  0.000000  0.805834  0.388314  1
  P  P32  1  0.500000  0.850454  0.891747  1
  P  P33  1  0.500000  0.149546  0.891747  1
  P  P34  1  0.000000  0.660557  0.097975  1
  P  P35  1  0.000000  0.339443  0.097975  1
