# generated using pymatgen
data_La4As7Ir8
_symmetry_space_group_name_H-M   'P 1'
_cell_length_a   4.16600300
_cell_length_b   13.31606331
_cell_length_c   13.72505039
_cell_angle_alpha   81.62866569
_cell_angle_beta   90.00000000
_cell_angle_gamma   90.00000000
_symmetry_Int_Tables_number   1
_chemical_formula_structural   La4As7Ir8
_chemical_formula_sum   'La8 As14 Ir16'
_cell_volume   753.28144556
_cell_formula_units_Z   2
loop_
 _symmetry_equiv_pos_site_id
 _symmetry_equiv_pos_as_xyz
  1  'x, y, z'
loop_
 _atom_site_type_symbol
 _atom_site_label
 _atom_site_symmetry_multiplicity
 _atom_site_fract_x
 _atom_site_fract_y
 _atom_site_fract_z
 _atom_site_occupancy
  La  La0  1  0.250000  0.099336  0.791946  1
  La  La1  1  0.750000  0.900664  0.208054  1
  La  La2  1  0.250000  0.286783  0.104385  1
  La  La3  1  0.750000  0.713217  0.895615  1
  La  La4  1  0.250000  0.519049  0.292613  1
  La  La5  1  0.750000  0.480951  0.707387  1
  La  La6  1  0.250000  0.208699  0.438606  1
  La  La7  1  0.750000  0.791301  0.561394  1
  As  As8  1  0.250000  0.057896  0.098672  1
  As  As9  1  0.750000  0.942104  0.901328  1
  As  As10  1  0.250000  0.311230  0.687634  1
  As  As11  1  0.750000  0.688770  0.312366  1
  As  As12  1  0.250000  0.606755  0.565276  1
  As  As13  1  0.750000  0.393245  0.434724  1
  As  As14  1  0.250000  0.847565  0.720756  1
  As  As15  1  0.750000  0.152435  0.279244  1
  As  As16  1  0.750000  0.255992  0.918077  1
  As  As17  1  0.250000  0.744008  0.081923  1
  As  As18  1  0.750000  0.094437  0.587894  1
  As  As19  1  0.250000  0.905563  0.412106  1
  As  As20  1  0.750000  0.473170  0.127247  1
  As  As21  1  0.250000  0.526830  0.872753  1
  Ir  Ir22  1  0.250000  0.988416  0.574561  1
  Ir  Ir23  1  0.750000  0.011584  0.425439  1
  Ir  Ir24  1  0.250000  0.664273  0.733507  1
  Ir  Ir25  1  0.750000  0.335727  0.266493  1
  Ir  Ir26  1  0.250000  0.554717  0.046353  1
  Ir  Ir27  1  0.750000  0.445283  0.953647  1
  Ir  Ir28  1  0.250000  0.055028  0.277835  1
  Ir  Ir29  1  0.750000  0.944972  0.722165  1
  Ir  Ir30  1  0.250000  0.425197  0.526605  1
  Ir  Ir31  1  0.750000  0.574803  0.473395  1
  Ir  Ir32  1  0.250000  0.919621  0.997279  1
  Ir  Ir33  1  0.750000  0.080379  0.002721  1
  Ir  Ir34  1  0.250000  0.722414  0.400652  1
  Ir  Ir35  1  0.750000  0.277586  0.599348  1
  Ir  Ir36  1  0.250000  0.342553  0.861590  1
  Ir  Ir37  1  0.750000  0.657447  0.138410  1
