# generated using pymatgen
data_Er20Cd6PdPt
_symmetry_space_group_name_H-M   'P 1'
_cell_length_a   9.57750500
_cell_length_b   9.57750420
_cell_length_c   9.76559300
_cell_angle_alpha   90.00000000
_cell_angle_beta   90.00000000
_cell_angle_gamma   119.99999931
_symmetry_Int_Tables_number   1
_chemical_formula_structural   Er20Cd6PdPt
_chemical_formula_sum   'Er20 Cd6 Pd1 Pt1'
_cell_volume   775.77180879
_cell_formula_units_Z   1
loop_
 _symmetry_equiv_pos_site_id
 _symmetry_equiv_pos_as_xyz
  1  'x, y, z'
loop_
 _atom_site_type_symbol
 _atom_site_label
 _atom_site_symmetry_multiplicity
 _atom_site_fract_x
 _atom_site_fract_y
 _atom_site_fract_z
 _atom_site_occupancy
  Er  Er0  1  0.208576  0.791424  0.942826  1
  Er  Er1  1  0.208576  0.417153  0.942826  1
  Er  Er2  1  0.582847  0.791424  0.942826  1
  Er  Er3  1  0.791681  0.208319  0.056577  1
  Er  Er4  1  0.791681  0.583360  0.056577  1
  Er  Er5  1  0.416640  0.208319  0.056577  1
  Er  Er6  1  0.791681  0.208319  0.443423  1
  Er  Er7  1  0.791681  0.583360  0.443423  1
  Er  Er8  1  0.416640  0.208319  0.443423  1
  Er  Er9  1  0.208576  0.791424  0.557174  1
  Er  Er10  1  0.208576  0.417153  0.557174  1
  Er  Er11  1  0.582847  0.791424  0.557174  1
  Er  Er12  1  0.542543  0.457457  0.750000  1
  Er  Er13  1  0.542543  0.085085  0.750000  1
  Er  Er14  1  0.914915  0.457457  0.750000  1
  Er  Er15  1  0.457178  0.542822  0.250000  1
  Er  Er16  1  0.457178  0.914357  0.250000  1
  Er  Er17  1  0.085643  0.542822  0.250000  1
  Er  Er18  1  0.000000  0.000000  0.000083  1
  Er  Er19  1  0.000000  0.000000  0.499917  1
  Cd  Cd20  1  0.885271  0.114729  0.750000  1
  Cd  Cd21  1  0.885271  0.770543  0.750000  1
  Cd  Cd22  1  0.229457  0.114729  0.750000  1
  Cd  Cd23  1  0.114651  0.885349  0.250000  1
  Cd  Cd24  1  0.114651  0.229301  0.250000  1
  Cd  Cd25  1  0.770699  0.885349  0.250000  1
  Pd  Pd26  1  0.666667  0.333333  0.250000  1
  Pt  Pt27  1  0.333333  0.666667  0.750000  1
