# generated using pymatgen
data_Ho4MnOs5Ru2
_symmetry_space_group_name_H-M   'P 1'
_cell_length_a   5.30977400
_cell_length_b   5.23721306
_cell_length_c   8.91710500
_cell_angle_alpha   90.00000000
_cell_angle_beta   90.00000000
_cell_angle_gamma   120.45639757
_symmetry_Int_Tables_number   1
_chemical_formula_structural   Ho4MnOs5Ru2
_chemical_formula_sum   'Ho4 Mn1 Os5 Ru2'
_cell_volume   213.75439743
_cell_formula_units_Z   1
loop_
 _symmetry_equiv_pos_site_id
 _symmetry_equiv_pos_as_xyz
  1  'x, y, z'
loop_
 _atom_site_type_symbol
 _atom_site_label
 _atom_site_symmetry_multiplicity
 _atom_site_fract_x
 _atom_site_fract_y
 _atom_site_fract_z
 _atom_site_occupancy
  Ho  Ho0  1  0.667012  0.334227  0.565448  1
  Ho  Ho1  1  0.332685  0.665300  0.434819  1
  Ho  Ho2  1  0.332685  0.665300  0.065181  1
  Ho  Ho3  1  0.667012  0.334227  0.934552  1
  Mn  Mn4  1  0.167520  0.334741  0.750000  1
  Os  Os5  1  0.174550  0.828340  0.750000  1
  Os  Os6  1  0.653591  0.828140  0.750000  1
  Os  Os7  1  0.832373  0.664400  0.250000  1
  Os  Os8  1  0.828277  0.172564  0.250000  1
  Os  Os9  1  0.344471  0.172335  0.250000  1
  Ru  Ru10  1  0.999911  0.000214  0.502589  1
  Ru  Ru11  1  0.999911  0.000214  0.997411  1
