# generated using pymatgen
data_Ho3Tl2InAg2Ir
_symmetry_space_group_name_H-M   'P 1'
_cell_length_a   8.06681254
_cell_length_b   8.09565948
_cell_length_c   3.69332000
_cell_angle_alpha   90.00000000
_cell_angle_beta   90.00000000
_cell_angle_gamma   119.95323249
_symmetry_Int_Tables_number   1
_chemical_formula_structural   Ho3Tl2InAg2Ir
_chemical_formula_sum   'Ho3 Tl2 In1 Ag2 Ir1'
_cell_volume   208.98072900
_cell_formula_units_Z   1
loop_
 _symmetry_equiv_pos_site_id
 _symmetry_equiv_pos_as_xyz
  1  'x, y, z'
loop_
 _atom_site_type_symbol
 _atom_site_label
 _atom_site_symmetry_multiplicity
 _atom_site_fract_x
 _atom_site_fract_y
 _atom_site_fract_z
 _atom_site_occupancy
  Ho  Ho0  1  0.581715  0.616889  0.000000  1
  Ho  Ho1  1  0.378109  0.963639  0.000000  1
  Ho  Ho2  1  0.040187  0.421380  0.000000  1
  Tl  Tl3  1  0.984789  0.716690  0.500000  1
  Tl  Tl4  1  0.282549  0.268511  0.500000  1
  In  In5  1  0.728048  0.009735  0.500000  1
  Ag  Ag6  1  0.992578  0.001323  0.000000  1
  Ag  Ag7  1  0.669750  0.327998  0.500000  1
  Ir  Ir8  1  0.342276  0.673835  0.500000  1
