# generated using pymatgen
data_MnHg2SO6
_symmetry_space_group_name_H-M   'P 1'
_cell_length_a   6.73920869
_cell_length_b   7.27018786
_cell_length_c   7.45687727
_cell_angle_alpha   73.67974265
_cell_angle_beta   66.43208303
_cell_angle_gamma   63.88418350
_symmetry_Int_Tables_number   1
_chemical_formula_structural   MnHg2SO6
_chemical_formula_sum   'Mn2 Hg4 S2 O12'
_cell_volume   298.23063246
_cell_formula_units_Z   2
loop_
 _symmetry_equiv_pos_site_id
 _symmetry_equiv_pos_as_xyz
  1  'x, y, z'
loop_
 _atom_site_type_symbol
 _atom_site_label
 _atom_site_symmetry_multiplicity
 _atom_site_fract_x
 _atom_site_fract_y
 _atom_site_fract_z
 _atom_site_occupancy
  Mn  Mn0  1  0.667071  0.870529  0.784565  1
  Mn  Mn1  1  0.332929  0.129471  0.215435  1
  Hg  Hg2  1  0.157151  0.360744  0.788609  1
  Hg  Hg3  1  0.341216  0.635281  0.212810  1
  Hg  Hg4  1  0.658784  0.364719  0.787190  1
  Hg  Hg5  1  0.842849  0.639256  0.211391  1
  S  S6  1  0.212554  0.868423  0.683429  1
  S  S7  1  0.787446  0.131577  0.316571  1
  O  O8  1  0.033346  0.104783  0.188790  1
  O  O9  1  0.966654  0.895217  0.811210  1
  O  O10  1  0.545423  0.811419  0.129941  1
  O  O11  1  0.343816  0.844725  0.815412  1
  O  O12  1  0.454577  0.188581  0.870059  1
  O  O13  1  0.787880  0.941537  0.461967  1
  O  O14  1  0.842295  0.544052  0.746030  1
  O  O15  1  0.212120  0.058463  0.538033  1
  O  O16  1  0.157705  0.455948  0.253970  1
  O  O17  1  0.677828  0.318341  0.417110  1
  O  O18  1  0.322172  0.681659  0.582890  1
  O  O19  1  0.656184  0.155275  0.184588  1
