# generated using pymatgen
data_Tb2HoCo8P6Ru
_symmetry_space_group_name_H-M   'P 1'
_cell_length_a   3.70694600
_cell_length_b   10.52167900
_cell_length_c   12.25057300
_cell_angle_alpha   90.00000000
_cell_angle_beta   90.00000000
_cell_angle_gamma   90.00000000
_symmetry_Int_Tables_number   1
_chemical_formula_structural   Tb2HoCo8P6Ru
_chemical_formula_sum   'Tb4 Ho2 Co16 P12 Ru2'
_cell_volume   477.81272345
_cell_formula_units_Z   2
loop_
 _symmetry_equiv_pos_site_id
 _symmetry_equiv_pos_as_xyz
  1  'x, y, z'
loop_
 _atom_site_type_symbol
 _atom_site_label
 _atom_site_symmetry_multiplicity
 _atom_site_fract_x
 _atom_site_fract_y
 _atom_site_fract_z
 _atom_site_occupancy
  Tb  Tb0  1  0.000000  0.500000  0.524207  1
  Tb  Tb1  1  0.500000  0.000000  0.475671  1
  Tb  Tb2  1  0.000000  0.682903  0.793332  1
  Tb  Tb3  1  0.000000  0.317097  0.793332  1
  Ho  Ho4  1  0.500000  0.817157  0.206699  1
  Ho  Ho5  1  0.500000  0.182843  0.206699  1
  Co  Co6  1  0.500000  0.500000  0.704065  1
  Co  Co7  1  0.000000  0.000000  0.295555  1
  Co  Co8  1  0.000000  0.500000  0.986359  1
  Co  Co9  1  0.500000  0.000000  0.013905  1
  Co  Co10  1  0.500000  0.332424  0.990887  1
  Co  Co11  1  0.500000  0.667576  0.990887  1
  Co  Co12  1  0.000000  0.167455  0.009518  1
  Co  Co13  1  0.000000  0.832545  0.009518  1
  Co  Co14  1  0.500000  0.296935  0.430695  1
  Co  Co15  1  0.500000  0.703065  0.430695  1
  Co  Co16  1  0.000000  0.202984  0.569108  1
  Co  Co17  1  0.000000  0.797016  0.569108  1
  Co  Co18  1  0.500000  0.879406  0.708203  1
  Co  Co19  1  0.500000  0.120594  0.708203  1
  Co  Co20  1  0.000000  0.620952  0.291631  1
  Co  Co21  1  0.000000  0.379048  0.291631  1
  P  P22  1  0.500000  0.500000  0.882449  1
  P  P23  1  0.000000  0.000000  0.118080  1
  P  P24  1  0.500000  0.500000  0.349325  1
  P  P25  1  0.000000  0.000000  0.650665  1
  P  P26  1  0.500000  0.310842  0.615901  1
  P  P27  1  0.500000  0.689158  0.615901  1
  P  P28  1  0.000000  0.189035  0.383617  1
  P  P29  1  0.000000  0.810965  0.383617  1
  P  P30  1  0.500000  0.846677  0.893828  1
  P  P31  1  0.500000  0.153323  0.893828  1
  P  P32  1  0.000000  0.653730  0.106451  1
  P  P33  1  0.000000  0.346270  0.106451  1
  Ru  Ru34  1  0.500000  0.500000  0.158982  1
  Ru  Ru35  1  0.000000  0.000000  0.840995  1
