# generated using pymatgen
data_Pu8Nb11Si16Os
_symmetry_space_group_name_H-M   'P 1'
_cell_length_a   6.82164300
_cell_length_b   7.08349669
_cell_length_c   13.42580700
_cell_angle_alpha   90.00000000
_cell_angle_beta   90.00000000
_cell_angle_gamma   90.15126563
_symmetry_Int_Tables_number   1
_chemical_formula_structural   Pu8Nb11Si16Os
_chemical_formula_sum   'Pu8 Nb11 Si16 Os1'
_cell_volume   648.74730818
_cell_formula_units_Z   1
loop_
 _symmetry_equiv_pos_site_id
 _symmetry_equiv_pos_as_xyz
  1  'x, y, z'
loop_
 _atom_site_type_symbol
 _atom_site_label
 _atom_site_symmetry_multiplicity
 _atom_site_fract_x
 _atom_site_fract_y
 _atom_site_fract_z
 _atom_site_occupancy
  Pu  Pu0  1  0.493858  0.667732  0.591941  1
  Pu  Pu1  1  0.003933  0.834060  0.908093  1
  Pu  Pu2  1  0.498439  0.333112  0.091118  1
  Pu  Pu3  1  0.999543  0.171056  0.408413  1
  Pu  Pu4  1  0.498439  0.333112  0.408882  1
  Pu  Pu5  1  0.999543  0.171056  0.091587  1
  Pu  Pu6  1  0.493858  0.667732  0.908059  1
  Pu  Pu7  1  0.003933  0.834060  0.591907  1
  Nb  Nb8  1  0.664644  0.171629  0.626308  1
  Nb  Nb9  1  0.167644  0.327064  0.874066  1
  Nb  Nb10  1  0.337694  0.827002  0.126677  1
  Nb  Nb11  1  0.834177  0.672974  0.374784  1
  Nb  Nb12  1  0.337694  0.827002  0.373323  1
  Nb  Nb13  1  0.834177  0.672974  0.125216  1
  Nb  Nb14  1  0.664644  0.171629  0.873692  1
  Nb  Nb15  1  0.167644  0.327064  0.625934  1
  Nb  Nb16  1  0.338759  0.003041  0.750000  1
  Nb  Nb17  1  0.163697  0.504118  0.250000  1
  Nb  Nb18  1  0.663080  0.997199  0.250000  1
  Si  Si19  1  0.661370  0.962862  0.457665  1
  Si  Si20  1  0.162143  0.538745  0.042185  1
  Si  Si21  1  0.340710  0.039558  0.959294  1
  Si  Si22  1  0.837486  0.462318  0.546232  1
  Si  Si23  1  0.340710  0.039558  0.540706  1
  Si  Si24  1  0.837486  0.462318  0.953768  1
  Si  Si25  1  0.661370  0.962862  0.042335  1
  Si  Si26  1  0.162143  0.538745  0.457815  1
  Si  Si27  1  0.468899  0.380841  0.750000  1
  Si  Si28  1  0.959518  0.123885  0.750000  1
  Si  Si29  1  0.539281  0.618642  0.250000  1
  Si  Si30  1  0.038663  0.880269  0.250000  1
  Si  Si31  1  0.706355  0.858444  0.750000  1
  Si  Si32  1  0.189091  0.625419  0.750000  1
  Si  Si33  1  0.298271  0.133414  0.250000  1
  Si  Si34  1  0.793952  0.370707  0.250000  1
  Os  Os35  1  0.837154  0.487797  0.750000  1
