# generated using pymatgen
data_Y2B4Ir2Ru3
_symmetry_space_group_name_H-M   'P 1'
_cell_length_a   7.51988363
_cell_length_b   6.41898297
_cell_length_c   5.52816111
_cell_angle_alpha   77.56390662
_cell_angle_beta   56.44928492
_cell_angle_gamma   45.93060012
_symmetry_Int_Tables_number   1
_chemical_formula_structural   Y2B4Ir2Ru3
_chemical_formula_sum   'Y2 B4 Ir2 Ru3'
_cell_volume   153.28482903
_cell_formula_units_Z   1
loop_
 _symmetry_equiv_pos_site_id
 _symmetry_equiv_pos_as_xyz
  1  'x, y, z'
loop_
 _atom_site_type_symbol
 _atom_site_label
 _atom_site_symmetry_multiplicity
 _atom_site_fract_x
 _atom_site_fract_y
 _atom_site_fract_z
 _atom_site_occupancy
  Y  Y0  1  0.860893  0.859826  0.138802  1
  Y  Y1  1  0.139346  0.140025  0.861071  1
  B  B2  1  0.465288  0.797023  0.209093  1
  B  B3  1  0.208514  0.529219  0.465940  1
  B  B4  1  0.798231  0.464157  0.527335  1
  B  B5  1  0.527769  0.209753  0.797776  1
  Ir  Ir6  1  0.500272  0.499760  0.499795  1
  Ir  Ir7  1  0.749577  0.750337  0.749608  1
  Ru  Ru8  1  0.499850  0.500324  0.999904  1
  Ru  Ru9  1  0.250380  0.249688  0.250652  1
  Ru  Ru10  1  0.999888  0.999883  0.500019  1
