# generated using pymatgen
data_Li3ScAs6Ir7
_symmetry_space_group_name_H-M   'P 1'
_cell_length_a   6.95972216
_cell_length_b   7.03846823
_cell_length_c   7.03846752
_cell_angle_alpha   109.69673424
_cell_angle_beta   109.24474282
_cell_angle_gamma   109.24475041
_symmetry_Int_Tables_number   1
_chemical_formula_structural   Li3ScAs6Ir7
_chemical_formula_sum   'Li3 Sc1 As6 Ir7'
_cell_volume   266.15372114
_cell_formula_units_Z   1
loop_
 _symmetry_equiv_pos_site_id
 _symmetry_equiv_pos_as_xyz
  1  'x, y, z'
loop_
 _atom_site_type_symbol
 _atom_site_label
 _atom_site_symmetry_multiplicity
 _atom_site_fract_x
 _atom_site_fract_y
 _atom_site_fract_z
 _atom_site_occupancy
  Li  Li0  1  0.000000  0.000000  0.500000  1
  Li  Li1  1  0.000000  0.500000  0.000000  1
  Li  Li2  1  0.500000  0.500000  0.500000  1
  Sc  Sc3  1  0.500000  0.000000  0.000000  1
  As  As4  1  0.693371  0.683103  0.000000  1
  As  As5  1  0.306629  0.316897  0.000000  1
  As  As6  1  0.989733  0.683103  0.683103  1
  As  As7  1  0.010267  0.316897  0.316897  1
  As  As8  1  0.693371  0.000000  0.683103  1
  As  As9  1  0.306629  0.000000  0.316897  1
  Ir  Ir10  1  0.000000  0.000000  0.000000  1
  Ir  Ir11  1  0.250865  0.501731  0.750865  1
  Ir  Ir12  1  0.749135  0.249135  0.498269  1
  Ir  Ir13  1  0.500000  0.249135  0.750865  1
  Ir  Ir14  1  0.500000  0.750865  0.249135  1
  Ir  Ir15  1  0.749135  0.498269  0.249135  1
  Ir  Ir16  1  0.250865  0.750865  0.501731  1
