# generated using pymatgen
data_Dy3HoTm12(CdNi)4
_symmetry_space_group_name_H-M   'P 1'
_cell_length_a   9.46012209
_cell_length_b   9.46012197
_cell_length_c   9.46012107
_cell_angle_alpha   59.97152453
_cell_angle_beta   59.97152344
_cell_angle_gamma   59.97153058
_symmetry_Int_Tables_number   1
_chemical_formula_structural   Dy3HoTm12(CdNi)4
_chemical_formula_sum   'Dy3 Ho1 Tm12 Cd4 Ni4'
_cell_volume   598.26647134
_cell_formula_units_Z   1
loop_
 _symmetry_equiv_pos_site_id
 _symmetry_equiv_pos_as_xyz
  1  'x, y, z'
loop_
 _atom_site_type_symbol
 _atom_site_label
 _atom_site_symmetry_multiplicity
 _atom_site_fract_x
 _atom_site_fract_y
 _atom_site_fract_z
 _atom_site_occupancy
  Dy  Dy0  1  0.349300  0.349300  0.952309  1
  Dy  Dy1  1  0.349300  0.952309  0.349300  1
  Dy  Dy2  1  0.952309  0.349300  0.349300  1
  Ho  Ho3  1  0.349240  0.349240  0.349240  1
  Tm  Tm4  1  0.811388  0.188546  0.188546  1
  Tm  Tm5  1  0.188324  0.811636  0.811636  1
  Tm  Tm6  1  0.188546  0.811388  0.188546  1
  Tm  Tm7  1  0.811636  0.188324  0.811636  1
  Tm  Tm8  1  0.188546  0.188546  0.811388  1
  Tm  Tm9  1  0.811636  0.811636  0.188324  1
  Tm  Tm10  1  0.935913  0.564077  0.564077  1
  Tm  Tm11  1  0.564091  0.935831  0.935831  1
  Tm  Tm12  1  0.564077  0.935913  0.564077  1
  Tm  Tm13  1  0.935831  0.564091  0.935831  1
  Tm  Tm14  1  0.564077  0.564077  0.935913  1
  Tm  Tm15  1  0.935831  0.935831  0.564091  1
  Cd  Cd16  1  0.582155  0.582155  0.582155  1
  Cd  Cd17  1  0.581944  0.581944  0.253367  1
  Cd  Cd18  1  0.581944  0.253367  0.581944  1
  Cd  Cd19  1  0.253367  0.581944  0.581944  1
  Ni  Ni20  1  0.141579  0.141579  0.141579  1
  Ni  Ni21  1  0.142259  0.142259  0.574447  1
  Ni  Ni22  1  0.142259  0.574447  0.142259  1
  Ni  Ni23  1  0.574447  0.142259  0.142259  1
