# generated using pymatgen
data_Y2Nb3Co9As7
_symmetry_space_group_name_H-M   'P 1'
_cell_length_a   3.83021800
_cell_length_b   9.57134036
_cell_length_c   9.57134000
_cell_angle_alpha   119.99999877
_cell_angle_beta   90.00000000
_cell_angle_gamma   90.00000000
_symmetry_Int_Tables_number   1
_chemical_formula_structural   Y2Nb3Co9As7
_chemical_formula_sum   'Y2 Nb3 Co9 As7'
_cell_volume   303.87826198
_cell_formula_units_Z   1
loop_
 _symmetry_equiv_pos_site_id
 _symmetry_equiv_pos_as_xyz
  1  'x, y, z'
loop_
 _atom_site_type_symbol
 _atom_site_label
 _atom_site_symmetry_multiplicity
 _atom_site_fract_x
 _atom_site_fract_y
 _atom_site_fract_z
 _atom_site_occupancy
  Y  Y0  1  0.000000  0.666667  0.333333  1
  Y  Y1  1  0.500000  0.333333  0.666667  1
  Nb  Nb2  1  0.500000  0.776089  0.896800  1
  Nb  Nb3  1  0.500000  0.120711  0.223911  1
  Nb  Nb4  1  0.500000  0.103200  0.879289  1
  Co  Co5  1  0.000000  0.570774  0.937766  1
  Co  Co6  1  0.000000  0.366992  0.429226  1
  Co  Co7  1  0.000000  0.062234  0.633008  1
  Co  Co8  1  0.000000  0.876978  0.160397  1
  Co  Co9  1  0.000000  0.283419  0.123022  1
  Co  Co10  1  0.000000  0.839603  0.716581  1
  Co  Co11  1  0.500000  0.948324  0.385195  1
  Co  Co12  1  0.500000  0.436870  0.051676  1
  Co  Co13  1  0.500000  0.614805  0.563130  1
  As  As14  1  0.000000  0.000000  0.000000  1
  As  As15  1  0.500000  0.708877  0.124212  1
  As  As16  1  0.500000  0.415334  0.291123  1
  As  As17  1  0.500000  0.875788  0.584666  1
  As  As18  1  0.000000  0.580542  0.692076  1
  As  As19  1  0.000000  0.111534  0.419458  1
  As  As20  1  0.000000  0.307924  0.888466  1
