# generated using pymatgen
data_NbCoBrO3
_symmetry_space_group_name_H-M   'P 1'
_cell_length_a   3.87549818
_cell_length_b   8.87277789
_cell_length_c   9.14176610
_cell_angle_alpha   54.61672253
_cell_angle_beta   77.81136022
_cell_angle_gamma   89.92292959
_symmetry_Int_Tables_number   1
_chemical_formula_structural   NbCoBrO3
_chemical_formula_sum   'Nb2 Co2 Br2 O6'
_cell_volume   247.61334441
_cell_formula_units_Z   2
loop_
 _symmetry_equiv_pos_site_id
 _symmetry_equiv_pos_as_xyz
  1  'x, y, z'
loop_
 _atom_site_type_symbol
 _atom_site_label
 _atom_site_symmetry_multiplicity
 _atom_site_fract_x
 _atom_site_fract_y
 _atom_site_fract_z
 _atom_site_occupancy
  Nb  Nb0  1  0.660602  0.828756  0.180848  1
  Nb  Nb1  1  0.339379  0.171169  0.819123  1
  Co  Co2  1  0.578970  0.332002  0.342299  1
  Co  Co3  1  0.421053  0.668043  0.657755  1
  Br  Br4  1  0.137505  0.261106  0.225038  1
  Br  Br5  1  0.862464  0.738980  0.775070  1
  O  O6  1  0.203714  0.900138  0.093668  1
  O  O7  1  0.624041  0.589322  0.255423  1
  O  O8  1  0.556648  0.818775  0.389386  1
  O  O9  1  0.443333  0.181222  0.610631  1
  O  O10  1  0.376004  0.410714  0.744486  1
  O  O11  1  0.796282  0.099770  0.906273  1
