# generated using pymatgen
data_Tb4Ga4Ru3Rh
_symmetry_space_group_name_H-M   'P 1'
_cell_length_a   4.52765000
_cell_length_b   7.20927537
_cell_length_c   7.15841954
_cell_angle_alpha   90.00631030
_cell_angle_beta   90.00000000
_cell_angle_gamma   90.00000000
_symmetry_Int_Tables_number   1
_chemical_formula_structural   Tb4Ga4Ru3Rh
_chemical_formula_sum   'Tb4 Ga4 Ru3 Rh1'
_cell_volume   233.65851225
_cell_formula_units_Z   1
loop_
 _symmetry_equiv_pos_site_id
 _symmetry_equiv_pos_as_xyz
  1  'x, y, z'
loop_
 _atom_site_type_symbol
 _atom_site_label
 _atom_site_symmetry_multiplicity
 _atom_site_fract_x
 _atom_site_fract_y
 _atom_site_fract_z
 _atom_site_occupancy
  Tb  Tb0  1  0.250000  0.018476  0.803588  1
  Tb  Tb1  1  0.250000  0.520446  0.695408  1
  Tb  Tb2  1  0.750000  0.982047  0.197993  1
  Tb  Tb3  1  0.750000  0.476734  0.305131  1
  Ga  Ga4  1  0.250000  0.198149  0.395487  1
  Ga  Ga5  1  0.250000  0.692409  0.111284  1
  Ga  Ga6  1  0.750000  0.802754  0.600673  1
  Ga  Ga7  1  0.750000  0.302751  0.894286  1
  Ru  Ru8  1  0.250000  0.843212  0.434758  1
  Ru  Ru9  1  0.250000  0.340792  0.063547  1
  Ru  Ru10  1  0.750000  0.160990  0.564252  1
  Rh  Rh11  1  0.750000  0.661241  0.933592  1
