# generated using pymatgen
data_Pr10Bi4PPb2Br
_symmetry_space_group_name_H-M   'P 1'
_cell_length_a   9.67013191
_cell_length_b   9.61239002
_cell_length_c   6.91337279
_cell_angle_alpha   90.09738846
_cell_angle_beta   89.80638583
_cell_angle_gamma   120.19890369
_symmetry_Int_Tables_number   1
_chemical_formula_structural   Pr10Bi4PPb2Br
_chemical_formula_sum   'Pr10 Bi4 P1 Pb2 Br1'
_cell_volume   555.40267412
_cell_formula_units_Z   1
loop_
 _symmetry_equiv_pos_site_id
 _symmetry_equiv_pos_as_xyz
  1  'x, y, z'
loop_
 _atom_site_type_symbol
 _atom_site_label
 _atom_site_symmetry_multiplicity
 _atom_site_fract_x
 _atom_site_fract_y
 _atom_site_fract_z
 _atom_site_occupancy
  Pr  Pr0  1  0.252013  0.000000  0.733029  1
  Pr  Pr1  1  0.747987  0.000000  0.266971  1
  Pr  Pr2  1  0.998414  0.250428  0.732496  1
  Pr  Pr3  1  0.001586  0.749572  0.267504  1
  Pr  Pr4  1  0.747986  0.749572  0.732496  1
  Pr  Pr5  1  0.252014  0.250428  0.267504  1
  Pr  Pr6  1  0.334060  0.668121  0.500000  1
  Pr  Pr7  1  0.665940  0.331879  0.500000  1
  Pr  Pr8  1  0.665530  0.331059  0.000000  1
  Pr  Pr9  1  0.334470  0.668941  0.000000  1
  Bi  Bi10  1  0.000127  0.608026  0.751410  1
  Bi  Bi11  1  0.999873  0.391974  0.248590  1
  Bi  Bi12  1  0.392100  0.391974  0.751410  1
  Bi  Bi13  1  0.607900  0.608026  0.248590  1
  P  P14  1  0.000000  0.000000  0.500000  1
  Pb  Pb15  1  0.607160  0.000000  0.750980  1
  Pb  Pb16  1  0.392840  0.000000  0.249020  1
  Br  Br17  1  0.000000  0.000000  0.000000  1
