# generated using pymatgen
data_Nd3CdSn2Pt3
_symmetry_space_group_name_H-M   'P 1'
_cell_length_a   7.69847613
_cell_length_b   7.76291063
_cell_length_c   4.06260900
_cell_angle_alpha   90.00000000
_cell_angle_beta   90.00000000
_cell_angle_gamma   120.27725321
_symmetry_Int_Tables_number   1
_chemical_formula_structural   Nd3CdSn2Pt3
_chemical_formula_sum   'Nd3 Cd1 Sn2 Pt3'
_cell_volume   209.67415132
_cell_formula_units_Z   1
loop_
 _symmetry_equiv_pos_site_id
 _symmetry_equiv_pos_as_xyz
  1  'x, y, z'
loop_
 _atom_site_type_symbol
 _atom_site_label
 _atom_site_symmetry_multiplicity
 _atom_site_fract_x
 _atom_site_fract_y
 _atom_site_fract_z
 _atom_site_occupancy
  Nd  Nd0  1  0.596216  0.591807  0.000000  1
  Nd  Nd1  1  0.403784  0.995591  0.000000  1
  Nd  Nd2  1  0.000000  0.414572  0.000000  1
  Cd  Cd3  1  0.000000  0.744518  0.500000  1
  Sn  Sn4  1  0.253082  0.251811  0.500000  1
  Sn  Sn5  1  0.746918  0.998729  0.500000  1
  Pt  Pt6  1  0.000000  0.010352  0.000000  1
  Pt  Pt7  1  0.338014  0.665317  0.500000  1
  Pt  Pt8  1  0.661986  0.327302  0.500000  1
