# generated using pymatgen
data_Ac2LaThIr8
_symmetry_space_group_name_H-M   'P 1'
_cell_length_a   9.56409433
_cell_length_b   9.56409444
_cell_length_c   9.56409516
_cell_angle_alpha   33.53721061
_cell_angle_beta   33.53720986
_cell_angle_gamma   33.53720411
_symmetry_Int_Tables_number   1
_chemical_formula_structural   Ac2LaThIr8
_chemical_formula_sum   'Ac2 La1 Th1 Ir8'
_cell_volume   237.84322181
_cell_formula_units_Z   1
loop_
 _symmetry_equiv_pos_site_id
 _symmetry_equiv_pos_as_xyz
  1  'x, y, z'
loop_
 _atom_site_type_symbol
 _atom_site_label
 _atom_site_symmetry_multiplicity
 _atom_site_fract_x
 _atom_site_fract_y
 _atom_site_fract_z
 _atom_site_occupancy
  Ac  Ac0  1  0.624898  0.624898  0.624898  1
  Ac  Ac1  1  0.001177  0.001177  0.001177  1
  La  La2  1  0.124941  0.124941  0.124941  1
  Th  Th3  1  0.498554  0.498554  0.498554  1
  Ir  Ir4  1  0.563863  0.563863  0.068046  1
  Ir  Ir5  1  0.061428  0.061428  0.556738  1
  Ir  Ir6  1  0.563863  0.068046  0.563863  1
  Ir  Ir7  1  0.061428  0.556738  0.061428  1
  Ir  Ir8  1  0.812593  0.812593  0.812593  1
  Ir  Ir9  1  0.312475  0.312475  0.312475  1
  Ir  Ir10  1  0.068046  0.563863  0.563863  1
  Ir  Ir11  1  0.556738  0.061428  0.061428  1
