# generated using pymatgen
data_TbTh3(Pt2Pb)2
_symmetry_space_group_name_H-M   'P 1'
_cell_length_a   8.07008348
_cell_length_b   8.07008348
_cell_length_c   3.76568800
_cell_angle_alpha   90.00000000
_cell_angle_beta   90.00000000
_cell_angle_gamma   90.38044926
_symmetry_Int_Tables_number   1
_chemical_formula_structural   TbTh3(Pt2Pb)2
_chemical_formula_sum   'Tb1 Th3 Pt4 Pb2'
_cell_volume   245.23972153
_cell_formula_units_Z   1
loop_
 _symmetry_equiv_pos_site_id
 _symmetry_equiv_pos_as_xyz
  1  'x, y, z'
loop_
 _atom_site_type_symbol
 _atom_site_label
 _atom_site_symmetry_multiplicity
 _atom_site_fract_x
 _atom_site_fract_y
 _atom_site_fract_z
 _atom_site_occupancy
  Tb  Tb0  1  0.671442  0.828558  0.499999  1
  Th  Th1  1  0.332829  0.167171  0.499999  1
  Th  Th2  1  0.827852  0.329907  0.499999  1
  Th  Th3  1  0.170093  0.672148  0.499999  1
  Pt  Pt4  1  0.626773  0.129485  0.000000  1
  Pt  Pt5  1  0.129128  0.370872  0.000000  1
  Pt  Pt6  1  0.874621  0.625379  0.000000  1
  Pt  Pt7  1  0.370515  0.873227  0.000000  1
  Pb  Pb8  1  0.993597  0.996850  0.000000  1
  Pb  Pb9  1  0.503150  0.506403  0.000000  1
