# generated using pymatgen
data_CaPr6CoCl12
_symmetry_space_group_name_H-M   'P 1'
_cell_length_a   9.34183392
_cell_length_b   9.15003629
_cell_length_c   9.33733967
_cell_angle_alpha   106.88397974
_cell_angle_beta   107.48033272
_cell_angle_gamma   106.68859715
_symmetry_Int_Tables_number   1
_chemical_formula_structural   CaPr6CoCl12
_chemical_formula_sum   'Ca1 Pr6 Co1 Cl12'
_cell_volume   664.35043988
_cell_formula_units_Z   1
loop_
 _symmetry_equiv_pos_site_id
 _symmetry_equiv_pos_as_xyz
  1  'x, y, z'
loop_
 _atom_site_type_symbol
 _atom_site_label
 _atom_site_symmetry_multiplicity
 _atom_site_fract_x
 _atom_site_fract_y
 _atom_site_fract_z
 _atom_site_occupancy
  Ca  Ca0  1  0.500000  0.500000  0.500000  1
  Pr  Pr1  1  0.107620  0.308088  0.022243  1
  Pr  Pr2  1  0.321127  0.020827  0.114686  1
  Pr  Pr3  1  0.023141  0.114857  0.321051  1
  Pr  Pr4  1  0.976860  0.885143  0.678950  1
  Pr  Pr5  1  0.678873  0.979174  0.885314  1
  Pr  Pr6  1  0.892380  0.691912  0.977757  1
  Co  Co7  1  0.000000  0.000000  0.000000  1
  Cl  Cl8  1  0.208583  0.680250  0.068976  1
  Cl  Cl9  1  0.452344  0.372228  0.175342  1
  Cl  Cl10  1  0.685050  0.070902  0.208350  1
  Cl  Cl11  1  0.928910  0.788660  0.314319  1
  Cl  Cl12  1  0.175947  0.456807  0.372118  1
  Cl  Cl13  1  0.370826  0.169981  0.453745  1
  Cl  Cl14  1  0.629174  0.830019  0.546256  1
  Cl  Cl15  1  0.824054  0.543193  0.627882  1
  Cl  Cl16  1  0.071091  0.211340  0.685682  1
  Cl  Cl17  1  0.314951  0.929099  0.791650  1
  Cl  Cl18  1  0.547656  0.627772  0.824659  1
  Cl  Cl19  1  0.791417  0.319750  0.931024  1
