# generated using pymatgen
data_HoErLuGa5Pd
_symmetry_space_group_name_H-M   'P 1'
_cell_length_a   6.86785518
_cell_length_b   6.88000074
_cell_length_c   4.28320200
_cell_angle_alpha   90.00000000
_cell_angle_beta   90.00000000
_cell_angle_gamma   119.67576009
_symmetry_Int_Tables_number   1
_chemical_formula_structural   HoErLuGa5Pd
_chemical_formula_sum   'Ho1 Er1 Lu1 Ga5 Pd1'
_cell_volume   175.84033476
_cell_formula_units_Z   1
loop_
 _symmetry_equiv_pos_site_id
 _symmetry_equiv_pos_as_xyz
  1  'x, y, z'
loop_
 _atom_site_type_symbol
 _atom_site_label
 _atom_site_symmetry_multiplicity
 _atom_site_fract_x
 _atom_site_fract_y
 _atom_site_fract_z
 _atom_site_occupancy
  Ho  Ho0  1  0.581607  0.999088  0.000000  1
  Er  Er1  1  0.998791  0.581997  0.000000  1
  Lu  Lu2  1  0.415543  0.415865  0.000000  1
  Ga  Ga3  1  0.243107  0.000433  0.500000  1
  Ga  Ga4  1  0.000326  0.243299  0.500000  1
  Ga  Ga5  1  0.757155  0.757209  0.500000  1
  Ga  Ga6  1  0.333637  0.664668  0.500000  1
  Ga  Ga7  1  0.665624  0.335152  0.500000  1
  Pd  Pd8  1  0.004208  0.002290  0.000000  1
