# generated using pymatgen
data_Gd6Zn22PRh
_symmetry_space_group_name_H-M   'P 1'
_cell_length_a   8.97402731
_cell_length_b   8.97402743
_cell_length_c   8.97402700
_cell_angle_alpha   60.00000527
_cell_angle_beta   60.00000482
_cell_angle_gamma   60.00000153
_symmetry_Int_Tables_number   1
_chemical_formula_structural   Gd6Zn22PRh
_chemical_formula_sum   'Gd6 Zn22 P1 Rh1'
_cell_volume   511.03093588
_cell_formula_units_Z   1
loop_
 _symmetry_equiv_pos_site_id
 _symmetry_equiv_pos_as_xyz
  1  'x, y, z'
loop_
 _atom_site_type_symbol
 _atom_site_label
 _atom_site_symmetry_multiplicity
 _atom_site_fract_x
 _atom_site_fract_y
 _atom_site_fract_z
 _atom_site_occupancy
  Gd  Gd0  1  0.712634  0.287366  0.287366  1
  Gd  Gd1  1  0.287366  0.712634  0.712634  1
  Gd  Gd2  1  0.287366  0.712634  0.287366  1
  Gd  Gd3  1  0.712634  0.287366  0.712634  1
  Gd  Gd4  1  0.287366  0.287366  0.712634  1
  Gd  Gd5  1  0.712634  0.712634  0.287366  1
  Zn  Zn6  1  0.120003  0.120003  0.120003  1
  Zn  Zn7  1  0.879997  0.879997  0.879997  1
  Zn  Zn8  1  0.120003  0.120003  0.639992  1
  Zn  Zn9  1  0.120003  0.639992  0.120003  1
  Zn  Zn10  1  0.879997  0.879997  0.360008  1
  Zn  Zn11  1  0.879997  0.360008  0.879997  1
  Zn  Zn12  1  0.639992  0.120003  0.120003  1
  Zn  Zn13  1  0.360008  0.879997  0.879997  1
  Zn  Zn14  1  0.500000  0.000000  0.000000  1
  Zn  Zn15  1  0.000000  0.500000  0.500000  1
  Zn  Zn16  1  0.000000  0.500000  0.000000  1
  Zn  Zn17  1  0.500000  0.000000  0.500000  1
  Zn  Zn18  1  0.000000  0.000000  0.500000  1
  Zn  Zn19  1  0.500000  0.500000  0.000000  1
  Zn  Zn20  1  0.328301  0.328301  0.328301  1
  Zn  Zn21  1  0.671699  0.671699  0.671699  1
  Zn  Zn22  1  0.328301  0.328301  0.015095  1
  Zn  Zn23  1  0.328301  0.015095  0.328301  1
  Zn  Zn24  1  0.671699  0.671699  0.984905  1
  Zn  Zn25  1  0.671699  0.984905  0.671699  1
  Zn  Zn26  1  0.015095  0.328301  0.328301  1
  Zn  Zn27  1  0.984905  0.671699  0.671699  1
  P  P28  1  0.500000  0.500000  0.500000  1
  Rh  Rh29  1  0.000000  0.000000  0.000000  1
