# generated using pymatgen
data_Y12InNi4Hg
_symmetry_space_group_name_H-M   'P 1'
_cell_length_a   8.47636306
_cell_length_b   8.47636359
_cell_length_c   8.47636396
_cell_angle_alpha   112.69966979
_cell_angle_beta   108.91429951
_cell_angle_gamma   106.85470660
_symmetry_Int_Tables_number   1
_chemical_formula_structural   Y12InNi4Hg
_chemical_formula_sum   'Y12 In1 Ni4 Hg1'
_cell_volume   467.55511622
_cell_formula_units_Z   1
loop_
 _symmetry_equiv_pos_site_id
 _symmetry_equiv_pos_as_xyz
  1  'x, y, z'
loop_
 _atom_site_type_symbol
 _atom_site_label
 _atom_site_symmetry_multiplicity
 _atom_site_fract_x
 _atom_site_fract_y
 _atom_site_fract_z
 _atom_site_occupancy
  Y  Y0  1  0.429648  0.226215  0.203434  1
  Y  Y1  1  0.570352  0.773785  0.796566  1
  Y  Y2  1  0.022781  0.226215  0.796566  1
  Y  Y3  1  0.977219  0.773785  0.203434  1
  Y  Y4  1  0.182302  0.295512  0.477815  1
  Y  Y5  1  0.817698  0.704488  0.522185  1
  Y  Y6  1  0.182302  0.704488  0.886790  1
  Y  Y7  1  0.817698  0.295512  0.113210  1
  Y  Y8  1  0.324043  0.628629  0.304585  1
  Y  Y9  1  0.675957  0.371371  0.695415  1
  Y  Y10  1  0.324043  0.019458  0.695415  1
  Y  Y11  1  0.675957  0.980542  0.304585  1
  In  In12  1  0.500000  0.500000  0.000000  1
  Ni  Ni13  1  0.365367  0.000000  0.365367  1
  Ni  Ni14  1  0.634633  0.000000  0.634633  1
  Ni  Ni15  1  0.124914  0.624914  0.500000  1
  Ni  Ni16  1  0.875086  0.375086  0.500000  1
  Hg  Hg17  1  0.000000  0.000000  0.000000  1
