# generated using pymatgen
data_TbHo15Cd4Co3Ru
_symmetry_space_group_name_H-M   'P 1'
_cell_length_a   9.50829173
_cell_length_b   9.47345162
_cell_length_c   9.48500200
_cell_angle_alpha   59.95965979
_cell_angle_beta   60.08099291
_cell_angle_gamma   60.01789506
_symmetry_Int_Tables_number   1
_chemical_formula_structural   TbHo15Cd4Co3Ru
_chemical_formula_sum   'Tb1 Ho15 Cd4 Co3 Ru1'
_cell_volume   604.39977415
_cell_formula_units_Z   1
loop_
 _symmetry_equiv_pos_site_id
 _symmetry_equiv_pos_as_xyz
  1  'x, y, z'
loop_
 _atom_site_type_symbol
 _atom_site_label
 _atom_site_symmetry_multiplicity
 _atom_site_fract_x
 _atom_site_fract_y
 _atom_site_fract_z
 _atom_site_occupancy
  Tb  Tb0  1  0.937225  0.937561  0.562607  1
  Ho  Ho1  1  0.815072  0.187658  0.188187  1
  Ho  Ho2  1  0.937474  0.562224  0.562834  1
  Ho  Ho3  1  0.937474  0.562224  0.937468  1
  Ho  Ho4  1  0.815783  0.808006  0.188105  1
  Ho  Ho5  1  0.341905  0.349571  0.348669  1
  Ho  Ho6  1  0.562867  0.939098  0.939335  1
  Ho  Ho7  1  0.562867  0.939098  0.558701  1
  Ho  Ho8  1  0.188809  0.810970  0.812496  1
  Ho  Ho9  1  0.188658  0.187654  0.811844  1
  Ho  Ho10  1  0.341905  0.349571  0.959855  1
  Ho  Ho11  1  0.342308  0.959268  0.349213  1
  Ho  Ho12  1  0.815072  0.187658  0.809083  1
  Ho  Ho13  1  0.563723  0.558929  0.938675  1
  Ho  Ho14  1  0.188809  0.810970  0.187725  1
  Ho  Ho15  1  0.962497  0.347233  0.345135  1
  Cd  Cd16  1  0.581033  0.580335  0.258234  1
  Cd  Cd17  1  0.258270  0.579970  0.580880  1
  Cd  Cd18  1  0.581033  0.580335  0.580399  1
  Cd  Cd19  1  0.580561  0.258133  0.580654  1
  Co  Co20  1  0.139609  0.141947  0.140295  1
  Co  Co21  1  0.139850  0.578101  0.141025  1
  Co  Co22  1  0.139609  0.141947  0.578150  1
  Ru  Ru23  1  0.577588  0.141543  0.140435  1
