# generated using pymatgen
data_Ho3Sn3IrRhAu
_symmetry_space_group_name_H-M   'P 1'
_cell_length_a   7.66316200
_cell_length_b   7.66316116
_cell_length_c   3.84724600
_cell_angle_alpha   90.00000000
_cell_angle_beta   90.00000000
_cell_angle_gamma   120.00000361
_symmetry_Int_Tables_number   1
_chemical_formula_structural   Ho3Sn3IrRhAu
_chemical_formula_sum   'Ho3 Sn3 Ir1 Rh1 Au1'
_cell_volume   195.65751740
_cell_formula_units_Z   1
loop_
 _symmetry_equiv_pos_site_id
 _symmetry_equiv_pos_as_xyz
  1  'x, y, z'
loop_
 _atom_site_type_symbol
 _atom_site_label
 _atom_site_symmetry_multiplicity
 _atom_site_fract_x
 _atom_site_fract_y
 _atom_site_fract_z
 _atom_site_occupancy
  Ho  Ho0  1  0.017514  0.411004  0.000000  1
  Ho  Ho1  1  0.588996  0.606510  0.000000  1
  Ho  Ho2  1  0.393490  0.982486  0.000000  1
  Sn  Sn3  1  0.256867  0.259958  0.500000  1
  Sn  Sn4  1  0.003091  0.743133  0.500000  1
  Sn  Sn5  1  0.740042  0.996909  0.500000  1
  Ir  Ir6  1  0.333333  0.666667  0.500000  1
  Rh  Rh7  1  0.000000  0.000000  0.000000  1
  Au  Au8  1  0.666667  0.333333  0.500000  1
