# generated using pymatgen
data_La4Nd12Cd4OsPt3
_symmetry_space_group_name_H-M   'P 1'
_cell_length_a   10.07611769
_cell_length_b   10.07611803
_cell_length_c   10.07611883
_cell_angle_alpha   59.68163857
_cell_angle_beta   59.68164379
_cell_angle_gamma   59.68164317
_symmetry_Int_Tables_number   1
_chemical_formula_structural   La4Nd12Cd4OsPt3
_chemical_formula_sum   'La4 Nd12 Cd4 Os1 Pt3'
_cell_volume   718.14543412
_cell_formula_units_Z   1
loop_
 _symmetry_equiv_pos_site_id
 _symmetry_equiv_pos_as_xyz
  1  'x, y, z'
loop_
 _atom_site_type_symbol
 _atom_site_label
 _atom_site_symmetry_multiplicity
 _atom_site_fract_x
 _atom_site_fract_y
 _atom_site_fract_z
 _atom_site_occupancy
  La  La0  1  0.351391  0.351391  0.351391  1
  La  La1  1  0.347311  0.347311  0.951908  1
  La  La2  1  0.347311  0.951908  0.347311  1
  La  La3  1  0.951908  0.347311  0.347311  1
  Nd  Nd4  1  0.816915  0.187917  0.187917  1
  Nd  Nd5  1  0.187569  0.809547  0.809547  1
  Nd  Nd6  1  0.187917  0.816915  0.187917  1
  Nd  Nd7  1  0.809547  0.187569  0.809547  1
  Nd  Nd8  1  0.187917  0.187917  0.816915  1
  Nd  Nd9  1  0.809547  0.809547  0.187569  1
  Nd  Nd10  1  0.936955  0.564972  0.564972  1
  Nd  Nd11  1  0.558295  0.936675  0.936675  1
  Nd  Nd12  1  0.564972  0.936955  0.564972  1
  Nd  Nd13  1  0.936675  0.558295  0.936675  1
  Nd  Nd14  1  0.564972  0.564972  0.936955  1
  Nd  Nd15  1  0.936675  0.936675  0.558295  1
  Cd  Cd16  1  0.579886  0.579886  0.579886  1
  Cd  Cd17  1  0.580579  0.580579  0.257606  1
  Cd  Cd18  1  0.580579  0.257606  0.580579  1
  Cd  Cd19  1  0.257606  0.580579  0.580579  1
  Os  Os20  1  0.143318  0.143318  0.143318  1
  Pt  Pt21  1  0.144278  0.144278  0.573602  1
  Pt  Pt22  1  0.144278  0.573602  0.144278  1
  Pt  Pt23  1  0.573602  0.144278  0.144278  1
