# generated using pymatgen
data_Dy4LuSi12Ir19
_symmetry_space_group_name_H-M   'P 1'
_cell_length_a   12.81775805
_cell_length_b   12.81571409
_cell_length_c   3.97958300
_cell_angle_alpha   90.00000000
_cell_angle_beta   90.00000000
_cell_angle_gamma   119.99472512
_symmetry_Int_Tables_number   1
_chemical_formula_structural   Dy4LuSi12Ir19
_chemical_formula_sum   'Dy4 Lu1 Si12 Ir19'
_cell_volume   566.16909626
_cell_formula_units_Z   1
loop_
 _symmetry_equiv_pos_site_id
 _symmetry_equiv_pos_as_xyz
  1  'x, y, z'
loop_
 _atom_site_type_symbol
 _atom_site_label
 _atom_site_symmetry_multiplicity
 _atom_site_fract_x
 _atom_site_fract_y
 _atom_site_fract_z
 _atom_site_occupancy
  Dy  Dy0  1  0.333500  0.666760  0.500000  1
  Dy  Dy1  1  0.666500  0.333259  0.500000  1
  Dy  Dy2  1  0.185143  0.185063  0.000000  1
  Dy  Dy3  1  0.814857  0.999920  0.000000  1
  Lu  Lu4  1  0.000000  0.815257  0.000000  1
  Si  Si5  1  0.000000  0.632773  0.500000  1
  Si  Si6  1  0.367952  0.367985  0.500000  1
  Si  Si7  1  0.632048  0.000033  0.500000  1
  Si  Si8  1  0.519462  0.687946  0.000000  1
  Si  Si9  1  0.312052  0.831153  0.000000  1
  Si  Si10  1  0.168833  0.481104  0.000000  1
  Si  Si11  1  0.480538  0.168484  0.000000  1
  Si  Si12  1  0.687948  0.519100  0.000000  1
  Si  Si13  1  0.831167  0.312271  0.000000  1
  Si  Si14  1  0.000000  0.181013  0.500000  1
  Si  Si15  1  0.819376  0.818554  0.500000  1
  Si  Si16  1  0.180624  0.999178  0.500000  1
  Ir  Ir17  1  0.512239  0.873558  0.000000  1
  Ir  Ir18  1  0.126376  0.638809  0.000000  1
  Ir  Ir19  1  0.361474  0.487942  0.000000  1
  Ir  Ir20  1  0.487761  0.361319  0.000000  1
  Ir  Ir21  1  0.873624  0.512433  0.000000  1
  Ir  Ir22  1  0.638526  0.126468  0.000000  1
  Ir  Ir23  1  0.000000  0.447506  0.500000  1
  Ir  Ir24  1  0.552924  0.552840  0.500000  1
  Ir  Ir25  1  0.447076  0.999916  0.500000  1
  Ir  Ir26  1  0.000000  0.282944  0.000000  1
  Ir  Ir27  1  0.717897  0.717350  0.000000  1
  Ir  Ir28  1  0.282103  0.999453  0.000000  1
  Ir  Ir29  1  0.623409  0.805715  0.500000  1
  Ir  Ir30  1  0.193088  0.817210  0.500000  1
  Ir  Ir31  1  0.182492  0.376859  0.500000  1
  Ir  Ir32  1  0.376591  0.182307  0.500000  1
  Ir  Ir33  1  0.806912  0.624124  0.500000  1
  Ir  Ir34  1  0.817508  0.194368  0.500000  1
  Ir  Ir35  1  0.000000  0.999024  0.500000  1
