# generated using pymatgen
data_Na2Y(B3Rh4)2
_symmetry_space_group_name_H-M   'P 1'
_cell_length_a   9.78985541
_cell_length_b   8.93147569
_cell_length_c   5.60345969
_cell_angle_alpha   81.19088290
_cell_angle_beta   64.36358318
_cell_angle_gamma   34.44553198
_symmetry_Int_Tables_number   1
_chemical_formula_structural   Na2Y(B3Rh4)2
_chemical_formula_sum   'Na2 Y1 B6 Rh8'
_cell_volume   229.05817523
_cell_formula_units_Z   1
loop_
 _symmetry_equiv_pos_site_id
 _symmetry_equiv_pos_as_xyz
  1  'x, y, z'
loop_
 _atom_site_type_symbol
 _atom_site_label
 _atom_site_symmetry_multiplicity
 _atom_site_fract_x
 _atom_site_fract_y
 _atom_site_fract_z
 _atom_site_occupancy
  Na  Na0  1  0.311658  0.311658  0.688342  1
  Na  Na1  1  0.688342  0.688342  0.311658  1
  Y  Y2  1  0.500000  0.500000  0.500000  1
  B  B3  1  0.667762  0.987847  0.012153  1
  B  B4  1  0.987847  0.667762  0.332238  1
  B  B5  1  0.332238  0.012153  0.987847  1
  B  B6  1  0.012153  0.332238  0.667762  1
  B  B7  1  0.168603  0.831397  0.168603  1
  B  B8  1  0.831397  0.168603  0.831397  1
  Rh  Rh9  1  0.585294  0.585294  0.914706  1
  Rh  Rh10  1  0.912689  0.912689  0.087311  1
  Rh  Rh11  1  0.414706  0.414706  0.085294  1
  Rh  Rh12  1  0.085294  0.085294  0.414706  1
  Rh  Rh13  1  0.914706  0.914706  0.585294  1
  Rh  Rh14  1  0.250000  0.250000  0.250000  1
  Rh  Rh15  1  0.087311  0.087311  0.912689  1
  Rh  Rh16  1  0.750000  0.750000  0.750000  1
