# generated using pymatgen
data_Cs16Hf3VSe16
_symmetry_space_group_name_H-M   'P 1'
_cell_length_a   9.02944042
_cell_length_b   10.73414200
_cell_length_c   15.83350700
_cell_angle_alpha   90.00000000
_cell_angle_beta   90.11256185
_cell_angle_gamma   90.00000000
_symmetry_Int_Tables_number   1
_chemical_formula_structural   Cs16Hf3VSe16
_chemical_formula_sum   'Cs16 Hf3 V1 Se16'
_cell_volume   1534.63271943
_cell_formula_units_Z   1
loop_
 _symmetry_equiv_pos_site_id
 _symmetry_equiv_pos_as_xyz
  1  'x, y, z'
loop_
 _atom_site_type_symbol
 _atom_site_label
 _atom_site_symmetry_multiplicity
 _atom_site_fract_x
 _atom_site_fract_y
 _atom_site_fract_z
 _atom_site_occupancy
  Cs  Cs0  1  0.002510  0.004492  0.997890  1
  Cs  Cs1  1  0.499773  0.997784  0.499811  1
  Cs  Cs2  1  0.002510  0.495508  0.997890  1
  Cs  Cs3  1  0.499773  0.502216  0.499811  1
  Cs  Cs4  1  0.993940  0.750000  0.423450  1
  Cs  Cs5  1  0.491208  0.250000  0.074937  1
  Cs  Cs6  1  0.009013  0.250000  0.579463  1
  Cs  Cs7  1  0.502277  0.750000  0.920919  1
  Cs  Cs8  1  0.832498  0.056028  0.281278  1
  Cs  Cs9  1  0.332348  0.943987  0.218204  1
  Cs  Cs10  1  0.166758  0.552461  0.719520  1
  Cs  Cs11  1  0.667508  0.439327  0.782758  1
  Cs  Cs12  1  0.166758  0.947539  0.719520  1
  Cs  Cs13  1  0.667508  0.060673  0.782758  1
  Cs  Cs14  1  0.832498  0.443972  0.281278  1
  Cs  Cs15  1  0.332348  0.556013  0.218204  1
  Hf  Hf16  1  0.761572  0.750000  0.666908  1
  Hf  Hf17  1  0.238283  0.250000  0.334237  1
  Hf  Hf18  1  0.737915  0.750000  0.164451  1
  V  V19  1  0.262865  0.250000  0.835550  1
  Se  Se20  1  0.999396  0.250000  0.828485  1
  Se  Se21  1  0.517330  0.250000  0.326630  1
  Se  Se22  1  0.482399  0.750000  0.675003  1
  Se  Se23  1  0.016883  0.750000  0.173176  1
  Se  Se24  1  0.652734  0.558532  0.087490  1
  Se  Se25  1  0.153164  0.441236  0.410883  1
  Se  Se26  1  0.343119  0.069250  0.905295  1
  Se  Se27  1  0.845626  0.941704  0.590026  1
  Se  Se28  1  0.343119  0.430750  0.905295  1
  Se  Se29  1  0.845626  0.558296  0.590026  1
  Se  Se30  1  0.652734  0.941468  0.087490  1
  Se  Se31  1  0.153164  0.058764  0.410883  1
  Se  Se32  1  0.629299  0.750000  0.312699  1
  Se  Se33  1  0.129074  0.250000  0.186081  1
  Se  Se34  1  0.366543  0.250000  0.696662  1
  Se  Se35  1  0.869924  0.750000  0.815037  1
