# generated using pymatgen
data_Dy5Si6P6IrRh18
_symmetry_space_group_name_H-M   'P 1'
_cell_length_a   12.81644400
_cell_length_b   12.81644342
_cell_length_c   3.91996300
_cell_angle_alpha   90.00000000
_cell_angle_beta   90.00000000
_cell_angle_gamma   119.99999633
_symmetry_Int_Tables_number   1
_chemical_formula_structural   Dy5Si6P6IrRh18
_chemical_formula_sum   'Dy5 Si6 P6 Ir1 Rh18'
_cell_volume   557.63199546
_cell_formula_units_Z   1
loop_
 _symmetry_equiv_pos_site_id
 _symmetry_equiv_pos_as_xyz
  1  'x, y, z'
loop_
 _atom_site_type_symbol
 _atom_site_label
 _atom_site_symmetry_multiplicity
 _atom_site_fract_x
 _atom_site_fract_y
 _atom_site_fract_z
 _atom_site_occupancy
  Dy  Dy0  1  0.333333  0.666667  0.500000  1
  Dy  Dy1  1  0.666667  0.333333  0.500000  1
  Dy  Dy2  1  0.002898  0.817144  0.000000  1
  Dy  Dy3  1  0.182856  0.185755  0.000000  1
  Dy  Dy4  1  0.814245  0.997102  0.000000  1
  Si  Si5  1  0.000828  0.631755  0.500000  1
  Si  Si6  1  0.368245  0.369074  0.500000  1
  Si  Si7  1  0.630926  0.999172  0.500000  1
  Si  Si8  1  0.522057  0.680711  0.000000  1
  Si  Si9  1  0.319289  0.841346  0.000000  1
  Si  Si10  1  0.158654  0.477943  0.000000  1
  P  P11  1  0.482812  0.175020  0.000000  1
  P  P12  1  0.692207  0.517188  0.000000  1
  P  P13  1  0.824980  0.307793  0.000000  1
  P  P14  1  0.995545  0.177853  0.500000  1
  P  P15  1  0.822147  0.817691  0.500000  1
  P  P16  1  0.182309  0.004455  0.500000  1
  Ir  Ir17  1  0.000000  0.000000  0.500000  1
  Rh  Rh18  1  0.516601  0.869125  0.000000  1
  Rh  Rh19  1  0.130875  0.647477  0.000000  1
  Rh  Rh20  1  0.352523  0.483399  0.000000  1
  Rh  Rh21  1  0.492313  0.366088  0.000000  1
  Rh  Rh22  1  0.873775  0.507687  0.000000  1
  Rh  Rh23  1  0.633912  0.126225  0.000000  1
  Rh  Rh24  1  0.014914  0.455239  0.500000  1
  Rh  Rh25  1  0.544761  0.559676  0.500000  1
  Rh  Rh26  1  0.440324  0.985086  0.500000  1
  Rh  Rh27  1  0.992796  0.275847  0.000000  1
  Rh  Rh28  1  0.724153  0.716949  0.000000  1
  Rh  Rh29  1  0.283051  0.007204  0.000000  1
  Rh  Rh30  1  0.632558  0.808711  0.500000  1
  Rh  Rh31  1  0.191289  0.823847  0.500000  1
  Rh  Rh32  1  0.176153  0.367442  0.500000  1
  Rh  Rh33  1  0.381375  0.182422  0.500000  1
  Rh  Rh34  1  0.801047  0.618625  0.500000  1
  Rh  Rh35  1  0.817578  0.198953  0.500000  1
