# generated using pymatgen
data_Dy3ErRe5Os3
_symmetry_space_group_name_H-M   'P 1'
_cell_length_a   5.37835021
_cell_length_b   5.26281836
_cell_length_c   9.02940907
_cell_angle_alpha   90.00000122
_cell_angle_beta   90.01238451
_cell_angle_gamma   119.29193744
_symmetry_Int_Tables_number   1
_chemical_formula_structural   Dy3ErRe5Os3
_chemical_formula_sum   'Dy3 Er1 Re5 Os3'
_cell_volume   222.90101594
_cell_formula_units_Z   1
loop_
 _symmetry_equiv_pos_site_id
 _symmetry_equiv_pos_as_xyz
  1  'x, y, z'
loop_
 _atom_site_type_symbol
 _atom_site_label
 _atom_site_symmetry_multiplicity
 _atom_site_fract_x
 _atom_site_fract_y
 _atom_site_fract_z
 _atom_site_occupancy
  Dy  Dy0  1  0.332502  0.666251  0.437610  1
  Dy  Dy1  1  0.670333  0.335166  0.563784  1
  Dy  Dy2  1  0.670360  0.335180  0.936375  1
  Er  Er3  1  0.332096  0.666048  0.062585  1
  Re  Re4  1  0.829683  0.169539  0.249448  1
  Re  Re5  1  0.829683  0.660144  0.249448  1
  Re  Re6  1  0.344268  0.172135  0.249394  1
  Re  Re7  1  0.163196  0.829026  0.750431  1
  Re  Re8  1  0.163196  0.334170  0.750431  1
  Os  Os9  1  0.010292  0.005146  0.500560  1
  Os  Os10  1  0.010509  0.005254  0.999457  1
  Os  Os11  1  0.643880  0.821940  0.750478  1
