# generated using pymatgen
data_TbAs3Rh5
_symmetry_space_group_name_H-M   'P 1'
_cell_length_a   4.01447300
_cell_length_b   12.90460200
_cell_length_c   11.36147700
_cell_angle_alpha   90.00000000
_cell_angle_beta   90.00000000
_cell_angle_gamma   90.00000000
_symmetry_Int_Tables_number   1
_chemical_formula_structural   TbAs3Rh5
_chemical_formula_sum   'Tb4 As12 Rh20'
_cell_volume   588.58331907
_cell_formula_units_Z   4
loop_
 _symmetry_equiv_pos_site_id
 _symmetry_equiv_pos_as_xyz
  1  'x, y, z'
loop_
 _atom_site_type_symbol
 _atom_site_label
 _atom_site_symmetry_multiplicity
 _atom_site_fract_x
 _atom_site_fract_y
 _atom_site_fract_z
 _atom_site_occupancy
  Tb  Tb0  1  0.750000  0.701447  0.080818  1
  Tb  Tb1  1  0.250000  0.298553  0.919182  1
  Tb  Tb2  1  0.250000  0.798553  0.580818  1
  Tb  Tb3  1  0.750000  0.201447  0.419182  1
  As  As4  1  0.750000  0.614526  0.583065  1
  As  As5  1  0.250000  0.385474  0.416935  1
  As  As6  1  0.250000  0.885474  0.083065  1
  As  As7  1  0.750000  0.114526  0.916935  1
  As  As8  1  0.750000  0.889285  0.399976  1
  As  As9  1  0.250000  0.110715  0.600024  1
  As  As10  1  0.250000  0.610715  0.899976  1
  As  As11  1  0.750000  0.389285  0.100024  1
  As  As12  1  0.750000  0.869573  0.766771  1
  As  As13  1  0.250000  0.130427  0.233229  1
  As  As14  1  0.250000  0.630427  0.266771  1
  As  As15  1  0.750000  0.369573  0.733229  1
  Rh  Rh16  1  0.750000  0.700912  0.384557  1
  Rh  Rh17  1  0.250000  0.299088  0.615443  1
  Rh  Rh18  1  0.250000  0.799088  0.884557  1
  Rh  Rh19  1  0.750000  0.200912  0.115443  1
  Rh  Rh20  1  0.750000  0.995021  0.222327  1
  Rh  Rh21  1  0.250000  0.004979  0.777673  1
  Rh  Rh22  1  0.250000  0.504979  0.722327  1
  Rh  Rh23  1  0.750000  0.495021  0.277673  1
  Rh  Rh24  1  0.750000  0.676306  0.780285  1
  Rh  Rh25  1  0.250000  0.323694  0.219715  1
  Rh  Rh26  1  0.250000  0.823694  0.280285  1
  Rh  Rh27  1  0.750000  0.176306  0.719715  1
  Rh  Rh28  1  0.750000  0.928793  0.968133  1
  Rh  Rh29  1  0.250000  0.071207  0.031867  1
  Rh  Rh30  1  0.250000  0.571207  0.468133  1
  Rh  Rh31  1  0.750000  0.428793  0.531867  1
  Rh  Rh32  1  0.750000  0.979517  0.590238  1
  Rh  Rh33  1  0.250000  0.020483  0.409762  1
  Rh  Rh34  1  0.250000  0.520483  0.090238  1
  Rh  Rh35  1  0.750000  0.479516  0.909762  1
