# generated using pymatgen
data_YEr5Zn23P
_symmetry_space_group_name_H-M   'P 1'
_cell_length_a   9.01121566
_cell_length_b   9.01112437
_cell_length_c   9.01113400
_cell_angle_alpha   60.00083835
_cell_angle_beta   60.00001039
_cell_angle_gamma   59.99988617
_symmetry_Int_Tables_number   1
_chemical_formula_structural   YEr5Zn23P
_chemical_formula_sum   'Y1 Er5 Zn23 P1'
_cell_volume   517.40334209
_cell_formula_units_Z   1
loop_
 _symmetry_equiv_pos_site_id
 _symmetry_equiv_pos_as_xyz
  1  'x, y, z'
loop_
 _atom_site_type_symbol
 _atom_site_label
 _atom_site_symmetry_multiplicity
 _atom_site_fract_x
 _atom_site_fract_y
 _atom_site_fract_z
 _atom_site_occupancy
  Y  Y0  1  0.711930  0.288070  0.288071  1
  Er  Er1  1  0.711418  0.288575  0.711562  1
  Er  Er2  1  0.711421  0.711556  0.288579  1
  Er  Er3  1  0.288390  0.711613  0.711609  1
  Er  Er4  1  0.288445  0.711556  0.288577  1
  Er  Er5  1  0.288442  0.288577  0.711558  1
  Zn  Zn6  1  0.623894  0.125072  0.125072  1
  Zn  Zn7  1  0.125307  0.624113  0.125271  1
  Zn  Zn8  1  0.125307  0.125274  0.624112  1
  Zn  Zn9  1  0.125962  0.125074  0.125074  1
  Zn  Zn10  1  0.375890  0.874693  0.874693  1
  Zn  Zn11  1  0.874928  0.376105  0.874040  1
  Zn  Zn12  1  0.874927  0.874040  0.376107  1
  Zn  Zn13  1  0.874726  0.874692  0.874691  1
  Zn  Zn14  1  0.499945  0.000055  0.000055  1
  Zn  Zn15  1  0.499811  0.999790  0.500190  1
  Zn  Zn16  1  0.499810  0.500190  0.999791  1
  Zn  Zn17  1  0.999945  0.500056  0.500056  1
  Zn  Zn18  1  0.000209  0.500191  0.999791  1
  Zn  Zn19  1  0.000208  0.999792  0.500190  1
  Zn  Zn20  1  0.000021  0.999979  0.999977  1
  Zn  Zn21  1  0.010001  0.330154  0.330155  1
  Zn  Zn22  1  0.330136  0.009583  0.330147  1
  Zn  Zn23  1  0.330134  0.330149  0.009582  1
  Zn  Zn24  1  0.329691  0.330154  0.330153  1
  Zn  Zn25  1  0.990417  0.669866  0.669863  1
  Zn  Zn26  1  0.669845  0.990002  0.670307  1
  Zn  Zn27  1  0.669846  0.670307  0.990003  1
  Zn  Zn28  1  0.669854  0.669865  0.669867  1
  P  P29  1  0.499142  0.500859  0.500858  1
