# generated using pymatgen
data_TbY3(Ga8Pd3)3
_symmetry_space_group_name_H-M   'P 1'
_cell_length_a   7.52162081
_cell_length_b   7.59207496
_cell_length_c   13.46354760
_cell_angle_alpha   84.87823183
_cell_angle_beta   79.78055165
_cell_angle_gamma   60.25127735
_symmetry_Int_Tables_number   1
_chemical_formula_structural   TbY3(Ga8Pd3)3
_chemical_formula_sum   'Tb1 Y3 Ga24 Pd9'
_cell_volume   656.91710699
_cell_formula_units_Z   1
loop_
 _symmetry_equiv_pos_site_id
 _symmetry_equiv_pos_as_xyz
  1  'x, y, z'
loop_
 _atom_site_type_symbol
 _atom_site_label
 _atom_site_symmetry_multiplicity
 _atom_site_fract_x
 _atom_site_fract_y
 _atom_site_fract_z
 _atom_site_occupancy
  Tb  Tb0  1  0.393839  0.168846  0.811178  1
  Y  Y1  1  0.606113  0.831120  0.188881  1
  Y  Y2  1  0.732253  0.497058  0.811280  1
  Y  Y3  1  0.267749  0.502946  0.188745  1
  Ga  Ga4  1  0.686939  0.833591  0.939575  1
  Ga  Ga5  1  0.313078  0.166382  0.060383  1
  Ga  Ga6  1  0.144747  0.834747  0.557880  1
  Ga  Ga7  1  0.855252  0.165214  0.442108  1
  Ga  Ga8  1  0.478310  0.167066  0.555935  1
  Ga  Ga9  1  0.521647  0.832860  0.444123  1
  Ga  Ga10  1  0.219270  0.164993  0.326610  1
  Ga  Ga11  1  0.780707  0.835039  0.673398  1
  Ga  Ga12  1  0.436767  0.504416  0.672930  1
  Ga  Ga13  1  0.563275  0.495532  0.327103  1
  Ga  Ga14  1  0.107957  0.161945  0.671906  1
  Ga  Ga15  1  0.892087  0.838083  0.328081  1
  Ga  Ga16  1  0.355844  0.499503  0.940386  1
  Ga  Ga17  1  0.644268  0.500507  0.059533  1
  Ga  Ga18  1  0.018708  0.167584  0.946095  1
  Ga  Ga19  1  0.981284  0.832497  0.053863  1
  Ga  Ga20  1  0.186959  0.500181  0.443517  1
  Ga  Ga21  1  0.812943  0.499875  0.556477  1
  Ga  Ga22  1  0.734058  0.163298  0.182627  1
  Ga  Ga23  1  0.265870  0.836775  0.817399  1
  Ga  Ga24  1  0.061015  0.630169  0.816558  1
  Ga  Ga25  1  0.939055  0.369725  0.183448  1
  Ga  Ga26  1  0.856316  0.040689  0.816592  1
  Ga  Ga27  1  0.143607  0.959330  0.183437  1
  Pd  Pd28  1  0.116334  0.496476  0.638460  1
  Pd  Pd29  1  0.883604  0.503686  0.361418  1
  Pd  Pd30  1  0.659523  0.169516  0.999175  1
  Pd  Pd31  1  0.340418  0.830464  0.000966  1
  Pd  Pd32  1  0.542160  0.167317  0.360836  1
  Pd  Pd33  1  0.457857  0.832540  0.639116  1
  Pd  Pd34  1  0.778629  0.172091  0.637622  1
  Pd  Pd35  1  0.221552  0.827892  0.362288  1
  Pd  Pd36  1  0.000009  0.500043  0.000068  1
