# generated using pymatgen
data_Tm8NbRu9
_symmetry_space_group_name_H-M   'P 1'
_cell_length_a   8.16361702
_cell_length_b   8.16361786
_cell_length_c   5.79319607
_cell_angle_alpha   90.00093264
_cell_angle_beta   90.00093688
_cell_angle_gamma   120.00028652
_symmetry_Int_Tables_number   1
_chemical_formula_structural   Tm8NbRu9
_chemical_formula_sum   'Tm8 Nb1 Ru9'
_cell_volume   334.35890481
_cell_formula_units_Z   1
loop_
 _symmetry_equiv_pos_site_id
 _symmetry_equiv_pos_as_xyz
  1  'x, y, z'
loop_
 _atom_site_type_symbol
 _atom_site_label
 _atom_site_symmetry_multiplicity
 _atom_site_fract_x
 _atom_site_fract_y
 _atom_site_fract_z
 _atom_site_occupancy
  Tm  Tm0  1  0.666627  0.999393  0.225104  1
  Tm  Tm1  1  0.333551  0.333550  0.225331  1
  Tm  Tm2  1  0.999393  0.666628  0.225104  1
  Tm  Tm3  1  0.667199  0.332873  0.558480  1
  Tm  Tm4  1  0.332874  0.667200  0.558480  1
  Tm  Tm5  1  0.999979  0.999979  0.560198  1
  Tm  Tm6  1  0.333413  0.000447  0.892377  1
  Tm  Tm7  1  0.000447  0.333412  0.892377  1
  Nb  Nb8  1  0.666164  0.666164  0.890732  1
  Ru  Ru9  1  0.666775  0.349080  0.052032  1
  Ru  Ru10  1  0.349081  0.666776  0.052032  1
  Ru  Ru11  1  0.983871  0.983871  0.053649  1
  Ru  Ru12  1  0.332931  0.000349  0.391759  1
  Ru  Ru13  1  0.000349  0.332930  0.391759  1
  Ru  Ru14  1  0.666397  0.666397  0.394007  1
  Ru  Ru15  1  0.666555  0.984893  0.731719  1
  Ru  Ru16  1  0.349501  0.349501  0.730985  1
  Ru  Ru17  1  0.984893  0.666555  0.731719  1
