# generated using pymatgen
data_Tm8Re2B24MoRh
_symmetry_space_group_name_H-M   'P 1'
_cell_length_a   3.63806000
_cell_length_b   9.11902344
_cell_length_c   11.48639403
_cell_angle_alpha   90.14874513
_cell_angle_beta   90.00000000
_cell_angle_gamma   90.00000000
_symmetry_Int_Tables_number   1
_chemical_formula_structural   Tm8Re2B24MoRh
_chemical_formula_sum   'Tm8 Re2 B24 Mo1 Rh1'
_cell_volume   381.06620606
_cell_formula_units_Z   1
loop_
 _symmetry_equiv_pos_site_id
 _symmetry_equiv_pos_as_xyz
  1  'x, y, z'
loop_
 _atom_site_type_symbol
 _atom_site_label
 _atom_site_symmetry_multiplicity
 _atom_site_fract_x
 _atom_site_fract_y
 _atom_site_fract_z
 _atom_site_occupancy
  Tm  Tm0  1  0.000000  0.317483  0.414155  1
  Tm  Tm1  1  0.000000  0.680161  0.590662  1
  Tm  Tm2  1  0.000000  0.826632  0.081008  1
  Tm  Tm3  1  0.000000  0.176667  0.913695  1
  Tm  Tm4  1  0.000000  0.942919  0.370139  1
  Tm  Tm5  1  0.000000  0.054089  0.628372  1
  Tm  Tm6  1  0.000000  0.441668  0.129174  1
  Tm  Tm7  1  0.000000  0.557874  0.872711  1
  Re  Re8  1  0.000000  0.138322  0.180231  1
  Re  Re9  1  0.000000  0.861395  0.821204  1
  B  B10  1  0.500000  0.554116  0.433718  1
  B  B11  1  0.500000  0.448761  0.564339  1
  B  B12  1  0.500000  0.053351  0.066115  1
  B  B13  1  0.500000  0.947473  0.932921  1
  B  B14  1  0.500000  0.749304  0.420606  1
  B  B15  1  0.500000  0.247763  0.578471  1
  B  B16  1  0.500000  0.250010  0.080932  1
  B  B17  1  0.500000  0.751502  0.919194  1
  B  B18  1  0.500000  0.791665  0.264491  1
  B  B19  1  0.500000  0.205316  0.735533  1
  B  B20  1  0.500000  0.292468  0.235711  1
  B  B21  1  0.500000  0.708140  0.766027  1
  B  B22  1  0.500000  0.631977  0.183432  1
  B  B23  1  0.500000  0.369296  0.816558  1
  B  B24  1  0.500000  0.130552  0.315560  1
  B  B25  1  0.500000  0.868869  0.685547  1
  B  B26  1  0.500000  0.981702  0.211851  1
  B  B27  1  0.500000  0.017771  0.787348  1
  B  B28  1  0.500000  0.482631  0.288067  1
  B  B29  1  0.500000  0.522343  0.712824  1
  B  B30  1  0.500000  0.603155  0.029610  1
  B  B31  1  0.500000  0.398133  0.972879  1
  B  B32  1  0.500000  0.100058  0.470846  1
  B  B33  1  0.500000  0.895432  0.527967  1
  Mo  Mo34  1  0.000000  0.362492  0.677605  1
  Rh  Rh35  1  0.000000  0.638509  0.320495  1
