# generated using pymatgen
data_SrSm6FeI12
_symmetry_space_group_name_H-M   'P 1'
_cell_length_a   9.93250807
_cell_length_b   9.93250802
_cell_length_c   9.93250726
_cell_angle_alpha   106.34991988
_cell_angle_beta   106.34992958
_cell_angle_gamma   106.34990963
_symmetry_Int_Tables_number   1
_chemical_formula_structural   SrSm6FeI12
_chemical_formula_sum   'Sr1 Sm6 Fe1 I12'
_cell_volume   830.10725083
_cell_formula_units_Z   1
loop_
 _symmetry_equiv_pos_site_id
 _symmetry_equiv_pos_as_xyz
  1  'x, y, z'
loop_
 _atom_site_type_symbol
 _atom_site_label
 _atom_site_symmetry_multiplicity
 _atom_site_fract_x
 _atom_site_fract_y
 _atom_site_fract_z
 _atom_site_occupancy
  Sr  Sr0  1  0.500000  0.500000  0.500000  1
  Sm  Sm1  1  0.092076  0.291712  0.020041  1
  Sm  Sm2  1  0.020041  0.092076  0.291712  1
  Sm  Sm3  1  0.291712  0.020041  0.092076  1
  Sm  Sm4  1  0.907924  0.708288  0.979959  1
  Sm  Sm5  1  0.979959  0.907924  0.708288  1
  Sm  Sm6  1  0.708288  0.979959  0.907924  1
  Fe  Fe7  1  0.000000  0.000000  0.000000  1
  I  I8  1  0.449301  0.369534  0.138490  1
  I  I9  1  0.138490  0.449301  0.369534  1
  I  I10  1  0.369534  0.138490  0.449301  1
  I  I11  1  0.550699  0.630466  0.861510  1
  I  I12  1  0.861510  0.550699  0.630466  1
  I  I13  1  0.630466  0.861510  0.550699  1
  I  I14  1  0.775375  0.319025  0.926181  1
  I  I15  1  0.926181  0.775375  0.319025  1
  I  I16  1  0.319025  0.926181  0.775375  1
  I  I17  1  0.224625  0.680975  0.073819  1
  I  I18  1  0.073819  0.224625  0.680975  1
  I  I19  1  0.680975  0.073819  0.224625  1
