# generated using pymatgen
data_Ta4NbReRu2
_symmetry_space_group_name_H-M   'P 1'
_cell_length_a   6.43838700
_cell_length_b   4.53774800
_cell_length_c   9.10880800
_cell_angle_alpha   90.00000000
_cell_angle_beta   90.00180091
_cell_angle_gamma   90.00000000
_symmetry_Int_Tables_number   1
_chemical_formula_structural   Ta4NbReRu2
_chemical_formula_sum   'Ta8 Nb2 Re2 Ru4'
_cell_volume   266.12090987
_cell_formula_units_Z   2
loop_
 _symmetry_equiv_pos_site_id
 _symmetry_equiv_pos_as_xyz
  1  'x, y, z'
loop_
 _atom_site_type_symbol
 _atom_site_label
 _atom_site_symmetry_multiplicity
 _atom_site_fract_x
 _atom_site_fract_y
 _atom_site_fract_z
 _atom_site_occupancy
  Ta  Ta0  1  0.499065  0.750000  0.124676  1
  Ta  Ta1  1  0.000953  0.750000  0.124674  1
  Ta  Ta2  1  0.500927  0.250001  0.375345  1
  Ta  Ta3  1  0.999072  0.250001  0.375323  1
  Ta  Ta4  1  0.998760  0.750000  0.624999  1
  Ta  Ta5  1  0.501224  0.750000  0.625014  1
  Ta  Ta6  1  0.001238  0.250001  0.875012  1
  Ta  Ta7  1  0.498772  0.249999  0.875012  1
  Nb  Nb8  1  0.749984  0.250001  0.123677  1
  Nb  Nb9  1  0.250006  0.750000  0.376341  1
  Re  Re10  1  0.750009  0.250001  0.626469  1
  Re  Re11  1  0.250008  0.750000  0.873438  1
  Ru  Ru12  1  0.249985  0.250001  0.121734  1
  Ru  Ru13  1  0.750004  0.750000  0.378274  1
  Ru  Ru14  1  0.250002  0.250001  0.628486  1
  Ru  Ru15  1  0.749992  0.750000  0.871528  1
