# generated using pymatgen
data_Dy3B6Ir7Ru
_symmetry_space_group_name_H-M   'P 1'
_cell_length_a   9.99372088
_cell_length_b   9.17017795
_cell_length_c   5.59839213
_cell_angle_alpha   81.28376911
_cell_angle_beta   65.09355834
_cell_angle_gamma   33.39333608
_symmetry_Int_Tables_number   1
_chemical_formula_structural   Dy3B6Ir7Ru
_chemical_formula_sum   'Dy3 B6 Ir7 Ru1'
_cell_volume   234.64744997
_cell_formula_units_Z   1
loop_
 _symmetry_equiv_pos_site_id
 _symmetry_equiv_pos_as_xyz
  1  'x, y, z'
loop_
 _atom_site_type_symbol
 _atom_site_label
 _atom_site_symmetry_multiplicity
 _atom_site_fract_x
 _atom_site_fract_y
 _atom_site_fract_z
 _atom_site_occupancy
  Dy  Dy0  1  0.999479  0.999479  0.000521  1
  Dy  Dy1  1  0.821461  0.821461  0.178539  1
  Dy  Dy2  1  0.179329  0.179329  0.820671  1
  B  B3  1  0.667144  0.331233  0.676292  1
  B  B4  1  0.331233  0.667144  0.325331  1
  B  B5  1  0.177250  0.477293  0.514334  1
  B  B6  1  0.477293  0.177250  0.831122  1
  B  B7  1  0.826220  0.520793  0.480626  1
  B  B8  1  0.520793  0.826220  0.172361  1
  Ir  Ir9  1  0.913700  0.913700  0.586300  1
  Ir  Ir10  1  0.415072  0.415072  0.584928  1
  Ir  Ir11  1  0.586144  0.586144  0.413856  1
  Ir  Ir12  1  0.249651  0.249651  0.250349  1
  Ir  Ir13  1  0.750295  0.750295  0.749705  1
  Ir  Ir14  1  0.085798  0.085798  0.414202  1
  Ir  Ir15  1  0.585731  0.585731  0.914269  1
  Ru  Ru16  1  0.413409  0.413409  0.086591  1
