# generated using pymatgen
data_TbPa7S12
_symmetry_space_group_name_H-M   'P 1'
_cell_length_a   3.81789100
_cell_length_b   10.43753963
_cell_length_c   10.59474901
_cell_angle_alpha   90.23872509
_cell_angle_beta   90.00000000
_cell_angle_gamma   90.00000000
_symmetry_Int_Tables_number   1
_chemical_formula_structural   TbPa7S12
_chemical_formula_sum   'Tb1 Pa7 S12'
_cell_volume   422.19060595
_cell_formula_units_Z   1
loop_
 _symmetry_equiv_pos_site_id
 _symmetry_equiv_pos_as_xyz
  1  'x, y, z'
loop_
 _atom_site_type_symbol
 _atom_site_label
 _atom_site_symmetry_multiplicity
 _atom_site_fract_x
 _atom_site_fract_y
 _atom_site_fract_z
 _atom_site_occupancy
  Tb  Tb0  1  0.250000  0.316541  0.986986  1
  Pa  Pa1  1  0.250000  0.988046  0.807854  1
  Pa  Pa2  1  0.750000  0.004400  0.193737  1
  Pa  Pa3  1  0.750000  0.496791  0.688053  1
  Pa  Pa4  1  0.250000  0.509572  0.310950  1
  Pa  Pa5  1  0.250000  0.182920  0.490084  1
  Pa  Pa6  1  0.750000  0.816693  0.511599  1
  Pa  Pa7  1  0.750000  0.685078  0.010421  1
  S  S8  1  0.250000  0.299610  0.724698  1
  S  S9  1  0.750000  0.707628  0.272114  1
  S  S10  1  0.750000  0.790918  0.771665  1
  S  S11  1  0.250000  0.201941  0.226936  1
  S  S12  1  0.250000  0.943073  0.374953  1
  S  S13  1  0.750000  0.057254  0.628432  1
  S  S14  1  0.750000  0.445756  0.126023  1
  S  S15  1  0.250000  0.555945  0.873875  1
  S  S16  1  0.250000  0.871568  0.052236  1
  S  S17  1  0.750000  0.125246  0.950696  1
  S  S18  1  0.750000  0.370112  0.446485  1
  S  S19  1  0.250000  0.630908  0.552204  1
