# generated using pymatgen
data_Er8Mg2Sc10Si15Sn
_symmetry_space_group_name_H-M   'P 1'
_cell_length_a   7.03311067
_cell_length_b   7.40301229
_cell_length_c   14.00452216
_cell_angle_alpha   89.97581150
_cell_angle_beta   89.58422720
_cell_angle_gamma   89.85935800
_symmetry_Int_Tables_number   1
_chemical_formula_structural   Er8Mg2Sc10Si15Sn
_chemical_formula_sum   'Er8 Mg2 Sc10 Si15 Sn1'
_cell_volume   729.14086333
_cell_formula_units_Z   1
loop_
 _symmetry_equiv_pos_site_id
 _symmetry_equiv_pos_as_xyz
  1  'x, y, z'
loop_
 _atom_site_type_symbol
 _atom_site_label
 _atom_site_symmetry_multiplicity
 _atom_site_fract_x
 _atom_site_fract_y
 _atom_site_fract_z
 _atom_site_occupancy
  Er  Er0  1  0.010064  0.181122  0.096443  1
  Er  Er1  1  0.989991  0.819470  0.904219  1
  Er  Er2  1  0.488296  0.674337  0.904776  1
  Er  Er3  1  0.990118  0.827155  0.597946  1
  Er  Er4  1  0.510985  0.325329  0.095844  1
  Er  Er5  1  0.004035  0.173215  0.399415  1
  Er  Er6  1  0.515300  0.321194  0.399705  1
  Er  Er7  1  0.500623  0.684664  0.599360  1
  Mg  Mg8  1  0.161604  0.505621  0.753640  1
  Mg  Mg9  1  0.836790  0.493486  0.249150  1
  Sc  Sc10  1  0.338001  0.004670  0.249684  1
  Sc  Sc11  1  0.663490  0.995302  0.751450  1
  Sc  Sc12  1  0.340289  0.165714  0.629990  1
  Sc  Sc13  1  0.666624  0.821852  0.372786  1
  Sc  Sc14  1  0.159903  0.685875  0.369168  1
  Sc  Sc15  1  0.670339  0.819441  0.123902  1
  Sc  Sc16  1  0.826406  0.320653  0.626446  1
  Sc  Sc17  1  0.327847  0.179272  0.876097  1
  Sc  Sc18  1  0.834813  0.320682  0.875797  1
  Sc  Sc19  1  0.165368  0.678600  0.125118  1
  Si  Si20  1  0.033539  0.101211  0.752344  1
  Si  Si21  1  0.965410  0.901083  0.246110  1
  Si  Si22  1  0.459561  0.615787  0.248754  1
  Si  Si23  1  0.538610  0.384683  0.752267  1
  Si  Si24  1  0.291168  0.876936  0.752798  1
  Si  Si25  1  0.707599  0.120390  0.247443  1
  Si  Si26  1  0.219288  0.372200  0.249280  1
  Si  Si27  1  0.781769  0.628281  0.751765  1
  Si  Si28  1  0.827269  0.542305  0.464854  1
  Si  Si29  1  0.336988  0.966774  0.460252  1
  Si  Si30  1  0.838580  0.537636  0.033455  1
  Si  Si31  1  0.663689  0.035229  0.537395  1
  Si  Si32  1  0.161478  0.461575  0.967494  1
  Si  Si33  1  0.657206  0.032302  0.960665  1
  Si  Si34  1  0.342001  0.967811  0.039971  1
  Sn  Sn35  1  0.174958  0.458141  0.534218  1
