# generated using pymatgen
data_Zr2Sc2Mn7Os
_symmetry_space_group_name_H-M   'P 1'
_cell_length_a   4.91396700
_cell_length_b   4.91396653
_cell_length_c   8.35837200
_cell_angle_alpha   90.00000000
_cell_angle_beta   90.00000000
_cell_angle_gamma   119.99999644
_symmetry_Int_Tables_number   1
_chemical_formula_structural   Zr2Sc2Mn7Os
_chemical_formula_sum   'Zr2 Sc2 Mn7 Os1'
_cell_volume   174.79007671
_cell_formula_units_Z   1
loop_
 _symmetry_equiv_pos_site_id
 _symmetry_equiv_pos_as_xyz
  1  'x, y, z'
loop_
 _atom_site_type_symbol
 _atom_site_label
 _atom_site_symmetry_multiplicity
 _atom_site_fract_x
 _atom_site_fract_y
 _atom_site_fract_z
 _atom_site_occupancy
  Zr  Zr0  1  0.333333  0.666667  0.065064  1
  Zr  Zr1  1  0.666667  0.333333  0.564880  1
  Sc  Sc2  1  0.666667  0.333333  0.935118  1
  Sc  Sc3  1  0.333333  0.666667  0.435432  1
  Mn  Mn4  1  0.000000  0.000000  0.499077  1
  Mn  Mn5  1  0.827118  0.654234  0.254830  1
  Mn  Mn6  1  0.172619  0.827381  0.745595  1
  Mn  Mn7  1  0.654761  0.827381  0.745595  1
  Mn  Mn8  1  0.345766  0.172882  0.254830  1
  Mn  Mn9  1  0.827118  0.172882  0.254830  1
  Mn  Mn10  1  0.172619  0.345239  0.745595  1
  Os  Os11  1  0.000000  0.000000  0.999153  1
