# generated using pymatgen
data_Li4La4SnBi3
_symmetry_space_group_name_H-M   'P 1'
_cell_length_a   9.87432700
_cell_length_b   9.87432586
_cell_length_c   7.73007000
_cell_angle_alpha   90.00000000
_cell_angle_beta   90.00000000
_cell_angle_gamma   120.00000047
_symmetry_Int_Tables_number   1
_chemical_formula_structural   Li4La4SnBi3
_chemical_formula_sum   'Li8 La8 Sn2 Bi6'
_cell_volume   652.72315124
_cell_formula_units_Z   2
loop_
 _symmetry_equiv_pos_site_id
 _symmetry_equiv_pos_as_xyz
  1  'x, y, z'
loop_
 _atom_site_type_symbol
 _atom_site_label
 _atom_site_symmetry_multiplicity
 _atom_site_fract_x
 _atom_site_fract_y
 _atom_site_fract_z
 _atom_site_occupancy
  Li  Li0  1  0.168540  0.337079  0.282251  1
  Li  Li1  1  0.168540  0.831460  0.282251  1
  Li  Li2  1  0.662921  0.831460  0.282251  1
  Li  Li3  1  0.831460  0.662921  0.782251  1
  Li  Li4  1  0.831460  0.168540  0.782251  1
  Li  Li5  1  0.337079  0.168540  0.782251  1
  Li  Li6  1  0.333333  0.666667  0.671746  1
  Li  Li7  1  0.666667  0.333333  0.171746  1
  La  La8  1  0.510538  0.021077  0.494134  1
  La  La9  1  0.510538  0.489462  0.494134  1
  La  La10  1  0.978923  0.489462  0.494134  1
  La  La11  1  0.489462  0.978923  0.994134  1
  La  La12  1  0.489462  0.510538  0.994134  1
  La  La13  1  0.021077  0.510538  0.994134  1
  La  La14  1  0.000000  0.000000  0.501845  1
  La  La15  1  0.000000  0.000000  0.001845  1
  Sn  Sn16  1  0.333333  0.666667  0.262841  1
  Sn  Sn17  1  0.666667  0.333333  0.762841  1
  Bi  Bi18  1  0.166261  0.332522  0.735133  1
  Bi  Bi19  1  0.166261  0.833739  0.735133  1
  Bi  Bi20  1  0.667478  0.833739  0.735133  1
  Bi  Bi21  1  0.833739  0.667478  0.235133  1
  Bi  Bi22  1  0.833739  0.166261  0.235133  1
  Bi  Bi23  1  0.332522  0.166261  0.235133  1
