# generated using pymatgen
data_Li3IrRu
_symmetry_space_group_name_H-M   'P 1'
_cell_length_a   6.67074500
_cell_length_b   6.67074500
_cell_length_c   6.67074500
_cell_angle_alpha   90.00000000
_cell_angle_beta   90.00000000
_cell_angle_gamma   90.00000000
_symmetry_Int_Tables_number   1
_chemical_formula_structural   Li3IrRu
_chemical_formula_sum   'Li12 Ir4 Ru4'
_cell_volume   296.84040680
_cell_formula_units_Z   4
loop_
 _symmetry_equiv_pos_site_id
 _symmetry_equiv_pos_as_xyz
  1  'x, y, z'
loop_
 _atom_site_type_symbol
 _atom_site_label
 _atom_site_symmetry_multiplicity
 _atom_site_fract_x
 _atom_site_fract_y
 _atom_site_fract_z
 _atom_site_occupancy
  Li  Li0  1  0.125413  0.208170  0.460124  1
  Li  Li1  1  0.460124  0.125413  0.208170  1
  Li  Li2  1  0.208170  0.460124  0.125413  1
  Li  Li3  1  0.291830  0.539876  0.625413  1
  Li  Li4  1  0.960124  0.374587  0.791830  1
  Li  Li5  1  0.791830  0.960124  0.374587  1
  Li  Li6  1  0.039876  0.874587  0.708170  1
  Li  Li7  1  0.539876  0.625413  0.291830  1
  Li  Li8  1  0.708170  0.039876  0.874587  1
  Li  Li9  1  0.625413  0.291830  0.539876  1
  Li  Li10  1  0.874587  0.708170  0.039876  1
  Li  Li11  1  0.374587  0.791830  0.960124  1
  Ir  Ir12  1  0.326597  0.173403  0.826597  1
  Ir  Ir13  1  0.173403  0.826597  0.326597  1
  Ir  Ir14  1  0.826597  0.326597  0.173403  1
  Ir  Ir15  1  0.673403  0.673403  0.673403  1
  Ru  Ru16  1  0.923521  0.576479  0.423521  1
  Ru  Ru17  1  0.576479  0.423521  0.923521  1
  Ru  Ru18  1  0.423521  0.923521  0.576479  1
  Ru  Ru19  1  0.076479  0.076479  0.076479  1
