# generated using pymatgen
data_ZrSc15(Ga3Fe)2
_symmetry_space_group_name_H-M   'P 1'
_cell_length_a   9.38411000
_cell_length_b   9.38411030
_cell_length_c   6.48716700
_cell_angle_alpha   90.00000000
_cell_angle_beta   90.00000000
_cell_angle_gamma   119.99999894
_symmetry_Int_Tables_number   1
_chemical_formula_structural   ZrSc15(Ga3Fe)2
_chemical_formula_sum   'Zr1 Sc15 Ga6 Fe2'
_cell_volume   494.73417149
_cell_formula_units_Z   1
loop_
 _symmetry_equiv_pos_site_id
 _symmetry_equiv_pos_as_xyz
  1  'x, y, z'
loop_
 _atom_site_type_symbol
 _atom_site_label
 _atom_site_symmetry_multiplicity
 _atom_site_fract_x
 _atom_site_fract_y
 _atom_site_fract_z
 _atom_site_occupancy
  Zr  Zr0  1  0.000000  0.000000  0.728843  1
  Sc  Sc1  1  0.175062  0.824938  0.505612  1
  Sc  Sc2  1  0.649877  0.824938  0.505612  1
  Sc  Sc3  1  0.175062  0.350123  0.505612  1
  Sc  Sc4  1  0.824919  0.175081  0.007933  1
  Sc  Sc5  1  0.350162  0.175081  0.007933  1
  Sc  Sc6  1  0.824919  0.649838  0.007933  1
  Sc  Sc7  1  0.333333  0.666667  0.830674  1
  Sc  Sc8  1  0.666667  0.333333  0.329539  1
  Sc  Sc9  1  0.466180  0.533820  0.209606  1
  Sc  Sc10  1  0.067639  0.533820  0.209606  1
  Sc  Sc11  1  0.466180  0.932361  0.209606  1
  Sc  Sc12  1  0.533943  0.466057  0.710393  1
  Sc  Sc13  1  0.932113  0.466057  0.710393  1
  Sc  Sc14  1  0.533943  0.067887  0.710393  1
  Sc  Sc15  1  0.000000  0.000000  0.230504  1
  Ga  Ga16  1  0.163313  0.836687  0.962920  1
  Ga  Ga17  1  0.673373  0.836687  0.962920  1
  Ga  Ga18  1  0.163313  0.326627  0.962920  1
  Ga  Ga19  1  0.836680  0.163320  0.462153  1
  Ga  Ga20  1  0.326641  0.163320  0.462153  1
  Ga  Ga21  1  0.836680  0.673359  0.462153  1
  Fe  Fe22  1  0.333333  0.666667  0.441071  1
  Fe  Fe23  1  0.666667  0.333333  0.937556  1
