# generated using pymatgen
data_Hf5ZnInBi2
_symmetry_space_group_name_H-M   'P 1'
_cell_length_a   8.74089800
_cell_length_b   8.74089871
_cell_length_c   5.84056000
_cell_angle_alpha   90.00000000
_cell_angle_beta   90.00000000
_cell_angle_gamma   119.85122730
_symmetry_Int_Tables_number   1
_chemical_formula_structural   Hf5ZnInBi2
_chemical_formula_sum   'Hf10 Zn2 In2 Bi4'
_cell_volume   387.03155648
_cell_formula_units_Z   2
loop_
 _symmetry_equiv_pos_site_id
 _symmetry_equiv_pos_as_xyz
  1  'x, y, z'
loop_
 _atom_site_type_symbol
 _atom_site_label
 _atom_site_symmetry_multiplicity
 _atom_site_fract_x
 _atom_site_fract_y
 _atom_site_fract_z
 _atom_site_occupancy
  Hf  Hf0  1  0.667308  0.330239  0.003563  1
  Hf  Hf1  1  0.330239  0.667308  0.003563  1
  Hf  Hf2  1  0.330239  0.667308  0.496437  1
  Hf  Hf3  1  0.667308  0.330239  0.496437  1
  Hf  Hf4  1  0.736431  0.736431  0.750000  1
  Hf  Hf5  1  0.262739  0.998861  0.750000  1
  Hf  Hf6  1  0.998861  0.262739  0.750000  1
  Hf  Hf7  1  0.266597  0.266597  0.250000  1
  Hf  Hf8  1  0.733570  0.007498  0.250000  1
  Hf  Hf9  1  0.007498  0.733570  0.250000  1
  Zn  Zn10  1  0.000364  0.000364  0.006935  1
  Zn  Zn11  1  0.000364  0.000364  0.493065  1
  In  In12  1  0.384103  0.001218  0.250000  1
  In  In13  1  0.001218  0.384103  0.250000  1
  Bi  Bi14  1  0.386481  0.386481  0.750000  1
  Bi  Bi15  1  0.610666  0.998443  0.750000  1
  Bi  Bi16  1  0.998443  0.610666  0.750000  1
  Bi  Bi17  1  0.617572  0.617572  0.250000  1
