# generated using pymatgen
data_Cr22FeC6
_symmetry_space_group_name_H-M   'P 1'
_cell_length_a   7.45660804
_cell_length_b   7.45660796
_cell_length_c   7.45660800
_cell_angle_alpha   59.99999982
_cell_angle_beta   60.00000018
_cell_angle_gamma   60.00000232
_symmetry_Int_Tables_number   1
_chemical_formula_structural   Cr22FeC6
_chemical_formula_sum   'Cr22 Fe1 C6'
_cell_volume   293.16285816
_cell_formula_units_Z   1
loop_
 _symmetry_equiv_pos_site_id
 _symmetry_equiv_pos_as_xyz
  1  'x, y, z'
loop_
 _atom_site_type_symbol
 _atom_site_label
 _atom_site_symmetry_multiplicity
 _atom_site_fract_x
 _atom_site_fract_y
 _atom_site_fract_z
 _atom_site_occupancy
  Cr  Cr0  1  0.750000  0.750000  0.750000  1
  Cr  Cr1  1  0.250000  0.250000  0.250000  1
  Cr  Cr2  1  0.619271  0.619271  0.142186  1
  Cr  Cr3  1  0.619271  0.142186  0.619271  1
  Cr  Cr4  1  0.142186  0.619271  0.619271  1
  Cr  Cr5  1  0.619271  0.619271  0.619271  1
  Cr  Cr6  1  0.380729  0.380729  0.857814  1
  Cr  Cr7  1  0.380729  0.857814  0.380729  1
  Cr  Cr8  1  0.857814  0.380729  0.380729  1
  Cr  Cr9  1  0.380729  0.380729  0.380729  1
  Cr  Cr10  1  0.000000  0.000000  0.334220  1
  Cr  Cr11  1  0.665780  0.000000  0.334220  1
  Cr  Cr12  1  0.000000  0.665780  0.334220  1
  Cr  Cr13  1  0.665780  0.334220  0.000000  1
  Cr  Cr14  1  0.000000  0.334220  0.000000  1
  Cr  Cr15  1  0.000000  0.334220  0.665780  1
  Cr  Cr16  1  0.334220  0.665780  0.000000  1
  Cr  Cr17  1  0.334220  0.000000  0.665780  1
  Cr  Cr18  1  0.334220  0.000000  0.000000  1
  Cr  Cr19  1  0.000000  0.000000  0.665780  1
  Cr  Cr20  1  0.000000  0.665780  0.000000  1
  Cr  Cr21  1  0.665780  0.000000  0.000000  1
  Fe  Fe22  1  0.000000  0.000000  0.000000  1
  C  C23  1  0.722358  0.722358  0.277642  1
  C  C24  1  0.277642  0.722358  0.277642  1
  C  C25  1  0.722358  0.277642  0.277642  1
  C  C26  1  0.277642  0.277642  0.722358  1
  C  C27  1  0.722358  0.277642  0.722358  1
  C  C28  1  0.277642  0.722358  0.722358  1
