# generated using pymatgen
data_Yb3ZnNiO6
_symmetry_space_group_name_H-M   'P 1'
_cell_length_a   6.13608276
_cell_length_b   6.13608295
_cell_length_c   6.13608400
_cell_angle_alpha   91.39543379
_cell_angle_beta   91.39543384
_cell_angle_gamma   91.39543959
_symmetry_Int_Tables_number   1
_chemical_formula_structural   Yb3ZnNiO6
_chemical_formula_sum   'Yb6 Zn2 Ni2 O12'
_cell_volume   230.82389428
_cell_formula_units_Z   2
loop_
 _symmetry_equiv_pos_site_id
 _symmetry_equiv_pos_as_xyz
  1  'x, y, z'
loop_
 _atom_site_type_symbol
 _atom_site_label
 _atom_site_symmetry_multiplicity
 _atom_site_fract_x
 _atom_site_fract_y
 _atom_site_fract_z
 _atom_site_occupancy
  Yb  Yb0  1  0.250000  0.619287  0.880713  1
  Yb  Yb1  1  0.380713  0.119287  0.750000  1
  Yb  Yb2  1  0.119287  0.750000  0.380713  1
  Yb  Yb3  1  0.750000  0.380713  0.119287  1
  Yb  Yb4  1  0.619287  0.880713  0.250000  1
  Yb  Yb5  1  0.880713  0.250000  0.619287  1
  Zn  Zn6  1  0.750000  0.750000  0.750000  1
  Zn  Zn7  1  0.250000  0.250000  0.250000  1
  Ni  Ni8  1  0.500000  0.500000  0.500000  1
  Ni  Ni9  1  0.000000  0.000000  0.000000  1
  O  O10  1  0.550613  0.210236  0.417966  1
  O  O11  1  0.449387  0.789764  0.582034  1
  O  O12  1  0.789764  0.582034  0.449387  1
  O  O13  1  0.582034  0.449387  0.789764  1
  O  O14  1  0.710236  0.050613  0.917966  1
  O  O15  1  0.050613  0.917966  0.710236  1
  O  O16  1  0.082034  0.289764  0.949387  1
  O  O17  1  0.949387  0.082034  0.289764  1
  O  O18  1  0.289764  0.949387  0.082034  1
  O  O19  1  0.417966  0.550613  0.210236  1
  O  O20  1  0.210236  0.417966  0.550613  1
  O  O21  1  0.917966  0.710236  0.050613  1
