# generated using pymatgen
data_Ba2Hg3(PtO2)7
_symmetry_space_group_name_H-M   'P 1'
_cell_length_a   6.33497127
_cell_length_b   6.33497115
_cell_length_c   11.19991173
_cell_angle_alpha   89.94919237
_cell_angle_beta   89.94919092
_cell_angle_gamma   61.27868274
_symmetry_Int_Tables_number   1
_chemical_formula_structural   Ba2Hg3(PtO2)7
_chemical_formula_sum   'Ba2 Hg3 Pt7 O14'
_cell_volume   394.17322989
_cell_formula_units_Z   1
loop_
 _symmetry_equiv_pos_site_id
 _symmetry_equiv_pos_as_xyz
  1  'x, y, z'
loop_
 _atom_site_type_symbol
 _atom_site_label
 _atom_site_symmetry_multiplicity
 _atom_site_fract_x
 _atom_site_fract_y
 _atom_site_fract_z
 _atom_site_occupancy
  Ba  Ba0  1  0.502897  0.502897  0.703994  1
  Ba  Ba1  1  0.497103  0.497103  0.296006  1
  Hg  Hg2  1  0.825950  0.825950  0.192908  1
  Hg  Hg3  1  0.174050  0.174050  0.807092  1
  Hg  Hg4  1  0.000000  0.000000  0.500000  1
  Pt  Pt5  1  0.000000  0.000000  0.000000  1
  Pt  Pt6  1  0.833416  0.833416  0.775941  1
  Pt  Pt7  1  0.166584  0.166584  0.224059  1
  Pt  Pt8  1  0.000000  0.500000  0.000000  1
  Pt  Pt9  1  0.500000  0.000000  0.500000  1
  Pt  Pt10  1  0.000000  0.500000  0.500000  1
  Pt  Pt11  1  0.500000  0.000000  0.000000  1
  O  O12  1  0.693657  0.117415  0.897435  1
  O  O13  1  0.690657  0.690657  0.899319  1
  O  O14  1  0.478554  0.010700  0.318521  1
  O  O15  1  0.360824  0.360824  0.503162  1
  O  O16  1  0.989300  0.521446  0.681479  1
  O  O17  1  0.006174  0.006174  0.313146  1
  O  O18  1  0.521446  0.989300  0.681479  1
  O  O19  1  0.117415  0.693657  0.897435  1
  O  O20  1  0.306343  0.882585  0.102565  1
  O  O21  1  0.639176  0.639176  0.496838  1
  O  O22  1  0.309343  0.309343  0.100681  1
  O  O23  1  0.010700  0.478554  0.318521  1
  O  O24  1  0.993826  0.993826  0.686854  1
  O  O25  1  0.882585  0.306343  0.102565  1
