# generated using pymatgen
data_Er20Ir6(PdRu)3
_symmetry_space_group_name_H-M   'P 1'
_cell_length_a   10.83112164
_cell_length_b   10.82280475
_cell_length_c   6.37762271
_cell_angle_alpha   89.95148067
_cell_angle_beta   89.93204921
_cell_angle_gamma   90.39014619
_symmetry_Int_Tables_number   1
_chemical_formula_structural   Er20Ir6(PdRu)3
_chemical_formula_sum   'Er20 Ir6 Pd3 Ru3'
_cell_volume   747.58666676
_cell_formula_units_Z   1
loop_
 _symmetry_equiv_pos_site_id
 _symmetry_equiv_pos_as_xyz
  1  'x, y, z'
loop_
 _atom_site_type_symbol
 _atom_site_label
 _atom_site_symmetry_multiplicity
 _atom_site_fract_x
 _atom_site_fract_y
 _atom_site_fract_z
 _atom_site_occupancy
  Er  Er0  1  0.296356  0.083461  0.370094  1
  Er  Er1  1  0.294834  0.908786  0.879109  1
  Er  Er2  1  0.701938  0.088499  0.871780  1
  Er  Er3  1  0.699650  0.909982  0.371155  1
  Er  Er4  1  0.580909  0.791918  0.878617  1
  Er  Er5  1  0.581439  0.207405  0.377313  1
  Er  Er6  1  0.411152  0.792357  0.378323  1
  Er  Er7  1  0.417430  0.206386  0.877774  1
  Er  Er8  1  0.210340  0.418195  0.623113  1
  Er  Er9  1  0.208662  0.590176  0.120110  1
  Er  Er10  1  0.791242  0.417892  0.121267  1
  Er  Er11  1  0.791051  0.583481  0.624008  1
  Er  Er12  1  0.915243  0.705037  0.130033  1
  Er  Er13  1  0.909877  0.296362  0.630250  1
  Er  Er14  1  0.092890  0.707136  0.622883  1
  Er  Er15  1  0.091774  0.299248  0.128111  1
  Er  Er16  1  0.000532  0.997453  0.498152  1
  Er  Er17  1  0.002403  0.999287  0.999158  1
  Er  Er18  1  0.499514  0.498823  0.998535  1
  Er  Er19  1  0.501123  0.500358  0.497240  1
  Ir  Ir20  1  0.149722  0.849333  0.249591  1
  Ir  Ir21  1  0.654269  0.346153  0.749610  1
  Ir  Ir22  1  0.655579  0.652855  0.247992  1
  Ir  Ir23  1  0.346415  0.345142  0.251423  1
  Ir  Ir24  1  0.347485  0.652368  0.749246  1
  Ir  Ir25  1  0.000252  0.499390  0.379600  1
  Pd  Pd26  1  0.847358  0.153079  0.249528  1
  Pd  Pd27  1  0.844276  0.845628  0.750552  1
  Pd  Pd28  1  0.154397  0.155321  0.749262  1
  Ru  Ru29  1  0.500497  0.999621  0.124411  1
  Ru  Ru30  1  0.500628  0.999064  0.626634  1
  Ru  Ru31  1  0.000763  0.499803  0.875123  1
