# generated using pymatgen
data_CeErB6Os
_symmetry_space_group_name_H-M   'P 1'
_cell_length_a   3.68448000
_cell_length_b   9.17908700
_cell_length_c   11.55902700
_cell_angle_alpha   90.00000000
_cell_angle_beta   90.00000000
_cell_angle_gamma   90.00000000
_symmetry_Int_Tables_number   1
_chemical_formula_structural   CeErB6Os
_chemical_formula_sum   'Ce4 Er4 B24 Os4'
_cell_volume   390.92817113
_cell_formula_units_Z   4
loop_
 _symmetry_equiv_pos_site_id
 _symmetry_equiv_pos_as_xyz
  1  'x, y, z'
loop_
 _atom_site_type_symbol
 _atom_site_label
 _atom_site_symmetry_multiplicity
 _atom_site_fract_x
 _atom_site_fract_y
 _atom_site_fract_z
 _atom_site_occupancy
  Ce  Ce0  1  0.000000  0.322898  0.413486  1
  Ce  Ce1  1  0.000000  0.677102  0.586514  1
  Ce  Ce2  1  0.000000  0.822898  0.086514  1
  Ce  Ce3  1  0.000000  0.177102  0.913486  1
  Er  Er4  1  0.000000  0.944879  0.374251  1
  Er  Er5  1  0.000000  0.055121  0.625749  1
  Er  Er6  1  0.000000  0.444879  0.125749  1
  Er  Er7  1  0.000000  0.555121  0.874251  1
  B  B8  1  0.500000  0.554371  0.432066  1
  B  B9  1  0.500000  0.445629  0.567934  1
  B  B10  1  0.500000  0.054371  0.067934  1
  B  B11  1  0.500000  0.945629  0.932066  1
  B  B12  1  0.500000  0.749488  0.419384  1
  B  B13  1  0.500000  0.250512  0.580616  1
  B  B14  1  0.500000  0.249488  0.080616  1
  B  B15  1  0.500000  0.750512  0.919384  1
  B  B16  1  0.500000  0.792336  0.267059  1
  B  B17  1  0.500000  0.207664  0.732941  1
  B  B18  1  0.500000  0.292336  0.232941  1
  B  B19  1  0.500000  0.707664  0.767059  1
  B  B20  1  0.500000  0.632337  0.185083  1
  B  B21  1  0.500000  0.367663  0.814917  1
  B  B22  1  0.500000  0.132337  0.314917  1
  B  B23  1  0.500000  0.867663  0.685083  1
  B  B24  1  0.500000  0.984481  0.214076  1
  B  B25  1  0.500000  0.015519  0.785924  1
  B  B26  1  0.500000  0.484481  0.285924  1
  B  B27  1  0.500000  0.515519  0.714076  1
  B  B28  1  0.500000  0.607681  0.029613  1
  B  B29  1  0.500000  0.392319  0.970387  1
  B  B30  1  0.500000  0.107681  0.470387  1
  B  B31  1  0.500000  0.892319  0.529613  1
  Os  Os32  1  0.000000  0.639066  0.320384  1
  Os  Os33  1  0.000000  0.360934  0.679616  1
  Os  Os34  1  0.000000  0.139066  0.179616  1
  Os  Os35  1  0.000000  0.860934  0.820384  1
