# generated using pymatgen
data_Tb3Y(Zn3Pt4)2
_symmetry_space_group_name_H-M   'P 1'
_cell_length_a   8.16634203
_cell_length_b   8.16634185
_cell_length_c   7.63273900
_cell_angle_alpha   90.00525505
_cell_angle_beta   89.99474495
_cell_angle_gamma   140.12159792
_symmetry_Int_Tables_number   1
_chemical_formula_structural   Tb3Y(Zn3Pt4)2
_chemical_formula_sum   'Tb3 Y1 Zn6 Pt8'
_cell_volume   326.36398127
_cell_formula_units_Z   1
loop_
 _symmetry_equiv_pos_site_id
 _symmetry_equiv_pos_as_xyz
  1  'x, y, z'
loop_
 _atom_site_type_symbol
 _atom_site_label
 _atom_site_symmetry_multiplicity
 _atom_site_fract_x
 _atom_site_fract_y
 _atom_site_fract_z
 _atom_site_occupancy
  Tb  Tb0  1  0.888995  0.111006  0.586333  1
  Tb  Tb1  1  0.388987  0.611013  0.913275  1
  Tb  Tb2  1  0.611105  0.388894  0.087256  1
  Y  Y3  1  0.111194  0.888806  0.413110  1
  Zn  Zn4  1  0.000156  0.999844  0.000192  1
  Zn  Zn5  1  0.500134  0.499866  0.499700  1
  Zn  Zn6  1  0.022530  0.478114  0.249986  1
  Zn  Zn7  1  0.477638  0.022272  0.749940  1
  Zn  Zn8  1  0.977728  0.522362  0.749940  1
  Zn  Zn9  1  0.521886  0.977470  0.249986  1
  Pt  Pt10  1  0.191481  0.308659  0.249954  1
  Pt  Pt11  1  0.308388  0.191690  0.750134  1
  Pt  Pt12  1  0.808310  0.691613  0.750134  1
  Pt  Pt13  1  0.691341  0.808519  0.249954  1
  Pt  Pt14  1  0.176918  0.823082  0.027805  1
  Pt  Pt15  1  0.822992  0.177009  0.972183  1
  Pt  Pt16  1  0.323034  0.676966  0.528033  1
  Pt  Pt17  1  0.677186  0.322814  0.472086  1
