# generated using pymatgen
data_NaYb4(PtPb2)2
_symmetry_space_group_name_H-M   'P 1'
_cell_length_a   3.72859700
_cell_length_b   8.25139500
_cell_length_c   18.25891200
_cell_angle_alpha   90.00000000
_cell_angle_beta   90.00000000
_cell_angle_gamma   90.00000000
_symmetry_Int_Tables_number   1
_chemical_formula_structural   NaYb4(PtPb2)2
_chemical_formula_sum   'Na2 Yb8 Pt4 Pb8'
_cell_volume   561.75599895
_cell_formula_units_Z   2
loop_
 _symmetry_equiv_pos_site_id
 _symmetry_equiv_pos_as_xyz
  1  'x, y, z'
loop_
 _atom_site_type_symbol
 _atom_site_label
 _atom_site_symmetry_multiplicity
 _atom_site_fract_x
 _atom_site_fract_y
 _atom_site_fract_z
 _atom_site_occupancy
  Na  Na0  1  0.000000  0.000000  0.000000  1
  Na  Na1  1  0.000000  0.500000  0.500000  1
  Yb  Yb2  1  0.000000  0.125840  0.410594  1
  Yb  Yb3  1  0.000000  0.874160  0.589406  1
  Yb  Yb4  1  0.000000  0.374160  0.910594  1
  Yb  Yb5  1  0.000000  0.625840  0.089406  1
  Yb  Yb6  1  0.000000  0.241800  0.220065  1
  Yb  Yb7  1  0.000000  0.758200  0.779935  1
  Yb  Yb8  1  0.000000  0.258200  0.720065  1
  Yb  Yb9  1  0.000000  0.741800  0.279935  1
  Pt  Pt10  1  0.500000  0.015702  0.303785  1
  Pt  Pt11  1  0.500000  0.984298  0.696215  1
  Pt  Pt12  1  0.500000  0.484298  0.803785  1
  Pt  Pt13  1  0.500000  0.515702  0.196215  1
  Pb  Pb14  1  0.500000  0.430085  0.348224  1
  Pb  Pb15  1  0.500000  0.569915  0.651776  1
  Pb  Pb16  1  0.500000  0.069915  0.848224  1
  Pb  Pb17  1  0.500000  0.930085  0.151776  1
  Pb  Pb18  1  0.500000  0.302787  0.064752  1
  Pb  Pb19  1  0.500000  0.697213  0.935248  1
  Pb  Pb20  1  0.500000  0.197213  0.564752  1
  Pb  Pb21  1  0.500000  0.802787  0.435248  1
