# generated using pymatgen
data_Tb13Dy3In3AgRh4
_symmetry_space_group_name_H-M   'P 1'
_cell_length_a   9.68459598
_cell_length_b   9.67186525
_cell_length_c   9.66265866
_cell_angle_alpha   59.94012371
_cell_angle_beta   59.91989616
_cell_angle_gamma   59.95619236
_symmetry_Int_Tables_number   1
_chemical_formula_structural   Tb13Dy3In3AgRh4
_chemical_formula_sum   'Tb13 Dy3 In3 Ag1 Rh4'
_cell_volume   639.10088827
_cell_formula_units_Z   1
loop_
 _symmetry_equiv_pos_site_id
 _symmetry_equiv_pos_as_xyz
  1  'x, y, z'
loop_
 _atom_site_type_symbol
 _atom_site_label
 _atom_site_symmetry_multiplicity
 _atom_site_fract_x
 _atom_site_fract_y
 _atom_site_fract_z
 _atom_site_occupancy
  Tb  Tb0  1  0.689056  0.311379  0.310503  1
  Tb  Tb1  1  0.688547  0.689149  0.312035  1
  Tb  Tb2  1  0.310293  0.689155  0.312000  1
  Tb  Tb3  1  0.937096  0.937354  0.557764  1
  Tb  Tb4  1  0.150184  0.148809  0.550798  1
  Tb  Tb5  1  0.567803  0.937327  0.557704  1
  Tb  Tb6  1  0.152381  0.150325  0.149074  1
  Tb  Tb7  1  0.308673  0.310284  0.691265  1
  Tb  Tb8  1  0.938254  0.566396  0.556999  1
  Tb  Tb9  1  0.564188  0.563498  0.935525  1
  Tb  Tb10  1  0.564506  0.936542  0.934532  1
  Tb  Tb11  1  0.936702  0.563580  0.935543  1
  Tb  Tb12  1  0.150659  0.551069  0.147647  1
  Dy  Dy13  1  0.309147  0.690398  0.691366  1
  Dy  Dy14  1  0.689833  0.310273  0.691289  1
  Dy  Dy15  1  0.548181  0.150373  0.149050  1
  In  In16  1  0.244776  0.917326  0.921340  1
  In  In17  1  0.916413  0.244763  0.922274  1
  In  In18  1  0.916482  0.917379  0.921346  1
  Ag  Ag19  1  0.916334  0.915908  0.251372  1
  Rh  Rh20  1  0.357286  0.357223  0.357951  1
  Rh  Rh21  1  0.927369  0.357299  0.358115  1
  Rh  Rh22  1  0.358004  0.357444  0.926778  1
  Rh  Rh23  1  0.357831  0.926749  0.357733  1
