# generated using pymatgen
data_LaTbTi3P7Rh9
_symmetry_space_group_name_H-M   'P 1'
_cell_length_a   3.86667500
_cell_length_b   9.70688711
_cell_length_c   9.70639008
_cell_angle_alpha   119.99585970
_cell_angle_beta   90.00095570
_cell_angle_gamma   89.99879020
_symmetry_Int_Tables_number   1
_chemical_formula_structural   LaTbTi3P7Rh9
_chemical_formula_sum   'La1 Tb1 Ti3 P7 Rh9'
_cell_volume   315.51799912
_cell_formula_units_Z   1
loop_
 _symmetry_equiv_pos_site_id
 _symmetry_equiv_pos_as_xyz
  1  'x, y, z'
loop_
 _atom_site_type_symbol
 _atom_site_label
 _atom_site_symmetry_multiplicity
 _atom_site_fract_x
 _atom_site_fract_y
 _atom_site_fract_z
 _atom_site_occupancy
  La  La0  1  0.261777  0.666619  0.333305  1
  Tb  Tb1  1  0.761784  0.333394  0.666683  1
  Ti  Ti2  1  0.762054  0.101496  0.881242  1
  Ti  Ti3  1  0.762040  0.118679  0.220213  1
  Ti  Ti4  1  0.762036  0.779756  0.898510  1
  P  P5  1  0.262345  0.999931  0.999974  1
  P  P6  1  0.761854  0.883374  0.596025  1
  P  P7  1  0.761843  0.403905  0.287338  1
  P  P8  1  0.761814  0.712666  0.116666  1
  P  P9  1  0.261808  0.115680  0.416612  1
  P  P10  1  0.261848  0.583421  0.699051  1
  P  P11  1  0.261821  0.300989  0.884377  1
  Rh  Rh12  1  0.261871  0.884911  0.159144  1
  Rh  Rh13  1  0.261913  0.840884  0.725778  1
  Rh  Rh14  1  0.261890  0.274156  0.115024  1
  Rh  Rh15  1  0.761891  0.608371  0.563556  1
  Rh  Rh16  1  0.761852  0.436448  0.044789  1
  Rh  Rh17  1  0.761855  0.955233  0.391708  1
  Rh  Rh18  1  0.261942  0.364540  0.436139  1
  Rh  Rh19  1  0.261915  0.563856  0.928343  1
  Rh  Rh20  1  0.261846  0.071687  0.635526  1
