# generated using pymatgen
data_Nd3ThRe15Si8Ru
_symmetry_space_group_name_H-M   'P 1'
_cell_length_a   4.15332200
_cell_length_b   7.36535713
_cell_length_c   15.50151934
_cell_angle_alpha   89.81253745
_cell_angle_beta   90.00000000
_cell_angle_gamma   90.00000000
_symmetry_Int_Tables_number   1
_chemical_formula_structural   Nd3ThRe15Si8Ru
_chemical_formula_sum   'Nd3 Th1 Re15 Si8 Ru1'
_cell_volume   474.19978618
_cell_formula_units_Z   1
loop_
 _symmetry_equiv_pos_site_id
 _symmetry_equiv_pos_as_xyz
  1  'x, y, z'
loop_
 _atom_site_type_symbol
 _atom_site_label
 _atom_site_symmetry_multiplicity
 _atom_site_fract_x
 _atom_site_fract_y
 _atom_site_fract_z
 _atom_site_occupancy
  Nd  Nd0  1  0.000000  0.577755  0.119514  1
  Nd  Nd1  1  0.500000  0.077821  0.381110  1
  Nd  Nd2  1  0.500000  0.919626  0.617233  1
  Th  Th3  1  0.000000  0.420680  0.881791  1
  Re  Re4  1  0.000000  0.864722  0.951080  1
  Re  Re5  1  0.500000  0.638093  0.447106  1
  Re  Re6  1  0.500000  0.362526  0.551671  1
  Re  Re7  1  0.000000  0.736988  0.320515  1
  Re  Re8  1  0.000000  0.265670  0.678994  1
  Re  Re9  1  0.500000  0.233690  0.178448  1
  Re  Re10  1  0.500000  0.764226  0.822381  1
  Re  Re11  1  0.000000  0.432822  0.416793  1
  Re  Re12  1  0.000000  0.566020  0.581116  1
  Re  Re13  1  0.500000  0.934681  0.083816  1
  Re  Re14  1  0.500000  0.069160  0.920957  1
  Re  Re15  1  0.000000  0.989719  0.203480  1
  Re  Re16  1  0.000000  0.005970  0.793835  1
  Re  Re17  1  0.500000  0.488457  0.293416  1
  Re  Re18  1  0.500000  0.506660  0.707581  1
  Si  Si19  1  0.000000  0.828771  0.475594  1
  Si  Si20  1  0.000000  0.171626  0.523632  1
  Si  Si21  1  0.500000  0.328825  0.025489  1
  Si  Si22  1  0.500000  0.674720  0.977912  1
  Si  Si23  1  0.000000  0.290365  0.272144  1
  Si  Si24  1  0.000000  0.707327  0.725397  1
  Si  Si25  1  0.500000  0.788754  0.226955  1
  Si  Si26  1  0.500000  0.200064  0.772581  1
  Ru  Ru27  1  0.000000  0.154262  0.049464  1
