# generated using pymatgen
data_TbYbEr5CoI12
_symmetry_space_group_name_H-M   'P 1'
_cell_length_a   9.64724741
_cell_length_b   9.70038599
_cell_length_c   9.69933606
_cell_angle_alpha   106.82654713
_cell_angle_beta   106.99766837
_cell_angle_gamma   106.79560523
_symmetry_Int_Tables_number   1
_chemical_formula_structural   TbYbEr5CoI12
_chemical_formula_sum   'Tb1 Yb1 Er5 Co1 I12'
_cell_volume   758.52341604
_cell_formula_units_Z   1
loop_
 _symmetry_equiv_pos_site_id
 _symmetry_equiv_pos_as_xyz
  1  'x, y, z'
loop_
 _atom_site_type_symbol
 _atom_site_label
 _atom_site_symmetry_multiplicity
 _atom_site_fract_x
 _atom_site_fract_y
 _atom_site_fract_z
 _atom_site_occupancy
  Tb  Tb0  1  0.715304  0.976677  0.907671  1
  Yb  Yb1  1  0.500154  0.500048  0.500077  1
  Er  Er2  1  0.023987  0.095056  0.293469  1
  Er  Er3  1  0.095395  0.293242  0.024450  1
  Er  Er4  1  0.281465  0.023257  0.091377  1
  Er  Er5  1  0.976505  0.904919  0.706777  1
  Er  Er6  1  0.905821  0.706960  0.975946  1
  Co  Co7  1  0.999661  0.000191  0.999999  1
  I  I8  1  0.147985  0.457165  0.378251  1
  I  I9  1  0.457290  0.377128  0.149240  1
  I  I10  1  0.378921  0.148514  0.455583  1
  I  I11  1  0.852283  0.542912  0.621764  1
  I  I12  1  0.542525  0.619930  0.850470  1
  I  I13  1  0.621207  0.850028  0.541256  1
  I  I14  1  0.678651  0.072180  0.224740  1
  I  I15  1  0.072176  0.223427  0.678362  1
  I  I16  1  0.225711  0.680171  0.072769  1
  I  I17  1  0.320727  0.928694  0.778245  1
  I  I18  1  0.928044  0.776627  0.321679  1
  I  I19  1  0.776188  0.322875  0.927874  1
