# generated using pymatgen
data_ScTi2(TcAs)3
_symmetry_space_group_name_H-M   'P 1'
_cell_length_a   7.61990491
_cell_length_b   7.61990470
_cell_length_c   7.61990523
_cell_angle_alpha   127.18254104
_cell_angle_beta   123.89935305
_cell_angle_gamma   80.67164862
_symmetry_Int_Tables_number   1
_chemical_formula_structural   ScTi2(TcAs)3
_chemical_formula_sum   'Sc2 Ti4 Tc6 As6'
_cell_volume   282.14798334
_cell_formula_units_Z   2
loop_
 _symmetry_equiv_pos_site_id
 _symmetry_equiv_pos_as_xyz
  1  'x, y, z'
loop_
 _atom_site_type_symbol
 _atom_site_label
 _atom_site_symmetry_multiplicity
 _atom_site_fract_x
 _atom_site_fract_y
 _atom_site_fract_z
 _atom_site_occupancy
  Sc  Sc0  1  0.466554  0.240576  0.274020  1
  Sc  Sc1  1  0.533446  0.807466  0.774020  1
  Ti  Ti2  1  0.746301  0.659688  0.413386  1
  Ti  Ti3  1  0.253699  0.667085  0.913386  1
  Ti  Ti4  1  0.058941  0.853491  0.294551  1
  Ti  Ti5  1  0.941059  0.235609  0.794551  1
  Tc  Tc6  1  0.668003  0.498717  0.914248  1
  Tc  Tc7  1  0.331997  0.246244  0.830714  1
  Tc  Tc8  1  0.915531  0.246244  0.414248  1
  Tc  Tc9  1  0.084469  0.498717  0.330714  1
  Tc  Tc10  1  0.000000  0.995599  0.995599  1
  Tc  Tc11  1  0.500000  0.995599  0.495599  1
  As  As12  1  0.844267  0.575563  0.752697  1
  As  As13  1  0.155733  0.908429  0.731296  1
  As  As14  1  0.677133  0.908429  0.252697  1
  As  As15  1  0.322867  0.575563  0.231296  1
  As  As16  1  0.281607  0.295297  0.513689  1
  As  As17  1  0.718393  0.232081  0.013689  1
