# generated using pymatgen
data_Sm4Mg3(Al5Pt2)3
_symmetry_space_group_name_H-M   'P 1'
_cell_length_a   7.73958515
_cell_length_b   7.73958845
_cell_length_c   9.40610800
_cell_angle_alpha   89.96871514
_cell_angle_beta   89.96875214
_cell_angle_gamma   119.81783315
_symmetry_Int_Tables_number   1
_chemical_formula_structural   Sm4Mg3(Al5Pt2)3
_chemical_formula_sum   'Sm4 Mg3 Al15 Pt6'
_cell_volume   488.84386404
_cell_formula_units_Z   1
loop_
 _symmetry_equiv_pos_site_id
 _symmetry_equiv_pos_as_xyz
  1  'x, y, z'
loop_
 _atom_site_type_symbol
 _atom_site_label
 _atom_site_symmetry_multiplicity
 _atom_site_fract_x
 _atom_site_fract_y
 _atom_site_fract_z
 _atom_site_occupancy
  Sm  Sm0  1  0.000806  0.667562  0.250021  1
  Sm  Sm1  1  0.001716  0.331126  0.750906  1
  Sm  Sm2  1  0.667562  0.000805  0.250021  1
  Sm  Sm3  1  0.331127  0.001718  0.750906  1
  Mg  Mg4  1  0.334131  0.334132  0.553135  1
  Mg  Mg5  1  0.666956  0.666956  0.445632  1
  Mg  Mg6  1  0.667169  0.667168  0.053266  1
  Al  Al7  1  0.334934  0.334934  0.940919  1
  Al  Al8  1  0.341109  0.546512  0.251843  1
  Al  Al9  1  0.659685  0.453055  0.749817  1
  Al  Al10  1  0.546513  0.341109  0.251843  1
  Al  Al11  1  0.453054  0.659685  0.749817  1
  Al  Al12  1  0.003505  0.333815  0.077091  1
  Al  Al13  1  0.995875  0.665523  0.922774  1
  Al  Al14  1  0.995233  0.665288  0.576724  1
  Al  Al15  1  0.333923  0.004503  0.424404  1
  Al  Al16  1  0.004502  0.333923  0.424404  1
  Al  Al17  1  0.665287  0.995234  0.576724  1
  Al  Al18  1  0.665522  0.995873  0.922775  1
  Al  Al19  1  0.333816  0.003505  0.077091  1
  Al  Al20  1  0.126049  0.126049  0.251064  1
  Al  Al21  1  0.871222  0.871223  0.749705  1
  Pt  Pt22  1  0.009487  0.009486  0.996306  1
  Pt  Pt23  1  0.999905  0.999905  0.501059  1
  Pt  Pt24  1  0.672422  0.319106  0.999408  1
  Pt  Pt25  1  0.319107  0.672421  0.999408  1
  Pt  Pt26  1  0.319384  0.679996  0.501468  1
  Pt  Pt27  1  0.679995  0.319385  0.501468  1
