# generated using pymatgen
data_Th2Pa(AlRh)3
_symmetry_space_group_name_H-M   'P 1'
_cell_length_a   7.15452645
_cell_length_b   7.19357465
_cell_length_c   4.10472400
_cell_angle_alpha   90.00000000
_cell_angle_beta   90.00000000
_cell_angle_gamma   120.18071256
_symmetry_Int_Tables_number   1
_chemical_formula_structural   Th2Pa(AlRh)3
_chemical_formula_sum   'Th2 Pa1 Al3 Rh3'
_cell_volume   182.61923351
_cell_formula_units_Z   1
loop_
 _symmetry_equiv_pos_site_id
 _symmetry_equiv_pos_as_xyz
  1  'x, y, z'
loop_
 _atom_site_type_symbol
 _atom_site_label
 _atom_site_symmetry_multiplicity
 _atom_site_fract_x
 _atom_site_fract_y
 _atom_site_fract_z
 _atom_site_occupancy
  Th  Th0  1  0.582324  0.581853  0.500000  1
  Th  Th1  1  0.417676  0.999529  0.500000  1
  Pa  Pa2  1  0.000000  0.418121  0.500000  1
  Al  Al3  1  0.000000  0.768210  0.000000  1
  Al  Al4  1  0.230834  0.233709  0.000000  1
  Al  Al5  1  0.769166  0.002875  0.000000  1
  Rh  Rh6  1  0.311855  0.648107  0.000000  1
  Rh  Rh7  1  0.688145  0.336251  0.000000  1
  Rh  Rh8  1  0.000000  0.011345  0.500000  1
