# generated using pymatgen
data_Ce6Pa2Bi3Sb7
_symmetry_space_group_name_H-M   'P 1'
_cell_length_a   9.78299500
_cell_length_b   9.78299508
_cell_length_c   6.29949100
_cell_angle_alpha   90.00000000
_cell_angle_beta   90.00000000
_cell_angle_gamma   120.00000311
_symmetry_Int_Tables_number   1
_chemical_formula_structural   Ce6Pa2Bi3Sb7
_chemical_formula_sum   'Ce6 Pa2 Bi3 Sb7'
_cell_volume   522.13131941
_cell_formula_units_Z   1
loop_
 _symmetry_equiv_pos_site_id
 _symmetry_equiv_pos_as_xyz
  1  'x, y, z'
loop_
 _atom_site_type_symbol
 _atom_site_label
 _atom_site_symmetry_multiplicity
 _atom_site_fract_x
 _atom_site_fract_y
 _atom_site_fract_z
 _atom_site_occupancy
  Ce  Ce0  1  0.617512  0.996208  0.251964  1
  Ce  Ce1  1  0.378696  0.996208  0.748036  1
  Ce  Ce2  1  0.003792  0.621304  0.251964  1
  Ce  Ce3  1  0.003792  0.382488  0.748036  1
  Ce  Ce4  1  0.378696  0.382488  0.251964  1
  Ce  Ce5  1  0.617512  0.621304  0.748036  1
  Pa  Pa6  1  0.000000  0.000000  0.000000  1
  Pa  Pa7  1  0.000000  0.000000  0.500000  1
  Bi  Bi8  1  0.333333  0.666667  0.000000  1
  Bi  Bi9  1  0.666667  0.333333  0.000000  1
  Bi  Bi10  1  0.666667  0.333333  0.500000  1
  Sb  Sb11  1  0.277254  0.001354  0.249062  1
  Sb  Sb12  1  0.724100  0.001354  0.750938  1
  Sb  Sb13  1  0.998646  0.275900  0.249062  1
  Sb  Sb14  1  0.998646  0.722746  0.750938  1
  Sb  Sb15  1  0.724100  0.722746  0.249062  1
  Sb  Sb16  1  0.277254  0.275900  0.750938  1
  Sb  Sb17  1  0.333333  0.666667  0.500000  1
