# generated using pymatgen
data_Ca3ScGa2(B2Rh5)2
_symmetry_space_group_name_H-M   'P 1'
_cell_length_a   9.66328521
_cell_length_b   9.66328521
_cell_length_c   3.00824000
_cell_angle_alpha   90.00000000
_cell_angle_beta   90.00000000
_cell_angle_gamma   90.68014524
_symmetry_Int_Tables_number   1
_chemical_formula_structural   Ca3ScGa2(B2Rh5)2
_chemical_formula_sum   'Ca3 Sc1 Ga2 B4 Rh10'
_cell_volume   280.88689514
_cell_formula_units_Z   1
loop_
 _symmetry_equiv_pos_site_id
 _symmetry_equiv_pos_as_xyz
  1  'x, y, z'
loop_
 _atom_site_type_symbol
 _atom_site_label
 _atom_site_symmetry_multiplicity
 _atom_site_fract_x
 _atom_site_fract_y
 _atom_site_fract_z
 _atom_site_occupancy
  Ca  Ca0  1  0.824309  0.324309  0.000000  1
  Ca  Ca1  1  0.322465  0.176134  0.000000  1
  Ca  Ca2  1  0.676134  0.822465  0.000000  1
  Sc  Sc3  1  0.176165  0.676165  0.000000  1
  Ga  Ga4  1  0.998538  0.003680  0.000000  1
  Ga  Ga5  1  0.503680  0.498538  0.000000  1
  B  B6  1  0.622085  0.122085  0.000000  1
  B  B7  1  0.126709  0.378548  0.000000  1
  B  B8  1  0.878548  0.626709  0.000000  1
  B  B9  1  0.373180  0.873180  0.000000  1
  Rh  Rh10  1  0.069060  0.223115  0.500000  1
  Rh  Rh11  1  0.213789  0.919793  0.500000  1
  Rh  Rh12  1  0.779385  0.068312  0.500000  1
  Rh  Rh13  1  0.941317  0.780510  0.500000  1
  Rh  Rh14  1  0.419793  0.713789  0.500000  1
  Rh  Rh15  1  0.568312  0.279385  0.500000  1
  Rh  Rh16  1  0.723115  0.569060  0.500000  1
  Rh  Rh17  1  0.280510  0.441317  0.500000  1
  Rh  Rh18  1  0.496454  0.996454  0.500000  1
  Rh  Rh19  1  0.006451  0.506451  0.500000  1
