# generated using pymatgen
data_Ca3U5Nb11AlSi16
_symmetry_space_group_name_H-M   'P 1'
_cell_length_a   7.08683887
_cell_length_b   7.09132752
_cell_length_c   12.98877238
_cell_angle_alpha   90.11461536
_cell_angle_beta   90.17419030
_cell_angle_gamma   90.12758993
_symmetry_Int_Tables_number   1
_chemical_formula_structural   Ca3U5Nb11AlSi16
_chemical_formula_sum   'Ca3 U5 Nb11 Al1 Si16'
_cell_volume   652.74604695
_cell_formula_units_Z   1
loop_
 _symmetry_equiv_pos_site_id
 _symmetry_equiv_pos_as_xyz
  1  'x, y, z'
loop_
 _atom_site_type_symbol
 _atom_site_label
 _atom_site_symmetry_multiplicity
 _atom_site_fract_x
 _atom_site_fract_y
 _atom_site_fract_z
 _atom_site_occupancy
  Ca  Ca0  1  0.997371  0.336595  0.218006  1
  Ca  Ca1  1  0.004104  0.663537  0.717368  1
  Ca  Ca2  1  0.162664  0.496884  0.467430  1
  U  U3  1  0.505746  0.835756  0.030652  1
  U  U4  1  0.833033  0.502696  0.967750  1
  U  U5  1  0.498066  0.161175  0.532848  1
  U  U6  1  0.338198  0.995524  0.782846  1
  U  U7  1  0.661029  0.002978  0.280779  1
  Nb  Nb8  1  0.822913  0.835873  0.498691  1
  Nb  Nb9  1  0.336447  0.675884  0.248064  1
  Nb  Nb10  1  0.668561  0.328127  0.750691  1
  Nb  Nb11  1  0.155337  0.994014  0.375154  1
  Nb  Nb12  1  0.847028  0.005220  0.877962  1
  Nb  Nb13  1  0.506972  0.656860  0.627090  1
  Nb  Nb14  1  0.349521  0.496987  0.876390  1
  Nb  Nb15  1  0.497858  0.346783  0.123815  1
  Nb  Nb16  1  0.650941  0.504570  0.374876  1
  Nb  Nb17  1  0.997041  0.150958  0.626788  1
  Nb  Nb18  1  0.000889  0.844353  0.124543  1
  Al  Al19  1  0.172543  0.167062  0.000249  1
  Si  Si20  1  0.294929  0.041569  0.185555  1
  Si  Si21  1  0.705410  0.958781  0.686819  1
  Si  Si22  1  0.457222  0.796104  0.435050  1
  Si  Si23  1  0.205288  0.548630  0.063837  1
  Si  Si24  1  0.544781  0.203515  0.934718  1
  Si  Si25  1  0.793085  0.455923  0.562946  1
  Si  Si26  1  0.042437  0.297947  0.813958  1
  Si  Si27  1  0.955851  0.706188  0.313068  1
  Si  Si28  1  0.370766  0.291923  0.315665  1
  Si  Si29  1  0.631413  0.708195  0.817404  1
  Si  Si30  1  0.207548  0.871062  0.566315  1
  Si  Si31  1  0.129018  0.787927  0.932624  1
  Si  Si32  1  0.785715  0.128622  0.067745  1
  Si  Si33  1  0.866459  0.202672  0.434655  1
  Si  Si34  1  0.298003  0.367735  0.684878  1
  Si  Si35  1  0.705814  0.631372  0.182769  1
