# generated using pymatgen
data_Rb5CuAu5
_symmetry_space_group_name_H-M   'P 1'
_cell_length_a   15.66899968
_cell_length_b   15.66900059
_cell_length_c   5.30632600
_cell_angle_alpha   90.00000000
_cell_angle_beta   90.00000000
_cell_angle_gamma   161.68939721
_symmetry_Int_Tables_number   1
_chemical_formula_structural   Rb5CuAu5
_chemical_formula_sum   'Rb5 Cu1 Au5'
_cell_volume   409.29707830
_cell_formula_units_Z   1
loop_
 _symmetry_equiv_pos_site_id
 _symmetry_equiv_pos_as_xyz
  1  'x, y, z'
loop_
 _atom_site_type_symbol
 _atom_site_label
 _atom_site_symmetry_multiplicity
 _atom_site_fract_x
 _atom_site_fract_y
 _atom_site_fract_z
 _atom_site_occupancy
  Rb  Rb0  1  0.999488  0.000512  0.000000  1
  Rb  Rb1  1  0.616189  0.383809  0.000000  1
  Rb  Rb2  1  0.383581  0.616417  0.000000  1
  Rb  Rb3  1  0.808054  0.191944  0.500001  1
  Rb  Rb4  1  0.193295  0.806703  0.500001  1
  Cu  Cu5  1  0.072525  0.927474  0.500001  1
  Au  Au6  1  0.735673  0.264325  0.000000  1
  Au  Au7  1  0.265005  0.734993  0.000000  1
  Au  Au8  1  0.922906  0.077093  0.500001  1
  Au  Au9  1  0.549083  0.450915  0.500001  1
  Au  Au10  1  0.454193  0.545805  0.500001  1
