# generated using pymatgen
data_CaAl2Au5
_symmetry_space_group_name_H-M   'P 1'
_cell_length_a   7.38853900
_cell_length_b   8.71199400
_cell_length_c   9.87831600
_cell_angle_alpha   90.00000000
_cell_angle_beta   90.00000000
_cell_angle_gamma   90.00000000
_symmetry_Int_Tables_number   1
_chemical_formula_structural   CaAl2Au5
_chemical_formula_sum   'Ca4 Al8 Au20'
_cell_volume   635.85640824
_cell_formula_units_Z   4
loop_
 _symmetry_equiv_pos_site_id
 _symmetry_equiv_pos_as_xyz
  1  'x, y, z'
loop_
 _atom_site_type_symbol
 _atom_site_label
 _atom_site_symmetry_multiplicity
 _atom_site_fract_x
 _atom_site_fract_y
 _atom_site_fract_z
 _atom_site_occupancy
  Ca  Ca0  1  0.250000  0.253356  0.127994  1
  Ca  Ca1  1  0.250000  0.753356  0.372006  1
  Ca  Ca2  1  0.750000  0.746644  0.872006  1
  Ca  Ca3  1  0.750000  0.246644  0.627994  1
  Al  Al4  1  0.250000  0.045000  0.610624  1
  Al  Al5  1  0.250000  0.545000  0.889376  1
  Al  Al6  1  0.750000  0.955000  0.389376  1
  Al  Al7  1  0.750000  0.455000  0.110624  1
  Al  Al8  1  0.250000  0.354707  0.482826  1
  Al  Al9  1  0.250000  0.854707  0.017174  1
  Al  Al10  1  0.750000  0.645293  0.517174  1
  Al  Al11  1  0.750000  0.145293  0.982826  1
  Au  Au12  1  0.058656  0.106240  0.393478  1
  Au  Au13  1  0.441344  0.606240  0.106522  1
  Au  Au14  1  0.558656  0.893760  0.606522  1
  Au  Au15  1  0.941344  0.393760  0.893478  1
  Au  Au16  1  0.941344  0.893760  0.606522  1
  Au  Au17  1  0.558656  0.393760  0.893478  1
  Au  Au18  1  0.441344  0.106240  0.393478  1
  Au  Au19  1  0.058656  0.606240  0.106522  1
  Au  Au20  1  0.033406  0.054163  0.863324  1
  Au  Au21  1  0.466594  0.554163  0.636676  1
  Au  Au22  1  0.533406  0.945837  0.136676  1
  Au  Au23  1  0.966594  0.445837  0.363324  1
  Au  Au24  1  0.966594  0.945837  0.136676  1
  Au  Au25  1  0.533406  0.445837  0.363324  1
  Au  Au26  1  0.466594  0.054163  0.863324  1
  Au  Au27  1  0.033406  0.554163  0.636676  1
  Au  Au28  1  0.250000  0.294492  0.737567  1
  Au  Au29  1  0.250000  0.794492  0.762433  1
  Au  Au30  1  0.750000  0.705508  0.262433  1
  Au  Au31  1  0.750000  0.205508  0.237567  1
