# generated using pymatgen
data_Y12Er3Pa(CdIr)4
_symmetry_space_group_name_H-M   'P 1'
_cell_length_a   9.65894560
_cell_length_b   9.65626916
_cell_length_c   9.66031234
_cell_angle_alpha   59.78691359
_cell_angle_beta   59.80167396
_cell_angle_gamma   59.77901444
_symmetry_Int_Tables_number   1
_chemical_formula_structural   Y12Er3Pa(CdIr)4
_chemical_formula_sum   'Y12 Er3 Pa1 Cd4 Ir4'
_cell_volume   634.06217986
_cell_formula_units_Z   1
loop_
 _symmetry_equiv_pos_site_id
 _symmetry_equiv_pos_as_xyz
  1  'x, y, z'
loop_
 _atom_site_type_symbol
 _atom_site_label
 _atom_site_symmetry_multiplicity
 _atom_site_fract_x
 _atom_site_fract_y
 _atom_site_fract_z
 _atom_site_occupancy
  Y  Y0  1  0.810979  0.190259  0.190598  1
  Y  Y1  1  0.190227  0.810537  0.810551  1
  Y  Y2  1  0.190281  0.810993  0.190398  1
  Y  Y3  1  0.810661  0.189968  0.810668  1
  Y  Y4  1  0.190605  0.190383  0.810961  1
  Y  Y5  1  0.810487  0.810478  0.190397  1
  Y  Y6  1  0.940708  0.562844  0.562746  1
  Y  Y7  1  0.561328  0.939250  0.939294  1
  Y  Y8  1  0.562822  0.940529  0.562800  1
  Y  Y9  1  0.939264  0.561399  0.939260  1
  Y  Y10  1  0.562755  0.562819  0.940803  1
  Y  Y11  1  0.939289  0.939255  0.561306  1
  Er  Er12  1  0.350345  0.350275  0.949779  1
  Er  Er13  1  0.349969  0.950203  0.350043  1
  Er  Er14  1  0.949918  0.350131  0.350292  1
  Pa  Pa15  1  0.342173  0.342201  0.342123  1
  Cd  Cd16  1  0.579005  0.578873  0.579076  1
  Cd  Cd17  1  0.578847  0.578868  0.256084  1
  Cd  Cd18  1  0.578781  0.256290  0.578789  1
  Cd  Cd19  1  0.256172  0.578821  0.578818  1
  Ir  Ir20  1  0.143936  0.144095  0.143858  1
  Ir  Ir21  1  0.146673  0.146739  0.568209  1
  Ir  Ir22  1  0.146614  0.568065  0.146554  1
  Ir  Ir23  1  0.568161  0.146724  0.146592  1
