# generated using pymatgen
data_Ho3Er5Sc8(Ga3Co)2
_symmetry_space_group_name_H-M   'P 1'
_cell_length_a   9.54747901
_cell_length_b   9.54874350
_cell_length_c   6.85610400
_cell_angle_alpha   90.00088632
_cell_angle_beta   90.00004751
_cell_angle_gamma   119.99504854
_symmetry_Int_Tables_number   1
_chemical_formula_structural   Ho3Er5Sc8(Ga3Co)2
_chemical_formula_sum   'Ho3 Er5 Sc8 Ga6 Co2'
_cell_volume   541.33316437
_cell_formula_units_Z   1
loop_
 _symmetry_equiv_pos_site_id
 _symmetry_equiv_pos_as_xyz
  1  'x, y, z'
loop_
 _atom_site_type_symbol
 _atom_site_label
 _atom_site_symmetry_multiplicity
 _atom_site_fract_x
 _atom_site_fract_y
 _atom_site_fract_z
 _atom_site_occupancy
  Ho  Ho0  1  0.534087  0.068164  0.711351  1
  Ho  Ho1  1  0.000008  0.000007  0.228315  1
  Ho  Ho2  1  0.999975  0.999977  0.728282  1
  Er  Er3  1  0.465604  0.534400  0.210957  1
  Er  Er4  1  0.068824  0.534402  0.210961  1
  Er  Er5  1  0.465510  0.931029  0.211050  1
  Er  Er6  1  0.534352  0.465826  0.710895  1
  Er  Er7  1  0.931466  0.465820  0.710902  1
  Sc  Sc8  1  0.174622  0.824946  0.512176  1
  Sc  Sc9  1  0.650320  0.824947  0.512169  1
  Sc  Sc10  1  0.174911  0.349819  0.512437  1
  Sc  Sc11  1  0.825403  0.174986  0.012784  1
  Sc  Sc12  1  0.349579  0.174985  0.012758  1
  Sc  Sc13  1  0.825160  0.650321  0.012522  1
  Sc  Sc14  1  0.333186  0.666379  0.823376  1
  Sc  Sc15  1  0.666778  0.333556  0.323543  1
  Ga  Ga16  1  0.163746  0.836217  0.952049  1
  Ga  Ga17  1  0.672461  0.836215  0.952094  1
  Ga  Ga18  1  0.163810  0.327617  0.951957  1
  Ga  Ga19  1  0.836386  0.163833  0.451905  1
  Ga  Ga20  1  0.327449  0.163823  0.451894  1
  Ga  Ga21  1  0.836186  0.672375  0.452079  1
  Co  Co22  1  0.333306  0.666607  0.458661  1
  Co  Co23  1  0.666869  0.333749  0.958918  1
