# generated using pymatgen
data_AcSm3P6N13
_symmetry_space_group_name_H-M   'P 1'
_cell_length_a   7.38513032
_cell_length_b   7.38513160
_cell_length_c   7.38513200
_cell_angle_alpha   108.97479798
_cell_angle_beta   108.97479320
_cell_angle_gamma   108.97478782
_symmetry_Int_Tables_number   1
_chemical_formula_structural   AcSm3P6N13
_chemical_formula_sum   'Ac1 Sm3 P6 N13'
_cell_volume   315.63529323
_cell_formula_units_Z   1
loop_
 _symmetry_equiv_pos_site_id
 _symmetry_equiv_pos_as_xyz
  1  'x, y, z'
loop_
 _atom_site_type_symbol
 _atom_site_label
 _atom_site_symmetry_multiplicity
 _atom_site_fract_x
 _atom_site_fract_y
 _atom_site_fract_z
 _atom_site_occupancy
  Ac  Ac0  1  0.347986  0.347986  0.347986  1
  Sm  Sm1  1  0.698387  0.998190  0.998190  1
  Sm  Sm2  1  0.998190  0.998190  0.698387  1
  Sm  Sm3  1  0.998190  0.698387  0.998190  1
  P  P4  1  0.239568  0.757370  0.502053  1
  P  P5  1  0.757370  0.239568  0.502053  1
  P  P6  1  0.757370  0.502053  0.239568  1
  P  P7  1  0.239568  0.502053  0.757370  1
  P  P8  1  0.502053  0.757370  0.239568  1
  P  P9  1  0.502053  0.239568  0.757370  1
  N  N10  1  0.033644  0.033644  0.033644  1
  N  N11  1  0.721557  0.310235  0.310235  1
  N  N12  1  0.310235  0.721557  0.310235  1
  N  N13  1  0.241441  0.574409  0.574409  1
  N  N14  1  0.574409  0.574409  0.241441  1
  N  N15  1  0.380462  0.723711  0.992496  1
  N  N16  1  0.992496  0.723711  0.380462  1
  N  N17  1  0.574409  0.241441  0.574409  1
  N  N18  1  0.723711  0.992496  0.380462  1
  N  N19  1  0.380462  0.992496  0.723711  1
  N  N20  1  0.723711  0.380462  0.992496  1
  N  N21  1  0.310235  0.310235  0.721557  1
  N  N22  1  0.992496  0.380462  0.723711  1
