# generated using pymatgen
data_Zr3SiIr(RuPt)2
_symmetry_space_group_name_H-M   'P 1'
_cell_length_a   7.35140099
_cell_length_b   7.32243858
_cell_length_c   3.25479200
_cell_angle_alpha   90.00000000
_cell_angle_beta   90.00000000
_cell_angle_gamma   119.86975408
_symmetry_Int_Tables_number   1
_chemical_formula_structural   Zr3SiIr(RuPt)2
_chemical_formula_sum   'Zr3 Si1 Ir1 Ru2 Pt2'
_cell_volume   151.93163604
_cell_formula_units_Z   1
loop_
 _symmetry_equiv_pos_site_id
 _symmetry_equiv_pos_as_xyz
  1  'x, y, z'
loop_
 _atom_site_type_symbol
 _atom_site_label
 _atom_site_symmetry_multiplicity
 _atom_site_fract_x
 _atom_site_fract_y
 _atom_site_fract_z
 _atom_site_occupancy
  Zr  Zr0  1  0.395770  0.393293  0.500000  1
  Zr  Zr1  1  0.604230  0.997523  0.500000  1
  Zr  Zr2  1  0.000000  0.609364  0.500000  1
  Si  Si3  1  0.000000  0.996956  0.500000  1
  Ir  Ir4  1  0.000000  0.240593  0.000000  1
  Ru  Ru5  1  0.239536  0.001448  0.000000  1
  Ru  Ru6  1  0.760464  0.761912  0.000000  1
  Pt  Pt7  1  0.668195  0.333553  0.000000  1
  Pt  Pt8  1  0.331805  0.665359  0.000000  1
