# generated using pymatgen
data_Dy5Y11(ZnCo)4
_symmetry_space_group_name_H-M   'P 1'
_cell_length_a   9.39049114
_cell_length_b   9.42405888
_cell_length_c   9.42405866
_cell_angle_alpha   60.05854375
_cell_angle_beta   60.11776224
_cell_angle_gamma   60.11775760
_symmetry_Int_Tables_number   1
_chemical_formula_structural   Dy5Y11(ZnCo)4
_chemical_formula_sum   'Dy5 Y11 Zn4 Co4'
_cell_volume   591.03401350
_cell_formula_units_Z   1
loop_
 _symmetry_equiv_pos_site_id
 _symmetry_equiv_pos_as_xyz
  1  'x, y, z'
loop_
 _atom_site_type_symbol
 _atom_site_label
 _atom_site_symmetry_multiplicity
 _atom_site_fract_x
 _atom_site_fract_y
 _atom_site_fract_z
 _atom_site_occupancy
  Dy  Dy0  1  0.597843  0.599576  0.599576  1
  Dy  Dy1  1  0.599417  0.600013  0.201152  1
  Dy  Dy2  1  0.599417  0.201152  0.600013  1
  Dy  Dy3  1  0.203004  0.599576  0.599576  1
  Dy  Dy4  1  0.059419  0.440581  0.440581  1
  Y  Y5  1  0.441181  0.058819  0.058819  1
  Y  Y6  1  0.441668  0.058166  0.440342  1
  Y  Y7  1  0.059823  0.440342  0.058166  1
  Y  Y8  1  0.441668  0.440342  0.058166  1
  Y  Y9  1  0.059823  0.058166  0.440342  1
  Y  Y10  1  0.186932  0.813068  0.813068  1
  Y  Y11  1  0.811818  0.188182  0.188182  1
  Y  Y12  1  0.812089  0.189724  0.810923  1
  Y  Y13  1  0.187264  0.810923  0.189724  1
  Y  Y14  1  0.812089  0.810923  0.189724  1
  Y  Y15  1  0.187264  0.189724  0.810923  1
  Zn  Zn16  1  0.827578  0.826961  0.826961  1
  Zn  Zn17  1  0.827957  0.828418  0.515667  1
  Zn  Zn18  1  0.827957  0.515667  0.828418  1
  Zn  Zn19  1  0.518498  0.826961  0.826961  1
  Co  Co20  1  0.388972  0.393595  0.393595  1
  Co  Co21  1  0.392240  0.392190  0.823331  1
  Co  Co22  1  0.392240  0.823331  0.392190  1
  Co  Co23  1  0.823838  0.393595  0.393595  1
