# generated using pymatgen
data_Ta4Nb6Al4Zn
_symmetry_space_group_name_H-M   'P 1'
_cell_length_a   9.96649400
_cell_length_b   9.96649400
_cell_length_c   5.19372200
_cell_angle_alpha   90.00000000
_cell_angle_beta   90.00000000
_cell_angle_gamma   90.00000000
_symmetry_Int_Tables_number   1
_chemical_formula_structural   Ta4Nb6Al4Zn
_chemical_formula_sum   'Ta8 Nb12 Al8 Zn2'
_cell_volume   515.89761376
_cell_formula_units_Z   2
loop_
 _symmetry_equiv_pos_site_id
 _symmetry_equiv_pos_as_xyz
  1  'x, y, z'
loop_
 _atom_site_type_symbol
 _atom_site_label
 _atom_site_symmetry_multiplicity
 _atom_site_fract_x
 _atom_site_fract_y
 _atom_site_fract_z
 _atom_site_occupancy
  Ta  Ta0  1  0.129187  0.464794  0.000000  1
  Ta  Ta1  1  0.964794  0.370813  0.500000  1
  Ta  Ta2  1  0.035206  0.629187  0.500000  1
  Ta  Ta3  1  0.870813  0.535206  0.000000  1
  Ta  Ta4  1  0.370813  0.964794  0.500000  1
  Ta  Ta5  1  0.629187  0.035206  0.500000  1
  Ta  Ta6  1  0.464794  0.129187  0.000000  1
  Ta  Ta7  1  0.535206  0.870813  0.000000  1
  Nb  Nb8  1  0.398024  0.398024  0.000000  1
  Nb  Nb9  1  0.898024  0.101976  0.500000  1
  Nb  Nb10  1  0.101976  0.898024  0.500000  1
  Nb  Nb11  1  0.601976  0.601976  0.000000  1
  Nb  Nb12  1  0.182198  0.182198  0.252182  1
  Nb  Nb13  1  0.682198  0.317802  0.752182  1
  Nb  Nb14  1  0.317802  0.682198  0.752182  1
  Nb  Nb15  1  0.817802  0.817802  0.252182  1
  Nb  Nb16  1  0.317802  0.682198  0.247818  1
  Nb  Nb17  1  0.682198  0.317802  0.247818  1
  Nb  Nb18  1  0.182198  0.182198  0.747818  1
  Nb  Nb19  1  0.817802  0.817802  0.747818  1
  Al  Al20  1  0.259677  0.933683  0.000000  1
  Al  Al21  1  0.433683  0.240323  0.500000  1
  Al  Al22  1  0.566317  0.759677  0.500000  1
  Al  Al23  1  0.740323  0.066317  0.000000  1
  Al  Al24  1  0.240323  0.433683  0.500000  1
  Al  Al25  1  0.759677  0.566317  0.500000  1
  Al  Al26  1  0.933683  0.259677  0.000000  1
  Al  Al27  1  0.066317  0.740323  0.000000  1
  Zn  Zn28  1  0.000000  0.000000  0.000000  1
  Zn  Zn29  1  0.500000  0.500000  0.500000  1
