# generated using pymatgen
data_Rb6Mn2O7
_symmetry_space_group_name_H-M   'P 1'
_cell_length_a   6.94672148
_cell_length_b   9.54087800
_cell_length_c   11.63354635
_cell_angle_alpha   90.00000000
_cell_angle_beta   123.39552915
_cell_angle_gamma   90.00000000
_symmetry_Int_Tables_number   1
_chemical_formula_structural   Rb6Mn2O7
_chemical_formula_sum   'Rb12 Mn4 O14'
_cell_volume   643.73932006
_cell_formula_units_Z   2
loop_
 _symmetry_equiv_pos_site_id
 _symmetry_equiv_pos_as_xyz
  1  'x, y, z'
loop_
 _atom_site_type_symbol
 _atom_site_label
 _atom_site_symmetry_multiplicity
 _atom_site_fract_x
 _atom_site_fract_y
 _atom_site_fract_z
 _atom_site_occupancy
  Rb  Rb0  1  0.301576  0.473617  0.050783  1
  Rb  Rb1  1  0.448076  0.853152  0.071092  1
  Rb  Rb2  1  0.096038  0.789773  0.215075  1
  Rb  Rb3  1  0.903962  0.289773  0.284926  1
  Rb  Rb4  1  0.551925  0.353151  0.428908  1
  Rb  Rb5  1  0.698423  0.973616  0.449216  1
  Rb  Rb6  1  0.294754  0.021444  0.558431  1
  Rb  Rb7  1  0.445648  0.650085  0.579528  1
  Rb  Rb8  1  0.088343  0.705295  0.718063  1
  Rb  Rb9  1  0.911658  0.205296  0.781937  1
  Rb  Rb10  1  0.554353  0.150084  0.920472  1
  Rb  Rb11  1  0.705245  0.521443  0.941569  1
  Mn  Mn12  1  0.186226  0.139842  0.135773  1
  Mn  Mn13  1  0.813774  0.639842  0.364226  1
  Mn  Mn14  1  0.182858  0.359762  0.633190  1
  Mn  Mn15  1  0.817142  0.859762  0.866811  1
  O  O16  1  0.014599  0.992344  0.003889  1
  O  O17  1  0.007671  0.289825  0.075697  1
  O  O18  1  0.442203  0.167149  0.140524  1
  O  O19  1  0.753988  0.592228  0.201242  1
  O  O20  1  0.246011  0.092228  0.298758  1
  O  O21  1  0.557797  0.667149  0.359476  1
  O  O22  1  0.992329  0.789825  0.424303  1
  O  O23  1  0.985401  0.492344  0.496111  1
  O  O24  1  0.985275  0.212284  0.559467  1
  O  O25  1  0.467484  0.345570  0.659656  1
  O  O26  1  0.737579  0.907634  0.695086  1
  O  O27  1  0.262422  0.407633  0.804914  1
  O  O28  1  0.532515  0.845570  0.840343  1
  O  O29  1  0.014724  0.712283  0.940533  1
