# generated using pymatgen
data_HfTa9Si5Sn
_symmetry_space_group_name_H-M   'P 1'
_cell_length_a   7.64724283
_cell_length_b   7.68909777
_cell_length_c   7.66905031
_cell_angle_alpha   128.46731220
_cell_angle_beta   128.27729349
_cell_angle_gamma   76.07498776
_symmetry_Int_Tables_number   1
_chemical_formula_structural   HfTa9Si5Sn
_chemical_formula_sum   'Hf1 Ta9 Si5 Sn1'
_cell_volume   269.37899985
_cell_formula_units_Z   1
loop_
 _symmetry_equiv_pos_site_id
 _symmetry_equiv_pos_as_xyz
  1  'x, y, z'
loop_
 _atom_site_type_symbol
 _atom_site_label
 _atom_site_symmetry_multiplicity
 _atom_site_fract_x
 _atom_site_fract_y
 _atom_site_fract_z
 _atom_site_occupancy
  Hf  Hf0  1  0.018545  0.195639  0.514618  1
  Ta  Ta1  1  0.678958  0.510002  0.481829  1
  Ta  Ta2  1  0.507069  0.024497  0.825840  1
  Ta  Ta3  1  0.198664  0.681501  0.174691  1
  Ta  Ta4  1  0.993019  0.814840  0.516390  1
  Ta  Ta5  1  0.301952  0.475365  0.483029  1
  Ta  Ta6  1  0.477155  0.993774  0.174735  1
  Ta  Ta7  1  0.819512  0.302979  0.827525  1
  Ta  Ta8  1  0.002722  0.001619  0.999176  1
  Ta  Ta9  1  0.500965  0.500306  0.001627  1
  Si  Si10  1  0.250364  0.249100  0.002366  1
  Si  Si11  1  0.370355  0.131066  0.500241  1
  Si  Si12  1  0.631442  0.870616  0.500449  1
  Si  Si13  1  0.868587  0.369227  0.237221  1
  Si  Si14  1  0.132036  0.632187  0.763188  1
  Sn  Sn15  1  0.748657  0.747283  0.997074  1
