# generated using pymatgen
data_Zr4Co6Si6Ir
_symmetry_space_group_name_H-M   'P 1'
_cell_length_a   6.73895012
_cell_length_b   6.73894983
_cell_length_c   6.73895000
_cell_angle_alpha   109.47122415
_cell_angle_beta   109.47122328
_cell_angle_gamma   109.47122311
_symmetry_Int_Tables_number   1
_chemical_formula_structural   Zr4Co6Si6Ir
_chemical_formula_sum   'Zr4 Co6 Si6 Ir1'
_cell_volume   235.58886625
_cell_formula_units_Z   1
loop_
 _symmetry_equiv_pos_site_id
 _symmetry_equiv_pos_as_xyz
  1  'x, y, z'
loop_
 _atom_site_type_symbol
 _atom_site_label
 _atom_site_symmetry_multiplicity
 _atom_site_fract_x
 _atom_site_fract_y
 _atom_site_fract_z
 _atom_site_occupancy
  Zr  Zr0  1  0.000000  0.000000  0.500000  1
  Zr  Zr1  1  0.000000  0.500000  0.000000  1
  Zr  Zr2  1  0.500000  0.000000  0.000000  1
  Zr  Zr3  1  0.500000  0.500000  0.500000  1
  Co  Co4  1  0.750000  0.250000  0.500000  1
  Co  Co5  1  0.750000  0.500000  0.250000  1
  Co  Co6  1  0.500000  0.250000  0.750000  1
  Co  Co7  1  0.250000  0.500000  0.750000  1
  Co  Co8  1  0.250000  0.750000  0.500000  1
  Co  Co9  1  0.500000  0.750000  0.250000  1
  Si  Si10  1  0.670580  0.670580  0.000000  1
  Si  Si11  1  0.329420  0.000000  0.329420  1
  Si  Si12  1  0.000000  0.329420  0.329420  1
  Si  Si13  1  0.329420  0.329420  0.000000  1
  Si  Si14  1  0.670580  0.000000  0.670580  1
  Si  Si15  1  0.000000  0.670580  0.670580  1
  Ir  Ir16  1  0.000000  0.000000  0.000000  1
