# generated using pymatgen
data_Sc8Ti9Si5Ge11Mo3
_symmetry_space_group_name_H-M   'P 1'
_cell_length_a   6.72519363
_cell_length_b   6.86138663
_cell_length_c   13.13773200
_cell_angle_alpha   90.00000000
_cell_angle_beta   90.00000000
_cell_angle_gamma   90.08286686
_symmetry_Int_Tables_number   1
_chemical_formula_structural   Sc8Ti9Si5Ge11Mo3
_chemical_formula_sum   'Sc8 Ti9 Si5 Ge11 Mo3'
_cell_volume   606.22888981
_cell_formula_units_Z   1
loop_
 _symmetry_equiv_pos_site_id
 _symmetry_equiv_pos_as_xyz
  1  'x, y, z'
loop_
 _atom_site_type_symbol
 _atom_site_label
 _atom_site_symmetry_multiplicity
 _atom_site_fract_x
 _atom_site_fract_y
 _atom_site_fract_z
 _atom_site_occupancy
  Sc  Sc0  1  0.493684  0.676110  0.595141  1
  Sc  Sc1  1  0.996248  0.827803  0.905154  1
  Sc  Sc2  1  0.504073  0.322297  0.098264  1
  Sc  Sc3  1  0.007619  0.175945  0.402126  1
  Sc  Sc4  1  0.504073  0.322297  0.401736  1
  Sc  Sc5  1  0.007619  0.175945  0.097874  1
  Sc  Sc6  1  0.493684  0.676110  0.904859  1
  Sc  Sc7  1  0.996248  0.827803  0.594846  1
  Ti  Ti8  1  0.655518  0.170726  0.629103  1
  Ti  Ti9  1  0.161746  0.326490  0.871380  1
  Ti  Ti10  1  0.339113  0.829380  0.129196  1
  Ti  Ti11  1  0.840118  0.671133  0.371236  1
  Ti  Ti12  1  0.339113  0.829380  0.370804  1
  Ti  Ti13  1  0.840118  0.671133  0.128764  1
  Ti  Ti14  1  0.655518  0.170726  0.870897  1
  Ti  Ti15  1  0.161746  0.326490  0.628620  1
  Ti  Ti16  1  0.832707  0.486836  0.750000  1
  Si  Si17  1  0.459965  0.383550  0.750000  1
  Si  Si18  1  0.959922  0.118163  0.750000  1
  Si  Si19  1  0.539483  0.617520  0.250000  1
  Si  Si20  1  0.040789  0.884661  0.250000  1
  Si  Si21  1  0.302100  0.138575  0.250000  1
  Ge  Ge22  1  0.680245  0.962955  0.459485  1
  Ge  Ge23  1  0.178147  0.536730  0.040356  1
  Ge  Ge24  1  0.321627  0.038186  0.960538  1
  Ge  Ge25  1  0.822069  0.463855  0.540507  1
  Ge  Ge26  1  0.321627  0.038186  0.539462  1
  Ge  Ge27  1  0.822069  0.463855  0.959493  1
  Ge  Ge28  1  0.680245  0.962955  0.040515  1
  Ge  Ge29  1  0.178147  0.536730  0.459644  1
  Ge  Ge30  1  0.697993  0.854157  0.750000  1
  Ge  Ge31  1  0.195675  0.643268  0.750000  1
  Ge  Ge32  1  0.802785  0.357395  0.250000  1
  Mo  Mo33  1  0.332842  0.014920  0.750000  1
  Mo  Mo34  1  0.170445  0.511394  0.250000  1
  Mo  Mo35  1  0.664872  0.986345  0.250000  1
