# generated using pymatgen
data_Hf2Nb3Fe6Si12W
_symmetry_space_group_name_H-M   'P 1'
_cell_length_a   9.47494354
_cell_length_b   9.46840853
_cell_length_c   9.46840940
_cell_angle_alpha   148.67035462
_cell_angle_beta   133.02424098
_cell_angle_gamma   57.54763603
_symmetry_Int_Tables_number   1
_chemical_formula_structural   Hf2Nb3Fe6Si12W
_chemical_formula_sum   'Hf2 Nb3 Fe6 Si12 W1'
_cell_volume   320.49621659
_cell_formula_units_Z   1
loop_
 _symmetry_equiv_pos_site_id
 _symmetry_equiv_pos_as_xyz
  1  'x, y, z'
loop_
 _atom_site_type_symbol
 _atom_site_label
 _atom_site_symmetry_multiplicity
 _atom_site_fract_x
 _atom_site_fract_y
 _atom_site_fract_z
 _atom_site_occupancy
  Hf  Hf0  1  0.140978  0.141736  0.999242  1
  Hf  Hf1  1  0.857980  0.857946  0.000034  1
  Nb  Nb2  1  0.148237  0.407302  0.740934  1
  Nb  Nb3  1  0.665782  0.407596  0.258186  1
  Nb  Nb4  1  0.334011  0.593312  0.740699  1
  Fe  Fe5  1  0.751315  0.000995  0.750320  1
  Fe  Fe6  1  0.999233  0.999382  0.499952  1
  Fe  Fe7  1  0.499631  0.500468  0.501057  1
  Fe  Fe8  1  0.499631  0.998574  0.999164  1
  Fe  Fe9  1  0.250103  0.000323  0.249780  1
  Fe  Fe10  1  0.999233  0.499281  0.999851  1
  Si  Si11  1  0.485052  0.137152  0.347899  1
  Si  Si12  1  0.514383  0.862731  0.651653  1
  Si  Si13  1  0.211185  0.862909  0.348277  1
  Si  Si14  1  0.788201  0.136709  0.651491  1
  Si  Si15  1  0.700990  0.697879  0.003112  1
  Si  Si16  1  0.301608  0.300973  0.000635  1
  Si  Si17  1  0.501994  0.739849  0.240720  1
  Si  Si18  1  0.501994  0.261273  0.762145  1
  Si  Si19  1  0.999183  0.264830  0.263106  1
  Si  Si20  1  0.209471  0.711212  0.498259  1
  Si  Si21  1  0.999183  0.736077  0.734353  1
  Si  Si22  1  0.787565  0.287931  0.499634  1
  W  W23  1  0.853059  0.593561  0.259499  1
