# generated using pymatgen
data_Ho5OsRh
_symmetry_space_group_name_H-M   'P 1'
_cell_length_a   6.37954268
_cell_length_b   7.29632364
_cell_length_c   8.46049349
_cell_angle_alpha   96.78708764
_cell_angle_beta   112.14918257
_cell_angle_gamma   89.99999962
_symmetry_Int_Tables_number   1
_chemical_formula_structural   Ho5OsRh
_chemical_formula_sum   'Ho10 Os2 Rh2'
_cell_volume   361.76970412
_cell_formula_units_Z   2
loop_
 _symmetry_equiv_pos_site_id
 _symmetry_equiv_pos_as_xyz
  1  'x, y, z'
loop_
 _atom_site_type_symbol
 _atom_site_label
 _atom_site_symmetry_multiplicity
 _atom_site_fract_x
 _atom_site_fract_y
 _atom_site_fract_z
 _atom_site_occupancy
  Ho  Ho0  1  0.979599  0.917837  0.187014  1
  Ho  Ho1  1  0.792585  0.582163  0.812986  1
  Ho  Ho2  1  0.025662  0.084762  0.817076  1
  Ho  Ho3  1  0.208586  0.415238  0.182924  1
  Ho  Ho4  1  0.641911  0.817434  0.435138  1
  Ho  Ho5  1  0.206773  0.682566  0.564862  1
  Ho  Ho6  1  0.355633  0.185924  0.562143  1
  Ho  Ho7  1  0.793490  0.314076  0.437857  1
  Ho  Ho8  1  0.420477  0.750000  0.000000  1
  Ho  Ho9  1  0.575298  0.250000  0.000000  1
  Os  Os10  1  0.177366  0.424676  0.780866  1
  Os  Os11  1  0.396500  0.075324  0.219134  1
  Rh  Rh12  1  0.823477  0.577406  0.220834  1
  Rh  Rh13  1  0.602644  0.922594  0.779166  1
