# generated using pymatgen
data_Tb8Cu3Si12Ru
_symmetry_space_group_name_H-M   'P 1'
_cell_length_a   8.05275900
_cell_length_b   8.05275850
_cell_length_c   8.10860300
_cell_angle_alpha   90.00000000
_cell_angle_beta   90.00000000
_cell_angle_gamma   120.00000616
_symmetry_Int_Tables_number   1
_chemical_formula_structural   Tb8Cu3Si12Ru
_chemical_formula_sum   'Tb8 Cu3 Si12 Ru1'
_cell_volume   455.37168149
_cell_formula_units_Z   1
loop_
 _symmetry_equiv_pos_site_id
 _symmetry_equiv_pos_as_xyz
  1  'x, y, z'
loop_
 _atom_site_type_symbol
 _atom_site_label
 _atom_site_symmetry_multiplicity
 _atom_site_fract_x
 _atom_site_fract_y
 _atom_site_fract_z
 _atom_site_occupancy
  Tb  Tb0  1  0.498694  0.997388  0.253528  1
  Tb  Tb1  1  0.498880  0.997761  0.746504  1
  Tb  Tb2  1  0.002612  0.501306  0.253528  1
  Tb  Tb3  1  0.002239  0.501120  0.746504  1
  Tb  Tb4  1  0.498694  0.501306  0.253528  1
  Tb  Tb5  1  0.498880  0.501120  0.746504  1
  Tb  Tb6  1  0.000000  0.000000  0.249341  1
  Tb  Tb7  1  0.000000  0.000000  0.750626  1
  Cu  Cu8  1  0.333333  0.666667  0.000414  1
  Cu  Cu9  1  0.666667  0.333333  0.999911  1
  Cu  Cu10  1  0.666667  0.333333  0.498860  1
  Si  Si11  1  0.168686  0.337372  0.999508  1
  Si  Si12  1  0.831638  0.663275  0.000599  1
  Si  Si13  1  0.662628  0.831314  0.999508  1
  Si  Si14  1  0.832456  0.664910  0.500314  1
  Si  Si15  1  0.336725  0.168362  0.000599  1
  Si  Si16  1  0.167962  0.335923  0.499577  1
  Si  Si17  1  0.168686  0.831314  0.999508  1
  Si  Si18  1  0.335090  0.167544  0.500314  1
  Si  Si19  1  0.831638  0.168362  0.000599  1
  Si  Si20  1  0.664077  0.832038  0.499577  1
  Si  Si21  1  0.832456  0.167544  0.500314  1
  Si  Si22  1  0.167962  0.832038  0.499577  1
  Ru  Ru23  1  0.333333  0.666667  0.500756  1
