# generated using pymatgen
data_K(TiSe2)2
_symmetry_space_group_name_H-M   'P 1'
_cell_length_a   6.26359800
_cell_length_b   7.25815900
_cell_length_c   16.50408300
_cell_angle_alpha   90.00000000
_cell_angle_beta   90.00000000
_cell_angle_gamma   90.00000000
_symmetry_Int_Tables_number   1
_chemical_formula_structural   K(TiSe2)2
_chemical_formula_sum   'K4 Ti8 Se16'
_cell_volume   750.31176036
_cell_formula_units_Z   4
loop_
 _symmetry_equiv_pos_site_id
 _symmetry_equiv_pos_as_xyz
  1  'x, y, z'
loop_
 _atom_site_type_symbol
 _atom_site_label
 _atom_site_symmetry_multiplicity
 _atom_site_fract_x
 _atom_site_fract_y
 _atom_site_fract_z
 _atom_site_occupancy
  K  K0  1  0.341425  0.000000  0.000000  1
  K  K1  1  0.658575  0.500000  0.500000  1
  K  K2  1  0.031488  0.000000  0.500000  1
  K  K3  1  0.968512  0.500000  0.000000  1
  Ti  Ti4  1  0.000794  0.000000  0.249230  1
  Ti  Ti5  1  0.000794  0.000000  0.750770  1
  Ti  Ti6  1  0.999206  0.500000  0.250770  1
  Ti  Ti7  1  0.999206  0.500000  0.749230  1
  Ti  Ti8  1  0.500000  0.250000  0.250000  1
  Ti  Ti9  1  0.500000  0.750000  0.750000  1
  Ti  Ti10  1  0.500000  0.750000  0.250000  1
  Ti  Ti11  1  0.500000  0.250000  0.750000  1
  Se  Se12  1  0.834312  0.248972  0.343071  1
  Se  Se13  1  0.834312  0.751028  0.656929  1
  Se  Se14  1  0.165688  0.748972  0.156929  1
  Se  Se15  1  0.165688  0.251028  0.843071  1
  Se  Se16  1  0.165688  0.251028  0.156929  1
  Se  Se17  1  0.165688  0.748972  0.843071  1
  Se  Se18  1  0.834312  0.751028  0.343071  1
  Se  Se19  1  0.834312  0.248972  0.656929  1
  Se  Se20  1  0.669185  0.000000  0.157444  1
  Se  Se21  1  0.669185  0.000000  0.842556  1
  Se  Se22  1  0.330815  0.500000  0.342556  1
  Se  Se23  1  0.330815  0.500000  0.657444  1
  Se  Se24  1  0.336670  0.000000  0.341538  1
  Se  Se25  1  0.336670  0.000000  0.658462  1
  Se  Se26  1  0.663330  0.500000  0.158462  1
  Se  Se27  1  0.663330  0.500000  0.841538  1
