# generated using pymatgen
data_LaEr7GaPd24
_symmetry_space_group_name_H-M   'P 1'
_cell_length_a   8.34846651
_cell_length_b   8.34846651
_cell_length_c   8.34846651
_cell_angle_alpha   89.92575236
_cell_angle_beta   89.92575236
_cell_angle_gamma   90.07424764
_symmetry_Int_Tables_number   1
_chemical_formula_structural   LaEr7GaPd24
_chemical_formula_sum   'La1 Er7 Ga1 Pd24'
_cell_volume   581.86071011
_cell_formula_units_Z   1
loop_
 _symmetry_equiv_pos_site_id
 _symmetry_equiv_pos_as_xyz
  1  'x, y, z'
loop_
 _atom_site_type_symbol
 _atom_site_label
 _atom_site_symmetry_multiplicity
 _atom_site_fract_x
 _atom_site_fract_y
 _atom_site_fract_z
 _atom_site_occupancy
  La  La0  1  0.252385  0.252385  0.747615  1
  Er  Er1  1  0.251914  0.748266  0.251734  1
  Er  Er2  1  0.748266  0.251914  0.251734  1
  Er  Er3  1  0.748266  0.748266  0.748086  1
  Er  Er4  1  0.747956  0.747956  0.252044  1
  Er  Er5  1  0.747945  0.251950  0.748050  1
  Er  Er6  1  0.251950  0.747945  0.748050  1
  Er  Er7  1  0.251950  0.251950  0.252055  1
  Ga  Ga8  1  0.999396  0.999396  0.000604  1
  Pd  Pd9  1  0.503711  0.503711  0.747123  1
  Pd  Pd10  1  0.503711  0.252877  0.496289  1
  Pd  Pd11  1  0.252877  0.503711  0.496289  1
  Pd  Pd12  1  0.500235  0.500235  0.252813  1
  Pd  Pd13  1  0.500235  0.747187  0.499765  1
  Pd  Pd14  1  0.747187  0.500235  0.499765  1
  Pd  Pd15  1  0.996540  0.996540  0.708517  1
  Pd  Pd16  1  0.996540  0.291483  0.003460  1
  Pd  Pd17  1  0.291483  0.996540  0.003460  1
  Pd  Pd18  1  0.999938  0.999938  0.290958  1
  Pd  Pd19  1  0.999938  0.709042  0.000062  1
  Pd  Pd20  1  0.709042  0.999938  0.000062  1
  Pd  Pd21  1  0.996136  0.503096  0.740109  1
  Pd  Pd22  1  0.503096  0.259891  0.003864  1
  Pd  Pd23  1  0.259891  0.996136  0.496904  1
  Pd  Pd24  1  0.996136  0.259891  0.496904  1
  Pd  Pd25  1  0.503096  0.996136  0.740109  1
  Pd  Pd26  1  0.259891  0.503096  0.003864  1
  Pd  Pd27  1  0.999856  0.500497  0.260208  1
  Pd  Pd28  1  0.500497  0.739792  0.000144  1
  Pd  Pd29  1  0.999856  0.739792  0.499503  1
  Pd  Pd30  1  0.500497  0.999856  0.260208  1
  Pd  Pd31  1  0.739792  0.999856  0.499503  1
  Pd  Pd32  1  0.739792  0.500497  0.000144  1
