# generated using pymatgen
data_LiTm4B16RhW2
_symmetry_space_group_name_H-M   'P 1'
_cell_length_a   3.57803000
_cell_length_b   5.95108582
_cell_length_c   11.48309384
_cell_angle_alpha   90.12720264
_cell_angle_beta   90.00000000
_cell_angle_gamma   90.00000000
_symmetry_Int_Tables_number   1
_chemical_formula_structural   LiTm4B16RhW2
_chemical_formula_sum   'Li1 Tm4 B16 Rh1 W2'
_cell_volume   244.51079301
_cell_formula_units_Z   1
loop_
 _symmetry_equiv_pos_site_id
 _symmetry_equiv_pos_as_xyz
  1  'x, y, z'
loop_
 _atom_site_type_symbol
 _atom_site_label
 _atom_site_symmetry_multiplicity
 _atom_site_fract_x
 _atom_site_fract_y
 _atom_site_fract_z
 _atom_site_occupancy
  Li  Li0  1  0.000000  0.136924  0.913541  1
  Tm  Tm1  1  0.000000  0.127123  0.652637  1
  Tm  Tm2  1  0.000000  0.870911  0.348867  1
  Tm  Tm3  1  0.000000  0.625948  0.854015  1
  Tm  Tm4  1  0.000000  0.373945  0.144976  1
  B  B5  1  0.500000  0.794035  0.690236  1
  B  B6  1  0.500000  0.206822  0.310809  1
  B  B7  1  0.500000  0.284934  0.817967  1
  B  B8  1  0.500000  0.712671  0.182602  1
  B  B9  1  0.500000  0.867579  0.532539  1
  B  B10  1  0.500000  0.131096  0.467953  1
  B  B11  1  0.500000  0.363857  0.968137  1
  B  B12  1  0.500000  0.634317  0.029938  1
  B  B13  1  0.500000  0.020404  0.190665  1
  B  B14  1  0.500000  0.983490  0.809283  1
  B  B15  1  0.500000  0.524981  0.303669  1
  B  B16  1  0.500000  0.473099  0.697083  1
  B  B17  1  0.500000  0.114601  0.047726  1
  B  B18  1  0.500000  0.884664  0.952879  1
  B  B19  1  0.500000  0.614683  0.452070  1
  B  B20  1  0.500000  0.383957  0.547903  1
  Rh  Rh21  1  0.000000  0.870890  0.085829  1
  W  W22  1  0.000000  0.630181  0.586262  1
  W  W23  1  0.000000  0.368886  0.412413  1
