# generated using pymatgen
data_CaTb6Co5Sn23Os
_symmetry_space_group_name_H-M   'P 1'
_cell_length_a   9.75138355
_cell_length_b   9.75138348
_cell_length_c   10.02989746
_cell_angle_alpha   90.20985069
_cell_angle_beta   89.79014957
_cell_angle_gamma   119.89762795
_symmetry_Int_Tables_number   1
_chemical_formula_structural   CaTb6Co5Sn23Os
_chemical_formula_sum   'Ca1 Tb6 Co5 Sn23 Os1'
_cell_volume   826.80442532
_cell_formula_units_Z   1
loop_
 _symmetry_equiv_pos_site_id
 _symmetry_equiv_pos_as_xyz
  1  'x, y, z'
loop_
 _atom_site_type_symbol
 _atom_site_label
 _atom_site_symmetry_multiplicity
 _atom_site_fract_x
 _atom_site_fract_y
 _atom_site_fract_z
 _atom_site_occupancy
  Ca  Ca0  1  0.996425  0.003575  0.004161  1
  Tb  Tb1  1  0.479795  0.520205  0.306512  1
  Tb  Tb2  1  0.520843  0.479157  0.692995  1
  Tb  Tb3  1  0.481445  0.959317  0.305242  1
  Tb  Tb4  1  0.519651  0.041308  0.694194  1
  Tb  Tb5  1  0.040683  0.518555  0.305242  1
  Tb  Tb6  1  0.958692  0.480349  0.694194  1
  Co  Co7  1  0.169213  0.830787  0.801227  1
  Co  Co8  1  0.830721  0.660706  0.198441  1
  Co  Co9  1  0.170695  0.338823  0.799877  1
  Co  Co10  1  0.339294  0.169279  0.198441  1
  Co  Co11  1  0.661177  0.829305  0.799877  1
  Sn  Sn12  1  0.343636  0.999340  0.999872  1
  Sn  Sn13  1  0.648792  0.996101  0.995676  1
  Sn  Sn14  1  0.003899  0.351208  0.995676  1
  Sn  Sn15  1  0.000660  0.656364  0.999872  1
  Sn  Sn16  1  0.654036  0.653927  0.999675  1
  Sn  Sn17  1  0.346073  0.345964  0.999675  1
  Sn  Sn18  1  0.333313  0.666687  0.815851  1
  Sn  Sn19  1  0.665031  0.334969  0.181782  1
  Sn  Sn20  1  0.000149  0.999851  0.501313  1
  Sn  Sn21  1  0.780441  0.219559  0.459153  1
  Sn  Sn22  1  0.217263  0.782737  0.547838  1
  Sn  Sn23  1  0.782214  0.564185  0.451618  1
  Sn  Sn24  1  0.218151  0.435913  0.547684  1
  Sn  Sn25  1  0.435815  0.217786  0.451618  1
  Sn  Sn26  1  0.564087  0.781849  0.547684  1
  Sn  Sn27  1  0.333713  0.666287  0.115354  1
  Sn  Sn28  1  0.665965  0.334035  0.882393  1
  Sn  Sn29  1  0.117772  0.882228  0.271436  1
  Sn  Sn30  1  0.883228  0.116772  0.728269  1
  Sn  Sn31  1  0.123124  0.234591  0.276331  1
  Sn  Sn32  1  0.883377  0.765998  0.727223  1
  Sn  Sn33  1  0.765409  0.876876  0.276331  1
  Sn  Sn34  1  0.234002  0.116623  0.727223  1
  Os  Os35  1  0.831221  0.168779  0.200052  1
