# generated using pymatgen
data_YbY3PtRh3O14
_symmetry_space_group_name_H-M   'P 1'
_cell_length_a   7.24926059
_cell_length_b   7.24292860
_cell_length_c   7.24926100
_cell_angle_alpha   59.97107917
_cell_angle_beta   60.00000269
_cell_angle_gamma   59.97108091
_symmetry_Int_Tables_number   1
_chemical_formula_structural   YbY3PtRh3O14
_chemical_formula_sum   'Yb1 Y3 Pt1 Rh3 O14'
_cell_volume   269.02750486
_cell_formula_units_Z   1
loop_
 _symmetry_equiv_pos_site_id
 _symmetry_equiv_pos_as_xyz
  1  'x, y, z'
loop_
 _atom_site_type_symbol
 _atom_site_label
 _atom_site_symmetry_multiplicity
 _atom_site_fract_x
 _atom_site_fract_y
 _atom_site_fract_z
 _atom_site_occupancy
  Yb  Yb0  1  0.125000  0.625000  0.125000  1
  Y  Y1  1  0.125000  0.125000  0.625000  1
  Y  Y2  1  0.625000  0.125000  0.125000  1
  Y  Y3  1  0.125000  0.125000  0.125000  1
  Pt  Pt4  1  0.625000  0.125000  0.625000  1
  Rh  Rh5  1  0.625000  0.625000  0.625000  1
  Rh  Rh6  1  0.125000  0.625000  0.625000  1
  Rh  Rh7  1  0.625000  0.625000  0.125000  1
  O  O8  1  0.293824  0.709630  0.702723  1
  O  O9  1  0.537235  0.963357  0.962172  1
  O  O10  1  0.702723  0.709630  0.293824  1
  O  O11  1  0.287828  0.286643  0.712765  1
  O  O12  1  0.998465  0.004603  0.998465  1
  O  O13  1  0.293824  0.709630  0.293824  1
  O  O14  1  0.712765  0.286643  0.712765  1
  O  O15  1  0.956176  0.540370  0.956176  1
  O  O16  1  0.547277  0.540370  0.956176  1
  O  O17  1  0.962172  0.963357  0.537235  1
  O  O18  1  0.251535  0.245397  0.251535  1
  O  O19  1  0.537235  0.963357  0.537235  1
  O  O20  1  0.712765  0.286643  0.287828  1
  O  O21  1  0.956176  0.540370  0.547277  1
