# generated using pymatgen
data_FeCo5Mo12(PtN2)2
_symmetry_space_group_name_H-M   'P 1'
_cell_length_a   6.72354285
_cell_length_b   6.71095461
_cell_length_c   6.72783146
_cell_angle_alpha   89.98899155
_cell_angle_beta   90.14892004
_cell_angle_gamma   89.98684218
_symmetry_Int_Tables_number   1
_chemical_formula_structural   FeCo5Mo12(PtN2)2
_chemical_formula_sum   'Fe1 Co5 Mo12 Pt2 N4'
_cell_volume   303.56807377
_cell_formula_units_Z   1
loop_
 _symmetry_equiv_pos_site_id
 _symmetry_equiv_pos_as_xyz
  1  'x, y, z'
loop_
 _atom_site_type_symbol
 _atom_site_label
 _atom_site_symmetry_multiplicity
 _atom_site_fract_x
 _atom_site_fract_y
 _atom_site_fract_z
 _atom_site_occupancy
  Fe  Fe0  1  0.927440  0.920998  0.802221  1
  Co  Co1  1  0.817994  0.683696  0.566280  1
  Co  Co2  1  0.314100  0.317481  0.436743  1
  Co  Co3  1  0.065200  0.563939  0.325944  1
  Co  Co4  1  0.432717  0.073347  0.195195  1
  Co  Co5  1  0.568737  0.439064  0.674644  1
  Mo  Mo6  1  0.618336  0.052606  0.539091  1
  Mo  Mo7  1  0.126435  0.953981  0.453781  1
  Mo  Mo8  1  0.877047  0.551677  0.954277  1
  Mo  Mo9  1  0.376716  0.445476  0.048906  1
  Mo  Mo10  1  0.208530  0.615697  0.693135  1
  Mo  Mo11  1  0.295466  0.127609  0.796905  1
  Mo  Mo12  1  0.793608  0.872228  0.206242  1
  Mo  Mo13  1  0.702058  0.380555  0.303914  1
  Mo  Mo14  1  0.055681  0.212634  0.135518  1
  Mo  Mo15  1  0.950746  0.299465  0.623405  1
  Mo  Mo16  1  0.551028  0.790532  0.869469  1
  Mo  Mo17  1  0.449999  0.700221  0.375622  1
  Pt  Pt18  1  0.686599  0.183302  0.934825  1
  Pt  Pt19  1  0.184276  0.816118  0.063876  1
  N  N20  1  0.374627  0.873498  0.625451  1
  N  N21  1  0.873624  0.126470  0.374927  1
  N  N22  1  0.124653  0.374656  0.876961  1
  N  N23  1  0.624381  0.624750  0.122667  1
