# generated using pymatgen
data_Tb13Y3(CoHg)4
_symmetry_space_group_name_H-M   'P 1'
_cell_length_a   9.51479068
_cell_length_b   9.50052229
_cell_length_c   9.51468361
_cell_angle_alpha   60.04996527
_cell_angle_beta   60.11490576
_cell_angle_gamma   60.04884423
_symmetry_Int_Tables_number   1
_chemical_formula_structural   Tb13Y3(CoHg)4
_chemical_formula_sum   'Tb13 Y3 Co4 Hg4'
_cell_volume   609.15283024
_cell_formula_units_Z   1
loop_
 _symmetry_equiv_pos_site_id
 _symmetry_equiv_pos_as_xyz
  1  'x, y, z'
loop_
 _atom_site_type_symbol
 _atom_site_label
 _atom_site_symmetry_multiplicity
 _atom_site_fract_x
 _atom_site_fract_y
 _atom_site_fract_z
 _atom_site_occupancy
  Tb  Tb0  1  0.597559  0.596523  0.597570  1
  Tb  Tb1  1  0.598724  0.597788  0.205464  1
  Tb  Tb2  1  0.597570  0.208348  0.597559  1
  Tb  Tb3  1  0.205464  0.598026  0.598724  1
  Tb  Tb4  1  0.060711  0.439718  0.438330  1
  Tb  Tb5  1  0.438330  0.061241  0.060711  1
  Tb  Tb6  1  0.439092  0.060908  0.439092  1
  Tb  Tb7  1  0.061081  0.438919  0.061081  1
  Tb  Tb8  1  0.438202  0.439702  0.060707  1
  Tb  Tb9  1  0.060707  0.061388  0.438202  1
  Tb  Tb10  1  0.189568  0.811221  0.811129  1
  Tb  Tb11  1  0.811129  0.188081  0.189568  1
  Tb  Tb12  1  0.811695  0.188305  0.811695  1
  Y  Y13  1  0.188900  0.811100  0.188900  1
  Y  Y14  1  0.811430  0.811428  0.189302  1
  Y  Y15  1  0.189302  0.187840  0.811430  1
  Co  Co16  1  0.391224  0.390450  0.391525  1
  Co  Co17  1  0.391477  0.390383  0.827545  1
  Co  Co18  1  0.391525  0.826802  0.391224  1
  Co  Co19  1  0.827545  0.390596  0.391477  1
  Hg  Hg20  1  0.833633  0.834016  0.833857  1
  Hg  Hg21  1  0.833997  0.834275  0.497280  1
  Hg  Hg22  1  0.833857  0.498493  0.833633  1
  Hg  Hg23  1  0.497280  0.834448  0.833997  1
