# generated using pymatgen
data_Nd3C2I3
_symmetry_space_group_name_H-M   'P 1'
_cell_length_a   10.55484900
_cell_length_b   10.55484818
_cell_length_c   17.43497600
_cell_angle_alpha   90.00000000
_cell_angle_beta   90.00000000
_cell_angle_gamma   111.69778639
_symmetry_Int_Tables_number   1
_chemical_formula_structural   Nd3C2I3
_chemical_formula_sum   'Nd24 C16 I24'
_cell_volume   1804.71958305
_cell_formula_units_Z   8
loop_
 _symmetry_equiv_pos_site_id
 _symmetry_equiv_pos_as_xyz
  1  'x, y, z'
loop_
 _atom_site_type_symbol
 _atom_site_label
 _atom_site_symmetry_multiplicity
 _atom_site_fract_x
 _atom_site_fract_y
 _atom_site_fract_z
 _atom_site_occupancy
  Nd  Nd0  1  0.157234  0.895317  0.998967  1
  Nd  Nd1  1  0.739592  0.770704  0.400432  1
  Nd  Nd2  1  0.616352  0.323544  0.978547  1
  Nd  Nd3  1  0.629796  0.370204  0.750000  1
  Nd  Nd4  1  0.552232  0.009597  0.602988  1
  Nd  Nd5  1  0.383648  0.676456  0.478547  1
  Nd  Nd6  1  0.770704  0.739592  0.599568  1
  Nd  Nd7  1  0.467901  0.974079  0.380655  1
  Nd  Nd8  1  0.974079  0.467901  0.619345  1
  Nd  Nd9  1  0.532099  0.025921  0.880655  1
  Nd  Nd10  1  0.447768  0.990403  0.102988  1
  Nd  Nd11  1  0.104683  0.842766  0.501033  1
  Nd  Nd12  1  0.323544  0.616352  0.021453  1
  Nd  Nd13  1  0.009597  0.552232  0.397012  1
  Nd  Nd14  1  0.829946  0.170054  0.750000  1
  Nd  Nd15  1  0.229296  0.260408  0.099568  1
  Nd  Nd16  1  0.260408  0.229296  0.900432  1
  Nd  Nd17  1  0.990403  0.447768  0.897012  1
  Nd  Nd18  1  0.676456  0.383648  0.521453  1
  Nd  Nd19  1  0.170054  0.829946  0.250000  1
  Nd  Nd20  1  0.842766  0.104683  0.498967  1
  Nd  Nd21  1  0.025921  0.532099  0.119345  1
  Nd  Nd22  1  0.370204  0.629796  0.250000  1
  Nd  Nd23  1  0.895317  0.157234  0.001033  1
  C  C24  1  0.281240  0.723626  0.349726  1
  C  C25  1  0.903488  0.591473  0.529548  1
  C  C26  1  0.657321  0.853420  0.524369  1
  C  C27  1  0.591473  0.903488  0.470452  1
  C  C28  1  0.718760  0.276374  0.849726  1
  C  C29  1  0.781060  0.224424  0.904789  1
  C  C30  1  0.218940  0.775576  0.404789  1
  C  C31  1  0.276374  0.718760  0.150274  1
  C  C32  1  0.723626  0.281240  0.650274  1
  C  C33  1  0.342679  0.146580  0.024369  1
  C  C34  1  0.853420  0.657321  0.475631  1
  C  C35  1  0.146580  0.342679  0.975631  1
  C  C36  1  0.224424  0.781060  0.095211  1
  C  C37  1  0.096512  0.408527  0.029548  1
  C  C38  1  0.408527  0.096512  0.970452  1
  C  C39  1  0.775576  0.218940  0.595211  1
  I  I40  1  0.361736  0.098295  0.742439  1
  I  I41  1  0.862540  0.630512  0.993663  1
  I  I42  1  0.901705  0.638264  0.757561  1
  I  I43  1  0.500945  0.517982  0.880802  1
  I  I44  1  0.140943  0.370181  0.753748  1
  I  I45  1  0.369488  0.137460  0.506337  1
  I  I46  1  0.482018  0.499055  0.619198  1
  I  I47  1  0.985052  0.980923  0.132269  1
  I  I48  1  0.499055  0.482018  0.380802  1
  I  I49  1  0.137460  0.369488  0.493663  1
  I  I50  1  0.745596  0.260500  0.366747  1
  I  I51  1  0.980923  0.985052  0.867731  1
  I  I52  1  0.019077  0.014948  0.367731  1
  I  I53  1  0.260500  0.745596  0.633253  1
  I  I54  1  0.739500  0.254404  0.133253  1
  I  I55  1  0.254404  0.739500  0.866747  1
  I  I56  1  0.630512  0.862540  0.006337  1
  I  I57  1  0.098295  0.361736  0.257561  1
  I  I58  1  0.014948  0.019077  0.632269  1
  I  I59  1  0.370181  0.140943  0.246252  1
  I  I60  1  0.638264  0.901705  0.242439  1
  I  I61  1  0.629819  0.859057  0.746252  1
  I  I62  1  0.517982  0.500945  0.119198  1
  I  I63  1  0.859057  0.629819  0.253748  1
