# generated using pymatgen
data_KPaCuS3
_symmetry_space_group_name_H-M   'P 1'
_cell_length_a   7.42240501
_cell_length_b   7.42240556
_cell_length_c   10.38008422
_cell_angle_alpha   90.08690148
_cell_angle_beta   89.91309837
_cell_angle_gamma   149.07280911
_symmetry_Int_Tables_number   1
_chemical_formula_structural   KPaCuS3
_chemical_formula_sum   'K2 Pa2 Cu2 S6'
_cell_volume   293.90650064
_cell_formula_units_Z   2
loop_
 _symmetry_equiv_pos_site_id
 _symmetry_equiv_pos_as_xyz
  1  'x, y, z'
loop_
 _atom_site_type_symbol
 _atom_site_label
 _atom_site_symmetry_multiplicity
 _atom_site_fract_x
 _atom_site_fract_y
 _atom_site_fract_z
 _atom_site_occupancy
  K  K0  1  0.745157  0.254843  0.250010  1
  K  K1  1  0.254843  0.745157  0.749990  1
  Pa  Pa2  1  0.000000  0.000000  0.000000  1
  Pa  Pa3  1  0.000000  0.000000  0.500000  1
  Cu  Cu4  1  0.466653  0.533347  0.250181  1
  Cu  Cu5  1  0.533347  0.466653  0.749819  1
  S  S6  1  0.062043  0.937957  0.249981  1
  S  S7  1  0.937957  0.062043  0.750019  1
  S  S8  1  0.623150  0.376850  0.565491  1
  S  S9  1  0.623118  0.376882  0.934384  1
  S  S10  1  0.376882  0.623118  0.065616  1
  S  S11  1  0.376850  0.623150  0.434509  1
