# generated using pymatgen
data_AcAl2GaAu
_symmetry_space_group_name_H-M   'P 1'
_cell_length_a   4.40930053
_cell_length_b   4.40930135
_cell_length_c   6.35676600
_cell_angle_alpha   69.70710511
_cell_angle_beta   69.70707346
_cell_angle_gamma   90.00001086
_symmetry_Int_Tables_number   1
_chemical_formula_structural   AcAl2GaAu
_chemical_formula_sum   'Ac1 Al2 Ga1 Au1'
_cell_volume   107.70112344
_cell_formula_units_Z   1
loop_
 _symmetry_equiv_pos_site_id
 _symmetry_equiv_pos_as_xyz
  1  'x, y, z'
loop_
 _atom_site_type_symbol
 _atom_site_label
 _atom_site_symmetry_multiplicity
 _atom_site_fract_x
 _atom_site_fract_y
 _atom_site_fract_z
 _atom_site_occupancy
  Ac  Ac0  1  0.989540  0.989540  0.020920  1
  Al  Al1  1  0.746963  0.246963  0.506072  1
  Al  Al2  1  0.246963  0.746963  0.506072  1
  Ga  Ga3  1  0.389419  0.389419  0.221163  1
  Au  Au4  1  0.627112  0.627112  0.745774  1
