# generated using pymatgen
data_Dy4YEr(BO3)6
_symmetry_space_group_name_H-M   'P 1'
_cell_length_a   6.57747191
_cell_length_b   6.58403923
_cell_length_c   9.62161313
_cell_angle_alpha   70.37044706
_cell_angle_beta   70.36189062
_cell_angle_gamma   60.03727811
_symmetry_Int_Tables_number   1
_chemical_formula_structural   Dy4YEr(BO3)6
_chemical_formula_sum   'Dy4 Y1 Er1 B6 O18'
_cell_volume   332.69880228
_cell_formula_units_Z   1
loop_
 _symmetry_equiv_pos_site_id
 _symmetry_equiv_pos_as_xyz
  1  'x, y, z'
loop_
 _atom_site_type_symbol
 _atom_site_label
 _atom_site_symmetry_multiplicity
 _atom_site_fract_x
 _atom_site_fract_y
 _atom_site_fract_z
 _atom_site_occupancy
  Dy  Dy0  1  0.500067  0.000000  0.000011  1
  Dy  Dy1  1  0.170646  0.657687  0.999392  1
  Dy  Dy2  1  0.342766  0.829046  0.500640  1
  Dy  Dy3  1  0.829382  0.342259  0.000594  1
  Y  Y4  1  0.000209  0.499892  0.499999  1
  Er  Er5  1  0.657438  0.170895  0.499378  1
  B  B6  1  0.917433  0.843589  0.746080  1
  B  B7  1  0.158118  0.082260  0.752792  1
  B  B8  1  0.081287  0.157057  0.253910  1
  B  B9  1  0.842484  0.918347  0.247436  1
  B  B10  1  0.676614  0.323061  0.749413  1
  B  B11  1  0.324099  0.675675  0.250368  1
  O  O12  1  0.964830  0.784254  0.602423  1
  O  O13  1  0.217739  0.033839  0.896720  1
  O  O14  1  0.032352  0.217116  0.397573  1
  O  O15  1  0.782357  0.966182  0.103670  1
  O  O16  1  0.870089  0.686171  0.888124  1
  O  O17  1  0.316551  0.129855  0.611362  1
  O  O18  1  0.129562  0.314072  0.111899  1
  O  O19  1  0.685038  0.871549  0.389318  1
  O  O20  1  0.518727  0.384543  0.891481  1
  O  O21  1  0.615026  0.480266  0.607497  1
  O  O22  1  0.481483  0.615194  0.108122  1
  O  O23  1  0.387121  0.516464  0.391793  1
  O  O24  1  0.916908  0.299257  0.751746  1
  O  O25  1  0.700036  0.083769  0.746857  1
  O  O26  1  0.083411  0.700573  0.248293  1
  O  O27  1  0.299272  0.916172  0.252601  1
  O  O28  1  0.134691  0.865994  0.749409  1
  O  O29  1  0.864262  0.134960  0.251102  1
