# generated using pymatgen
data_Tl2AgBi(Ir2O7)2
_symmetry_space_group_name_H-M   'P 1'
_cell_length_a   7.27464357
_cell_length_b   7.29949412
_cell_length_c   7.35780226
_cell_angle_alpha   60.26180767
_cell_angle_beta   59.97895038
_cell_angle_gamma   59.88694112
_symmetry_Int_Tables_number   1
_chemical_formula_structural   Tl2AgBi(Ir2O7)2
_chemical_formula_sum   'Tl2 Ag1 Bi1 Ir4 O14'
_cell_volume   276.53258315
_cell_formula_units_Z   1
loop_
 _symmetry_equiv_pos_site_id
 _symmetry_equiv_pos_as_xyz
  1  'x, y, z'
loop_
 _atom_site_type_symbol
 _atom_site_label
 _atom_site_symmetry_multiplicity
 _atom_site_fract_x
 _atom_site_fract_y
 _atom_site_fract_z
 _atom_site_occupancy
  Tl  Tl0  1  0.125000  0.625000  0.125000  1
  Tl  Tl1  1  0.125000  0.125000  0.125000  1
  Ag  Ag2  1  0.625000  0.125000  0.125000  1
  Bi  Bi3  1  0.125000  0.125000  0.625000  1
  Ir  Ir4  1  0.125000  0.625000  0.625000  1
  Ir  Ir5  1  0.625000  0.125000  0.625000  1
  Ir  Ir6  1  0.625000  0.625000  0.125000  1
  Ir  Ir7  1  0.625000  0.625000  0.625000  1
  O  O8  1  0.705684  0.688782  0.303758  1
  O  O9  1  0.292362  0.294653  0.704844  1
  O  O10  1  0.708125  0.300329  0.691217  1
  O  O11  1  0.297448  0.700535  0.301481  1
  O  O12  1  0.292362  0.708143  0.704844  1
  O  O13  1  0.705684  0.301776  0.303758  1
  O  O14  1  0.544316  0.561218  0.946242  1
  O  O15  1  0.957638  0.955347  0.545156  1
  O  O16  1  0.541875  0.949671  0.558783  1
  O  O17  1  0.952552  0.549465  0.948519  1
  O  O18  1  0.957638  0.541857  0.545156  1
  O  O19  1  0.544316  0.948224  0.946242  1
  O  O20  1  0.269078  0.243824  0.243273  1
  O  O21  1  0.980922  0.006176  0.006727  1
