# generated using pymatgen
data_Li4Tm3Pb4
_symmetry_space_group_name_H-M   'P 1'
_cell_length_a   4.60620153
_cell_length_b   7.29982779
_cell_length_c   8.67190207
_cell_angle_alpha   114.89076474
_cell_angle_beta   105.40154834
_cell_angle_gamma   90.00000378
_symmetry_Int_Tables_number   1
_chemical_formula_structural   Li4Tm3Pb4
_chemical_formula_sum   'Li4 Tm3 Pb4'
_cell_volume   252.91270775
_cell_formula_units_Z   1
loop_
 _symmetry_equiv_pos_site_id
 _symmetry_equiv_pos_as_xyz
  1  'x, y, z'
loop_
 _atom_site_type_symbol
 _atom_site_label
 _atom_site_symmetry_multiplicity
 _atom_site_fract_x
 _atom_site_fract_y
 _atom_site_fract_z
 _atom_site_occupancy
  Li  Li0  1  0.674946  0.983994  0.349892  1
  Li  Li1  1  0.325054  0.016006  0.650108  1
  Li  Li2  1  0.325054  0.634103  0.650108  1
  Li  Li3  1  0.674946  0.365897  0.349892  1
  Tm  Tm4  1  0.000000  0.000000  0.000000  1
  Tm  Tm5  1  0.125913  0.625913  0.251825  1
  Tm  Tm6  1  0.874087  0.374087  0.748175  1
  Pb  Pb7  1  0.500000  0.709343  0.000000  1
  Pb  Pb8  1  0.500000  0.290657  0.000000  1
  Pb  Pb9  1  0.785522  0.785522  0.571043  1
  Pb  Pb10  1  0.214478  0.214478  0.428957  1
