# generated using pymatgen
data_Lu2Ga2IrPt
_symmetry_space_group_name_H-M   'P 1'
_cell_length_a   4.32670700
_cell_length_b   6.66349900
_cell_length_c   7.78463800
_cell_angle_alpha   90.00000000
_cell_angle_beta   90.00000000
_cell_angle_gamma   90.00000000
_symmetry_Int_Tables_number   1
_chemical_formula_structural   Lu2Ga2IrPt
_chemical_formula_sum   'Lu4 Ga4 Ir2 Pt2'
_cell_volume   224.43895865
_cell_formula_units_Z   2
loop_
 _symmetry_equiv_pos_site_id
 _symmetry_equiv_pos_as_xyz
  1  'x, y, z'
loop_
 _atom_site_type_symbol
 _atom_site_label
 _atom_site_symmetry_multiplicity
 _atom_site_fract_x
 _atom_site_fract_y
 _atom_site_fract_z
 _atom_site_occupancy
  Lu  Lu0  1  0.250000  0.967877  0.320029  1
  Lu  Lu1  1  0.250000  0.467877  0.179971  1
  Lu  Lu2  1  0.750000  0.027912  0.682558  1
  Lu  Lu3  1  0.750000  0.527912  0.817442  1
  Ga  Ga4  1  0.250000  0.352952  0.563666  1
  Ga  Ga5  1  0.250000  0.852952  0.936334  1
  Ga  Ga6  1  0.750000  0.650488  0.442532  1
  Ga  Ga7  1  0.750000  0.150488  0.057468  1
  Ir  Ir8  1  0.250000  0.238704  0.879397  1
  Ir  Ir9  1  0.250000  0.738704  0.620603  1
  Pt  Pt10  1  0.750000  0.762066  0.124168  1
  Pt  Pt11  1  0.750000  0.262066  0.375832  1
