# generated using pymatgen
data_Sc2Mn4V(PRh)7
_symmetry_space_group_name_H-M   'P 1'
_cell_length_a   9.37036066
_cell_length_b   9.37758900
_cell_length_c   3.75452400
_cell_angle_alpha   90.00000000
_cell_angle_beta   90.00000000
_cell_angle_gamma   120.18413836
_symmetry_Int_Tables_number   1
_chemical_formula_structural   Sc2Mn4V(PRh)7
_chemical_formula_sum   'Sc2 Mn4 V1 P7 Rh7'
_cell_volume   285.18336571
_cell_formula_units_Z   1
loop_
 _symmetry_equiv_pos_site_id
 _symmetry_equiv_pos_as_xyz
  1  'x, y, z'
loop_
 _atom_site_type_symbol
 _atom_site_label
 _atom_site_symmetry_multiplicity
 _atom_site_fract_x
 _atom_site_fract_y
 _atom_site_fract_z
 _atom_site_occupancy
  Sc  Sc0  1  0.999250  0.998126  0.000000  1
  Sc  Sc1  1  0.671031  0.333500  0.500000  1
  Mn  Mn2  1  0.604407  0.781812  0.000000  1
  Mn  Mn3  1  0.174739  0.395094  0.000000  1
  Mn  Mn4  1  0.222484  0.829628  0.000000  1
  Mn  Mn5  1  0.451442  0.886298  0.500000  1
  V  V6  1  0.122133  0.567944  0.500000  1
  P  P7  1  0.632875  0.555786  0.000000  1
  P  P8  1  0.925315  0.370268  0.000000  1
  P  P9  1  0.447340  0.079927  0.000000  1
  P  P10  1  0.732355  0.943179  0.500000  1
  P  P11  1  0.208194  0.265273  0.500000  1
  P  P12  1  0.055831  0.785474  0.500000  1
  P  P13  1  0.331284  0.667923  0.000000  1
  Rh  Rh14  1  0.399686  0.303455  0.000000  1
  Rh  Rh15  1  0.901394  0.598480  0.000000  1
  Rh  Rh16  1  0.696709  0.097878  0.000000  1
  Rh  Rh17  1  0.778220  0.723517  0.500000  1
  Rh  Rh18  1  0.944533  0.219190  0.500000  1
  Rh  Rh19  1  0.274963  0.056079  0.500000  1
  Rh  Rh20  1  0.425813  0.541168  0.500000  1
