# generated using pymatgen
data_Ca4Sc2TaSbO12
_symmetry_space_group_name_H-M   'P 1'
_cell_length_a   5.69975080
_cell_length_b   5.54159035
_cell_length_c   9.67422594
_cell_angle_alpha   55.05746016
_cell_angle_beta   90.11269950
_cell_angle_gamma   90.05312162
_symmetry_Int_Tables_number   1
_chemical_formula_structural   Ca4Sc2TaSbO12
_chemical_formula_sum   'Ca4 Sc2 Ta1 Sb1 O12'
_cell_volume   250.48101948
_cell_formula_units_Z   1
loop_
 _symmetry_equiv_pos_site_id
 _symmetry_equiv_pos_as_xyz
  1  'x, y, z'
loop_
 _atom_site_type_symbol
 _atom_site_label
 _atom_site_symmetry_multiplicity
 _atom_site_fract_x
 _atom_site_fract_y
 _atom_site_fract_z
 _atom_site_occupancy
  Ca  Ca0  1  0.549398  0.764170  0.750023  1
  Ca  Ca1  1  0.951281  0.761114  0.251182  1
  Ca  Ca2  1  0.450602  0.235830  0.249977  1
  Ca  Ca3  1  0.048719  0.238886  0.748818  1
  Sc  Sc4  1  0.500000  0.500000  0.500000  1
  Sc  Sc5  1  0.000000  0.500000  0.000000  1
  Ta  Ta6  1  0.000000  0.000000  0.500000  1
  Sb  Sb7  1  0.500000  0.000000  0.000000  1
  O  O8  1  0.801292  0.240786  0.548987  1
  O  O9  1  0.699055  0.238141  0.051743  1
  O  O10  1  0.198708  0.759214  0.451013  1
  O  O11  1  0.300945  0.761859  0.948257  1
  O  O12  1  0.788025  0.858976  0.945396  1
  O  O13  1  0.711695  0.857475  0.447119  1
  O  O14  1  0.211975  0.141024  0.054604  1
  O  O15  1  0.288305  0.142525  0.552881  1
  O  O16  1  0.966899  0.660566  0.742882  1
  O  O17  1  0.534599  0.657236  0.242751  1
  O  O18  1  0.033101  0.339434  0.257118  1
  O  O19  1  0.465401  0.342764  0.757249  1
