# generated using pymatgen
data_GdY2(P3Pd10)2
_symmetry_space_group_name_H-M   'P 1'
_cell_length_a   8.69508792
_cell_length_b   8.69508647
_cell_length_c   8.69508700
_cell_angle_alpha   59.99999419
_cell_angle_beta   59.99999968
_cell_angle_gamma   59.99999869
_symmetry_Int_Tables_number   1
_chemical_formula_structural   GdY2(P3Pd10)2
_chemical_formula_sum   'Gd1 Y2 P6 Pd20'
_cell_volume   464.84353212
_cell_formula_units_Z   1
loop_
 _symmetry_equiv_pos_site_id
 _symmetry_equiv_pos_as_xyz
  1  'x, y, z'
loop_
 _atom_site_type_symbol
 _atom_site_label
 _atom_site_symmetry_multiplicity
 _atom_site_fract_x
 _atom_site_fract_y
 _atom_site_fract_z
 _atom_site_occupancy
  Gd  Gd0  1  0.750000  0.750000  0.750000  1
  Y  Y1  1  0.000000  0.000000  0.000000  1
  Y  Y2  1  0.250000  0.250000  0.250000  1
  P  P3  1  0.737216  0.262784  0.262784  1
  P  P4  1  0.737216  0.737216  0.262784  1
  P  P5  1  0.737216  0.262784  0.737216  1
  P  P6  1  0.262784  0.737216  0.262784  1
  P  P7  1  0.262784  0.737216  0.737216  1
  P  P8  1  0.262784  0.262784  0.737216  1
  Pd  Pd9  1  0.344708  0.001003  0.001003  1
  Pd  Pd10  1  0.001003  0.653286  0.344708  1
  Pd  Pd11  1  0.344708  0.001003  0.653286  1
  Pd  Pd12  1  0.001003  0.653286  0.001003  1
  Pd  Pd13  1  0.653286  0.344708  0.001003  1
  Pd  Pd14  1  0.614682  0.614682  0.155952  1
  Pd  Pd15  1  0.384776  0.845672  0.384776  1
  Pd  Pd16  1  0.155952  0.614682  0.614682  1
  Pd  Pd17  1  0.653286  0.001003  0.344708  1
  Pd  Pd18  1  0.001003  0.344708  0.653286  1
  Pd  Pd19  1  0.653286  0.001003  0.001003  1
  Pd  Pd20  1  0.001003  0.001003  0.344708  1
  Pd  Pd21  1  0.614682  0.155952  0.614682  1
  Pd  Pd22  1  0.344708  0.653286  0.001003  1
  Pd  Pd23  1  0.384776  0.384776  0.384776  1
  Pd  Pd24  1  0.614682  0.614682  0.614682  1
  Pd  Pd25  1  0.384776  0.384776  0.845672  1
  Pd  Pd26  1  0.001003  0.001003  0.653286  1
  Pd  Pd27  1  0.845672  0.384776  0.384776  1
  Pd  Pd28  1  0.001003  0.344708  0.001003  1
