# generated using pymatgen
data_La3P2S
_symmetry_space_group_name_H-M   'P 1'
_cell_length_a   7.35067245
_cell_length_b   7.35067152
_cell_length_c   7.35067185
_cell_angle_alpha   146.52162613
_cell_angle_beta   131.93834498
_cell_angle_gamma   59.83945899
_symmetry_Int_Tables_number   1
_chemical_formula_structural   La3P2S
_chemical_formula_sum   'La3 P2 S1'
_cell_volume   161.50134344
_cell_formula_units_Z   1
loop_
 _symmetry_equiv_pos_site_id
 _symmetry_equiv_pos_as_xyz
  1  'x, y, z'
loop_
 _atom_site_type_symbol
 _atom_site_label
 _atom_site_symmetry_multiplicity
 _atom_site_fract_x
 _atom_site_fract_y
 _atom_site_fract_z
 _atom_site_occupancy
  La  La0  1  0.500000  0.000000  0.500000  1
  La  La1  1  0.169891  0.669891  0.500000  1
  La  La2  1  0.830109  0.330109  0.500000  1
  P  P3  1  0.665760  0.665760  0.000000  1
  P  P4  1  0.334240  0.334240  0.000000  1
  S  S5  1  0.000000  0.000000  0.000000  1
