# generated using pymatgen
data_Hf11Zr5PtRh7N4
_symmetry_space_group_name_H-M   'P 1'
_cell_length_a   8.75366154
_cell_length_b   8.73921814
_cell_length_c   8.73854300
_cell_angle_alpha   60.00255171
_cell_angle_beta   60.05711216
_cell_angle_gamma   59.92014547
_symmetry_Int_Tables_number   1
_chemical_formula_structural   Hf11Zr5PtRh7N4
_chemical_formula_sum   'Hf11 Zr5 Pt1 Rh7 N4'
_cell_volume   472.62732320
_cell_formula_units_Z   1
loop_
 _symmetry_equiv_pos_site_id
 _symmetry_equiv_pos_as_xyz
  1  'x, y, z'
loop_
 _atom_site_type_symbol
 _atom_site_label
 _atom_site_symmetry_multiplicity
 _atom_site_fract_x
 _atom_site_fract_y
 _atom_site_fract_z
 _atom_site_occupancy
  Hf  Hf0  1  0.121001  0.624916  0.627042  1
  Hf  Hf1  1  0.624165  0.118273  0.628781  1
  Hf  Hf2  1  0.626307  0.628888  0.117791  1
  Hf  Hf3  1  0.626307  0.628888  0.627014  1
  Hf  Hf4  1  0.818701  0.819167  0.181066  1
  Hf  Hf5  1  0.180726  0.181411  0.818931  1
  Hf  Hf6  1  0.816500  0.183215  0.817723  1
  Hf  Hf7  1  0.182994  0.816757  0.182855  1
  Hf  Hf8  1  0.182994  0.816757  0.817394  1
  Hf  Hf9  1  0.816500  0.183215  0.182562  1
  Hf  Hf10  1  0.433776  0.433615  0.066305  1
  Zr  Zr11  1  0.067448  0.063503  0.434525  1
  Zr  Zr12  1  0.433655  0.066650  0.433142  1
  Zr  Zr13  1  0.068472  0.433451  0.064634  1
  Zr  Zr14  1  0.068472  0.433451  0.433443  1
  Zr  Zr15  1  0.433655  0.066650  0.066553  1
  Pt  Pt16  1  0.763620  0.411621  0.412380  1
  Rh  Rh17  1  0.411245  0.762345  0.413205  1
  Rh  Rh18  1  0.412668  0.413617  0.765510  1
  Rh  Rh19  1  0.412668  0.413617  0.408204  1
  Rh  Rh20  1  0.472795  0.841008  0.843099  1
  Rh  Rh21  1  0.840219  0.474296  0.842743  1
  Rh  Rh22  1  0.842142  0.842359  0.473768  1
  Rh  Rh23  1  0.842142  0.842359  0.841732  1
  N  N24  1  0.629710  0.126408  0.121941  1
  N  N25  1  0.126640  0.628671  0.122345  1
  N  N26  1  0.122237  0.122445  0.631711  1
  N  N27  1  0.122237  0.122445  0.123605  1
