# generated using pymatgen
data_Tb3Pr16SmSn16
_symmetry_space_group_name_H-M   'P 1'
_cell_length_a   8.30941007
_cell_length_b   8.47265226
_cell_length_c   16.05850500
_cell_angle_alpha   90.00000000
_cell_angle_beta   90.00000000
_cell_angle_gamma   89.97636198
_symmetry_Int_Tables_number   1
_chemical_formula_structural   Tb3Pr16SmSn16
_chemical_formula_sum   'Tb3 Pr16 Sm1 Sn16'
_cell_volume   1130.56268801
_cell_formula_units_Z   1
loop_
 _symmetry_equiv_pos_site_id
 _symmetry_equiv_pos_as_xyz
  1  'x, y, z'
loop_
 _atom_site_type_symbol
 _atom_site_label
 _atom_site_symmetry_multiplicity
 _atom_site_fract_x
 _atom_site_fract_y
 _atom_site_fract_z
 _atom_site_occupancy
  Tb  Tb0  1  0.698859  0.998499  0.750000  1
  Tb  Tb1  1  0.800766  0.498722  0.250000  1
  Tb  Tb2  1  0.300614  0.001099  0.250000  1
  Pr  Pr3  1  0.368074  0.836716  0.879769  1
  Pr  Pr4  1  0.867371  0.663647  0.620474  1
  Pr  Pr5  1  0.632470  0.162999  0.379400  1
  Pr  Pr6  1  0.132493  0.336823  0.121370  1
  Pr  Pr7  1  0.632470  0.162999  0.120600  1
  Pr  Pr8  1  0.132493  0.336823  0.378630  1
  Pr  Pr9  1  0.368074  0.836716  0.620231  1
  Pr  Pr10  1  0.867371  0.663647  0.879526  1
  Pr  Pr11  1  0.519286  0.318658  0.901269  1
  Pr  Pr12  1  0.018748  0.180460  0.598789  1
  Pr  Pr13  1  0.480934  0.681010  0.400632  1
  Pr  Pr14  1  0.981115  0.818991  0.099019  1
  Pr  Pr15  1  0.480934  0.681010  0.099368  1
  Pr  Pr16  1  0.981115  0.818991  0.400981  1
  Pr  Pr17  1  0.519286  0.318658  0.598731  1
  Pr  Pr18  1  0.018748  0.180460  0.901211  1
  Sm  Sm19  1  0.197907  0.501355  0.750000  1
  Sn  Sn20  1  0.292184  0.034100  0.044247  1
  Sn  Sn21  1  0.792401  0.466139  0.455841  1
  Sn  Sn22  1  0.707732  0.966149  0.544024  1
  Sn  Sn23  1  0.207702  0.535091  0.957625  1
  Sn  Sn24  1  0.707732  0.966149  0.955976  1
  Sn  Sn25  1  0.207702  0.535091  0.542375  1
  Sn  Sn26  1  0.292184  0.034100  0.455753  1
  Sn  Sn27  1  0.792401  0.466139  0.044159  1
  Sn  Sn28  1  0.567698  0.617018  0.750000  1
  Sn  Sn29  1  0.064293  0.885619  0.750000  1
  Sn  Sn30  1  0.435230  0.383693  0.250000  1
  Sn  Sn31  1  0.934714  0.116137  0.250000  1
  Sn  Sn32  1  0.325708  0.142577  0.750000  1
  Sn  Sn33  1  0.822564  0.353018  0.750000  1
  Sn  Sn34  1  0.675621  0.854433  0.250000  1
  Sn  Sn35  1  0.175008  0.646265  0.250000  1
