# generated using pymatgen
data_Ac3Th(BiTe)4
_symmetry_space_group_name_H-M   'P 1'
_cell_length_a   4.59250200
_cell_length_b   4.59286605
_cell_length_c   19.52225200
_cell_angle_alpha   90.00845802
_cell_angle_beta   90.00000000
_cell_angle_gamma   90.00000000
_symmetry_Int_Tables_number   1
_chemical_formula_structural   Ac3Th(BiTe)4
_chemical_formula_sum   'Ac3 Th1 Bi4 Te4'
_cell_volume   411.77790846
_cell_formula_units_Z   1
loop_
 _symmetry_equiv_pos_site_id
 _symmetry_equiv_pos_as_xyz
  1  'x, y, z'
loop_
 _atom_site_type_symbol
 _atom_site_label
 _atom_site_symmetry_multiplicity
 _atom_site_fract_x
 _atom_site_fract_y
 _atom_site_fract_z
 _atom_site_occupancy
  Ac  Ac0  1  0.750000  0.252055  0.356868  1
  Ac  Ac1  1  0.250000  0.747275  0.641906  1
  Ac  Ac2  1  0.750000  0.247873  0.860908  1
  Th  Th3  1  0.250000  0.751844  0.138736  1
  Bi  Bi4  1  0.250000  0.251030  0.007706  1
  Bi  Bi5  1  0.750000  0.750421  0.497946  1
  Bi  Bi6  1  0.250000  0.249545  0.497946  1
  Bi  Bi7  1  0.750000  0.750741  0.007713  1
  Te  Te8  1  0.750000  0.252047  0.179969  1
  Te  Te9  1  0.250000  0.752198  0.304751  1
  Te  Te10  1  0.750000  0.247304  0.686745  1
  Te  Te11  1  0.250000  0.747671  0.818810  1
