# generated using pymatgen
data_PrEr4Ga6P6Ir19
_symmetry_space_group_name_H-M   'P 1'
_cell_length_a   12.96842500
_cell_length_b   12.96842482
_cell_length_c   3.98923000
_cell_angle_alpha   90.00000000
_cell_angle_beta   90.00000000
_cell_angle_gamma   120.00000301
_symmetry_Int_Tables_number   1
_chemical_formula_structural   PrEr4Ga6P6Ir19
_chemical_formula_sum   'Pr1 Er4 Ga6 P6 Ir19'
_cell_volume   581.02411562
_cell_formula_units_Z   1
loop_
 _symmetry_equiv_pos_site_id
 _symmetry_equiv_pos_as_xyz
  1  'x, y, z'
loop_
 _atom_site_type_symbol
 _atom_site_label
 _atom_site_symmetry_multiplicity
 _atom_site_fract_x
 _atom_site_fract_y
 _atom_site_fract_z
 _atom_site_occupancy
  Pr  Pr0  1  0.666667  0.333333  0.000000  1
  Er  Er1  1  0.333333  0.666667  0.000000  1
  Er  Er2  1  0.816675  0.812126  0.500000  1
  Er  Er3  1  0.187874  0.004549  0.500000  1
  Er  Er4  1  0.995451  0.183325  0.500000  1
  Ga  Ga5  1  0.677073  0.156508  0.500000  1
  Ga  Ga6  1  0.843492  0.520565  0.500000  1
  Ga  Ga7  1  0.479435  0.322927  0.500000  1
  Ga  Ga8  1  0.635514  0.637462  0.000000  1
  Ga  Ga9  1  0.362538  0.998053  0.000000  1
  Ga  Ga10  1  0.001947  0.364486  0.000000  1
  P  P11  1  0.180467  0.697515  0.500000  1
  P  P12  1  0.517046  0.819533  0.500000  1
  P  P13  1  0.302485  0.482954  0.500000  1
  P  P14  1  0.175131  0.181301  0.000000  1
  P  P15  1  0.818699  0.993829  0.000000  1
  P  P16  1  0.006171  0.824869  0.000000  1
  Ir  Ir17  1  0.809884  0.168569  0.000000  1
  Ir  Ir18  1  0.831431  0.641315  0.000000  1
  Ir  Ir19  1  0.358685  0.190116  0.000000  1
  Ir  Ir20  1  0.182354  0.793817  0.000000  1
  Ir  Ir21  1  0.611463  0.817646  0.000000  1
  Ir  Ir22  1  0.206183  0.388537  0.000000  1
  Ir  Ir23  1  0.446541  0.440678  0.000000  1
  Ir  Ir24  1  0.559322  0.005863  0.000000  1
  Ir  Ir25  1  0.994137  0.553459  0.000000  1
  Ir  Ir26  1  0.267173  0.280511  0.500000  1
  Ir  Ir27  1  0.719489  0.986662  0.500000  1
  Ir  Ir28  1  0.013338  0.732827  0.500000  1
  Ir  Ir29  1  0.875109  0.348673  0.500000  1
  Ir  Ir30  1  0.651327  0.526437  0.500000  1
  Ir  Ir31  1  0.473563  0.124891  0.500000  1
  Ir  Ir32  1  0.371443  0.868453  0.500000  1
  Ir  Ir33  1  0.497011  0.628557  0.500000  1
  Ir  Ir34  1  0.131547  0.502989  0.500000  1
  Ir  Ir35  1  0.000000  0.000000  0.000000  1
