# generated using pymatgen
data_Na3Mg2PtO6
_symmetry_space_group_name_H-M   'P 1'
_cell_length_a   5.37208137
_cell_length_b   5.37208031
_cell_length_c   5.67291970
_cell_angle_alpha   99.14518997
_cell_angle_beta   99.14482096
_cell_angle_gamma   119.99230673
_symmetry_Int_Tables_number   1
_chemical_formula_structural   Na3Mg2PtO6
_chemical_formula_sum   'Na3 Mg2 Pt1 O6'
_cell_volume   134.44107223
_cell_formula_units_Z   1
loop_
 _symmetry_equiv_pos_site_id
 _symmetry_equiv_pos_as_xyz
  1  'x, y, z'
loop_
 _atom_site_type_symbol
 _atom_site_label
 _atom_site_symmetry_multiplicity
 _atom_site_fract_x
 _atom_site_fract_y
 _atom_site_fract_z
 _atom_site_occupancy
  Na  Na0  1  0.830351  0.169649  0.500000  1
  Na  Na1  1  0.500000  0.500000  0.500000  1
  Na  Na2  1  0.169650  0.830352  0.500000  1
  Mg  Mg3  1  0.666655  0.333348  0.000000  1
  Mg  Mg4  1  0.333347  0.666654  0.000000  1
  Pt  Pt5  1  0.000000  0.000000  0.000000  1
  O  O6  1  0.747450  0.747450  0.202334  1
  O  O7  1  0.388708  0.067702  0.203517  1
  O  O8  1  0.067703  0.388710  0.203521  1
  O  O9  1  0.932296  0.611290  0.796478  1
  O  O10  1  0.611292  0.932297  0.796482  1
  O  O11  1  0.252551  0.252551  0.797667  1
