# generated using pymatgen
data_Tb2Fe3Co2P6Ru5
_symmetry_space_group_name_H-M   'P 1'
_cell_length_a   3.78970900
_cell_length_b   10.51838800
_cell_length_c   12.05376700
_cell_angle_alpha   90.00000000
_cell_angle_beta   90.00000000
_cell_angle_gamma   90.00000000
_symmetry_Int_Tables_number   1
_chemical_formula_structural   Tb2Fe3Co2P6Ru5
_chemical_formula_sum   'Tb4 Fe6 Co4 P12 Ru10'
_cell_volume   480.48279627
_cell_formula_units_Z   2
loop_
 _symmetry_equiv_pos_site_id
 _symmetry_equiv_pos_as_xyz
  1  'x, y, z'
loop_
 _atom_site_type_symbol
 _atom_site_label
 _atom_site_symmetry_multiplicity
 _atom_site_fract_x
 _atom_site_fract_y
 _atom_site_fract_z
 _atom_site_occupancy
  Tb  Tb0  1  0.250000  0.585961  0.709022  1
  Tb  Tb1  1  0.250000  0.914039  0.209022  1
  Tb  Tb2  1  0.750000  0.421001  0.291610  1
  Tb  Tb3  1  0.750000  0.078999  0.791610  1
  Fe  Fe4  1  0.250000  0.877970  0.698835  1
  Fe  Fe5  1  0.250000  0.622030  0.198835  1
  Fe  Fe6  1  0.250000  0.462035  0.934069  1
  Fe  Fe7  1  0.250000  0.037965  0.434069  1
  Fe  Fe8  1  0.750000  0.537810  0.063805  1
  Fe  Fe9  1  0.750000  0.962190  0.563805  1
  Co  Co10  1  0.750000  0.772301  0.824920  1
  Co  Co11  1  0.750000  0.727699  0.324920  1
  Co  Co12  1  0.750000  0.113831  0.301193  1
  Co  Co13  1  0.750000  0.386169  0.801193  1
  P  P14  1  0.250000  0.432374  0.112383  1
  P  P15  1  0.250000  0.067626  0.612383  1
  P  P16  1  0.750000  0.573685  0.887391  1
  P  P17  1  0.750000  0.926315  0.387391  1
  P  P18  1  0.250000  0.270255  0.869667  1
  P  P19  1  0.250000  0.229745  0.369667  1
  P  P20  1  0.750000  0.724385  0.138999  1
  P  P21  1  0.750000  0.775615  0.638999  1
  P  P22  1  0.250000  0.606655  0.385146  1
  P  P23  1  0.250000  0.893345  0.885146  1
  P  P24  1  0.750000  0.398532  0.611136  1
  P  P25  1  0.750000  0.101468  0.111136  1
  Ru  Ru26  1  0.250000  0.701559  0.982538  1
  Ru  Ru27  1  0.250000  0.798441  0.482538  1
  Ru  Ru28  1  0.750000  0.295071  0.010834  1
  Ru  Ru29  1  0.750000  0.204929  0.510834  1
  Ru  Ru30  1  0.250000  0.408552  0.485716  1
  Ru  Ru31  1  0.250000  0.091448  0.985716  1
  Ru  Ru32  1  0.750000  0.600801  0.514423  1
  Ru  Ru33  1  0.750000  0.899199  0.014423  1
  Ru  Ru34  1  0.250000  0.226197  0.178316  1
  Ru  Ru35  1  0.250000  0.273803  0.678316  1
