# generated using pymatgen
data_La13Pr7(IrPt)6
_symmetry_space_group_name_H-M   'P 1'
_cell_length_a   11.57024794
_cell_length_b   11.60533971
_cell_length_c   6.62290261
_cell_angle_alpha   89.91053062
_cell_angle_beta   90.04326561
_cell_angle_gamma   89.90775474
_symmetry_Int_Tables_number   1
_chemical_formula_structural   La13Pr7(IrPt)6
_chemical_formula_sum   'La13 Pr7 Ir6 Pt6'
_cell_volume   889.29873656
_cell_formula_units_Z   1
loop_
 _symmetry_equiv_pos_site_id
 _symmetry_equiv_pos_as_xyz
  1  'x, y, z'
loop_
 _atom_site_type_symbol
 _atom_site_label
 _atom_site_symmetry_multiplicity
 _atom_site_fract_x
 _atom_site_fract_y
 _atom_site_fract_z
 _atom_site_occupancy
  La  La0  1  0.295995  0.093961  0.381652  1
  La  La1  1  0.295975  0.906474  0.881084  1
  La  La2  1  0.703601  0.089828  0.881825  1
  La  La3  1  0.703393  0.910688  0.381760  1
  La  La4  1  0.586127  0.792919  0.884679  1
  La  La5  1  0.586332  0.207378  0.385547  1
  La  La6  1  0.406925  0.792251  0.393288  1
  La  La7  1  0.406356  0.207920  0.893570  1
  La  La8  1  0.206275  0.411793  0.607891  1
  La  La9  1  0.208374  0.588473  0.107773  1
  La  La10  1  0.797964  0.408470  0.114779  1
  La  La11  1  0.798063  0.588786  0.614786  1
  La  La12  1  0.913003  0.705163  0.117733  1
  Pr  Pr13  1  0.912712  0.293357  0.618387  1
  Pr  Pr14  1  0.093941  0.705249  0.617900  1
  Pr  Pr15  1  0.092797  0.294980  0.118330  1
  Pr  Pr16  1  0.999678  0.999400  0.498357  1
  Pr  Pr17  1  0.000438  0.001254  0.997290  1
  Pr  Pr18  1  0.496705  0.499107  0.001990  1
  Pr  Pr19  1  0.496265  0.500493  0.502249  1
  Ir  Ir20  1  0.345171  0.344077  0.251264  1
  Ir  Ir21  1  0.345989  0.656373  0.750915  1
  Ir  Ir22  1  0.500768  0.999185  0.125937  1
  Ir  Ir23  1  0.501096  0.000971  0.625645  1
  Ir  Ir24  1  0.998772  0.500456  0.876679  1
  Ir  Ir25  1  0.998408  0.500958  0.374737  1
  Pt  Pt26  1  0.845740  0.153475  0.248777  1
  Pt  Pt27  1  0.845620  0.845576  0.749466  1
  Pt  Pt28  1  0.152798  0.154535  0.746936  1
  Pt  Pt29  1  0.153789  0.847023  0.248295  1
  Pt  Pt30  1  0.655611  0.344875  0.750276  1
  Pt  Pt31  1  0.655318  0.654549  0.250201  1
