# generated using pymatgen
data_Ca5Si10P2Rh19
_symmetry_space_group_name_H-M   'P 1'
_cell_length_a   12.82185600
_cell_length_b   12.82185571
_cell_length_c   3.93313400
_cell_angle_alpha   90.00000000
_cell_angle_beta   90.00000000
_cell_angle_gamma   120.17313246
_symmetry_Int_Tables_number   1
_chemical_formula_structural   Ca5Si10P2Rh19
_chemical_formula_sum   'Ca5 Si10 P2 Rh19'
_cell_volume   558.99875303
_cell_formula_units_Z   1
loop_
 _symmetry_equiv_pos_site_id
 _symmetry_equiv_pos_as_xyz
  1  'x, y, z'
loop_
 _atom_site_type_symbol
 _atom_site_label
 _atom_site_symmetry_multiplicity
 _atom_site_fract_x
 _atom_site_fract_y
 _atom_site_fract_z
 _atom_site_occupancy
  Ca  Ca0  1  0.666625  0.333686  0.000000  1
  Ca  Ca1  1  0.333686  0.666625  0.000000  1
  Ca  Ca2  1  0.183739  0.183739  0.500000  1
  Ca  Ca3  1  0.815902  0.000578  0.500000  1
  Ca  Ca4  1  0.000578  0.815902  0.500000  1
  Si  Si5  1  0.372268  0.372268  0.000000  1
  Si  Si6  1  0.627064  0.000154  0.000000  1
  Si  Si7  1  0.000154  0.627064  0.000000  1
  Si  Si8  1  0.840068  0.315127  0.500000  1
  Si  Si9  1  0.685448  0.525117  0.500000  1
  Si  Si10  1  0.475349  0.160421  0.500000  1
  Si  Si11  1  0.315127  0.840068  0.500000  1
  Si  Si12  1  0.525117  0.685448  0.500000  1
  Si  Si13  1  0.160421  0.475349  0.500000  1
  Si  Si14  1  0.820534  0.820534  0.000000  1
  P  P15  1  0.179785  0.998923  0.000000  1
  P  P16  1  0.998923  0.179785  0.000000  1
  Rh  Rh17  1  0.554674  0.554674  0.000000  1
  Rh  Rh18  1  0.445122  0.001171  0.000000  1
  Rh  Rh19  1  0.001171  0.445122  0.000000  1
  Rh  Rh20  1  0.818703  0.192669  0.000000  1
  Rh  Rh21  1  0.807421  0.623730  0.000000  1
  Rh  Rh22  1  0.372722  0.180505  0.000000  1
  Rh  Rh23  1  0.192669  0.818703  0.000000  1
  Rh  Rh24  1  0.623730  0.807421  0.000000  1
  Rh  Rh25  1  0.180505  0.372722  0.000000  1
  Rh  Rh26  1  0.641653  0.128434  0.500000  1
  Rh  Rh27  1  0.873117  0.513257  0.500000  1
  Rh  Rh28  1  0.485862  0.358199  0.500000  1
  Rh  Rh29  1  0.128434  0.641653  0.500000  1
  Rh  Rh30  1  0.513257  0.873117  0.500000  1
  Rh  Rh31  1  0.358199  0.485862  0.500000  1
  Rh  Rh32  1  0.723091  0.723091  0.500000  1
  Rh  Rh33  1  0.275197  0.999756  0.500000  1
  Rh  Rh34  1  0.999756  0.275197  0.500000  1
  Rh  Rh35  1  0.003929  0.003929  0.000000  1
