# generated using pymatgen
data_Hf6Nb4Al3Si3N2
_symmetry_space_group_name_H-M   'P 1'
_cell_length_a   7.87176600
_cell_length_b   7.87176708
_cell_length_c   5.43415200
_cell_angle_alpha   90.00000000
_cell_angle_beta   90.00000000
_cell_angle_gamma   120.00000386
_symmetry_Int_Tables_number   1
_chemical_formula_structural   Hf6Nb4Al3Si3N2
_chemical_formula_sum   'Hf6 Nb4 Al3 Si3 N2'
_cell_volume   291.61295087
_cell_formula_units_Z   1
loop_
 _symmetry_equiv_pos_site_id
 _symmetry_equiv_pos_as_xyz
  1  'x, y, z'
loop_
 _atom_site_type_symbol
 _atom_site_label
 _atom_site_symmetry_multiplicity
 _atom_site_fract_x
 _atom_site_fract_y
 _atom_site_fract_z
 _atom_site_occupancy
  Hf  Hf0  1  0.233894  0.000000  0.250000  1
  Hf  Hf1  1  0.000000  0.233894  0.250000  1
  Hf  Hf2  1  0.766106  0.766106  0.250000  1
  Hf  Hf3  1  0.767315  0.000000  0.750000  1
  Hf  Hf4  1  0.000000  0.767315  0.750000  1
  Hf  Hf5  1  0.232685  0.232685  0.750000  1
  Nb  Nb6  1  0.666667  0.333333  0.002029  1
  Nb  Nb7  1  0.333333  0.666667  0.002029  1
  Nb  Nb8  1  0.666667  0.333333  0.497971  1
  Nb  Nb9  1  0.333333  0.666667  0.497971  1
  Al  Al10  1  0.410672  0.000000  0.750000  1
  Al  Al11  1  0.000000  0.410672  0.750000  1
  Al  Al12  1  0.589328  0.589328  0.750000  1
  Si  Si13  1  0.589400  0.000000  0.250000  1
  Si  Si14  1  0.000000  0.589400  0.250000  1
  Si  Si15  1  0.410600  0.410600  0.250000  1
  N  N16  1  0.000000  0.000000  0.000582  1
  N  N17  1  0.000000  0.000000  0.499418  1
