# generated using pymatgen
data_Yb2Al4NiGe2
_symmetry_space_group_name_H-M   'P 1'
_cell_length_a   4.13559841
_cell_length_b   4.13561199
_cell_length_c   10.27517123
_cell_angle_alpha   101.58706529
_cell_angle_beta   101.58721266
_cell_angle_gamma   89.99410922
_symmetry_Int_Tables_number   1
_chemical_formula_structural   Yb2Al4NiGe2
_chemical_formula_sum   'Yb2 Al4 Ni1 Ge2'
_cell_volume   168.50029243
_cell_formula_units_Z   1
loop_
 _symmetry_equiv_pos_site_id
 _symmetry_equiv_pos_as_xyz
  1  'x, y, z'
loop_
 _atom_site_type_symbol
 _atom_site_label
 _atom_site_symmetry_multiplicity
 _atom_site_fract_x
 _atom_site_fract_y
 _atom_site_fract_z
 _atom_site_occupancy
  Yb  Yb0  1  0.186494  0.186494  0.373422  1
  Yb  Yb1  1  0.813508  0.813508  0.626579  1
  Al  Al2  1  0.566738  0.066644  0.133475  1
  Al  Al3  1  0.066645  0.566738  0.133475  1
  Al  Al4  1  0.933356  0.433263  0.866525  1
  Al  Al5  1  0.433263  0.933357  0.866526  1
  Ni  Ni6  1  0.999999  0.999999  0.000001  1
  Ge  Ge7  1  0.656684  0.656684  0.313484  1
  Ge  Ge8  1  0.343317  0.343317  0.686514  1
