# generated using pymatgen
data_Lu7(AsS3)2
_symmetry_space_group_name_H-M   'P 1'
_cell_length_a   7.75265233
_cell_length_b   7.75240537
_cell_length_c   7.75262031
_cell_angle_alpha   120.00148069
_cell_angle_beta   90.00054682
_cell_angle_gamma   120.00012741
_symmetry_Int_Tables_number   1
_chemical_formula_structural   Lu7(AsS3)2
_chemical_formula_sum   'Lu7 As2 S6'
_cell_volume   329.46377450
_cell_formula_units_Z   1
loop_
 _symmetry_equiv_pos_site_id
 _symmetry_equiv_pos_as_xyz
  1  'x, y, z'
loop_
 _atom_site_type_symbol
 _atom_site_label
 _atom_site_symmetry_multiplicity
 _atom_site_fract_x
 _atom_site_fract_y
 _atom_site_fract_z
 _atom_site_occupancy
  Lu  Lu0  1  0.250000  0.000013  0.250009  1
  Lu  Lu1  1  0.250012  0.499992  0.249989  1
  Lu  Lu2  1  0.749992  0.999982  0.249993  1
  Lu  Lu3  1  0.249992  0.500002  0.750003  1
  Lu  Lu4  1  0.249991  0.999995  0.749999  1
  Lu  Lu5  1  0.750003  0.999999  0.750004  1
  Lu  Lu6  1  0.750020  0.500004  0.750004  1
  As  As7  1  0.000008  0.000004  0.000000  1
  As  As8  1  0.500000  0.999997  0.499998  1
  S  S9  1  0.003283  0.006580  0.503289  1
  S  S10  1  0.003271  0.499993  0.503260  1
  S  S11  1  0.496737  0.500005  0.503259  1
  S  S12  1  0.003248  0.499995  0.996751  1
  S  S13  1  0.496729  0.500000  0.996735  1
  S  S14  1  0.496717  0.993442  0.996715  1
