# generated using pymatgen
data_Yb3Dy13(TmIr3)4
_symmetry_space_group_name_H-M   'P 1'
_cell_length_a   10.84761747
_cell_length_b   10.89041738
_cell_length_c   6.35533919
_cell_angle_alpha   89.94929617
_cell_angle_beta   90.12166778
_cell_angle_gamma   90.12368559
_symmetry_Int_Tables_number   1
_chemical_formula_structural   Yb3Dy13(TmIr3)4
_chemical_formula_sum   'Yb3 Dy13 Tm4 Ir12'
_cell_volume   750.78478226
_cell_formula_units_Z   1
loop_
 _symmetry_equiv_pos_site_id
 _symmetry_equiv_pos_as_xyz
  1  'x, y, z'
loop_
 _atom_site_type_symbol
 _atom_site_label
 _atom_site_symmetry_multiplicity
 _atom_site_fract_x
 _atom_site_fract_y
 _atom_site_fract_z
 _atom_site_occupancy
  Yb  Yb0  1  0.289813  0.086612  0.374672  1
  Yb  Yb1  1  0.289020  0.912583  0.875284  1
  Yb  Yb2  1  0.710969  0.087182  0.875178  1
  Dy  Dy3  1  0.708682  0.913920  0.378338  1
  Dy  Dy4  1  0.587138  0.794019  0.877512  1
  Dy  Dy5  1  0.586178  0.207028  0.377932  1
  Dy  Dy6  1  0.411328  0.794013  0.378017  1
  Dy  Dy7  1  0.413860  0.206310  0.878059  1
  Dy  Dy8  1  0.210395  0.412813  0.623903  1
  Dy  Dy9  1  0.210198  0.586474  0.123431  1
  Dy  Dy10  1  0.790555  0.412758  0.122669  1
  Dy  Dy11  1  0.789596  0.587121  0.621752  1
  Dy  Dy12  1  0.913127  0.709945  0.123566  1
  Dy  Dy13  1  0.912455  0.289603  0.623378  1
  Dy  Dy14  1  0.086916  0.709949  0.622354  1
  Dy  Dy15  1  0.087990  0.289896  0.123263  1
  Tm  Tm16  1  0.001774  0.000140  0.498896  1
  Tm  Tm17  1  0.999354  0.000431  0.999247  1
  Tm  Tm18  1  0.500156  0.500314  0.998048  1
  Tm  Tm19  1  0.499487  0.500309  0.498165  1
  Ir  Ir20  1  0.851316  0.153062  0.255866  1
  Ir  Ir21  1  0.852203  0.843751  0.746720  1
  Ir  Ir22  1  0.147130  0.157416  0.753512  1
  Ir  Ir23  1  0.146558  0.842819  0.251875  1
  Ir  Ir24  1  0.649953  0.351598  0.748240  1
  Ir  Ir25  1  0.650953  0.653086  0.249509  1
  Ir  Ir26  1  0.349461  0.351231  0.246626  1
  Ir  Ir27  1  0.348998  0.648543  0.747519  1
  Ir  Ir28  1  0.501882  0.999032  0.123839  1
  Ir  Ir29  1  0.502392  0.998581  0.622000  1
  Ir  Ir30  1  0.000155  0.499877  0.880122  1
  Ir  Ir31  1  0.000008  0.499585  0.380509  1
