# generated using pymatgen
data_Ce(YCo)5
_symmetry_space_group_name_H-M   'P 1'
_cell_length_a   5.77146605
_cell_length_b   5.77146613
_cell_length_c   21.09449500
_cell_angle_alpha   89.99915121
_cell_angle_beta   89.99915022
_cell_angle_gamma   40.52753998
_symmetry_Int_Tables_number   1
_chemical_formula_structural   Ce(YCo)5
_chemical_formula_sum   'Ce2 Y10 Co10'
_cell_volume   456.59393802
_cell_formula_units_Z   2
loop_
 _symmetry_equiv_pos_site_id
 _symmetry_equiv_pos_as_xyz
  1  'x, y, z'
loop_
 _atom_site_type_symbol
 _atom_site_label
 _atom_site_symmetry_multiplicity
 _atom_site_fract_x
 _atom_site_fract_y
 _atom_site_fract_z
 _atom_site_occupancy
  Ce  Ce0  1  0.999980  0.999980  0.999988  1
  Ce  Ce1  1  0.000065  0.000065  0.500008  1
  Y  Y2  1  0.282661  0.282661  0.250032  1
  Y  Y3  1  0.717345  0.717345  0.750037  1
  Y  Y4  1  0.282295  0.282295  0.073923  1
  Y  Y5  1  0.717538  0.717538  0.573946  1
  Y  Y6  1  0.717593  0.717593  0.925947  1
  Y  Y7  1  0.282331  0.282331  0.426078  1
  Y  Y8  1  0.003193  0.003193  0.163316  1
  Y  Y9  1  0.996941  0.996941  0.663380  1
  Y  Y10  1  0.996821  0.996821  0.836611  1
  Y  Y11  1  0.003229  0.003229  0.336704  1
  Co  Co12  1  0.587970  0.587970  0.250025  1
  Co  Co13  1  0.412075  0.412075  0.749993  1
  Co  Co14  1  0.571792  0.571792  0.056635  1
  Co  Co15  1  0.428059  0.428059  0.556790  1
  Co  Co16  1  0.428163  0.428163  0.943236  1
  Co  Co17  1  0.571807  0.571807  0.443327  1
  Co  Co18  1  0.696762  0.696762  0.154961  1
  Co  Co19  1  0.303356  0.303356  0.654949  1
  Co  Co20  1  0.303247  0.303247  0.845018  1
  Co  Co21  1  0.696778  0.696778  0.345095  1
