# generated using pymatgen
data_Tm6Fe7Co16
_symmetry_space_group_name_H-M   'P 1'
_cell_length_a   8.30339474
_cell_length_b   8.30339515
_cell_length_c   8.30339400
_cell_angle_alpha   60.00000458
_cell_angle_beta   60.00000296
_cell_angle_gamma   60.00000129
_symmetry_Int_Tables_number   1
_chemical_formula_structural   Tm6Fe7Co16
_chemical_formula_sum   'Tm6 Fe7 Co16'
_cell_volume   404.81077880
_cell_formula_units_Z   1
loop_
 _symmetry_equiv_pos_site_id
 _symmetry_equiv_pos_as_xyz
  1  'x, y, z'
loop_
 _atom_site_type_symbol
 _atom_site_label
 _atom_site_symmetry_multiplicity
 _atom_site_fract_x
 _atom_site_fract_y
 _atom_site_fract_z
 _atom_site_occupancy
  Tm  Tm0  1  0.711286  0.288714  0.288714  1
  Tm  Tm1  1  0.288714  0.711286  0.711286  1
  Tm  Tm2  1  0.288714  0.711286  0.288714  1
  Tm  Tm3  1  0.288714  0.288714  0.711286  1
  Tm  Tm4  1  0.711286  0.288714  0.711286  1
  Tm  Tm5  1  0.711286  0.711286  0.288714  1
  Fe  Fe6  1  0.500000  0.000000  0.000000  1
  Fe  Fe7  1  0.000000  0.500000  0.500000  1
  Fe  Fe8  1  0.000000  0.500000  0.000000  1
  Fe  Fe9  1  0.000000  0.000000  0.500000  1
  Fe  Fe10  1  0.500000  0.000000  0.500000  1
  Fe  Fe11  1  0.500000  0.500000  0.000000  1
  Fe  Fe12  1  0.000000  0.000000  0.000000  1
  Co  Co13  1  0.323645  0.323645  0.323645  1
  Co  Co14  1  0.323645  0.323645  0.029067  1
  Co  Co15  1  0.029067  0.323645  0.323645  1
  Co  Co16  1  0.323645  0.029067  0.323645  1
  Co  Co17  1  0.676355  0.676355  0.676355  1
  Co  Co18  1  0.676355  0.676355  0.970933  1
  Co  Co19  1  0.676355  0.970933  0.676355  1
  Co  Co20  1  0.970933  0.676355  0.676355  1
  Co  Co21  1  0.122603  0.122603  0.122603  1
  Co  Co22  1  0.122603  0.122603  0.632190  1
  Co  Co23  1  0.632190  0.122603  0.122603  1
  Co  Co24  1  0.122603  0.632190  0.122603  1
  Co  Co25  1  0.877397  0.877397  0.877397  1
  Co  Co26  1  0.877397  0.877397  0.367810  1
  Co  Co27  1  0.877397  0.367810  0.877397  1
  Co  Co28  1  0.367810  0.877397  0.877397  1
