# generated using pymatgen
data_Tb13Pa3(CdOs)4
_symmetry_space_group_name_H-M   'P 1'
_cell_length_a   9.61900289
_cell_length_b   9.69823898
_cell_length_c   9.69876995
_cell_angle_alpha   60.14914446
_cell_angle_beta   59.92561785
_cell_angle_gamma   59.92621001
_symmetry_Int_Tables_number   1
_chemical_formula_structural   Tb13Pa3(CdOs)4
_chemical_formula_sum   'Tb13 Pa3 Cd4 Os4'
_cell_volume   639.76928732
_cell_formula_units_Z   1
loop_
 _symmetry_equiv_pos_site_id
 _symmetry_equiv_pos_as_xyz
  1  'x, y, z'
loop_
 _atom_site_type_symbol
 _atom_site_label
 _atom_site_symmetry_multiplicity
 _atom_site_fract_x
 _atom_site_fract_y
 _atom_site_fract_z
 _atom_site_occupancy
  Tb  Tb0  1  0.949717  0.349900  0.349974  1
  Tb  Tb1  1  0.808784  0.191232  0.191180  1
  Tb  Tb2  1  0.191298  0.808951  0.808952  1
  Tb  Tb3  1  0.192126  0.808596  0.190681  1
  Tb  Tb4  1  0.809728  0.190822  0.808721  1
  Tb  Tb5  1  0.192051  0.190709  0.808614  1
  Tb  Tb6  1  0.809780  0.808743  0.190754  1
  Tb  Tb7  1  0.941891  0.561631  0.561557  1
  Tb  Tb8  1  0.558919  0.940592  0.940516  1
  Tb  Tb9  1  0.559977  0.941120  0.560842  1
  Tb  Tb10  1  0.941543  0.560673  0.937393  1
  Tb  Tb11  1  0.560005  0.560901  0.941051  1
  Tb  Tb12  1  0.941577  0.937417  0.560613  1
  Pa  Pa13  1  0.339041  0.344201  0.344257  1
  Pa  Pa14  1  0.341074  0.344987  0.968475  1
  Pa  Pa15  1  0.341112  0.968404  0.345039  1
  Cd  Cd16  1  0.577913  0.581296  0.581283  1
  Cd  Cd17  1  0.577520  0.581722  0.258115  1
  Cd  Cd18  1  0.577504  0.258174  0.581680  1
  Cd  Cd19  1  0.256604  0.580705  0.580729  1
  Os  Os20  1  0.156098  0.139187  0.139331  1
  Os  Os21  1  0.157195  0.138380  0.565633  1
  Os  Os22  1  0.157110  0.565636  0.138481  1
  Os  Os23  1  0.561436  0.146017  0.146126  1
