# generated using pymatgen
data_YCdGePt3
_symmetry_space_group_name_H-M   'P 1'
_cell_length_a   5.54641673
_cell_length_b   5.54641642
_cell_length_c   5.20824533
_cell_angle_alpha   57.82784885
_cell_angle_beta   57.82785567
_cell_angle_gamma   59.99999762
_symmetry_Int_Tables_number   1
_chemical_formula_structural   YCdGePt3
_chemical_formula_sum   'Y1 Cd1 Ge1 Pt3'
_cell_volume   109.42925756
_cell_formula_units_Z   1
loop_
 _symmetry_equiv_pos_site_id
 _symmetry_equiv_pos_as_xyz
  1  'x, y, z'
loop_
 _atom_site_type_symbol
 _atom_site_label
 _atom_site_symmetry_multiplicity
 _atom_site_fract_x
 _atom_site_fract_y
 _atom_site_fract_z
 _atom_site_occupancy
  Y  Y0  1  0.999920  0.999920  0.000240  1
  Cd  Cd1  1  0.251963  0.251963  0.244116  1
  Ge  Ge2  1  0.626266  0.626266  0.121203  1
  Pt  Pt3  1  0.622408  0.127038  0.628148  1
  Pt  Pt4  1  0.622408  0.622408  0.628148  1
  Pt  Pt5  1  0.127038  0.622408  0.628148  1
