# generated using pymatgen
data_Nd4B2N5
_symmetry_space_group_name_H-M   'P 1'
_cell_length_a   3.59284620
_cell_length_b   6.48274659
_cell_length_c   7.21105078
_cell_angle_alpha   97.12056265
_cell_angle_beta   104.42549664
_cell_angle_gamma   73.91229699
_symmetry_Int_Tables_number   1
_chemical_formula_structural   Nd4B2N5
_chemical_formula_sum   'Nd4 B2 N5'
_cell_volume   156.01850936
_cell_formula_units_Z   1
loop_
 _symmetry_equiv_pos_site_id
 _symmetry_equiv_pos_as_xyz
  1  'x, y, z'
loop_
 _atom_site_type_symbol
 _atom_site_label
 _atom_site_symmetry_multiplicity
 _atom_site_fract_x
 _atom_site_fract_y
 _atom_site_fract_z
 _atom_site_occupancy
  Nd  Nd0  1  0.686430  0.738917  0.111777  1
  Nd  Nd1  1  0.076963  0.190302  0.344229  1
  Nd  Nd2  1  0.923037  0.809698  0.655771  1
  Nd  Nd3  1  0.313570  0.261083  0.888223  1
  B  B4  1  0.410757  0.567786  0.389301  1
  B  B5  1  0.589243  0.432214  0.610699  1
  N  N6  1  0.000000  0.000000  0.000000  1
  N  N7  1  0.382234  0.439235  0.203703  1
  N  N8  1  0.297394  0.804523  0.399310  1
  N  N9  1  0.702607  0.195476  0.600690  1
  N  N10  1  0.617766  0.560765  0.796297  1
