# generated using pymatgen
data_Dy2Er6Ga12Ir3Au
_symmetry_space_group_name_H-M   'P 1'
_cell_length_a   7.06300800
_cell_length_b   8.85329752
_cell_length_c   8.85329700
_cell_angle_alpha   119.99999432
_cell_angle_beta   90.00000000
_cell_angle_gamma   90.00000000
_symmetry_Int_Tables_number   1
_chemical_formula_structural   Dy2Er6Ga12Ir3Au
_chemical_formula_sum   'Dy2 Er6 Ga12 Ir3 Au1'
_cell_volume   479.43578618
_cell_formula_units_Z   1
loop_
 _symmetry_equiv_pos_site_id
 _symmetry_equiv_pos_as_xyz
  1  'x, y, z'
loop_
 _atom_site_type_symbol
 _atom_site_label
 _atom_site_symmetry_multiplicity
 _atom_site_fract_x
 _atom_site_fract_y
 _atom_site_fract_z
 _atom_site_occupancy
  Dy  Dy0  1  0.757538  0.000000  0.000000  1
  Dy  Dy1  1  0.251188  0.000000  0.000000  1
  Er  Er2  1  0.748247  0.471237  0.528763  1
  Er  Er3  1  0.244123  0.518335  0.481665  1
  Er  Er4  1  0.748247  0.057527  0.528763  1
  Er  Er5  1  0.244123  0.963329  0.481665  1
  Er  Er6  1  0.748247  0.471237  0.942473  1
  Er  Er7  1  0.244123  0.518335  0.036671  1
  Ga  Ga8  1  0.948261  0.829407  0.170593  1
  Ga  Ga9  1  0.046903  0.168769  0.831231  1
  Ga  Ga10  1  0.948261  0.341187  0.170593  1
  Ga  Ga11  1  0.452134  0.168612  0.831388  1
  Ga  Ga12  1  0.046903  0.662460  0.831231  1
  Ga  Ga13  1  0.548314  0.836097  0.163903  1
  Ga  Ga14  1  0.948261  0.829407  0.658813  1
  Ga  Ga15  1  0.452134  0.662777  0.831388  1
  Ga  Ga16  1  0.046903  0.168769  0.337540  1
  Ga  Ga17  1  0.548314  0.327806  0.163903  1
  Ga  Ga18  1  0.452134  0.168612  0.337223  1
  Ga  Ga19  1  0.548314  0.836097  0.672194  1
  Ir  Ir20  1  0.981509  0.666667  0.333333  1
  Ir  Ir21  1  0.032293  0.333333  0.666667  1
  Ir  Ir22  1  0.467471  0.333333  0.666667  1
  Au  Au23  1  0.546053  0.666667  0.333333  1
