# generated using pymatgen
data_U6Fe3Co9(SiB2)2
_symmetry_space_group_name_H-M   'P 1'
_cell_length_a   5.12113700
_cell_length_b   5.12220863
_cell_length_c   13.13216233
_cell_angle_alpha   90.35538293
_cell_angle_beta   90.00000000
_cell_angle_gamma   119.99307308
_symmetry_Int_Tables_number   1
_chemical_formula_structural   U6Fe3Co9(SiB2)2
_chemical_formula_sum   'U6 Fe3 Co9 Si2 B4'
_cell_volume   298.33877628
_cell_formula_units_Z   1
loop_
 _symmetry_equiv_pos_site_id
 _symmetry_equiv_pos_as_xyz
  1  'x, y, z'
loop_
 _atom_site_type_symbol
 _atom_site_label
 _atom_site_symmetry_multiplicity
 _atom_site_fract_x
 _atom_site_fract_y
 _atom_site_fract_z
 _atom_site_occupancy
  U  U0  1  0.333575  0.667151  0.248809  1
  U  U1  1  0.666425  0.332848  0.749335  1
  U  U2  1  0.332671  0.665344  0.039157  1
  U  U3  1  0.666138  0.332276  0.539823  1
  U  U4  1  0.669665  0.339328  0.962872  1
  U  U5  1  0.336769  0.673539  0.465901  1
  Fe  Fe6  1  0.832040  0.664079  0.142196  1
  Fe  Fe7  1  0.166336  0.831147  0.642281  1
  Fe  Fe8  1  0.664811  0.831147  0.642281  1
  Co  Co9  1  0.332762  0.165609  0.144219  1
  Co  Co10  1  0.832847  0.165609  0.144219  1
  Co  Co11  1  0.167210  0.334419  0.856175  1
  Co  Co12  1  0.167969  0.834035  0.856173  1
  Co  Co13  1  0.165568  0.331136  0.644486  1
  Co  Co14  1  0.666065  0.834035  0.856173  1
  Co  Co15  1  0.334725  0.168957  0.355890  1
  Co  Co16  1  0.833481  0.666963  0.355921  1
  Co  Co17  1  0.834232  0.168957  0.355890  1
  Si  Si18  1  0.999856  0.999712  0.999759  1
  Si  Si19  1  0.999999  0.999999  0.499802  1
  B  B20  1  0.997932  0.995865  0.249914  1
  B  B21  1  0.997740  0.995479  0.749368  1
  B  B22  1  0.333794  0.667588  0.749577  1
  B  B23  1  0.667388  0.334776  0.249777  1
