# generated using pymatgen
data_MnCr2P
_symmetry_space_group_name_H-M   'P 1'
_cell_length_a   4.46402026
_cell_length_b   6.75652881
_cell_length_c   6.75652940
_cell_angle_alpha   96.26518599
_cell_angle_beta   109.28994549
_cell_angle_gamma   70.71005193
_symmetry_Int_Tables_number   1
_chemical_formula_structural   MnCr2P
_chemical_formula_sum   'Mn4 Cr8 P4'
_cell_volume   181.54639882
_cell_formula_units_Z   4
loop_
 _symmetry_equiv_pos_site_id
 _symmetry_equiv_pos_as_xyz
  1  'x, y, z'
loop_
 _atom_site_type_symbol
 _atom_site_label
 _atom_site_symmetry_multiplicity
 _atom_site_fract_x
 _atom_site_fract_y
 _atom_site_fract_z
 _atom_site_occupancy
  Mn  Mn0  1  0.071425  0.391906  0.057987  1
  Mn  Mn1  1  0.986562  0.942013  0.391906  1
  Mn  Mn2  1  0.536668  0.057987  0.608094  1
  Mn  Mn3  1  0.405345  0.608094  0.942013  1
  Cr  Cr4  1  0.699825  0.179840  0.029513  1
  Cr  Cr5  1  0.329690  0.970486  0.179840  1
  Cr  Cr6  1  0.363592  0.608651  0.326700  1
  Cr  Cr7  1  0.027756  0.326701  0.391350  1
  Cr  Cr8  1  0.963108  0.673300  0.608651  1
  Cr  Cr9  1  0.645543  0.391349  0.673300  1
  Cr  Cr10  1  0.120334  0.029513  0.820160  1
  Cr  Cr11  1  0.850151  0.820160  0.970486  1
  P  P12  1  0.787303  0.664204  0.240621  1
  P  P13  1  0.548493  0.240621  0.335796  1
  P  P14  1  0.453318  0.759378  0.664204  1
  P  P15  1  0.210885  0.335797  0.759380  1
