# generated using pymatgen
data_Zr5Sb3Au
_symmetry_space_group_name_H-M   'P 1'
_cell_length_a   8.76630700
_cell_length_b   8.76630763
_cell_length_c   5.90332200
_cell_angle_alpha   90.00000000
_cell_angle_beta   90.00000000
_cell_angle_gamma   120.00000139
_symmetry_Int_Tables_number   1
_chemical_formula_structural   Zr5Sb3Au
_chemical_formula_sum   'Zr10 Sb6 Au2'
_cell_volume   392.88050662
_cell_formula_units_Z   2
loop_
 _symmetry_equiv_pos_site_id
 _symmetry_equiv_pos_as_xyz
  1  'x, y, z'
loop_
 _atom_site_type_symbol
 _atom_site_label
 _atom_site_symmetry_multiplicity
 _atom_site_fract_x
 _atom_site_fract_y
 _atom_site_fract_z
 _atom_site_occupancy
  Zr  Zr0  1  0.278349  0.278349  0.750000  1
  Zr  Zr1  1  0.721651  0.721651  0.250000  1
  Zr  Zr2  1  0.721651  0.000000  0.750000  1
  Zr  Zr3  1  0.000000  0.278349  0.250000  1
  Zr  Zr4  1  0.333333  0.666667  0.500000  1
  Zr  Zr5  1  0.666667  0.333333  0.500000  1
  Zr  Zr6  1  0.000000  0.721651  0.750000  1
  Zr  Zr7  1  0.333333  0.666667  0.000000  1
  Zr  Zr8  1  0.278349  0.000000  0.250000  1
  Zr  Zr9  1  0.666667  0.333333  0.000000  1
  Sb  Sb10  1  0.616895  0.616895  0.750000  1
  Sb  Sb11  1  0.383105  0.000000  0.750000  1
  Sb  Sb12  1  0.616895  0.000000  0.250000  1
  Sb  Sb13  1  0.383105  0.383105  0.250000  1
  Sb  Sb14  1  0.000000  0.383105  0.750000  1
  Sb  Sb15  1  0.000000  0.616895  0.250000  1
  Au  Au16  1  0.000000  0.000000  0.500000  1
  Au  Au17  1  0.000000  0.000000  0.000000  1
