# generated using pymatgen
data_Dy2Ho6Cd2NiRh
_symmetry_space_group_name_H-M   'P 1'
_cell_length_a   9.55174252
_cell_length_b   9.55174365
_cell_length_c   9.58322400
_cell_angle_alpha   59.89092373
_cell_angle_beta   59.89091979
_cell_angle_gamma   59.70923890
_symmetry_Int_Tables_number   1
_chemical_formula_structural   Dy2Ho6Cd2NiRh
_chemical_formula_sum   'Dy4 Ho12 Cd4 Ni2 Rh2'
_cell_volume   615.86230612
_cell_formula_units_Z   2
loop_
 _symmetry_equiv_pos_site_id
 _symmetry_equiv_pos_as_xyz
  1  'x, y, z'
loop_
 _atom_site_type_symbol
 _atom_site_label
 _atom_site_symmetry_multiplicity
 _atom_site_fract_x
 _atom_site_fract_y
 _atom_site_fract_z
 _atom_site_occupancy
  Dy  Dy0  1  0.350933  0.350933  0.344050  1
  Dy  Dy1  1  0.350933  0.350933  0.954083  1
  Dy  Dy2  1  0.355160  0.950339  0.347249  1
  Dy  Dy3  1  0.950339  0.355160  0.347249  1
  Ho  Ho4  1  0.808850  0.187247  0.190132  1
  Ho  Ho5  1  0.187247  0.808850  0.813769  1
  Ho  Ho6  1  0.187247  0.808850  0.190132  1
  Ho  Ho7  1  0.808850  0.187247  0.813769  1
  Ho  Ho8  1  0.188668  0.188668  0.811332  1
  Ho  Ho9  1  0.811569  0.811569  0.188431  1
  Ho  Ho10  1  0.936444  0.562837  0.566393  1
  Ho  Ho11  1  0.562837  0.936444  0.934325  1
  Ho  Ho12  1  0.562837  0.936444  0.566393  1
  Ho  Ho13  1  0.936444  0.562837  0.934325  1
  Ho  Ho14  1  0.566208  0.566208  0.933792  1
  Ho  Ho15  1  0.937560  0.937560  0.562440  1
  Cd  Cd16  1  0.579913  0.579913  0.583371  1
  Cd  Cd17  1  0.579913  0.579913  0.256803  1
  Cd  Cd18  1  0.579881  0.255204  0.582457  1
  Cd  Cd19  1  0.255204  0.579881  0.582457  1
  Ni  Ni20  1  0.142105  0.574696  0.141599  1
  Ni  Ni21  1  0.574696  0.142105  0.141599  1
  Rh  Rh22  1  0.143079  0.143079  0.141755  1
  Rh  Rh23  1  0.143079  0.143079  0.572087  1
