# generated using pymatgen
data_TaAg(PO4)2
_symmetry_space_group_name_H-M   'P 1'
_cell_length_a   5.11849945
_cell_length_b   5.11849892
_cell_length_c   8.34654050
_cell_angle_alpha   81.49661627
_cell_angle_beta   81.49661725
_cell_angle_gamma   62.50503378
_symmetry_Int_Tables_number   1
_chemical_formula_structural   TaAg(PO4)2
_chemical_formula_sum   'Ta1 Ag1 P2 O8'
_cell_volume   191.04904179
_cell_formula_units_Z   1
loop_
 _symmetry_equiv_pos_site_id
 _symmetry_equiv_pos_as_xyz
  1  'x, y, z'
loop_
 _atom_site_type_symbol
 _atom_site_label
 _atom_site_symmetry_multiplicity
 _atom_site_fract_x
 _atom_site_fract_y
 _atom_site_fract_z
 _atom_site_occupancy
  Ta  Ta0  1  0.000000  0.000000  0.500000  1
  Ag  Ag1  1  0.000000  0.000000  0.000000  1
  P  P2  1  0.686672  0.686672  0.293671  1
  P  P3  1  0.313329  0.313329  0.706328  1
  O  O4  1  0.762024  0.762024  0.118571  1
  O  O5  1  0.816330  0.345375  0.338460  1
  O  O6  1  0.345375  0.816330  0.338460  1
  O  O7  1  0.805187  0.805187  0.414758  1
  O  O8  1  0.194812  0.194812  0.585243  1
  O  O9  1  0.654625  0.183670  0.661540  1
  O  O10  1  0.183670  0.654625  0.661540  1
  O  O11  1  0.237977  0.237977  0.881428  1
