# generated using pymatgen
data_Ho2Cr(Ni3P2)3
_symmetry_space_group_name_H-M   'P 1'
_cell_length_a   3.68425300
_cell_length_b   10.41404700
_cell_length_c   11.82366500
_cell_angle_alpha   90.00000000
_cell_angle_beta   90.00000000
_cell_angle_gamma   90.00000000
_symmetry_Int_Tables_number   1
_chemical_formula_structural   Ho2Cr(Ni3P2)3
_chemical_formula_sum   'Ho4 Cr2 Ni18 P12'
_cell_volume   453.65018838
_cell_formula_units_Z   2
loop_
 _symmetry_equiv_pos_site_id
 _symmetry_equiv_pos_as_xyz
  1  'x, y, z'
loop_
 _atom_site_type_symbol
 _atom_site_label
 _atom_site_symmetry_multiplicity
 _atom_site_fract_x
 _atom_site_fract_y
 _atom_site_fract_z
 _atom_site_occupancy
  Ho  Ho0  1  0.250000  0.583722  0.704887  1
  Ho  Ho1  1  0.250000  0.916278  0.204887  1
  Ho  Ho2  1  0.750000  0.414843  0.296314  1
  Ho  Ho3  1  0.750000  0.085157  0.796314  1
  Cr  Cr4  1  0.250000  0.707450  0.986896  1
  Cr  Cr5  1  0.250000  0.792550  0.486896  1
  Ni  Ni6  1  0.750000  0.285732  0.011451  1
  Ni  Ni7  1  0.750000  0.214268  0.511451  1
  Ni  Ni8  1  0.250000  0.407291  0.487873  1
  Ni  Ni9  1  0.250000  0.092709  0.987873  1
  Ni  Ni10  1  0.750000  0.591898  0.510993  1
  Ni  Ni11  1  0.750000  0.908102  0.010993  1
  Ni  Ni12  1  0.250000  0.219490  0.177679  1
  Ni  Ni13  1  0.250000  0.280510  0.677679  1
  Ni  Ni14  1  0.750000  0.780339  0.821181  1
  Ni  Ni15  1  0.750000  0.719661  0.321181  1
  Ni  Ni16  1  0.250000  0.885987  0.700821  1
  Ni  Ni17  1  0.250000  0.614013  0.200821  1
  Ni  Ni18  1  0.750000  0.117474  0.300997  1
  Ni  Ni19  1  0.750000  0.382526  0.800997  1
  Ni  Ni20  1  0.250000  0.465472  0.931555  1
  Ni  Ni21  1  0.250000  0.034528  0.431555  1
  Ni  Ni22  1  0.750000  0.529324  0.070111  1
  Ni  Ni23  1  0.750000  0.970676  0.570111  1
  P  P24  1  0.250000  0.416424  0.113471  1
  P  P25  1  0.250000  0.083576  0.613471  1
  P  P26  1  0.750000  0.584729  0.887861  1
  P  P27  1  0.750000  0.915271  0.387861  1
  P  P28  1  0.250000  0.268877  0.870355  1
  P  P29  1  0.250000  0.231123  0.370355  1
  P  P30  1  0.750000  0.731423  0.127125  1
  P  P31  1  0.750000  0.768577  0.627125  1
  P  P32  1  0.250000  0.600269  0.391485  1
  P  P33  1  0.250000  0.899731  0.891485  1
  P  P34  1  0.750000  0.399474  0.608946  1
  P  P35  1  0.750000  0.100526  0.108946  1
