# generated using pymatgen
data_MnBe7Al3Ni
_symmetry_space_group_name_H-M   'P 1'
_cell_length_a   4.33109900
_cell_length_b   4.33109809
_cell_length_c   7.23779600
_cell_angle_alpha   90.00000000
_cell_angle_beta   90.00000000
_cell_angle_gamma   119.99999930
_symmetry_Int_Tables_number   1
_chemical_formula_structural   MnBe7Al3Ni
_chemical_formula_sum   'Mn1 Be7 Al3 Ni1'
_cell_volume   117.57990466
_cell_formula_units_Z   1
loop_
 _symmetry_equiv_pos_site_id
 _symmetry_equiv_pos_as_xyz
  1  'x, y, z'
loop_
 _atom_site_type_symbol
 _atom_site_label
 _atom_site_symmetry_multiplicity
 _atom_site_fract_x
 _atom_site_fract_y
 _atom_site_fract_z
 _atom_site_occupancy
  Mn  Mn0  1  0.333333  0.666667  0.452769  1
  Be  Be1  1  0.000000  0.000000  0.495088  1
  Be  Be2  1  0.834894  0.669789  0.260261  1
  Be  Be3  1  0.168343  0.831657  0.735288  1
  Be  Be4  1  0.663314  0.831657  0.735288  1
  Be  Be5  1  0.330211  0.165106  0.260261  1
  Be  Be6  1  0.834894  0.165106  0.260261  1
  Be  Be7  1  0.168343  0.336686  0.735288  1
  Al  Al8  1  0.333333  0.666667  0.090341  1
  Al  Al9  1  0.666667  0.333333  0.542550  1
  Al  Al10  1  0.666667  0.333333  0.941323  1
  Ni  Ni11  1  0.000000  0.000000  0.991283  1
