# generated using pymatgen
data_Ce6Co3Cu3Sb8
_symmetry_space_group_name_H-M   'P 1'
_cell_length_a   8.30025947
_cell_length_b   8.29864287
_cell_length_c   8.29864334
_cell_angle_alpha   109.26356607
_cell_angle_beta   109.11378689
_cell_angle_gamma   110.02987134
_symmetry_Int_Tables_number   1
_chemical_formula_structural   Ce6Co3Cu3Sb8
_chemical_formula_sum   'Ce6 Co3 Cu3 Sb8'
_cell_volume   440.04231599
_cell_formula_units_Z   1
loop_
 _symmetry_equiv_pos_site_id
 _symmetry_equiv_pos_as_xyz
  1  'x, y, z'
loop_
 _atom_site_type_symbol
 _atom_site_label
 _atom_site_symmetry_multiplicity
 _atom_site_fract_x
 _atom_site_fract_y
 _atom_site_fract_z
 _atom_site_occupancy
  Ce  Ce0  1  0.888477  0.262423  0.134764  1
  Ce  Ce1  1  0.611523  0.746286  0.373945  1
  Ce  Ce2  1  0.250000  0.116836  0.866836  1
  Ce  Ce3  1  0.750000  0.383268  0.633268  1
  Ce  Ce4  1  0.133905  0.875786  0.253505  1
  Ce  Ce5  1  0.366095  0.619600  0.741881  1
  Co  Co6  1  0.375771  0.248384  0.625916  1
  Co  Co7  1  0.124229  0.750144  0.872612  1
  Co  Co8  1  0.250000  0.622196  0.372196  1
  Cu  Cu9  1  0.750000  0.874736  0.124736  1
  Cu  Cu10  1  0.624806  0.375222  0.250818  1
  Cu  Cu11  1  0.875194  0.126012  0.750416  1
  Sb  Sb12  1  0.655210  0.496380  0.994739  1
  Sb  Sb13  1  0.495671  0.999137  0.659551  1
  Sb  Sb14  1  0.004329  0.663880  0.503466  1
  Sb  Sb15  1  0.844790  0.839530  0.841170  1
  Sb  Sb16  1  0.495103  0.995563  0.155132  1
  Sb  Sb17  1  0.163400  0.506071  0.001917  1
  Sb  Sb18  1  0.004897  0.160029  0.500460  1
  Sb  Sb19  1  0.336600  0.338516  0.342670  1
