# generated using pymatgen
data_HoTm3(CrB4)4
_symmetry_space_group_name_H-M   'P 1'
_cell_length_a   3.42135400
_cell_length_b   5.91238425
_cell_length_c   11.42182535
_cell_angle_alpha   89.96796574
_cell_angle_beta   90.00000000
_cell_angle_gamma   90.00000000
_symmetry_Int_Tables_number   1
_chemical_formula_structural   HoTm3(CrB4)4
_chemical_formula_sum   'Ho1 Tm3 Cr4 B16'
_cell_volume   231.04475326
_cell_formula_units_Z   1
loop_
 _symmetry_equiv_pos_site_id
 _symmetry_equiv_pos_as_xyz
  1  'x, y, z'
loop_
 _atom_site_type_symbol
 _atom_site_label
 _atom_site_symmetry_multiplicity
 _atom_site_fract_x
 _atom_site_fract_y
 _atom_site_fract_z
 _atom_site_occupancy
  Ho  Ho0  1  0.000000  0.625019  0.349230  1
  Tm  Tm1  1  0.000000  0.375004  0.650880  1
  Tm  Tm2  1  0.000000  0.124903  0.150504  1
  Tm  Tm3  1  0.000000  0.875104  0.849321  1
  Cr  Cr4  1  0.000000  0.624721  0.080824  1
  Cr  Cr5  1  0.000000  0.374985  0.918659  1
  Cr  Cr6  1  0.000000  0.124980  0.418852  1
  Cr  Cr7  1  0.000000  0.875345  0.581501  1
  B  B8  1  0.500000  0.783029  0.184121  1
  B  B9  1  0.500000  0.217155  0.815330  1
  B  B10  1  0.500000  0.281878  0.315314  1
  B  B11  1  0.500000  0.717190  0.684967  1
  B  B12  1  0.500000  0.863949  0.031966  1
  B  B13  1  0.500000  0.136143  0.967582  1
  B  B14  1  0.500000  0.363412  0.468105  1
  B  B15  1  0.500000  0.636474  0.532857  1
  B  B16  1  0.500000  0.887098  0.453239  1
  B  B17  1  0.500000  0.114102  0.547509  1
  B  B18  1  0.500000  0.385875  0.046875  1
  B  B19  1  0.500000  0.613633  0.952626  1
  B  B20  1  0.500000  0.976020  0.307825  1
  B  B21  1  0.500000  0.024605  0.692565  1
  B  B22  1  0.500000  0.474841  0.191646  1
  B  B23  1  0.500000  0.524534  0.807705  1
