# generated using pymatgen
data_LaDyEr2(Mo2O7)2
_symmetry_space_group_name_H-M   'P 1'
_cell_length_a   7.44884219
_cell_length_b   7.48096474
_cell_length_c   7.44884210
_cell_angle_alpha   59.24616912
_cell_angle_beta   58.96945053
_cell_angle_gamma   59.24616571
_symmetry_Int_Tables_number   1
_chemical_formula_structural   LaDyEr2(Mo2O7)2
_chemical_formula_sum   'La1 Dy1 Er2 Mo4 O14'
_cell_volume   287.84417673
_cell_formula_units_Z   1
loop_
 _symmetry_equiv_pos_site_id
 _symmetry_equiv_pos_as_xyz
  1  'x, y, z'
loop_
 _atom_site_type_symbol
 _atom_site_label
 _atom_site_symmetry_multiplicity
 _atom_site_fract_x
 _atom_site_fract_y
 _atom_site_fract_z
 _atom_site_occupancy
  La  La0  1  0.125000  0.125000  0.125000  1
  Dy  Dy1  1  0.125000  0.625000  0.125000  1
  Er  Er2  1  0.625000  0.125000  0.125000  1
  Er  Er3  1  0.125000  0.125000  0.625000  1
  Mo  Mo4  1  0.625000  0.625000  0.625000  1
  Mo  Mo5  1  0.125000  0.625000  0.625000  1
  Mo  Mo6  1  0.625000  0.625000  0.125000  1
  Mo  Mo7  1  0.625000  0.125000  0.625000  1
  O  O8  1  0.996489  0.997171  0.996489  1
  O  O9  1  0.253511  0.252829  0.253511  1
  O  O10  1  0.287966  0.290490  0.702873  1
  O  O11  1  0.541058  0.530938  0.962922  1
  O  O12  1  0.717898  0.279243  0.717898  1
  O  O13  1  0.702873  0.290490  0.287966  1
  O  O14  1  0.287078  0.719062  0.708942  1
  O  O15  1  0.287529  0.700818  0.287529  1
  O  O16  1  0.708942  0.719062  0.287078  1
  O  O17  1  0.962922  0.530938  0.541058  1
  O  O18  1  0.547127  0.959510  0.962034  1
  O  O19  1  0.962034  0.959510  0.547127  1
  O  O20  1  0.962471  0.549182  0.962471  1
  O  O21  1  0.532102  0.970757  0.532102  1
