# generated using pymatgen
data_Ho3Er(Ga2Ag)4
_symmetry_space_group_name_H-M   'P 1'
_cell_length_a   4.36806400
_cell_length_b   6.93548638
_cell_length_c   10.23501974
_cell_angle_alpha   89.96998520
_cell_angle_beta   90.00000000
_cell_angle_gamma   90.00000000
_symmetry_Int_Tables_number   1
_chemical_formula_structural   Ho3Er(Ga2Ag)4
_chemical_formula_sum   'Ho3 Er1 Ga8 Ag4'
_cell_volume   310.06628164
_cell_formula_units_Z   1
loop_
 _symmetry_equiv_pos_site_id
 _symmetry_equiv_pos_as_xyz
  1  'x, y, z'
loop_
 _atom_site_type_symbol
 _atom_site_label
 _atom_site_symmetry_multiplicity
 _atom_site_fract_x
 _atom_site_fract_y
 _atom_site_fract_z
 _atom_site_occupancy
  Ho  Ho0  1  0.250000  0.778892  0.823952  1
  Ho  Ho1  1  0.750000  0.221146  0.175935  1
  Ho  Ho2  1  0.750000  0.721040  0.324102  1
  Er  Er3  1  0.250000  0.279031  0.675903  1
  Ga  Ga4  1  0.250000  0.929112  0.154913  1
  Ga  Ga5  1  0.750000  0.071073  0.845011  1
  Ga  Ga6  1  0.750000  0.570279  0.654952  1
  Ga  Ga7  1  0.250000  0.429237  0.345136  1
  Ga  Ga8  1  0.250000  0.700415  0.535509  1
  Ga  Ga9  1  0.750000  0.299566  0.464684  1
  Ga  Ga10  1  0.750000  0.799359  0.035693  1
  Ga  Ga11  1  0.250000  0.200690  0.964214  1
  Ag  Ag12  1  0.250000  0.545000  0.095122  1
  Ag  Ag13  1  0.750000  0.454308  0.904641  1
  Ag  Ag14  1  0.750000  0.955728  0.595376  1
  Ag  Ag15  1  0.250000  0.045123  0.404859  1
