# generated using pymatgen
data_Pr3Dy3Al24(RuRh)4
_symmetry_space_group_name_H-M   'P 1'
_cell_length_a   8.89351501
_cell_length_b   8.83758430
_cell_length_c   9.62652300
_cell_angle_alpha   90.00000000
_cell_angle_beta   90.00000000
_cell_angle_gamma   119.79218349
_symmetry_Int_Tables_number   1
_chemical_formula_structural   Pr3Dy3Al24(RuRh)4
_chemical_formula_sum   'Pr3 Dy3 Al24 Ru4 Rh4'
_cell_volume   656.61794444
_cell_formula_units_Z   1
loop_
 _symmetry_equiv_pos_site_id
 _symmetry_equiv_pos_as_xyz
  1  'x, y, z'
loop_
 _atom_site_type_symbol
 _atom_site_label
 _atom_site_symmetry_multiplicity
 _atom_site_fract_x
 _atom_site_fract_y
 _atom_site_fract_z
 _atom_site_occupancy
  Pr  Pr0  1  0.188062  0.806329  0.250000  1
  Pr  Pr1  1  0.188062  0.381733  0.250000  1
  Pr  Pr2  1  0.620094  0.810047  0.250000  1
  Dy  Dy3  1  0.810382  0.196617  0.750000  1
  Dy  Dy4  1  0.810382  0.613765  0.750000  1
  Dy  Dy5  1  0.383584  0.191792  0.750000  1
  Al  Al6  1  0.562507  0.436060  0.250000  1
  Al  Al7  1  0.562507  0.126448  0.250000  1
  Al  Al8  1  0.872176  0.436088  0.250000  1
  Al  Al9  1  0.439994  0.561620  0.750000  1
  Al  Al10  1  0.439994  0.878374  0.750000  1
  Al  Al11  1  0.122470  0.561235  0.750000  1
  Al  Al12  1  0.326919  0.163460  0.427912  1
  Al  Al13  1  0.836935  0.165218  0.427771  1
  Al  Al14  1  0.836935  0.671717  0.427771  1
  Al  Al15  1  0.676174  0.838086  0.580512  1
  Al  Al16  1  0.161520  0.836376  0.580796  1
  Al  Al17  1  0.161520  0.325144  0.580796  1
  Al  Al18  1  0.676174  0.838086  0.919488  1
  Al  Al19  1  0.161520  0.836376  0.919204  1
  Al  Al20  1  0.161520  0.325144  0.919204  1
  Al  Al21  1  0.326919  0.163460  0.072088  1
  Al  Al22  1  0.836935  0.165218  0.072229  1
  Al  Al23  1  0.836935  0.671717  0.072229  1
  Al  Al24  1  0.668556  0.334277  0.525611  1
  Al  Al25  1  0.331156  0.665579  0.486805  1
  Al  Al26  1  0.331156  0.665579  0.013195  1
  Al  Al27  1  0.668556  0.334277  0.974389  1
  Al  Al28  1  0.997441  0.998721  0.250000  1
  Al  Al29  1  0.002487  0.001243  0.750000  1
  Ru  Ru30  1  0.000094  0.000047  0.500898  1
  Ru  Ru31  1  0.000094  0.000047  0.999102  1
  Ru  Ru32  1  0.997604  0.498802  0.503404  1
  Ru  Ru33  1  0.997604  0.498802  0.996596  1
  Rh  Rh34  1  0.501259  0.498910  0.503249  1
  Rh  Rh35  1  0.501259  0.002349  0.503249  1
  Rh  Rh36  1  0.501259  0.498910  0.996751  1
  Rh  Rh37  1  0.501259  0.002349  0.996751  1
