# generated using pymatgen
data_YbAg10(SnO4)3
_symmetry_space_group_name_H-M   'P 1'
_cell_length_a   8.70230151
_cell_length_b   8.70230165
_cell_length_c   5.87431851
_cell_angle_alpha   70.00752463
_cell_angle_beta   70.00752227
_cell_angle_gamma   71.80358987
_symmetry_Int_Tables_number   1
_chemical_formula_structural   YbAg10(SnO4)3
_chemical_formula_sum   'Yb1 Ag10 Sn3 O12'
_cell_volume   383.12528496
_cell_formula_units_Z   1
loop_
 _symmetry_equiv_pos_site_id
 _symmetry_equiv_pos_as_xyz
  1  'x, y, z'
loop_
 _atom_site_type_symbol
 _atom_site_label
 _atom_site_symmetry_multiplicity
 _atom_site_fract_x
 _atom_site_fract_y
 _atom_site_fract_z
 _atom_site_occupancy
  Yb  Yb0  1  0.415064  0.584936  0.000000  1
  Ag  Ag1  1  0.250249  0.249175  0.001513  1
  Ag  Ag2  1  0.749703  0.749066  0.496593  1
  Ag  Ag3  1  0.250934  0.250297  0.503407  1
  Ag  Ag4  1  0.750825  0.749751  0.998487  1
  Ag  Ag5  1  0.499438  0.001739  0.750621  1
  Ag  Ag6  1  0.998261  0.500562  0.249379  1
  Ag  Ag7  1  0.123128  0.609967  0.629961  1
  Ag  Ag8  1  0.609499  0.119633  0.134498  1
  Ag  Ag9  1  0.390033  0.876872  0.370039  1
  Ag  Ag10  1  0.880367  0.390501  0.865502  1
  Sn  Sn11  1  0.917338  0.082662  0.500000  1
  Sn  Sn12  1  0.585881  0.414119  0.500000  1
  Sn  Sn13  1  0.079363  0.920637  0.000000  1
  O  O14  1  0.662029  0.523049  0.695997  1
  O  O15  1  0.143575  0.034875  0.220201  1
  O  O16  1  0.545035  0.644107  0.232947  1
  O  O17  1  0.027580  0.148911  0.715985  1
  O  O18  1  0.324764  0.864537  0.791255  1
  O  O19  1  0.845264  0.332850  0.294145  1
  O  O20  1  0.355893  0.454965  0.767053  1
  O  O21  1  0.851089  0.972420  0.284015  1
  O  O22  1  0.476951  0.337971  0.304003  1
  O  O23  1  0.965125  0.856425  0.779799  1
  O  O24  1  0.667150  0.154736  0.705855  1
  O  O25  1  0.135463  0.675236  0.208745  1
