# generated using pymatgen
data_Ti12Re5Ir6Os
_symmetry_space_group_name_H-M   'P 1'
_cell_length_a   4.38329300
_cell_length_b   6.23150400
_cell_length_c   13.21654200
_cell_angle_alpha   89.99862112
_cell_angle_beta   90.00039549
_cell_angle_gamma   89.99997774
_symmetry_Int_Tables_number   1
_chemical_formula_structural   Ti12Re5Ir6Os
_chemical_formula_sum   'Ti12 Re5 Ir6 Os1'
_cell_volume   361.00334032
_cell_formula_units_Z   1
loop_
 _symmetry_equiv_pos_site_id
 _symmetry_equiv_pos_as_xyz
  1  'x, y, z'
loop_
 _atom_site_type_symbol
 _atom_site_label
 _atom_site_symmetry_multiplicity
 _atom_site_fract_x
 _atom_site_fract_y
 _atom_site_fract_z
 _atom_site_occupancy
  Ti  Ti0  1  0.500000  0.250924  0.000001  1
  Ti  Ti1  1  0.500000  0.749078  0.999999  1
  Ti  Ti2  1  0.000114  0.250803  0.167418  1
  Ti  Ti3  1  0.000115  0.749196  0.167413  1
  Ti  Ti4  1  0.500102  0.249823  0.333630  1
  Ti  Ti5  1  0.500103  0.750183  0.333627  1
  Ti  Ti6  1  0.000000  0.250264  0.500002  1
  Ti  Ti7  1  0.000000  0.749736  0.499998  1
  Ti  Ti8  1  0.499896  0.249815  0.666373  1
  Ti  Ti9  1  0.499897  0.750175  0.666370  1
  Ti  Ti10  1  0.999885  0.250804  0.832587  1
  Ti  Ti11  1  0.999886  0.749197  0.832582  1
  Re  Re12  1  0.500071  0.500021  0.166112  1
  Re  Re13  1  0.000065  0.999984  0.332853  1
  Re  Re14  1  0.500000  0.499999  0.500000  1
  Re  Re15  1  0.999935  0.000016  0.667147  1
  Re  Re16  1  0.499928  0.499977  0.833888  1
  Ir  Ir17  1  0.000000  0.499999  0.000000  1
  Ir  Ir18  1  0.500061  0.999943  0.165975  1
  Ir  Ir19  1  0.000061  0.500057  0.332914  1
  Ir  Ir20  1  0.500000  0.000000  0.500000  1
  Ir  Ir21  1  0.999939  0.499941  0.667086  1
  Ir  Ir22  1  0.499938  0.000057  0.834024  1
  Os  Os23  1  0.000000  0.000000  0.000000  1
