# generated using pymatgen
data_Y6Al24Os7Ru
_symmetry_space_group_name_H-M   'P 1'
_cell_length_a   8.84561800
_cell_length_b   8.84561895
_cell_length_c   9.57143200
_cell_angle_alpha   90.00000000
_cell_angle_beta   90.00000000
_cell_angle_gamma   119.99999644
_symmetry_Int_Tables_number   1
_chemical_formula_structural   Y6Al24Os7Ru
_chemical_formula_sum   'Y6 Al24 Os7 Ru1'
_cell_volume   648.58062811
_cell_formula_units_Z   1
loop_
 _symmetry_equiv_pos_site_id
 _symmetry_equiv_pos_as_xyz
  1  'x, y, z'
loop_
 _atom_site_type_symbol
 _atom_site_label
 _atom_site_symmetry_multiplicity
 _atom_site_fract_x
 _atom_site_fract_y
 _atom_site_fract_z
 _atom_site_occupancy
  Y  Y0  1  0.193003  0.386005  0.249717  1
  Y  Y1  1  0.806997  0.613995  0.750283  1
  Y  Y2  1  0.613995  0.806997  0.249717  1
  Y  Y3  1  0.386005  0.193003  0.750283  1
  Y  Y4  1  0.193003  0.806997  0.249717  1
  Y  Y5  1  0.806997  0.193003  0.750283  1
  Al  Al6  1  0.333333  0.666667  0.014543  1
  Al  Al7  1  0.666667  0.333333  0.985457  1
  Al  Al8  1  0.666667  0.333333  0.514532  1
  Al  Al9  1  0.333333  0.666667  0.485468  1
  Al  Al10  1  0.162562  0.325123  0.575771  1
  Al  Al11  1  0.837438  0.674877  0.424229  1
  Al  Al12  1  0.674877  0.837438  0.575771  1
  Al  Al13  1  0.837472  0.674943  0.075772  1
  Al  Al14  1  0.325123  0.162562  0.424229  1
  Al  Al15  1  0.162528  0.325057  0.924228  1
  Al  Al16  1  0.162562  0.837438  0.575771  1
  Al  Al17  1  0.325057  0.162528  0.075772  1
  Al  Al18  1  0.837438  0.162562  0.424229  1
  Al  Al19  1  0.674943  0.837472  0.924228  1
  Al  Al20  1  0.837472  0.162528  0.075772  1
  Al  Al21  1  0.162528  0.837472  0.924228  1
  Al  Al22  1  0.560232  0.120463  0.249888  1
  Al  Al23  1  0.439768  0.879537  0.750112  1
  Al  Al24  1  0.879537  0.439768  0.249888  1
  Al  Al25  1  0.120463  0.560232  0.750112  1
  Al  Al26  1  0.560232  0.439768  0.249888  1
  Al  Al27  1  0.439768  0.560232  0.750112  1
  Al  Al28  1  0.000000  0.000000  0.248293  1
  Al  Al29  1  0.000000  0.000000  0.751707  1
  Os  Os30  1  0.500000  0.000000  0.000000  1
  Os  Os31  1  0.000000  0.500000  0.000000  1
  Os  Os32  1  0.500000  0.000000  0.500000  1
  Os  Os33  1  0.500000  0.500000  0.000000  1
  Os  Os34  1  0.000000  0.500000  0.500000  1
  Os  Os35  1  0.500000  0.500000  0.500000  1
  Os  Os36  1  0.000000  0.000000  0.500000  1
  Ru  Ru37  1  0.000000  0.000000  0.000000  1
