# generated using pymatgen
data_Tb16Er3TmRh12
_symmetry_space_group_name_H-M   'P 1'
_cell_length_a   10.92597600
_cell_length_b   10.92597600
_cell_length_c   6.37776400
_cell_angle_alpha   90.00000000
_cell_angle_beta   90.00000000
_cell_angle_gamma   90.00000000
_symmetry_Int_Tables_number   1
_chemical_formula_structural   Tb16Er3TmRh12
_chemical_formula_sum   'Tb16 Er3 Tm1 Rh12'
_cell_volume   761.35802404
_cell_formula_units_Z   1
loop_
 _symmetry_equiv_pos_site_id
 _symmetry_equiv_pos_as_xyz
  1  'x, y, z'
loop_
 _atom_site_type_symbol
 _atom_site_label
 _atom_site_symmetry_multiplicity
 _atom_site_fract_x
 _atom_site_fract_y
 _atom_site_fract_z
 _atom_site_occupancy
  Tb  Tb0  1  0.289944  0.087949  0.378184  1
  Tb  Tb1  1  0.290089  0.912016  0.878105  1
  Tb  Tb2  1  0.709911  0.087984  0.878105  1
  Tb  Tb3  1  0.710056  0.912051  0.378184  1
  Tb  Tb4  1  0.587996  0.790161  0.878161  1
  Tb  Tb5  1  0.588038  0.209830  0.378122  1
  Tb  Tb6  1  0.411962  0.790170  0.378122  1
  Tb  Tb7  1  0.412004  0.209839  0.878161  1
  Tb  Tb8  1  0.209830  0.411962  0.621878  1
  Tb  Tb9  1  0.209839  0.587996  0.121839  1
  Tb  Tb10  1  0.790161  0.412004  0.121839  1
  Tb  Tb11  1  0.790170  0.588038  0.621878  1
  Tb  Tb12  1  0.912016  0.709911  0.121895  1
  Tb  Tb13  1  0.912051  0.289944  0.621816  1
  Tb  Tb14  1  0.087949  0.710056  0.621816  1
  Tb  Tb15  1  0.087984  0.290089  0.121895  1
  Er  Er16  1  0.000000  0.000000  0.000000  1
  Er  Er17  1  0.500000  0.500000  0.000000  1
  Er  Er18  1  0.500000  0.500000  0.500000  1
  Tm  Tm19  1  0.000000  0.000000  0.500000  1
  Rh  Rh20  1  0.847840  0.152082  0.250529  1
  Rh  Rh21  1  0.847918  0.847840  0.749471  1
  Rh  Rh22  1  0.152082  0.152160  0.749471  1
  Rh  Rh23  1  0.152160  0.847918  0.250529  1
  Rh  Rh24  1  0.652348  0.347562  0.750004  1
  Rh  Rh25  1  0.652438  0.652348  0.249996  1
  Rh  Rh26  1  0.347562  0.347652  0.249996  1
  Rh  Rh27  1  0.347652  0.652438  0.750004  1
  Rh  Rh28  1  0.500000  0.000000  0.121420  1
  Rh  Rh29  1  0.500000  0.000000  0.621450  1
  Rh  Rh30  1  0.000000  0.500000  0.878580  1
  Rh  Rh31  1  0.000000  0.500000  0.378550  1
