# generated using pymatgen
data_Lu3ScGa2(B2Ru5)2
_symmetry_space_group_name_H-M   'P 1'
_cell_length_a   9.46246859
_cell_length_b   9.46246859
_cell_length_c   3.07993600
_cell_angle_alpha   90.00000000
_cell_angle_beta   90.00000000
_cell_angle_gamma   89.52122531
_symmetry_Int_Tables_number   1
_chemical_formula_structural   Lu3ScGa2(B2Ru5)2
_chemical_formula_sum   'Lu3 Sc1 Ga2 B4 Ru10'
_cell_volume   275.76264200
_cell_formula_units_Z   1
loop_
 _symmetry_equiv_pos_site_id
 _symmetry_equiv_pos_as_xyz
  1  'x, y, z'
loop_
 _atom_site_type_symbol
 _atom_site_label
 _atom_site_symmetry_multiplicity
 _atom_site_fract_x
 _atom_site_fract_y
 _atom_site_fract_z
 _atom_site_occupancy
  Lu  Lu0  1  0.675988  0.175091  0.000000  1
  Lu  Lu1  1  0.324909  0.824012  0.000000  1
  Lu  Lu2  1  0.174554  0.325446  0.000000  1
  Sc  Sc3  1  0.825849  0.674151  0.000000  1
  Ga  Ga4  1  0.000508  0.002721  0.000000  1
  Ga  Ga5  1  0.497279  0.499492  0.000000  1
  B  B6  1  0.120945  0.625097  0.000000  1
  B  B7  1  0.874903  0.379055  0.000000  1
  B  B8  1  0.626698  0.873302  0.000000  1
  B  B9  1  0.377757  0.122243  0.000000  1
  Ru  Ru10  1  0.217327  0.070061  0.500000  1
  Ru  Ru11  1  0.786980  0.923631  0.500000  1
  Ru  Ru12  1  0.065002  0.784669  0.500000  1
  Ru  Ru13  1  0.715331  0.434998  0.500000  1
  Ru  Ru14  1  0.929765  0.218356  0.500000  1
  Ru  Ru15  1  0.281644  0.570235  0.500000  1
  Ru  Ru16  1  0.576369  0.713020  0.500000  1
  Ru  Ru17  1  0.429939  0.282673  0.500000  1
  Ru  Ru18  1  0.502274  0.997726  0.500000  1
  Ru  Ru19  1  0.995979  0.504021  0.500000  1
