# generated using pymatgen
data_Lu3Hf(Co4P3)2
_symmetry_space_group_name_H-M   'P 1'
_cell_length_a   3.67755100
_cell_length_b   10.60417100
_cell_length_c   12.27637200
_cell_angle_alpha   90.00000000
_cell_angle_beta   90.00000000
_cell_angle_gamma   90.00000000
_symmetry_Int_Tables_number   1
_chemical_formula_structural   Lu3Hf(Co4P3)2
_chemical_formula_sum   'Lu6 Hf2 Co16 P12'
_cell_volume   478.74633980
_cell_formula_units_Z   2
loop_
 _symmetry_equiv_pos_site_id
 _symmetry_equiv_pos_as_xyz
  1  'x, y, z'
loop_
 _atom_site_type_symbol
 _atom_site_label
 _atom_site_symmetry_multiplicity
 _atom_site_fract_x
 _atom_site_fract_y
 _atom_site_fract_z
 _atom_site_occupancy
  Lu  Lu0  1  0.000000  0.500000  0.529302  1
  Lu  Lu1  1  0.500000  0.000000  0.470698  1
  Lu  Lu2  1  0.500000  0.822377  0.204525  1
  Lu  Lu3  1  0.500000  0.177623  0.204525  1
  Lu  Lu4  1  0.000000  0.677623  0.795475  1
  Lu  Lu5  1  0.000000  0.322377  0.795475  1
  Hf  Hf6  1  0.500000  0.500000  0.158403  1
  Hf  Hf7  1  0.000000  0.000000  0.841597  1
  Co  Co8  1  0.500000  0.500000  0.702643  1
  Co  Co9  1  0.000000  0.000000  0.297357  1
  Co  Co10  1  0.000000  0.500000  0.986362  1
  Co  Co11  1  0.500000  0.000000  0.013638  1
  Co  Co12  1  0.500000  0.331988  0.993102  1
  Co  Co13  1  0.500000  0.668012  0.993102  1
  Co  Co14  1  0.000000  0.168012  0.006898  1
  Co  Co15  1  0.000000  0.831988  0.006898  1
  Co  Co16  1  0.500000  0.295249  0.433336  1
  Co  Co17  1  0.500000  0.704751  0.433336  1
  Co  Co18  1  0.000000  0.204751  0.566664  1
  Co  Co19  1  0.000000  0.795249  0.566664  1
  Co  Co20  1  0.500000  0.876789  0.702579  1
  Co  Co21  1  0.500000  0.123211  0.702579  1
  Co  Co22  1  0.000000  0.623211  0.297421  1
  Co  Co23  1  0.000000  0.376789  0.297421  1
  P  P24  1  0.500000  0.500000  0.881994  1
  P  P25  1  0.000000  0.000000  0.118006  1
  P  P26  1  0.500000  0.500000  0.364144  1
  P  P27  1  0.000000  0.000000  0.635856  1
  P  P28  1  0.500000  0.311968  0.616501  1
  P  P29  1  0.500000  0.688032  0.616501  1
  P  P30  1  0.000000  0.188032  0.383499  1
  P  P31  1  0.000000  0.811968  0.383499  1
  P  P32  1  0.500000  0.837391  0.891589  1
  P  P33  1  0.500000  0.162609  0.891589  1
  P  P34  1  0.000000  0.662609  0.108411  1
  P  P35  1  0.000000  0.337391  0.108411  1
