# generated using pymatgen
data_Tb2SmAlAu5
_symmetry_space_group_name_H-M   'P 1'
_cell_length_a   8.53795679
_cell_length_b   8.53795777
_cell_length_c   13.61802000
_cell_angle_alpha   90.00000000
_cell_angle_beta   90.00000000
_cell_angle_gamma   128.54693646
_symmetry_Int_Tables_number   1
_chemical_formula_structural   Tb2SmAlAu5
_chemical_formula_sum   'Tb8 Sm4 Al4 Au20'
_cell_volume   776.39559153
_cell_formula_units_Z   4
loop_
 _symmetry_equiv_pos_site_id
 _symmetry_equiv_pos_as_xyz
  1  'x, y, z'
loop_
 _atom_site_type_symbol
 _atom_site_label
 _atom_site_symmetry_multiplicity
 _atom_site_fract_x
 _atom_site_fract_y
 _atom_site_fract_z
 _atom_site_occupancy
  Tb  Tb0  1  0.630890  0.369110  0.464601  1
  Tb  Tb1  1  0.369110  0.630890  0.535399  1
  Tb  Tb2  1  0.630890  0.369110  0.035399  1
  Tb  Tb3  1  0.369110  0.630890  0.964601  1
  Tb  Tb4  1  0.881490  0.118510  0.950978  1
  Tb  Tb5  1  0.118510  0.881490  0.049022  1
  Tb  Tb6  1  0.881490  0.118510  0.549022  1
  Tb  Tb7  1  0.118510  0.881490  0.450978  1
  Sm  Sm8  1  0.927863  0.072137  0.250000  1
  Sm  Sm9  1  0.072137  0.927863  0.750000  1
  Sm  Sm10  1  0.320539  0.679461  0.250000  1
  Sm  Sm11  1  0.679461  0.320539  0.750000  1
  Al  Al12  1  0.719534  0.280466  0.250000  1
  Al  Al13  1  0.280466  0.719534  0.750000  1
  Al  Al14  1  0.533092  0.466908  0.250000  1
  Al  Al15  1  0.466908  0.533092  0.750000  1
  Au  Au16  1  0.323617  0.069959  0.250000  1
  Au  Au17  1  0.069959  0.323617  0.750000  1
  Au  Au18  1  0.676383  0.930041  0.750000  1
  Au  Au19  1  0.930041  0.676383  0.250000  1
  Au  Au20  1  0.571794  0.005862  0.397767  1
  Au  Au21  1  0.005862  0.571794  0.602233  1
  Au  Au22  1  0.571794  0.005862  0.102233  1
  Au  Au23  1  0.005862  0.571794  0.897767  1
  Au  Au24  1  0.428206  0.994138  0.602233  1
  Au  Au25  1  0.994138  0.428206  0.397767  1
  Au  Au26  1  0.428206  0.994138  0.897767  1
  Au  Au27  1  0.994138  0.428206  0.102233  1
  Au  Au28  1  0.685035  0.739384  0.395771  1
  Au  Au29  1  0.739384  0.685035  0.604229  1
  Au  Au30  1  0.685035  0.739384  0.104229  1
  Au  Au31  1  0.739384  0.685035  0.895771  1
  Au  Au32  1  0.314965  0.260616  0.604229  1
  Au  Au33  1  0.260616  0.314965  0.395771  1
  Au  Au34  1  0.314965  0.260616  0.895771  1
  Au  Au35  1  0.260616  0.314965  0.104229  1
