# generated using pymatgen
data_Sm2HoAl9Si3Os4
_symmetry_space_group_name_H-M   'P 1'
_cell_length_a   8.74056984
_cell_length_b   8.70570928
_cell_length_c   9.58139700
_cell_angle_alpha   90.00000000
_cell_angle_beta   90.00000000
_cell_angle_gamma   120.24002665
_symmetry_Int_Tables_number   1
_chemical_formula_structural   Sm2HoAl9Si3Os4
_chemical_formula_sum   'Sm4 Ho2 Al18 Si6 Os8'
_cell_volume   629.86557246
_cell_formula_units_Z   2
loop_
 _symmetry_equiv_pos_site_id
 _symmetry_equiv_pos_as_xyz
  1  'x, y, z'
loop_
 _atom_site_type_symbol
 _atom_site_label
 _atom_site_symmetry_multiplicity
 _atom_site_fract_x
 _atom_site_fract_y
 _atom_site_fract_z
 _atom_site_occupancy
  Sm  Sm0  1  0.191209  0.382603  0.250000  1
  Sm  Sm1  1  0.808791  0.617397  0.750000  1
  Sm  Sm2  1  0.614463  0.809853  0.250000  1
  Sm  Sm3  1  0.385537  0.190147  0.750000  1
  Ho  Ho4  1  0.198722  0.806837  0.250000  1
  Ho  Ho5  1  0.801278  0.193163  0.750000  1
  Al  Al6  1  0.164429  0.330361  0.577751  1
  Al  Al7  1  0.835571  0.669639  0.422249  1
  Al  Al8  1  0.670314  0.835445  0.575916  1
  Al  Al9  1  0.835571  0.669639  0.077751  1
  Al  Al10  1  0.329686  0.164555  0.424084  1
  Al  Al11  1  0.164429  0.330361  0.922249  1
  Al  Al12  1  0.164529  0.834384  0.574247  1
  Al  Al13  1  0.329686  0.164555  0.075916  1
  Al  Al14  1  0.835471  0.165616  0.425753  1
  Al  Al15  1  0.670314  0.835445  0.924084  1
  Al  Al16  1  0.835471  0.165616  0.074247  1
  Al  Al17  1  0.164529  0.834384  0.925753  1
  Al  Al18  1  0.872313  0.433007  0.250000  1
  Al  Al19  1  0.127687  0.566993  0.750000  1
  Al  Al20  1  0.561152  0.432113  0.250000  1
  Al  Al21  1  0.438848  0.567887  0.750000  1
  Al  Al22  1  0.001654  0.995627  0.250000  1
  Al  Al23  1  0.998346  0.004373  0.750000  1
  Si  Si24  1  0.331587  0.664044  0.037411  1
  Si  Si25  1  0.668413  0.335956  0.962589  1
  Si  Si26  1  0.668413  0.335956  0.537411  1
  Si  Si27  1  0.331587  0.664044  0.462589  1
  Si  Si28  1  0.562691  0.126677  0.250000  1
  Si  Si29  1  0.437309  0.873323  0.750000  1
  Os  Os30  1  0.500000  0.000000  0.000000  1
  Os  Os31  1  0.000000  0.500000  0.000000  1
  Os  Os32  1  0.500000  0.000000  0.500000  1
  Os  Os33  1  0.500000  0.500000  0.000000  1
  Os  Os34  1  0.000000  0.500000  0.500000  1
  Os  Os35  1  0.500000  0.500000  0.500000  1
  Os  Os36  1  0.000000  0.000000  0.000000  1
  Os  Os37  1  0.000000  0.000000  0.500000  1
