# generated using pymatgen
data_Tb2Dy2Al4RuPt3
_symmetry_space_group_name_H-M   'P 1'
_cell_length_a   4.36894800
_cell_length_b   6.86899568
_cell_length_c   7.87307924
_cell_angle_alpha   89.76170581
_cell_angle_beta   90.00000000
_cell_angle_gamma   90.00000000
_symmetry_Int_Tables_number   1
_chemical_formula_structural   Tb2Dy2Al4RuPt3
_chemical_formula_sum   'Tb2 Dy2 Al4 Ru1 Pt3'
_cell_volume   236.27130785
_cell_formula_units_Z   1
loop_
 _symmetry_equiv_pos_site_id
 _symmetry_equiv_pos_as_xyz
  1  'x, y, z'
loop_
 _atom_site_type_symbol
 _atom_site_label
 _atom_site_symmetry_multiplicity
 _atom_site_fract_x
 _atom_site_fract_y
 _atom_site_fract_z
 _atom_site_occupancy
  Tb  Tb0  1  0.750000  0.532138  0.814611  1
  Tb  Tb1  1  0.750000  0.022892  0.679950  1
  Dy  Dy2  1  0.250000  0.470070  0.181360  1
  Dy  Dy3  1  0.250000  0.966847  0.321932  1
  Al  Al4  1  0.250000  0.855096  0.937171  1
  Al  Al5  1  0.750000  0.142667  0.062943  1
  Al  Al6  1  0.750000  0.644954  0.438865  1
  Al  Al7  1  0.250000  0.361350  0.563806  1
  Ru  Ru8  1  0.250000  0.735214  0.617326  1
  Pt  Pt9  1  0.750000  0.270818  0.380273  1
  Pt  Pt10  1  0.750000  0.770248  0.118759  1
  Pt  Pt11  1  0.250000  0.227706  0.883003  1
