# generated using pymatgen
data_La4H9Pt2O3
_symmetry_space_group_name_H-M   'P 1'
_cell_length_a   7.35802924
_cell_length_b   7.35802956
_cell_length_c   5.64935977
_cell_angle_alpha   90.13059431
_cell_angle_beta   89.86939649
_cell_angle_gamma   134.79254968
_symmetry_Int_Tables_number   1
_chemical_formula_structural   La4H9Pt2O3
_chemical_formula_sum   'La4 H9 Pt2 O3'
_cell_volume   217.05645947
_cell_formula_units_Z   1
loop_
 _symmetry_equiv_pos_site_id
 _symmetry_equiv_pos_as_xyz
  1  'x, y, z'
loop_
 _atom_site_type_symbol
 _atom_site_label
 _atom_site_symmetry_multiplicity
 _atom_site_fract_x
 _atom_site_fract_y
 _atom_site_fract_z
 _atom_site_occupancy
  La  La0  1  0.340022  0.645502  0.991682  1
  La  La1  1  0.856122  0.161357  0.507938  1
  La  La2  1  0.661357  0.356122  0.992062  1
  La  La3  1  0.145502  0.840022  0.508318  1
  H  H4  1  0.500996  0.000996  0.250000  1
  H  H5  1  0.140751  0.896763  0.014543  1
  H  H6  1  0.604239  0.359307  0.488644  1
  H  H7  1  0.859307  0.104239  0.011356  1
  H  H8  1  0.396763  0.640751  0.485457  1
  H  H9  1  0.779449  0.774412  0.224679  1
  H  H10  1  0.216586  0.220735  0.785268  1
  H  H11  1  0.720735  0.716586  0.714732  1
  H  H12  1  0.274412  0.279449  0.275321  1
  Pt  Pt13  1  0.001066  0.001524  0.008183  1
  Pt  Pt14  1  0.501524  0.501066  0.491817  1
  O  O15  1  0.001193  0.501193  0.250000  1
  O  O16  1  0.499899  0.999899  0.750000  1
  O  O17  1  0.000077  0.500077  0.750000  1
