# generated using pymatgen
data_La3Ce9Al6(IrRu2)2
_symmetry_space_group_name_H-M   'P 1'
_cell_length_a   7.87059094
_cell_length_b   7.87059115
_cell_length_c   9.96375707
_cell_angle_alpha   89.71447238
_cell_angle_beta   89.71447243
_cell_angle_gamma   120.04487524
_symmetry_Int_Tables_number   1
_chemical_formula_structural   La3Ce9Al6(IrRu2)2
_chemical_formula_sum   'La3 Ce9 Al6 Ir2 Ru4'
_cell_volume   534.25708791
_cell_formula_units_Z   1
loop_
 _symmetry_equiv_pos_site_id
 _symmetry_equiv_pos_as_xyz
  1  'x, y, z'
loop_
 _atom_site_type_symbol
 _atom_site_label
 _atom_site_symmetry_multiplicity
 _atom_site_fract_x
 _atom_site_fract_y
 _atom_site_fract_z
 _atom_site_occupancy
  La  La0  1  0.999227  0.600563  0.502487  1
  La  La1  1  0.600563  0.999227  0.502487  1
  La  La2  1  0.407546  0.407546  0.497598  1
  Ce  Ce3  1  0.998882  0.414709  0.003049  1
  Ce  Ce4  1  0.414709  0.998882  0.003049  1
  Ce  Ce5  1  0.583672  0.583672  0.002149  1
  Ce  Ce6  1  0.991224  0.731669  0.174050  1
  Ce  Ce7  1  0.731669  0.991224  0.174050  1
  Ce  Ce8  1  0.270663  0.270663  0.168499  1
  Ce  Ce9  1  0.001697  0.259028  0.686819  1
  Ce  Ce10  1  0.259028  0.001697  0.686819  1
  Ce  Ce11  1  0.745389  0.745389  0.687987  1
  Al  Al12  1  0.666156  0.328278  0.268740  1
  Al  Al13  1  0.328278  0.666156  0.268740  1
  Al  Al14  1  0.333884  0.667002  0.774973  1
  Al  Al15  1  0.667002  0.333884  0.774973  1
  Al  Al16  1  0.003900  0.003900  0.418390  1
  Al  Al17  1  0.999610  0.999610  0.929301  1
  Ir  Ir18  1  0.000087  0.328355  0.326628  1
  Ir  Ir19  1  0.328355  0.000087  0.326628  1
  Ru  Ru20  1  0.671528  0.671528  0.325829  1
  Ru  Ru21  1  0.999283  0.658030  0.842860  1
  Ru  Ru22  1  0.658030  0.999283  0.842860  1
  Ru  Ru23  1  0.339620  0.339620  0.840279  1
