# generated using pymatgen
data_CaYb5(HoBi3)2
_symmetry_space_group_name_H-M   'P 1'
_cell_length_a   8.16620269
_cell_length_b   8.35952334
_cell_length_c   8.36038401
_cell_angle_alpha   109.94412487
_cell_angle_beta   109.00204437
_cell_angle_gamma   108.99886737
_symmetry_Int_Tables_number   1
_chemical_formula_structural   CaYb5(HoBi3)2
_chemical_formula_sum   'Ca1 Yb5 Ho2 Bi6'
_cell_volume   441.83789012
_cell_formula_units_Z   1
loop_
 _symmetry_equiv_pos_site_id
 _symmetry_equiv_pos_as_xyz
  1  'x, y, z'
loop_
 _atom_site_type_symbol
 _atom_site_label
 _atom_site_symmetry_multiplicity
 _atom_site_fract_x
 _atom_site_fract_y
 _atom_site_fract_z
 _atom_site_occupancy
  Ca  Ca0  1  0.501031  0.999227  0.646718  1
  Yb  Yb1  1  0.354296  0.352363  0.353264  1
  Yb  Yb2  1  0.501866  0.000846  0.147638  1
  Yb  Yb3  1  0.001670  0.647497  0.500789  1
  Yb  Yb4  1  0.854347  0.853142  0.852431  1
  Yb  Yb5  1  0.000964  0.146719  0.499111  1
  Ho  Ho6  1  0.141466  0.500068  0.000029  1
  Ho  Ho7  1  0.641559  0.500161  0.000137  1
  Bi  Bi8  1  0.376853  0.622517  0.756688  1
  Bi  Bi9  1  0.877104  0.256804  0.122919  1
  Bi  Bi10  1  0.620322  0.743186  0.365871  1
  Bi  Bi11  1  0.120034  0.865932  0.243041  1
  Bi  Bi12  1  0.254145  0.134034  0.877384  1
  Bi  Bi13  1  0.754341  0.377505  0.633980  1
