# generated using pymatgen
data_Y15Er5Pb16
_symmetry_space_group_name_H-M   'P 1'
_cell_length_a   8.20579839
_cell_length_b   8.27512036
_cell_length_c   15.68111153
_cell_angle_alpha   90.13642933
_cell_angle_beta   90.34388231
_cell_angle_gamma   90.06661972
_symmetry_Int_Tables_number   1
_chemical_formula_structural   Y15Er5Pb16
_chemical_formula_sum   'Y15 Er5 Pb16'
_cell_volume   1064.78678204
_cell_formula_units_Z   1
loop_
 _symmetry_equiv_pos_site_id
 _symmetry_equiv_pos_as_xyz
  1  'x, y, z'
loop_
 _atom_site_type_symbol
 _atom_site_label
 _atom_site_symmetry_multiplicity
 _atom_site_fract_x
 _atom_site_fract_y
 _atom_site_fract_z
 _atom_site_occupancy
  Y  Y0  1  0.378020  0.842563  0.878938  1
  Y  Y1  1  0.877471  0.657566  0.621433  1
  Y  Y2  1  0.622654  0.157758  0.378798  1
  Y  Y3  1  0.121613  0.342093  0.120638  1
  Y  Y4  1  0.621745  0.157684  0.120984  1
  Y  Y5  1  0.122570  0.342128  0.378851  1
  Y  Y6  1  0.377026  0.842388  0.621336  1
  Y  Y7  1  0.877411  0.657552  0.879041  1
  Y  Y8  1  0.537269  0.324851  0.899984  1
  Y  Y9  1  0.036422  0.175104  0.599861  1
  Y  Y10  1  0.463445  0.675296  0.400198  1
  Y  Y11  1  0.962413  0.825245  0.099915  1
  Y  Y12  1  0.462470  0.675211  0.099944  1
  Y  Y13  1  0.963498  0.824534  0.400090  1
  Y  Y14  1  0.536856  0.324653  0.600241  1
  Er  Er15  1  0.038756  0.174315  0.899377  1
  Er  Er16  1  0.209595  0.504205  0.750337  1
  Er  Er17  1  0.710019  0.995741  0.750249  1
  Er  Er18  1  0.790296  0.495511  0.249991  1
  Er  Er19  1  0.290154  0.004431  0.249780  1
  Pb  Pb20  1  0.280222  0.033351  0.042741  1
  Pb  Pb21  1  0.781379  0.466676  0.456741  1
  Pb  Pb22  1  0.718566  0.966440  0.543370  1
  Pb  Pb23  1  0.218791  0.532424  0.956374  1
  Pb  Pb24  1  0.720546  0.968767  0.956322  1
  Pb  Pb25  1  0.218818  0.532970  0.543577  1
  Pb  Pb26  1  0.281337  0.033142  0.456566  1
  Pb  Pb27  1  0.780270  0.467545  0.043613  1
  Pb  Pb28  1  0.572325  0.625654  0.750134  1
  Pb  Pb29  1  0.072332  0.874648  0.750327  1
  Pb  Pb30  1  0.427510  0.374436  0.249847  1
  Pb  Pb31  1  0.927683  0.125328  0.249836  1
  Pb  Pb32  1  0.349183  0.155075  0.750108  1
  Pb  Pb33  1  0.850494  0.344686  0.750761  1
  Pb  Pb34  1  0.650426  0.845224  0.249994  1
  Pb  Pb35  1  0.150414  0.654805  0.249707  1
