# generated using pymatgen
data_Zr4Ti3Re5
_symmetry_space_group_name_H-M   'P 1'
_cell_length_a   5.33212032
_cell_length_b   5.33212090
_cell_length_c   8.79691500
_cell_angle_alpha   90.00000000
_cell_angle_beta   90.00000000
_cell_angle_gamma   120.36594706
_symmetry_Int_Tables_number   1
_chemical_formula_structural   Zr4Ti3Re5
_chemical_formula_sum   'Zr4 Ti3 Re5'
_cell_volume   215.79811382
_cell_formula_units_Z   1
loop_
 _symmetry_equiv_pos_site_id
 _symmetry_equiv_pos_as_xyz
  1  'x, y, z'
loop_
 _atom_site_type_symbol
 _atom_site_label
 _atom_site_symmetry_multiplicity
 _atom_site_fract_x
 _atom_site_fract_y
 _atom_site_fract_z
 _atom_site_occupancy
  Zr  Zr0  1  0.333506  0.666494  0.441753  1
  Zr  Zr1  1  0.664688  0.335312  0.566504  1
  Zr  Zr2  1  0.664688  0.335312  0.933496  1
  Zr  Zr3  1  0.333506  0.666494  0.058247  1
  Ti  Ti4  1  0.830965  0.169035  0.250000  1
  Ti  Ti5  1  0.002301  0.997699  0.500755  1
  Ti  Ti6  1  0.002301  0.997699  0.999245  1
  Re  Re7  1  0.829010  0.660019  0.250000  1
  Re  Re8  1  0.339981  0.170990  0.250000  1
  Re  Re9  1  0.169523  0.830477  0.750000  1
  Re  Re10  1  0.167398  0.337868  0.750000  1
  Re  Re11  1  0.662132  0.832602  0.750000  1
