# generated using pymatgen
data_Sc6FeNiC8
_symmetry_space_group_name_H-M   'P 1'
_cell_length_a   6.63420727
_cell_length_b   6.63420710
_cell_length_c   5.54995646
_cell_angle_alpha   84.32835656
_cell_angle_beta   84.32833902
_cell_angle_gamma   130.56303345
_symmetry_Int_Tables_number   1
_chemical_formula_structural   Sc6FeNiC8
_chemical_formula_sum   'Sc6 Fe1 Ni1 C8'
_cell_volume   180.31163553
_cell_formula_units_Z   1
loop_
 _symmetry_equiv_pos_site_id
 _symmetry_equiv_pos_as_xyz
  1  'x, y, z'
loop_
 _atom_site_type_symbol
 _atom_site_label
 _atom_site_symmetry_multiplicity
 _atom_site_fract_x
 _atom_site_fract_y
 _atom_site_fract_z
 _atom_site_occupancy
  Sc  Sc0  1  0.750195  0.750195  0.750382  1
  Sc  Sc1  1  0.316665  0.691770  0.499170  1
  Sc  Sc2  1  0.183303  0.808259  0.000794  1
  Sc  Sc3  1  0.691770  0.316665  0.499170  1
  Sc  Sc4  1  0.249776  0.249776  0.249658  1
  Sc  Sc5  1  0.808259  0.183303  0.000794  1
  Fe  Fe6  1  0.250610  0.250610  0.749345  1
  Ni  Ni7  1  0.749274  0.749274  0.250837  1
  C  C8  1  0.291559  0.534338  0.914216  1
  C  C9  1  0.534338  0.291559  0.914216  1
  C  C10  1  0.452113  0.705225  0.079898  1
  C  C11  1  0.705225  0.452113  0.079898  1
  C  C12  1  0.208479  0.965806  0.585632  1
  C  C13  1  0.794815  0.047813  0.420179  1
  C  C14  1  0.965806  0.208479  0.585632  1
  C  C15  1  0.047813  0.794815  0.420179  1
