# generated using pymatgen
data_Ho8ReB24OsRu2
_symmetry_space_group_name_H-M   'P 1'
_cell_length_a   3.65548300
_cell_length_b   9.13073043
_cell_length_c   11.51298447
_cell_angle_alpha   89.83595914
_cell_angle_beta   90.00000000
_cell_angle_gamma   90.00000000
_symmetry_Int_Tables_number   1
_chemical_formula_structural   Ho8ReB24OsRu2
_chemical_formula_sum   'Ho8 Re1 B24 Os1 Ru2'
_cell_volume   384.26995409
_cell_formula_units_Z   1
loop_
 _symmetry_equiv_pos_site_id
 _symmetry_equiv_pos_as_xyz
  1  'x, y, z'
loop_
 _atom_site_type_symbol
 _atom_site_label
 _atom_site_symmetry_multiplicity
 _atom_site_fract_x
 _atom_site_fract_y
 _atom_site_fract_z
 _atom_site_occupancy
  Ho  Ho0  1  0.000000  0.323105  0.416445  1
  Ho  Ho1  1  0.000000  0.676119  0.586532  1
  Ho  Ho2  1  0.000000  0.822864  0.085314  1
  Ho  Ho3  1  0.000000  0.179382  0.911912  1
  Ho  Ho4  1  0.000000  0.943520  0.371958  1
  Ho  Ho5  1  0.000000  0.055995  0.627555  1
  Ho  Ho6  1  0.000000  0.442859  0.128146  1
  Ho  Ho7  1  0.000000  0.556416  0.872252  1
  Re  Re8  1  0.000000  0.362695  0.678619  1
  B  B9  1  0.500000  0.553414  0.432615  1
  B  B10  1  0.500000  0.447290  0.566758  1
  B  B11  1  0.500000  0.053781  0.066694  1
  B  B12  1  0.500000  0.946249  0.933052  1
  B  B13  1  0.500000  0.748082  0.419375  1
  B  B14  1  0.500000  0.251487  0.580489  1
  B  B15  1  0.500000  0.247948  0.080160  1
  B  B16  1  0.500000  0.752098  0.919956  1
  B  B17  1  0.500000  0.791257  0.266036  1
  B  B18  1  0.500000  0.208092  0.733982  1
  B  B19  1  0.500000  0.290537  0.233730  1
  B  B20  1  0.500000  0.709102  0.767004  1
  B  B21  1  0.500000  0.631876  0.185169  1
  B  B22  1  0.500000  0.368436  0.814634  1
  B  B23  1  0.500000  0.131372  0.314701  1
  B  B24  1  0.500000  0.868131  0.685674  1
  B  B25  1  0.500000  0.983286  0.212248  1
  B  B26  1  0.500000  0.016650  0.787323  1
  B  B27  1  0.500000  0.483164  0.287251  1
  B  B28  1  0.500000  0.517940  0.712772  1
  B  B29  1  0.500000  0.607901  0.030240  1
  B  B30  1  0.500000  0.392561  0.970720  1
  B  B31  1  0.500000  0.106531  0.469896  1
  B  B32  1  0.500000  0.892023  0.529515  1
  Os  Os33  1  0.000000  0.637774  0.320793  1
  Ru  Ru34  1  0.000000  0.137823  0.178917  1
  Ru  Ru35  1  0.000000  0.862240  0.821566  1
