# generated using pymatgen
data_PrCuHgPd3
_symmetry_space_group_name_H-M   'P 1'
_cell_length_a   5.50247290
_cell_length_b   5.50247371
_cell_length_c   5.26877818
_cell_angle_alpha   58.52157879
_cell_angle_beta   58.52157120
_cell_angle_gamma   60.00000045
_symmetry_Int_Tables_number   1
_chemical_formula_structural   PrCuHgPd3
_chemical_formula_sum   'Pr1 Cu1 Hg1 Pd3'
_cell_volume   110.21367589
_cell_formula_units_Z   1
loop_
 _symmetry_equiv_pos_site_id
 _symmetry_equiv_pos_as_xyz
  1  'x, y, z'
loop_
 _atom_site_type_symbol
 _atom_site_label
 _atom_site_symmetry_multiplicity
 _atom_site_fract_x
 _atom_site_fract_y
 _atom_site_fract_z
 _atom_site_occupancy
  Pr  Pr0  1  0.250295  0.250295  0.249115  1
  Cu  Cu1  1  0.625916  0.625916  0.122254  1
  Hg  Hg2  1  0.996398  0.996398  0.010806  1
  Pd  Pd3  1  0.626751  0.123890  0.622609  1
  Pd  Pd4  1  0.123890  0.626751  0.622609  1
  Pd  Pd5  1  0.626751  0.626751  0.622609  1
