# generated using pymatgen
data_Ho2AlGa2Fe14C3
_symmetry_space_group_name_H-M   'P 1'
_cell_length_a   6.51041881
_cell_length_b   6.51322011
_cell_length_c   6.51322101
_cell_angle_alpha   83.31731753
_cell_angle_beta   83.30895404
_cell_angle_gamma   83.30895727
_symmetry_Int_Tables_number   1
_chemical_formula_structural   Ho2AlGa2Fe14C3
_chemical_formula_sum   'Ho2 Al1 Ga2 Fe14 C3'
_cell_volume   270.95249786
_cell_formula_units_Z   1
loop_
 _symmetry_equiv_pos_site_id
 _symmetry_equiv_pos_as_xyz
  1  'x, y, z'
loop_
 _atom_site_type_symbol
 _atom_site_label
 _atom_site_symmetry_multiplicity
 _atom_site_fract_x
 _atom_site_fract_y
 _atom_site_fract_z
 _atom_site_occupancy
  Ho  Ho0  1  0.656517  0.656701  0.656701  1
  Ho  Ho1  1  0.343483  0.343299  0.343299  1
  Al  Al2  1  0.500000  0.000000  0.000000  1
  Ga  Ga3  1  0.000000  0.000000  0.500000  1
  Ga  Ga4  1  0.000000  0.500000  0.000000  1
  Fe  Fe5  1  0.714004  0.285361  0.999551  1
  Fe  Fe6  1  0.000000  0.714269  0.285731  1
  Fe  Fe7  1  0.285996  0.000449  0.714639  1
  Fe  Fe8  1  0.000000  0.285731  0.714269  1
  Fe  Fe9  1  0.714004  0.999551  0.285361  1
  Fe  Fe10  1  0.285996  0.714639  0.000449  1
  Fe  Fe11  1  0.346362  0.850968  0.345322  1
  Fe  Fe12  1  0.346362  0.345322  0.850968  1
  Fe  Fe13  1  0.850728  0.345987  0.345987  1
  Fe  Fe14  1  0.653638  0.149032  0.654678  1
  Fe  Fe15  1  0.653638  0.654678  0.149032  1
  Fe  Fe16  1  0.149272  0.654013  0.654013  1
  Fe  Fe17  1  0.907199  0.907794  0.907794  1
  Fe  Fe18  1  0.092801  0.092206  0.092206  1
  C  C19  1  0.500000  0.500000  0.000000  1
  C  C20  1  0.000000  0.500000  0.500000  1
  C  C21  1  0.500000  0.000000  0.500000  1
