# generated using pymatgen
data_HoSc19(Zn3Ru)2
_symmetry_space_group_name_H-M   'P 1'
_cell_length_a   8.79180977
_cell_length_b   8.78292987
_cell_length_c   8.99987501
_cell_angle_alpha   90.00399323
_cell_angle_beta   90.00111773
_cell_angle_gamma   119.94227627
_symmetry_Int_Tables_number   1
_chemical_formula_structural   HoSc19(Zn3Ru)2
_chemical_formula_sum   'Ho1 Sc19 Zn6 Ru2'
_cell_volume   602.19497164
_cell_formula_units_Z   1
loop_
 _symmetry_equiv_pos_site_id
 _symmetry_equiv_pos_as_xyz
  1  'x, y, z'
loop_
 _atom_site_type_symbol
 _atom_site_label
 _atom_site_symmetry_multiplicity
 _atom_site_fract_x
 _atom_site_fract_y
 _atom_site_fract_z
 _atom_site_occupancy
  Ho  Ho0  1  0.082878  0.541429  0.750010  1
  Sc  Sc1  1  0.999330  0.999677  0.499856  1
  Sc  Sc2  1  0.999340  0.999680  0.000140  1
  Sc  Sc3  1  0.208477  0.795317  0.440923  1
  Sc  Sc4  1  0.208460  0.413180  0.440969  1
  Sc  Sc5  1  0.585146  0.792606  0.443755  1
  Sc  Sc6  1  0.789720  0.204590  0.553879  1
  Sc  Sc7  1  0.789716  0.585127  0.553860  1
  Sc  Sc8  1  0.414348  0.207181  0.555874  1
  Sc  Sc9  1  0.789721  0.204582  0.946121  1
  Sc  Sc10  1  0.789717  0.585134  0.946154  1
  Sc  Sc11  1  0.414343  0.207180  0.944125  1
  Sc  Sc12  1  0.208472  0.795326  0.059085  1
  Sc  Sc13  1  0.208456  0.413176  0.059027  1
  Sc  Sc14  1  0.585154  0.792615  0.056243  1
  Sc  Sc15  1  0.541894  0.458841  0.249999  1
  Sc  Sc16  1  0.541840  0.082947  0.249994  1
  Sc  Sc17  1  0.917782  0.458887  0.249997  1
  Sc  Sc18  1  0.462082  0.541510  0.750005  1
  Sc  Sc19  1  0.462088  0.920602  0.750006  1
  Zn  Zn20  1  0.885320  0.112947  0.249993  1
  Zn  Zn21  1  0.885276  0.772362  0.249992  1
  Zn  Zn22  1  0.227566  0.113826  0.249993  1
  Zn  Zn23  1  0.114968  0.892959  0.750003  1
  Zn  Zn24  1  0.114996  0.222016  0.750007  1
  Zn  Zn25  1  0.773778  0.886865  0.750004  1
  Ru  Ru26  1  0.332626  0.666099  0.249966  1
  Ru  Ru27  1  0.666505  0.333340  0.750021  1
