# generated using pymatgen
data_Pr3Nd17(SnBi)8
_symmetry_space_group_name_H-M   'P 1'
_cell_length_a   8.44070719
_cell_length_b   8.49584010
_cell_length_c   16.18596830
_cell_angle_alpha   90.00982417
_cell_angle_beta   90.01986843
_cell_angle_gamma   89.98559452
_symmetry_Int_Tables_number   1
_chemical_formula_structural   Pr3Nd17(SnBi)8
_chemical_formula_sum   'Pr3 Nd17 Sn8 Bi8'
_cell_volume   1160.71020872
_cell_formula_units_Z   1
loop_
 _symmetry_equiv_pos_site_id
 _symmetry_equiv_pos_as_xyz
  1  'x, y, z'
loop_
 _atom_site_type_symbol
 _atom_site_label
 _atom_site_symmetry_multiplicity
 _atom_site_fract_x
 _atom_site_fract_y
 _atom_site_fract_z
 _atom_site_occupancy
  Pr  Pr0  1  0.951427  0.825580  0.390542  1
  Pr  Pr1  1  0.548566  0.325587  0.609434  1
  Pr  Pr2  1  0.048608  0.174365  0.890563  1
  Nd  Nd3  1  0.391333  0.835361  0.879099  1
  Nd  Nd4  1  0.891275  0.664627  0.620946  1
  Nd  Nd5  1  0.608693  0.164606  0.379022  1
  Nd  Nd6  1  0.108756  0.335432  0.120951  1
  Nd  Nd7  1  0.608720  0.164560  0.120920  1
  Nd  Nd8  1  0.108800  0.335449  0.379053  1
  Nd  Nd9  1  0.391224  0.835424  0.620933  1
  Nd  Nd10  1  0.891237  0.664595  0.879057  1
  Nd  Nd11  1  0.548703  0.325876  0.890227  1
  Nd  Nd12  1  0.048691  0.174123  0.609765  1
  Nd  Nd13  1  0.451297  0.674120  0.390249  1
  Nd  Nd14  1  0.951315  0.825827  0.109754  1
  Nd  Nd15  1  0.451318  0.674150  0.109717  1
  Nd  Nd16  1  0.217764  0.496213  0.749994  1
  Nd  Nd17  1  0.717756  0.003793  0.749994  1
  Nd  Nd18  1  0.782139  0.503828  0.249956  1
  Nd  Nd19  1  0.282303  0.996116  0.249966  1
  Sn  Sn20  1  0.589925  0.622720  0.750121  1
  Sn  Sn21  1  0.089938  0.877267  0.749886  1
  Sn  Sn22  1  0.410141  0.377518  0.249990  1
  Sn  Sn23  1  0.910112  0.122757  0.249879  1
  Sn  Sn24  1  0.349768  0.136464  0.750086  1
  Sn  Sn25  1  0.849776  0.363534  0.749909  1
  Sn  Sn26  1  0.649935  0.863288  0.249895  1
  Sn  Sn27  1  0.150469  0.636519  0.249797  1
  Bi  Bi28  1  0.269129  0.019384  0.045072  1
  Bi  Bi29  1  0.768924  0.480274  0.454965  1
  Bi  Bi30  1  0.731086  0.980268  0.545017  1
  Bi  Bi31  1  0.231351  0.519946  0.955178  1
  Bi  Bi32  1  0.730649  0.980079  0.955211  1
  Bi  Bi33  1  0.230636  0.519975  0.544783  1
  Bi  Bi34  1  0.269352  0.019976  0.455205  1
  Bi  Bi35  1  0.768887  0.480398  0.044864  1
