# generated using pymatgen
data_GaNi2Mo3C
_symmetry_space_group_name_H-M   'P 1'
_cell_length_a   7.93169100
_cell_length_b   7.93169115
_cell_length_c   7.93169100
_cell_angle_alpha   120.00000354
_cell_angle_beta   90.00000000
_cell_angle_gamma   120.00000354
_symmetry_Int_Tables_number   1
_chemical_formula_structural   GaNi2Mo3C
_chemical_formula_sum   'Ga4 Ni8 Mo12 C4'
_cell_volume   352.84366492
_cell_formula_units_Z   4
loop_
 _symmetry_equiv_pos_site_id
 _symmetry_equiv_pos_as_xyz
  1  'x, y, z'
loop_
 _atom_site_type_symbol
 _atom_site_label
 _atom_site_symmetry_multiplicity
 _atom_site_fract_x
 _atom_site_fract_y
 _atom_site_fract_z
 _atom_site_occupancy
  Ga  Ga0  1  0.375000  0.750000  0.124999  1
  Ga  Ga1  1  0.875001  0.250001  0.625000  1
  Ga  Ga2  1  0.375000  0.250001  0.625001  1
  Ga  Ga3  1  0.375000  0.750000  0.625001  1
  Ni  Ni4  1  0.583050  0.166099  0.416951  1
  Ni  Ni5  1  0.250852  0.833902  0.416951  1
  Ni  Ni6  1  0.583050  0.833902  0.416951  1
  Ni  Ni7  1  0.166951  0.333903  0.500854  1
  Ni  Ni8  1  0.583048  0.166099  0.749147  1
  Ni  Ni9  1  0.166951  0.333903  0.833048  1
  Ni  Ni10  1  0.166951  0.666097  0.833048  1
  Ni  Ni11  1  0.499146  0.666097  0.833048  1
  Mo  Mo12  1  0.562678  0.125355  0.062678  1
  Mo  Mo13  1  0.562678  0.500000  0.062678  1
  Mo  Mo14  1  0.937321  0.500000  0.062678  1
  Mo  Mo15  1  0.187323  0.000000  0.187323  1
  Mo  Mo16  1  0.812679  0.000000  0.187323  1
  Mo  Mo17  1  0.187323  0.374646  0.187323  1
  Mo  Mo18  1  0.937321  0.500000  0.437322  1
  Mo  Mo19  1  0.937321  0.874644  0.437322  1
  Mo  Mo20  1  0.562678  0.500000  0.437322  1
  Mo  Mo21  1  0.187323  0.000000  0.812679  1
  Mo  Mo22  1  0.812679  0.625355  0.812679  1
  Mo  Mo23  1  0.812679  0.000000  0.812679  1
  C  C24  1  0.375001  0.250001  0.125000  1
  C  C25  1  0.875001  0.250001  0.125000  1
  C  C26  1  0.875001  0.750000  0.125000  1
  C  C27  1  0.875001  0.750000  0.625000  1
