# generated using pymatgen
data_Ca2Ni7(As2Ru)3
_symmetry_space_group_name_H-M   'P 1'
_cell_length_a   3.85820200
_cell_length_b   10.98559200
_cell_length_c   12.39501100
_cell_angle_alpha   90.00000000
_cell_angle_beta   90.00000000
_cell_angle_gamma   90.00000000
_symmetry_Int_Tables_number   1
_chemical_formula_structural   Ca2Ni7(As2Ru)3
_chemical_formula_sum   'Ca4 Ni14 As12 Ru6'
_cell_volume   525.35799258
_cell_formula_units_Z   2
loop_
 _symmetry_equiv_pos_site_id
 _symmetry_equiv_pos_as_xyz
  1  'x, y, z'
loop_
 _atom_site_type_symbol
 _atom_site_label
 _atom_site_symmetry_multiplicity
 _atom_site_fract_x
 _atom_site_fract_y
 _atom_site_fract_z
 _atom_site_occupancy
  Ca  Ca0  1  0.250000  0.589823  0.705456  1
  Ca  Ca1  1  0.250000  0.910177  0.205456  1
  Ca  Ca2  1  0.750000  0.410914  0.293224  1
  Ca  Ca3  1  0.750000  0.089086  0.793224  1
  Ni  Ni4  1  0.750000  0.593607  0.509440  1
  Ni  Ni5  1  0.750000  0.906393  0.009440  1
  Ni  Ni6  1  0.250000  0.216493  0.182915  1
  Ni  Ni7  1  0.250000  0.283507  0.682915  1
  Ni  Ni8  1  0.750000  0.786372  0.818575  1
  Ni  Ni9  1  0.750000  0.713628  0.318575  1
  Ni  Ni10  1  0.250000  0.887023  0.696342  1
  Ni  Ni11  1  0.250000  0.612977  0.196342  1
  Ni  Ni12  1  0.750000  0.109229  0.302951  1
  Ni  Ni13  1  0.750000  0.390771  0.802951  1
  Ni  Ni14  1  0.250000  0.470125  0.931617  1
  Ni  Ni15  1  0.250000  0.029875  0.431617  1
  Ni  Ni16  1  0.750000  0.532141  0.068222  1
  Ni  Ni17  1  0.750000  0.967859  0.568222  1
  As  As18  1  0.250000  0.412939  0.112862  1
  As  As19  1  0.250000  0.087061  0.612862  1
  As  As20  1  0.750000  0.589711  0.887162  1
  As  As21  1  0.750000  0.910289  0.387162  1
  As  As22  1  0.250000  0.271448  0.874046  1
  As  As23  1  0.250000  0.228552  0.374046  1
  As  As24  1  0.750000  0.731085  0.125905  1
  As  As25  1  0.750000  0.768915  0.625905  1
  As  As26  1  0.250000  0.596857  0.385035  1
  As  As27  1  0.250000  0.903143  0.885035  1
  As  As28  1  0.750000  0.403717  0.614312  1
  As  As29  1  0.750000  0.096283  0.114312  1
  Ru  Ru30  1  0.250000  0.714174  0.988361  1
  Ru  Ru31  1  0.250000  0.785826  0.488361  1
  Ru  Ru32  1  0.750000  0.289587  0.011936  1
  Ru  Ru33  1  0.750000  0.210413  0.511936  1
  Ru  Ru34  1  0.250000  0.409932  0.491636  1
  Ru  Ru35  1  0.250000  0.090068  0.991636  1
