# generated using pymatgen
data_Nd5CoBi2
_symmetry_space_group_name_H-M   'P 1'
_cell_length_a   8.35124000
_cell_length_b   9.07272400
_cell_length_c   12.82868600
_cell_angle_alpha   90.00000000
_cell_angle_beta   90.00000000
_cell_angle_gamma   90.00000000
_symmetry_Int_Tables_number   1
_chemical_formula_structural   Nd5CoBi2
_chemical_formula_sum   'Nd20 Co4 Bi8'
_cell_volume   972.01023846
_cell_formula_units_Z   4
loop_
 _symmetry_equiv_pos_site_id
 _symmetry_equiv_pos_as_xyz
  1  'x, y, z'
loop_
 _atom_site_type_symbol
 _atom_site_label
 _atom_site_symmetry_multiplicity
 _atom_site_fract_x
 _atom_site_fract_y
 _atom_site_fract_z
 _atom_site_occupancy
  Nd  Nd0  1  0.848904  0.750000  0.800594  1
  Nd  Nd1  1  0.151096  0.250000  0.199406  1
  Nd  Nd2  1  0.348904  0.250000  0.699406  1
  Nd  Nd3  1  0.651096  0.750000  0.300594  1
  Nd  Nd4  1  0.376903  0.750000  0.691505  1
  Nd  Nd5  1  0.623097  0.250000  0.308495  1
  Nd  Nd6  1  0.876903  0.250000  0.808495  1
  Nd  Nd7  1  0.123097  0.750000  0.191505  1
  Nd  Nd8  1  0.955328  0.750000  0.502127  1
  Nd  Nd9  1  0.044672  0.250000  0.497873  1
  Nd  Nd10  1  0.455328  0.250000  0.997873  1
  Nd  Nd11  1  0.544672  0.750000  0.002127  1
  Nd  Nd12  1  0.679005  0.032937  0.562886  1
  Nd  Nd13  1  0.320995  0.967063  0.437114  1
  Nd  Nd14  1  0.179005  0.967063  0.937114  1
  Nd  Nd15  1  0.320995  0.532937  0.437114  1
  Nd  Nd16  1  0.820995  0.032937  0.062886  1
  Nd  Nd17  1  0.679005  0.467063  0.562886  1
  Nd  Nd18  1  0.820995  0.467063  0.062886  1
  Nd  Nd19  1  0.179005  0.532937  0.937114  1
  Co  Co20  1  0.563341  0.750000  0.508268  1
  Co  Co21  1  0.436659  0.250000  0.491732  1
  Co  Co22  1  0.063341  0.250000  0.991732  1
  Co  Co23  1  0.936659  0.750000  0.008268  1
  Bi  Bi24  1  0.572118  0.493175  0.825217  1
  Bi  Bi25  1  0.427882  0.506825  0.174783  1
  Bi  Bi26  1  0.072118  0.506825  0.674783  1
  Bi  Bi27  1  0.427882  0.993175  0.174783  1
  Bi  Bi28  1  0.927882  0.493175  0.325217  1
  Bi  Bi29  1  0.572118  0.006825  0.825217  1
  Bi  Bi30  1  0.927882  0.006825  0.325217  1
  Bi  Bi31  1  0.072118  0.993175  0.674783  1
