# generated using pymatgen
data_NbAg7(SO4)6
_symmetry_space_group_name_H-M   'P 1'
_cell_length_a   8.82589494
_cell_length_b   8.82589487
_cell_length_c   8.82589489
_cell_angle_alpha   108.13064485
_cell_angle_beta   108.13064272
_cell_angle_gamma   108.13065846
_symmetry_Int_Tables_number   1
_chemical_formula_structural   NbAg7(SO4)6
_chemical_formula_sum   'Nb1 Ag7 S6 O24'
_cell_volume   553.95387600
_cell_formula_units_Z   1
loop_
 _symmetry_equiv_pos_site_id
 _symmetry_equiv_pos_as_xyz
  1  'x, y, z'
loop_
 _atom_site_type_symbol
 _atom_site_label
 _atom_site_symmetry_multiplicity
 _atom_site_fract_x
 _atom_site_fract_y
 _atom_site_fract_z
 _atom_site_occupancy
  Nb  Nb0  1  0.000000  0.000000  0.000000  1
  Ag  Ag1  1  0.500000  0.500000  0.500000  1
  Ag  Ag2  1  0.831798  0.337106  0.677640  1
  Ag  Ag3  1  0.337106  0.677640  0.831798  1
  Ag  Ag4  1  0.677640  0.831798  0.337106  1
  Ag  Ag5  1  0.168202  0.662894  0.322360  1
  Ag  Ag6  1  0.662894  0.322360  0.168202  1
  Ag  Ag7  1  0.322360  0.168202  0.662894  1
  S  S8  1  0.968515  0.741915  0.602658  1
  S  S9  1  0.741915  0.602658  0.968515  1
  S  S10  1  0.602658  0.968515  0.741915  1
  S  S11  1  0.031485  0.258085  0.397342  1
  S  S12  1  0.258085  0.397342  0.031485  1
  S  S13  1  0.397342  0.031485  0.258085  1
  O  O14  1  0.459601  0.908504  0.173911  1
  O  O15  1  0.908504  0.173911  0.459601  1
  O  O16  1  0.173911  0.459601  0.908504  1
  O  O17  1  0.540399  0.091496  0.826089  1
  O  O18  1  0.091496  0.826089  0.540399  1
  O  O19  1  0.826089  0.540399  0.091496  1
  O  O20  1  0.320945  0.981077  0.371284  1
  O  O21  1  0.981077  0.371284  0.320945  1
  O  O22  1  0.371284  0.320945  0.981077  1
  O  O23  1  0.679055  0.018923  0.628716  1
  O  O24  1  0.018923  0.628716  0.679055  1
  O  O25  1  0.628716  0.679055  0.018923  1
  O  O26  1  0.755068  0.980512  0.901153  1
  O  O27  1  0.980512  0.901153  0.755068  1
  O  O28  1  0.647142  0.464399  0.778685  1
  O  O29  1  0.778685  0.647142  0.464399  1
  O  O30  1  0.464399  0.778685  0.647142  1
  O  O31  1  0.352858  0.535601  0.221315  1
  O  O32  1  0.221315  0.352858  0.535601  1
  O  O33  1  0.535601  0.221315  0.352858  1
  O  O34  1  0.098847  0.244932  0.019488  1
  O  O35  1  0.019488  0.098847  0.244932  1
  O  O36  1  0.244932  0.019488  0.098847  1
  O  O37  1  0.901153  0.755068  0.980512  1
