# generated using pymatgen
data_TlIrBr18
_symmetry_space_group_name_H-M   'P 1'
_cell_length_a   9.25285857
_cell_length_b   9.25285898
_cell_length_c   9.25285908
_cell_angle_alpha   93.65705252
_cell_angle_beta   93.65705020
_cell_angle_gamma   93.65704719
_symmetry_Int_Tables_number   1
_chemical_formula_structural   TlIrBr18
_chemical_formula_sum   'Tl1 Ir1 Br18'
_cell_volume   787.13104496
_cell_formula_units_Z   1
loop_
 _symmetry_equiv_pos_site_id
 _symmetry_equiv_pos_as_xyz
  1  'x, y, z'
loop_
 _atom_site_type_symbol
 _atom_site_label
 _atom_site_symmetry_multiplicity
 _atom_site_fract_x
 _atom_site_fract_y
 _atom_site_fract_z
 _atom_site_occupancy
  Tl  Tl0  1  0.000000  0.000000  0.000000  1
  Ir  Ir1  1  0.500000  0.500000  0.500000  1
  Br  Br2  1  0.694848  0.960121  0.027686  1
  Br  Br3  1  0.728164  0.134845  0.597932  1
  Br  Br4  1  0.027686  0.694848  0.960121  1
  Br  Br5  1  0.271836  0.865155  0.402068  1
  Br  Br6  1  0.134845  0.597932  0.728164  1
  Br  Br7  1  0.039879  0.972314  0.305152  1
  Br  Br8  1  0.597932  0.728164  0.134845  1
  Br  Br9  1  0.972314  0.305152  0.039879  1
  Br  Br10  1  0.865155  0.402068  0.271836  1
  Br  Br11  1  0.402068  0.271836  0.865155  1
  Br  Br12  1  0.960121  0.027686  0.694848  1
  Br  Br13  1  0.305152  0.039879  0.972314  1
  Br  Br14  1  0.770193  0.528246  0.500225  1
  Br  Br15  1  0.499775  0.229807  0.471754  1
  Br  Br16  1  0.471754  0.499775  0.229807  1
  Br  Br17  1  0.500225  0.770193  0.528246  1
  Br  Br18  1  0.528246  0.500225  0.770193  1
  Br  Br19  1  0.229807  0.471754  0.499775  1
