# generated using pymatgen
data_La12Bi(AuI4)3
_symmetry_space_group_name_H-M   'P 1'
_cell_length_a   11.21548201
_cell_length_b   11.21548212
_cell_length_c   11.21548145
_cell_angle_alpha   109.76733014
_cell_angle_beta   109.76733105
_cell_angle_gamma   109.76733887
_symmetry_Int_Tables_number   1
_chemical_formula_structural   La12Bi(AuI4)3
_chemical_formula_sum   'La12 Bi1 Au3 I12'
_cell_volume   1073.93411328
_cell_formula_units_Z   1
loop_
 _symmetry_equiv_pos_site_id
 _symmetry_equiv_pos_as_xyz
  1  'x, y, z'
loop_
 _atom_site_type_symbol
 _atom_site_label
 _atom_site_symmetry_multiplicity
 _atom_site_fract_x
 _atom_site_fract_y
 _atom_site_fract_z
 _atom_site_occupancy
  La  La0  1  0.483532  0.497526  0.235480  1
  La  La1  1  0.750000  0.232389  0.267611  1
  La  La2  1  0.750000  0.014853  0.485147  1
  La  La3  1  0.235480  0.483532  0.497526  1
  La  La4  1  0.267611  0.750000  0.232389  1
  La  La5  1  0.016468  0.264520  0.002474  1
  La  La6  1  0.002474  0.016468  0.264520  1
  La  La7  1  0.485147  0.750000  0.014853  1
  La  La8  1  0.497526  0.235480  0.483532  1
  La  La9  1  0.014853  0.485147  0.750000  1
  La  La10  1  0.264520  0.002474  0.016468  1
  La  La11  1  0.232389  0.267611  0.750000  1
  Bi  Bi12  1  0.250000  0.250000  0.250000  1
  Au  Au13  1  0.498711  0.001289  0.250000  1
  Au  Au14  1  0.001289  0.250000  0.498711  1
  Au  Au15  1  0.250000  0.498711  0.001289  1
  I  I16  1  0.250000  0.759169  0.740831  1
  I  I17  1  0.514802  0.506830  0.755770  1
  I  I18  1  0.985198  0.744230  0.993170  1
  I  I19  1  0.740831  0.250000  0.759169  1
  I  I20  1  0.993170  0.985198  0.744230  1
  I  I21  1  0.250000  0.992325  0.507675  1
  I  I22  1  0.755770  0.514802  0.506830  1
  I  I23  1  0.507675  0.250000  0.992325  1
  I  I24  1  0.759169  0.740831  0.250000  1
  I  I25  1  0.744230  0.993170  0.985198  1
  I  I26  1  0.992325  0.507675  0.250000  1
  I  I27  1  0.506830  0.755770  0.514802  1
