# generated using pymatgen
data_DyPaC2
_symmetry_space_group_name_H-M   'P 1'
_cell_length_a   6.20451211
_cell_length_b   6.20451285
_cell_length_c   6.20451193
_cell_angle_alpha   34.09231844
_cell_angle_beta   34.09230897
_cell_angle_gamma   34.09232329
_symmetry_Int_Tables_number   1
_chemical_formula_structural   DyPaC2
_chemical_formula_sum   'Dy1 Pa1 C2'
_cell_volume   66.90295550
_cell_formula_units_Z   1
loop_
 _symmetry_equiv_pos_site_id
 _symmetry_equiv_pos_as_xyz
  1  'x, y, z'
loop_
 _atom_site_type_symbol
 _atom_site_label
 _atom_site_symmetry_multiplicity
 _atom_site_fract_x
 _atom_site_fract_y
 _atom_site_fract_z
 _atom_site_occupancy
  Dy  Dy0  1  0.500000  0.500000  0.500000  1
  Pa  Pa1  1  0.000000  0.000000  0.000000  1
  C  C2  1  0.257953  0.257953  0.257953  1
  C  C3  1  0.742047  0.742047  0.742047  1
