# generated using pymatgen
data_Ta10Ga5AsC
_symmetry_space_group_name_H-M   'P 1'
_cell_length_a   7.71962444
_cell_length_b   7.72177806
_cell_length_c   5.30392092
_cell_angle_alpha   90.06749842
_cell_angle_beta   89.96623517
_cell_angle_gamma   120.00922695
_symmetry_Int_Tables_number   1
_chemical_formula_structural   Ta10Ga5AsC
_chemical_formula_sum   'Ta10 Ga5 As1 C1'
_cell_volume   273.77921280
_cell_formula_units_Z   1
loop_
 _symmetry_equiv_pos_site_id
 _symmetry_equiv_pos_as_xyz
  1  'x, y, z'
loop_
 _atom_site_type_symbol
 _atom_site_label
 _atom_site_symmetry_multiplicity
 _atom_site_fract_x
 _atom_site_fract_y
 _atom_site_fract_z
 _atom_site_occupancy
  Ta  Ta0  1  0.330764  0.664821  0.501146  1
  Ta  Ta1  1  0.669236  0.334056  0.501146  1
  Ta  Ta2  1  0.669500  0.333916  0.999403  1
  Ta  Ta3  1  0.330500  0.664417  0.999403  1
  Ta  Ta4  1  0.000000  0.768334  0.251492  1
  Ta  Ta5  1  0.234959  0.234315  0.251557  1
  Ta  Ta6  1  0.765041  0.999356  0.251557  1
  Ta  Ta7  1  0.000000  0.234186  0.749572  1
  Ta  Ta8  1  0.764760  0.764862  0.748797  1
  Ta  Ta9  1  0.235240  0.000102  0.748797  1
  Ga  Ga10  1  0.597028  0.597321  0.246032  1
  Ga  Ga11  1  0.402972  0.000293  0.246032  1
  Ga  Ga12  1  0.000000  0.601890  0.753011  1
  Ga  Ga13  1  0.403266  0.401493  0.754194  1
  Ga  Ga14  1  0.596734  0.998227  0.754194  1
  As  As15  1  0.000000  0.402360  0.242467  1
  C  C16  1  0.000000  0.000055  0.501197  1
