# generated using pymatgen
data_Lu4BeB7Ru10
_symmetry_space_group_name_H-M   'P 1'
_cell_length_a   3.06633100
_cell_length_b   8.67935635
_cell_length_c   10.21238130
_cell_angle_alpha   90.09724927
_cell_angle_beta   90.00000000
_cell_angle_gamma   90.00000000
_symmetry_Int_Tables_number   1
_chemical_formula_structural   Lu4BeB7Ru10
_chemical_formula_sum   'Lu4 Be1 B7 Ru10'
_cell_volume   271.78967204
_cell_formula_units_Z   1
loop_
 _symmetry_equiv_pos_site_id
 _symmetry_equiv_pos_as_xyz
  1  'x, y, z'
loop_
 _atom_site_type_symbol
 _atom_site_label
 _atom_site_symmetry_multiplicity
 _atom_site_fract_x
 _atom_site_fract_y
 _atom_site_fract_z
 _atom_site_occupancy
  Lu  Lu0  1  0.500000  0.841143  0.182898  1
  Lu  Lu1  1  0.500000  0.157415  0.818321  1
  Lu  Lu2  1  0.500000  0.657440  0.682301  1
  Lu  Lu3  1  0.500000  0.342116  0.320001  1
  Be  Be4  1  0.500000  0.964778  0.589997  1
  B  B5  1  0.500000  0.036423  0.407607  1
  B  B6  1  0.500000  0.852354  0.898231  1
  B  B7  1  0.500000  0.147497  0.100251  1
  B  B8  1  0.500000  0.650878  0.400201  1
  B  B9  1  0.500000  0.350077  0.598277  1
  B  B10  1  0.500000  0.466130  0.911051  1
  B  B11  1  0.500000  0.533716  0.088955  1
  Ru  Ru12  1  0.000000  0.655873  0.956215  1
  Ru  Ru13  1  0.000000  0.341374  0.045827  1
  Ru  Ru14  1  0.000000  0.840091  0.446581  1
  Ru  Ru15  1  0.000000  0.165465  0.543316  1
  Ru  Ru16  1  0.000000  0.000250  0.002541  1
  Ru  Ru17  1  0.000000  0.405439  0.760971  1
  Ru  Ru18  1  0.000000  0.592826  0.238479  1
  Ru  Ru19  1  0.000000  0.502186  0.499967  1
  Ru  Ru20  1  0.000000  0.900338  0.747922  1
  Ru  Ru21  1  0.000000  0.096188  0.260092  1
