# generated using pymatgen
data_Li2U2Co10As7
_symmetry_space_group_name_H-M   'P 1'
_cell_length_a   3.79542800
_cell_length_b   9.38758610
_cell_length_c   9.44033732
_cell_angle_alpha   120.04207213
_cell_angle_beta   90.00000000
_cell_angle_gamma   90.00000000
_symmetry_Int_Tables_number   1
_chemical_formula_structural   Li2U2Co10As7
_chemical_formula_sum   'Li2 U2 Co10 As7'
_cell_volume   291.17129689
_cell_formula_units_Z   1
loop_
 _symmetry_equiv_pos_site_id
 _symmetry_equiv_pos_as_xyz
  1  'x, y, z'
loop_
 _atom_site_type_symbol
 _atom_site_label
 _atom_site_symmetry_multiplicity
 _atom_site_fract_x
 _atom_site_fract_y
 _atom_site_fract_z
 _atom_site_occupancy
  Li  Li0  1  0.500000  0.789616  0.892348  1
  Li  Li1  1  0.500000  0.108375  0.216645  1
  U  U2  1  0.000000  0.667607  0.330015  1
  U  U3  1  0.500000  0.333693  0.667512  1
  Co  Co4  1  0.000000  0.556390  0.936010  1
  Co  Co5  1  0.000000  0.380665  0.440657  1
  Co  Co6  1  0.000000  0.056470  0.622936  1
  Co  Co7  1  0.500000  0.098531  0.882561  1
  Co  Co8  1  0.000000  0.875100  0.156330  1
  Co  Co9  1  0.000000  0.288039  0.124613  1
  Co  Co10  1  0.000000  0.847928  0.722212  1
  Co  Co11  1  0.500000  0.942141  0.384278  1
  Co  Co12  1  0.500000  0.433614  0.052406  1
  Co  Co13  1  0.500000  0.619669  0.568910  1
  As  As14  1  0.000000  0.006480  0.000781  1
  As  As15  1  0.500000  0.707243  0.106058  1
  As  As16  1  0.500000  0.405522  0.295546  1
  As  As17  1  0.500000  0.887956  0.599486  1
  As  As18  1  0.000000  0.595457  0.707962  1
  As  As19  1  0.000000  0.112388  0.408908  1
  As  As20  1  0.000000  0.287117  0.883826  1
