# generated using pymatgen
data_Ta6Al8IrOs3
_symmetry_space_group_name_H-M   'P 1'
_cell_length_a   8.89322750
_cell_length_b   8.88479717
_cell_length_c   8.21771300
_cell_angle_alpha   90.00000000
_cell_angle_beta   90.00000000
_cell_angle_gamma   120.48933899
_symmetry_Int_Tables_number   1
_chemical_formula_structural   Ta6Al8IrOs3
_chemical_formula_sum   'Ta12 Al16 Ir2 Os6'
_cell_volume   559.53320993
_cell_formula_units_Z   2
loop_
 _symmetry_equiv_pos_site_id
 _symmetry_equiv_pos_as_xyz
  1  'x, y, z'
loop_
 _atom_site_type_symbol
 _atom_site_label
 _atom_site_symmetry_multiplicity
 _atom_site_fract_x
 _atom_site_fract_y
 _atom_site_fract_z
 _atom_site_occupancy
  Ta  Ta0  1  0.335146  0.007812  0.064157  1
  Ta  Ta1  1  0.664854  0.992188  0.935843  1
  Ta  Ta2  1  0.998644  0.335425  0.060368  1
  Ta  Ta3  1  0.664854  0.992188  0.564157  1
  Ta  Ta4  1  0.998644  0.335425  0.439632  1
  Ta  Ta5  1  0.001356  0.664575  0.939632  1
  Ta  Ta6  1  0.335146  0.007812  0.435843  1
  Ta  Ta7  1  0.001356  0.664575  0.560368  1
  Ta  Ta8  1  0.664591  0.665158  0.065264  1
  Ta  Ta9  1  0.335409  0.334842  0.934736  1
  Ta  Ta10  1  0.335409  0.334842  0.565264  1
  Ta  Ta11  1  0.664591  0.665158  0.434736  1
  Al  Al12  1  0.334776  0.840731  0.750000  1
  Al  Al13  1  0.661898  0.504106  0.750000  1
  Al  Al14  1  0.665224  0.159269  0.250000  1
  Al  Al15  1  0.338102  0.495894  0.250000  1
  Al  Al16  1  0.828433  0.317236  0.750000  1
  Al  Al17  1  0.171567  0.682764  0.250000  1
  Al  Al18  1  0.336291  0.668075  0.501463  1
  Al  Al19  1  0.663709  0.331925  0.498537  1
  Al  Al20  1  0.663709  0.331925  0.001463  1
  Al  Al21  1  0.336291  0.668075  0.998537  1
  Al  Al22  1  0.171250  0.001532  0.750000  1
  Al  Al23  1  0.828750  0.998468  0.250000  1
  Al  Al24  1  0.004313  0.172009  0.750000  1
  Al  Al25  1  0.995687  0.827991  0.250000  1
  Al  Al26  1  0.832435  0.828508  0.750000  1
  Al  Al27  1  0.167565  0.171492  0.250000  1
  Ir  Ir28  1  0.000000  0.000000  0.500000  1
  Ir  Ir29  1  0.000000  0.000000  0.000000  1
  Os  Os30  1  0.157464  0.495732  0.750000  1
  Os  Os31  1  0.842536  0.504268  0.250000  1
  Os  Os32  1  0.505861  0.672026  0.750000  1
  Os  Os33  1  0.494899  0.167655  0.750000  1
  Os  Os34  1  0.494139  0.327974  0.250000  1
  Os  Os35  1  0.505101  0.832345  0.250000  1
