# generated using pymatgen
data_Nd4Ho4Re3B24Ru
_symmetry_space_group_name_H-M   'P 1'
_cell_length_a   3.72620600
_cell_length_b   9.24194636
_cell_length_c   11.69580913
_cell_angle_alpha   90.08502530
_cell_angle_beta   90.00000000
_cell_angle_gamma   90.00000000
_symmetry_Int_Tables_number   1
_chemical_formula_structural   Nd4Ho4Re3B24Ru
_chemical_formula_sum   'Nd4 Ho4 Re3 B24 Ru1'
_cell_volume   402.77276696
_cell_formula_units_Z   1
loop_
 _symmetry_equiv_pos_site_id
 _symmetry_equiv_pos_as_xyz
  1  'x, y, z'
loop_
 _atom_site_type_symbol
 _atom_site_label
 _atom_site_symmetry_multiplicity
 _atom_site_fract_x
 _atom_site_fract_y
 _atom_site_fract_z
 _atom_site_occupancy
  Nd  Nd0  1  0.000000  0.321814  0.414966  1
  Nd  Nd1  1  0.000000  0.677430  0.586693  1
  Nd  Nd2  1  0.000000  0.823982  0.084044  1
  Nd  Nd3  1  0.000000  0.177513  0.914129  1
  Ho  Ho4  1  0.000000  0.941605  0.368899  1
  Ho  Ho5  1  0.000000  0.056894  0.630234  1
  Ho  Ho6  1  0.000000  0.442577  0.131257  1
  Ho  Ho7  1  0.000000  0.557367  0.870075  1
  Re  Re8  1  0.000000  0.361645  0.679831  1
  Re  Re9  1  0.000000  0.138974  0.181368  1
  Re  Re10  1  0.000000  0.860823  0.819212  1
  B  B11  1  0.500000  0.555630  0.430162  1
  B  B12  1  0.500000  0.445200  0.569409  1
  B  B13  1  0.500000  0.055067  0.069216  1
  B  B14  1  0.500000  0.945383  0.930347  1
  B  B15  1  0.500000  0.748990  0.415281  1
  B  B16  1  0.500000  0.249988  0.584190  1
  B  B17  1  0.500000  0.250109  0.084454  1
  B  B18  1  0.500000  0.750719  0.915786  1
  B  B19  1  0.500000  0.789920  0.265652  1
  B  B20  1  0.500000  0.209074  0.734039  1
  B  B21  1  0.500000  0.290757  0.234684  1
  B  B22  1  0.500000  0.708825  0.765961  1
  B  B23  1  0.500000  0.629788  0.186351  1
  B  B24  1  0.500000  0.370739  0.813699  1
  B  B25  1  0.500000  0.129431  0.314527  1
  B  B26  1  0.500000  0.870225  0.685889  1
  B  B27  1  0.500000  0.984070  0.212919  1
  B  B28  1  0.500000  0.015988  0.786394  1
  B  B29  1  0.500000  0.485156  0.287271  1
  B  B30  1  0.500000  0.516590  0.713258  1
  B  B31  1  0.500000  0.597258  0.027388  1
  B  B32  1  0.500000  0.403059  0.973882  1
  B  B33  1  0.500000  0.096137  0.472934  1
  B  B34  1  0.500000  0.902041  0.526574  1
  Ru  Ru35  1  0.000000  0.639236  0.319029  1
