# generated using pymatgen
data_Tm2Lu2MnOs7
_symmetry_space_group_name_H-M   'P 1'
_cell_length_a   5.30597300
_cell_length_b   5.30558898
_cell_length_c   8.65459102
_cell_angle_alpha   90.00000266
_cell_angle_beta   90.00148404
_cell_angle_gamma   60.00239027
_symmetry_Int_Tables_number   1
_chemical_formula_structural   Tm2Lu2MnOs7
_chemical_formula_sum   'Tm2 Lu2 Mn1 Os7'
_cell_volume   211.00185804
_cell_formula_units_Z   1
loop_
 _symmetry_equiv_pos_site_id
 _symmetry_equiv_pos_as_xyz
  1  'x, y, z'
loop_
 _atom_site_type_symbol
 _atom_site_label
 _atom_site_symmetry_multiplicity
 _atom_site_fract_x
 _atom_site_fract_y
 _atom_site_fract_z
 _atom_site_occupancy
  Tm  Tm0  1  0.666664  0.666668  0.064409  1
  Tm  Tm1  1  0.333336  0.333332  0.935591  1
  Lu  Lu2  1  0.333347  0.333326  0.568549  1
  Lu  Lu3  1  0.666653  0.666674  0.431451  1
  Mn  Mn4  1  0.000000  0.000000  0.500000  1
  Os  Os5  1  0.000000  0.000000  0.000000  1
  Os  Os6  1  0.828620  0.342763  0.746015  1
  Os  Os7  1  0.342745  0.828627  0.746018  1
  Os  Os8  1  0.828620  0.828617  0.746015  1
  Os  Os9  1  0.171380  0.657237  0.253985  1
  Os  Os10  1  0.657255  0.171373  0.253982  1
  Os  Os11  1  0.171380  0.171383  0.253985  1
