# generated using pymatgen
data_DyMnFeB6
_symmetry_space_group_name_H-M   'P 1'
_cell_length_a   5.39179315
_cell_length_b   5.39179211
_cell_length_c   5.39179257
_cell_angle_alpha   146.28733329
_cell_angle_beta   109.60077161
_cell_angle_gamma   80.36937479
_symmetry_Int_Tables_number   1
_chemical_formula_structural   DyMnFeB6
_chemical_formula_sum   'Dy1 Mn1 Fe1 B6'
_cell_volume   80.06386726
_cell_formula_units_Z   1
loop_
 _symmetry_equiv_pos_site_id
 _symmetry_equiv_pos_as_xyz
  1  'x, y, z'
loop_
 _atom_site_type_symbol
 _atom_site_label
 _atom_site_symmetry_multiplicity
 _atom_site_fract_x
 _atom_site_fract_y
 _atom_site_fract_z
 _atom_site_occupancy
  Dy  Dy0  1  0.502512  0.002512  0.500000  1
  Mn  Mn1  1  0.844531  0.844531  0.000000  1
  Fe  Fe2  1  0.152182  0.152182  0.000000  1
  B  B3  1  0.858039  0.499973  0.358066  1
  B  B4  1  0.141908  0.499973  0.641934  1
  B  B5  1  0.962343  0.696676  0.265667  1
  B  B6  1  0.043669  0.303739  0.739930  1
  B  B7  1  0.563808  0.303739  0.260070  1
  B  B8  1  0.431008  0.696676  0.734333  1
