# generated using pymatgen
data_LaCe2Nd(Zn4Ru)2
_symmetry_space_group_name_H-M   'P 1'
_cell_length_a   7.24231100
_cell_length_b   7.24231100
_cell_length_c   5.19214100
_cell_angle_alpha   90.00000000
_cell_angle_beta   90.00000000
_cell_angle_gamma   90.00000000
_symmetry_Int_Tables_number   1
_chemical_formula_structural   LaCe2Nd(Zn4Ru)2
_chemical_formula_sum   'La1 Ce2 Nd1 Zn8 Ru2'
_cell_volume   272.33334388
_cell_formula_units_Z   1
loop_
 _symmetry_equiv_pos_site_id
 _symmetry_equiv_pos_as_xyz
  1  'x, y, z'
loop_
 _atom_site_type_symbol
 _atom_site_label
 _atom_site_symmetry_multiplicity
 _atom_site_fract_x
 _atom_site_fract_y
 _atom_site_fract_z
 _atom_site_occupancy
  La  La0  1  0.000000  0.500000  0.773976  1
  Ce  Ce1  1  0.000000  0.000000  0.999758  1
  Ce  Ce2  1  0.500000  0.500000  0.999758  1
  Nd  Nd3  1  0.500000  0.000000  0.223290  1
  Zn  Zn4  1  0.186687  0.686687  0.288783  1
  Zn  Zn5  1  0.813313  0.686687  0.288783  1
  Zn  Zn6  1  0.813313  0.313313  0.288783  1
  Zn  Zn7  1  0.315873  0.184127  0.710296  1
  Zn  Zn8  1  0.186687  0.313313  0.288783  1
  Zn  Zn9  1  0.684127  0.184127  0.710296  1
  Zn  Zn10  1  0.684127  0.815873  0.710296  1
  Zn  Zn11  1  0.315873  0.815873  0.710296  1
  Ru  Ru12  1  0.500000  0.500000  0.503451  1
  Ru  Ru13  1  0.000000  0.000000  0.503451  1
