# generated using pymatgen
data_TbY19(BiPb3)4
_symmetry_space_group_name_H-M   'P 1'
_cell_length_a   8.31752711
_cell_length_b   8.31408664
_cell_length_c   15.65936268
_cell_angle_alpha   90.00541298
_cell_angle_beta   89.89597999
_cell_angle_gamma   89.99976825
_symmetry_Int_Tables_number   1
_chemical_formula_structural   TbY19(BiPb3)4
_chemical_formula_sum   'Tb1 Y19 Bi4 Pb12'
_cell_volume   1082.88449564
_cell_formula_units_Z   1
loop_
 _symmetry_equiv_pos_site_id
 _symmetry_equiv_pos_as_xyz
  1  'x, y, z'
loop_
 _atom_site_type_symbol
 _atom_site_label
 _atom_site_symmetry_multiplicity
 _atom_site_fract_x
 _atom_site_fract_y
 _atom_site_fract_z
 _atom_site_occupancy
  Tb  Tb0  1  0.044691  0.169746  0.894462  1
  Y  Y1  1  0.388381  0.841527  0.878966  1
  Y  Y2  1  0.889315  0.658952  0.620739  1
  Y  Y3  1  0.610767  0.158647  0.379135  1
  Y  Y4  1  0.111484  0.341396  0.121198  1
  Y  Y5  1  0.616136  0.159687  0.120354  1
  Y  Y6  1  0.115500  0.339913  0.379821  1
  Y  Y7  1  0.384579  0.839977  0.620085  1
  Y  Y8  1  0.883922  0.659860  0.879576  1
  Y  Y9  1  0.560927  0.331956  0.892014  1
  Y  Y10  1  0.061887  0.167668  0.608102  1
  Y  Y11  1  0.438251  0.667625  0.391859  1
  Y  Y12  1  0.939172  0.831762  0.107961  1
  Y  Y13  1  0.454536  0.668893  0.105894  1
  Y  Y14  1  0.953390  0.831591  0.393825  1
  Y  Y15  1  0.546527  0.331695  0.606068  1
  Y  Y16  1  0.220509  0.501165  0.748001  1
  Y  Y17  1  0.720500  0.998890  0.751839  1
  Y  Y18  1  0.779502  0.498765  0.248109  1
  Y  Y19  1  0.279548  0.001051  0.251987  1
  Bi  Bi20  1  0.268608  0.019934  0.045958  1
  Bi  Bi21  1  0.767881  0.480703  0.454126  1
  Bi  Bi22  1  0.732219  0.980801  0.545764  1
  Bi  Bi23  1  0.231654  0.520233  0.954305  1
  Pb  Pb24  1  0.724198  0.973518  0.956152  1
  Pb  Pb25  1  0.225018  0.525134  0.543915  1
  Pb  Pb26  1  0.275065  0.025126  0.456031  1
  Pb  Pb27  1  0.775860  0.473647  0.043818  1
  Pb  Pb28  1  0.581995  0.631047  0.748678  1
  Pb  Pb29  1  0.082004  0.869180  0.751222  1
  Pb  Pb30  1  0.418117  0.368951  0.248862  1
  Pb  Pb31  1  0.918022  0.130863  0.251353  1
  Pb  Pb32  1  0.361637  0.149291  0.751421  1
  Pb  Pb33  1  0.861538  0.350939  0.748275  1
  Pb  Pb34  1  0.638375  0.850605  0.251494  1
  Pb  Pb35  1  0.138285  0.649265  0.248631  1
