# generated using pymatgen
data_Y2Mn14(SiC)3
_symmetry_space_group_name_H-M   'P 1'
_cell_length_a   6.42385696
_cell_length_b   6.42385786
_cell_length_c   6.42385755
_cell_angle_alpha   82.92086936
_cell_angle_beta   82.92086789
_cell_angle_gamma   82.92086654
_symmetry_Int_Tables_number   1
_chemical_formula_structural   Y2Mn14(SiC)3
_chemical_formula_sum   'Y2 Mn14 Si3 C3'
_cell_volume   259.48428764
_cell_formula_units_Z   1
loop_
 _symmetry_equiv_pos_site_id
 _symmetry_equiv_pos_as_xyz
  1  'x, y, z'
loop_
 _atom_site_type_symbol
 _atom_site_label
 _atom_site_symmetry_multiplicity
 _atom_site_fract_x
 _atom_site_fract_y
 _atom_site_fract_z
 _atom_site_occupancy
  Y  Y0  1  0.652775  0.652775  0.652775  1
  Y  Y1  1  0.347225  0.347225  0.347225  1
  Mn  Mn2  1  0.723628  0.276372  0.000000  1
  Mn  Mn3  1  0.000000  0.723628  0.276372  1
  Mn  Mn4  1  0.276372  0.000000  0.723628  1
  Mn  Mn5  1  0.000000  0.276372  0.723628  1
  Mn  Mn6  1  0.723628  0.000000  0.276372  1
  Mn  Mn7  1  0.276372  0.723628  0.000000  1
  Mn  Mn8  1  0.343811  0.343811  0.859792  1
  Mn  Mn9  1  0.859792  0.343811  0.343811  1
  Mn  Mn10  1  0.343811  0.859792  0.343811  1
  Mn  Mn11  1  0.656189  0.656189  0.140208  1
  Mn  Mn12  1  0.140208  0.656189  0.656189  1
  Mn  Mn13  1  0.656189  0.140208  0.656189  1
  Mn  Mn14  1  0.904890  0.904890  0.904890  1
  Mn  Mn15  1  0.095110  0.095110  0.095110  1
  Si  Si16  1  0.000000  0.000000  0.500000  1
  Si  Si17  1  0.500000  0.000000  0.000000  1
  Si  Si18  1  0.000000  0.500000  0.000000  1
  C  C19  1  0.500000  0.500000  0.000000  1
  C  C20  1  0.000000  0.500000  0.500000  1
  C  C21  1  0.500000  0.000000  0.500000  1
