# generated using pymatgen
data_CeNdTiCo16
_symmetry_space_group_name_H-M   'P 1'
_cell_length_a   6.33980600
_cell_length_b   6.33980646
_cell_length_c   6.33980564
_cell_angle_alpha   82.82466510
_cell_angle_beta   82.82467045
_cell_angle_gamma   82.82466705
_symmetry_Int_Tables_number   1
_chemical_formula_structural   CeNdTiCo16
_chemical_formula_sum   'Ce1 Nd1 Ti1 Co16'
_cell_volume   249.29005350
_cell_formula_units_Z   1
loop_
 _symmetry_equiv_pos_site_id
 _symmetry_equiv_pos_as_xyz
  1  'x, y, z'
loop_
 _atom_site_type_symbol
 _atom_site_label
 _atom_site_symmetry_multiplicity
 _atom_site_fract_x
 _atom_site_fract_y
 _atom_site_fract_z
 _atom_site_occupancy
  Ce  Ce0  1  0.653898  0.653898  0.653898  1
  Nd  Nd1  1  0.350441  0.350441  0.350441  1
  Ti  Ti2  1  0.092396  0.092396  0.092396  1
  Co  Co3  1  0.291286  0.710286  0.996160  1
  Co  Co4  1  0.710286  0.996160  0.291286  1
  Co  Co5  1  0.996160  0.291286  0.710286  1
  Co  Co6  1  0.291286  0.996160  0.710286  1
  Co  Co7  1  0.996160  0.710286  0.291286  1
  Co  Co8  1  0.710286  0.291286  0.996160  1
  Co  Co9  1  0.000616  0.000616  0.504495  1
  Co  Co10  1  0.000616  0.504495  0.000616  1
  Co  Co11  1  0.504495  0.000616  0.000616  1
  Co  Co12  1  0.347472  0.347472  0.848164  1
  Co  Co13  1  0.347472  0.848164  0.347472  1
  Co  Co14  1  0.848164  0.347472  0.347472  1
  Co  Co15  1  0.657271  0.657271  0.143925  1
  Co  Co16  1  0.657271  0.143925  0.657271  1
  Co  Co17  1  0.143925  0.657271  0.657271  1
  Co  Co18  1  0.900496  0.900496  0.900496  1
