# generated using pymatgen
data_RbDy10(C2Br9)2
_symmetry_space_group_name_H-M   'P 1'
_cell_length_a   10.67210883
_cell_length_b   10.75828704
_cell_length_c   10.89162570
_cell_angle_alpha   113.35489453
_cell_angle_beta   87.49353263
_cell_angle_gamma   118.79299129
_symmetry_Int_Tables_number   1
_chemical_formula_structural   RbDy10(C2Br9)2
_chemical_formula_sum   'Rb1 Dy10 C4 Br18'
_cell_volume   989.12747882
_cell_formula_units_Z   1
loop_
 _symmetry_equiv_pos_site_id
 _symmetry_equiv_pos_as_xyz
  1  'x, y, z'
loop_
 _atom_site_type_symbol
 _atom_site_label
 _atom_site_symmetry_multiplicity
 _atom_site_fract_x
 _atom_site_fract_y
 _atom_site_fract_z
 _atom_site_occupancy
  Rb  Rb0  1  0.500000  0.000000  0.500000  1
  Dy  Dy1  1  0.663020  0.717763  0.702941  1
  Dy  Dy2  1  0.282342  0.363576  0.011629  1
  Dy  Dy3  1  0.092766  0.405849  0.300043  1
  Dy  Dy4  1  0.959622  0.035476  0.332267  1
  Dy  Dy5  1  0.907234  0.594151  0.699957  1
  Dy  Dy6  1  0.111973  0.941678  0.001097  1
  Dy  Dy7  1  0.040378  0.964524  0.667733  1
  Dy  Dy8  1  0.336980  0.282237  0.297059  1
  Dy  Dy9  1  0.717658  0.636424  0.988371  1
  Dy  Dy10  1  0.888027  0.058322  0.998903  1
  C  C11  1  0.156821  0.227254  0.123017  1
  C  C12  1  0.843179  0.772746  0.876983  1
  C  C13  1  0.922326  0.852197  0.796515  1
  C  C14  1  0.077674  0.147803  0.203485  1
  Br  Br15  1  0.451203  0.530919  0.833037  1
  Br  Br16  1  0.384471  0.039528  0.159632  1
  Br  Br17  1  0.777079  0.857456  0.501943  1
  Br  Br18  1  0.837380  0.311548  0.154189  1
  Br  Br19  1  0.548797  0.469081  0.166963  1
  Br  Br20  1  0.222921  0.142544  0.498057  1
  Br  Br21  1  0.315769  0.098442  0.828553  1
  Br  Br22  1  0.684231  0.901558  0.171447  1
  Br  Br23  1  0.974528  0.759504  0.172107  1
  Br  Br24  1  0.932917  0.301282  0.500619  1
  Br  Br25  1  0.025472  0.240496  0.827893  1
  Br  Br26  1  0.067083  0.698718  0.499381  1
  Br  Br27  1  0.261173  0.623512  0.187218  1
  Br  Br28  1  0.738827  0.376488  0.812782  1
  Br  Br29  1  0.639751  0.433872  0.500353  1
  Br  Br30  1  0.162620  0.688452  0.845811  1
  Br  Br31  1  0.615529  0.960472  0.840368  1
  Br  Br32  1  0.360249  0.566128  0.499647  1
