# generated using pymatgen
data_Hf2TiMo3
_symmetry_space_group_name_H-M   'P 1'
_cell_length_a   5.31151978
_cell_length_b   5.40837793
_cell_length_c   5.31152000
_cell_angle_alpha   60.59067325
_cell_angle_beta   59.99999864
_cell_angle_gamma   60.59068071
_symmetry_Int_Tables_number   1
_chemical_formula_structural   Hf2TiMo3
_chemical_formula_sum   'Hf2 Ti1 Mo3'
_cell_volume   108.84535855
_cell_formula_units_Z   1
loop_
 _symmetry_equiv_pos_site_id
 _symmetry_equiv_pos_as_xyz
  1  'x, y, z'
loop_
 _atom_site_type_symbol
 _atom_site_label
 _atom_site_symmetry_multiplicity
 _atom_site_fract_x
 _atom_site_fract_y
 _atom_site_fract_z
 _atom_site_occupancy
  Hf  Hf0  1  0.500414  0.498758  0.500414  1
  Hf  Hf1  1  0.749586  0.751242  0.749586  1
  Ti  Ti2  1  0.125000  0.625000  0.125000  1
  Mo  Mo3  1  0.125000  0.125000  0.125000  1
  Mo  Mo4  1  0.625000  0.125000  0.125000  1
  Mo  Mo5  1  0.125000  0.125000  0.625000  1
