# generated using pymatgen
data_Th3Ag(Pd3Pt)3
_symmetry_space_group_name_H-M   'P 1'
_cell_length_a   7.21223586
_cell_length_b   7.21223622
_cell_length_c   7.20261900
_cell_angle_alpha   109.63164355
_cell_angle_beta   109.63162772
_cell_angle_gamma   109.20522537
_symmetry_Int_Tables_number   1
_chemical_formula_structural   Th3Ag(Pd3Pt)3
_chemical_formula_sum   'Th3 Ag1 Pd9 Pt3'
_cell_volume   288.20941198
_cell_formula_units_Z   1
loop_
 _symmetry_equiv_pos_site_id
 _symmetry_equiv_pos_as_xyz
  1  'x, y, z'
loop_
 _atom_site_type_symbol
 _atom_site_label
 _atom_site_symmetry_multiplicity
 _atom_site_fract_x
 _atom_site_fract_y
 _atom_site_fract_z
 _atom_site_occupancy
  Th  Th0  1  0.250000  0.250324  0.500325  1
  Th  Th1  1  0.749676  0.750000  0.499675  1
  Th  Th2  1  0.250714  0.749286  0.000000  1
  Ag  Ag3  1  0.750573  0.249427  0.000000  1
  Pd  Pd4  1  0.502830  0.249989  0.247782  1
  Pd  Pd5  1  0.502284  0.754793  0.750613  1
  Pd  Pd6  1  0.995821  0.248328  0.750613  1
  Pd  Pd7  1  0.255047  0.002208  0.752218  1
  Pd  Pd8  1  0.997792  0.744953  0.247782  1
  Pd  Pd9  1  0.751672  0.004179  0.249387  1
  Pd  Pd10  1  0.245207  0.497716  0.249387  1
  Pd  Pd11  1  0.750011  0.497170  0.752218  1
  Pd  Pd12  1  0.997579  0.002421  0.000000  1
  Pt  Pt13  1  0.501804  0.002466  0.504269  1
  Pt  Pt14  1  0.997534  0.498196  0.495731  1
  Pt  Pt15  1  0.501457  0.498543  0.000000  1
