# generated using pymatgen
data_ErCo3ReP3Rh
_symmetry_space_group_name_H-M   'P 1'
_cell_length_a   3.76040600
_cell_length_b   10.43871200
_cell_length_c   12.01016400
_cell_angle_alpha   90.00000000
_cell_angle_beta   90.00000000
_cell_angle_gamma   90.00000000
_symmetry_Int_Tables_number   1
_chemical_formula_structural   ErCo3ReP3Rh
_chemical_formula_sum   'Er4 Co12 Re4 P12 Rh4'
_cell_volume   471.44451842
_cell_formula_units_Z   4
loop_
 _symmetry_equiv_pos_site_id
 _symmetry_equiv_pos_as_xyz
  1  'x, y, z'
loop_
 _atom_site_type_symbol
 _atom_site_label
 _atom_site_symmetry_multiplicity
 _atom_site_fract_x
 _atom_site_fract_y
 _atom_site_fract_z
 _atom_site_occupancy
  Er  Er0  1  0.250000  0.584669  0.710419  1
  Er  Er1  1  0.250000  0.915331  0.210419  1
  Er  Er2  1  0.750000  0.415331  0.289581  1
  Er  Er3  1  0.750000  0.084669  0.789581  1
  Co  Co4  1  0.250000  0.223909  0.177256  1
  Co  Co5  1  0.250000  0.276091  0.677256  1
  Co  Co6  1  0.750000  0.776091  0.822744  1
  Co  Co7  1  0.750000  0.723909  0.322744  1
  Co  Co8  1  0.250000  0.884054  0.698141  1
  Co  Co9  1  0.250000  0.615946  0.198141  1
  Co  Co10  1  0.750000  0.115946  0.301859  1
  Co  Co11  1  0.750000  0.384054  0.801859  1
  Co  Co12  1  0.250000  0.463307  0.934596  1
  Co  Co13  1  0.250000  0.036693  0.434596  1
  Co  Co14  1  0.750000  0.536693  0.065404  1
  Co  Co15  1  0.750000  0.963307  0.565404  1
  Re  Re16  1  0.250000  0.706067  0.985450  1
  Re  Re17  1  0.250000  0.793933  0.485450  1
  Re  Re18  1  0.750000  0.293933  0.014550  1
  Re  Re19  1  0.750000  0.206067  0.514550  1
  P  P20  1  0.250000  0.420959  0.113054  1
  P  P21  1  0.250000  0.079041  0.613054  1
  P  P22  1  0.750000  0.579041  0.886946  1
  P  P23  1  0.750000  0.920959  0.386946  1
  P  P24  1  0.250000  0.274083  0.861636  1
  P  P25  1  0.250000  0.225917  0.361636  1
  P  P26  1  0.750000  0.725917  0.138364  1
  P  P27  1  0.750000  0.774083  0.638364  1
  P  P28  1  0.250000  0.603437  0.381287  1
  P  P29  1  0.250000  0.896563  0.881287  1
  P  P30  1  0.750000  0.396563  0.618713  1
  P  P31  1  0.750000  0.103437  0.118713  1
  Rh  Rh32  1  0.250000  0.403982  0.481515  1
  Rh  Rh33  1  0.250000  0.096018  0.981515  1
  Rh  Rh34  1  0.750000  0.596018  0.518485  1
  Rh  Rh35  1  0.750000  0.903982  0.018485  1
