# generated using pymatgen
data_Eu4YHo3(BO4)4
_symmetry_space_group_name_H-M   'P 1'
_cell_length_a   3.65591500
_cell_length_b   9.68887820
_cell_length_c   10.91296947
_cell_angle_alpha   90.07718586
_cell_angle_beta   90.00000000
_cell_angle_gamma   90.00000000
_symmetry_Int_Tables_number   1
_chemical_formula_structural   Eu4YHo3(BO4)4
_chemical_formula_sum   'Eu4 Y1 Ho3 B4 O16'
_cell_volume   386.55574530
_cell_formula_units_Z   1
loop_
 _symmetry_equiv_pos_site_id
 _symmetry_equiv_pos_as_xyz
  1  'x, y, z'
loop_
 _atom_site_type_symbol
 _atom_site_label
 _atom_site_symmetry_multiplicity
 _atom_site_fract_x
 _atom_site_fract_y
 _atom_site_fract_z
 _atom_site_occupancy
  Eu  Eu0  1  0.250000  0.656464  0.081619  1
  Eu  Eu1  1  0.750000  0.343381  0.919169  1
  Eu  Eu2  1  0.750000  0.155881  0.418214  1
  Eu  Eu3  1  0.250000  0.844360  0.581488  1
  Y  Y4  1  0.250000  0.417160  0.610598  1
  Ho  Ho5  1  0.250000  0.082962  0.110295  1
  Ho  Ho6  1  0.750000  0.916703  0.889867  1
  Ho  Ho7  1  0.750000  0.583320  0.388987  1
  B  B8  1  0.250000  0.363376  0.206789  1
  B  B9  1  0.750000  0.636766  0.793596  1
  B  B10  1  0.750000  0.864100  0.293015  1
  B  B11  1  0.250000  0.135469  0.707274  1
  O  O12  1  0.250000  0.491276  0.263829  1
  O  O13  1  0.750000  0.508677  0.736814  1
  O  O14  1  0.750000  0.991642  0.235363  1
  O  O15  1  0.250000  0.007943  0.764728  1
  O  O16  1  0.250000  0.240375  0.272951  1
  O  O17  1  0.750000  0.759373  0.727086  1
  O  O18  1  0.750000  0.740924  0.226997  1
  O  O19  1  0.250000  0.258446  0.773609  1
  O  O20  1  0.250000  0.354969  0.078409  1
  O  O21  1  0.750000  0.645408  0.921915  1
  O  O22  1  0.750000  0.856325  0.421371  1
  O  O23  1  0.250000  0.143416  0.578828  1
  O  O24  1  0.250000  0.615265  0.501061  1
  O  O25  1  0.750000  0.386205  0.495887  1
  O  O26  1  0.750000  0.113576  0.997662  1
  O  O27  1  0.250000  0.886239  0.002581  1
